MODEL 1
REMARK VINA RESULT:    -3.454      0.000      0.000
REMARK INTER + INTRA:          -8.037
REMARK INTER:                  -6.281
REMARK INTRA:                  -1.756
REMARK UNBOUND:                -1.756
REMARK SMILES CCCCCCCCCCCCCCCC(=O)[O-]
REMARK SMILES IDX 9 1 10 2 11 3 12 4 13 5 14 6 15 7 16 8 17 9 18 10 8 11 7 12
REMARK SMILES IDX 6 13 5 14 4 15 3 16 2 17 1 18
REMARK H PARENT
REMARK Flexibility Score: inf
ROOT
ATOM      1  C   UNL     1      35.813   4.288  -7.587  1.00  0.00     0.000 C 
ENDROOT
BRANCH   1   2
ATOM      2  C   UNL     1      37.094   5.078  -7.244  1.00  0.00     0.000 C 
BRANCH   2   3
ATOM      3  C   UNL     1      38.153   4.971  -8.354  1.00  0.00     0.000 C 
BRANCH   3   4
ATOM      4  C   UNL     1      39.520   4.512  -7.823  1.00  0.00     0.000 C 
BRANCH   4   5
ATOM      5  C   UNL     1      39.393   3.513  -6.659  1.00  0.00     0.000 C 
BRANCH   5   6
ATOM      6  C   UNL     1      39.461   2.051  -7.127  1.00  0.00     0.006 C 
BRANCH   6   7
ATOM      7  C   UNL     1      40.153   1.137  -6.107  1.00  0.00     0.053 C 
BRANCH   7   8
ATOM      8  C   UNL     1      41.639   1.234  -6.244  1.00  0.00     0.041 C 
ATOM      9  O   UNL     1      42.182   1.104  -7.373  1.00  0.00    -0.550 OA
ATOM     10  O   UNL     1      42.423   1.518  -5.133  1.00  0.00    -0.550 OA
ENDBRANCH   7   8
ENDBRANCH   6   7
ENDBRANCH   5   6
ENDBRANCH   4   5
ENDBRANCH   3   4
ENDBRANCH   2   3
ENDBRANCH   1   2
BRANCH   1  11
ATOM     11  C   UNL     1      36.041   3.155  -8.603  1.00  0.00     0.000 C 
BRANCH  11  12
ATOM     12  C   UNL     1      35.930   1.758  -7.975  1.00  0.00    -0.000 C 
BRANCH  12  13
ATOM     13  C   UNL     1      36.172   0.664  -9.022  1.00  0.00    -0.000 C 
BRANCH  13  14
ATOM     14  C   UNL     1      36.883  -0.544  -8.399  1.00  0.00    -0.000 C 
BRANCH  14  15
ATOM     15  C   UNL     1      36.790  -0.507  -6.866  1.00  0.00    -0.000 C 
BRANCH  15  16
ATOM     16  C   UNL     1      36.707  -1.910  -6.244  1.00  0.00    -0.000 C 
BRANCH  16  17
ATOM     17  C   UNL     1      35.263  -2.416  -6.115  1.00  0.00    -0.003 C 
ATOM     18  C   UNL     1      34.572  -1.801  -4.901  1.00  0.00     0.004 C 
ENDBRANCH  16  17
ENDBRANCH  15  16
ENDBRANCH  14  15
ENDBRANCH  13  14
ENDBRANCH  12  13
ENDBRANCH  11  12
ENDBRANCH   1  11
TORSDOF 14
ENDMDL
MODEL 2
REMARK VINA RESULT:    -3.424      2.255      5.413
REMARK INTER + INTRA:          -7.981
REMARK INTER:                  -5.852
REMARK INTRA:                  -2.130
REMARK UNBOUND:                -1.756
REMARK SMILES CCCCCCCCCCCCCCCC(=O)[O-]
REMARK SMILES IDX 9 1 10 2 11 3 12 4 13 5 14 6 15 7 16 8 17 9 18 10 8 11 7 12
REMARK SMILES IDX 6 13 5 14 4 15 3 16 2 17 1 18
REMARK H PARENT
REMARK Flexibility Score: inf
ROOT
ATOM      1  C   UNL     1      37.140   5.204  -8.399  1.00  0.00     0.000 C 
ENDROOT
BRANCH   1   2
ATOM      2  C   UNL     1      36.439   3.950  -8.961  1.00  0.00     0.000 C 
BRANCH   2   3
ATOM      3  C   UNL     1      35.706   3.157  -7.865  1.00  0.00     0.000 C 
BRANCH   3   4
ATOM      4  C   UNL     1      35.867   1.637  -8.029  1.00  0.00     0.000 C 
BRANCH   4   5
ATOM      5  C   UNL     1      37.233   1.252  -8.624  1.00  0.00     0.000 C 
BRANCH   5   6
ATOM      6  C   UNL     1      38.237   0.801  -7.551  1.00  0.00     0.006 C 
BRANCH   6   7
ATOM      7  C   UNL     1      39.407   1.781  -7.391  1.00  0.00     0.053 C 
BRANCH   7   8
ATOM      8  C   UNL     1      40.096   1.561  -6.081  1.00  0.00     0.041 C 
ATOM      9  O   UNL     1      40.008   0.449  -5.497  1.00  0.00    -0.550 OA
ATOM     10  O   UNL     1      40.875   2.569  -5.528  1.00  0.00    -0.550 OA
ENDBRANCH   7   8
ENDBRANCH   6   7
ENDBRANCH   5   6
ENDBRANCH   4   5
ENDBRANCH   3   4
ENDBRANCH   2   3
ENDBRANCH   1   2
BRANCH   1  11
ATOM     11  C   UNL     1      37.225   5.226  -6.862  1.00  0.00     0.000 C 
BRANCH  11  12
ATOM     12  C   UNL     1      36.463   6.403  -6.238  1.00  0.00    -0.000 C 
BRANCH  12  13
ATOM     13  C   UNL     1      35.281   5.908  -5.396  1.00  0.00    -0.000 C 
BRANCH  13  14
ATOM     14  C   UNL     1      33.958   6.488  -5.910  1.00  0.00    -0.000 C 
BRANCH  14  15
ATOM     15  C   UNL     1      33.154   5.428  -6.678  1.00  0.00    -0.000 C 
BRANCH  15  16
ATOM     16  C   UNL     1      32.448   6.003  -7.916  1.00  0.00    -0.000 C 
BRANCH  16  17
ATOM     17  C   UNL     1      33.269   5.826  -9.201  1.00  0.00    -0.003 C 
ATOM     18  C   UNL     1      34.026   7.105  -9.550  1.00  0.00     0.004 C 
ENDBRANCH  16  17
ENDBRANCH  15  16
ENDBRANCH  14  15
ENDBRANCH  13  14
ENDBRANCH  12  13
ENDBRANCH  11  12
ENDBRANCH   1  11
TORSDOF 14
ENDMDL
MODEL 3
REMARK VINA RESULT:    -3.348      5.885      8.474
REMARK INTER + INTRA:          -7.844
REMARK INTER:                  -5.872
REMARK INTRA:                  -1.972
REMARK UNBOUND:                -1.756
REMARK SMILES CCCCCCCCCCCCCCCC(=O)[O-]
REMARK SMILES IDX 9 1 10 2 11 3 12 4 13 5 14 6 15 7 16 8 17 9 18 10 8 11 7 12
REMARK SMILES IDX 6 13 5 14 4 15 3 16 2 17 1 18
REMARK H PARENT
REMARK Flexibility Score: inf
ROOT
ATOM      1  C   UNL     1      30.732   7.370  -6.811  1.00  0.00     0.000 C 
ENDROOT
BRANCH   1   2
ATOM      2  C   UNL     1      31.516   6.115  -7.251  1.00  0.00     0.000 C 
BRANCH   2   3
ATOM      3  C   UNL     1      33.000   6.191  -6.850  1.00  0.00     0.000 C 
BRANCH   3   4
ATOM      4  C   UNL     1      33.551   4.839  -6.373  1.00  0.00     0.000 C 
BRANCH   4   5
ATOM      5  C   UNL     1      34.973   4.565  -6.896  1.00  0.00     0.000 C 
BRANCH   5   6
ATOM      6  C   UNL     1      35.621   5.811  -7.520  1.00  0.00     0.006 C 
BRANCH   6   7
ATOM      7  C   UNL     1      36.813   6.326  -6.703  1.00  0.00     0.053 C 
BRANCH   7   8
ATOM      8  C   UNL     1      36.379   7.420  -5.780  1.00  0.00     0.041 C 
ATOM      9  O   UNL     1      35.867   7.143  -4.664  1.00  0.00    -0.550 OA
ATOM     10  O   UNL     1      36.587   8.748  -6.131  1.00  0.00    -0.550 OA
ENDBRANCH   7   8
ENDBRANCH   6   7
ENDBRANCH   5   6
ENDBRANCH   4   5
ENDBRANCH   3   4
ENDBRANCH   2   3
ENDBRANCH   1   2
BRANCH   1  11
ATOM     11  C   UNL     1      29.251   7.347  -7.226  1.00  0.00     0.000 C 
BRANCH  11  12
ATOM     12  C   UNL     1      28.926   8.354  -8.339  1.00  0.00    -0.000 C 
BRANCH  12  13
ATOM     13  C   UNL     1      28.425   7.638  -9.599  1.00  0.00    -0.000 C 
BRANCH  13  14
ATOM     14  C   UNL     1      29.597   7.203 -10.487  1.00  0.00    -0.000 C 
BRANCH  14  15
ATOM     15  C   UNL     1      30.746   8.221 -10.418  1.00  0.00    -0.000 C 
BRANCH  15  16
ATOM     16  C   UNL     1      32.118   7.582 -10.683  1.00  0.00    -0.000 C 
BRANCH  16  17
ATOM     17  C   UNL     1      32.025   6.077 -10.975  1.00  0.00    -0.003 C 
ATOM     18  C   UNL     1      33.261   5.342 -10.467  1.00  0.00     0.004 C 
ENDBRANCH  16  17
ENDBRANCH  15  16
ENDBRANCH  14  15
ENDBRANCH  13  14
ENDBRANCH  12  13
ENDBRANCH  11  12
ENDBRANCH   1  11
TORSDOF 14
ENDMDL
MODEL 4
REMARK VINA RESULT:    -3.306      3.106      4.636
REMARK INTER + INTRA:          -7.767
REMARK INTER:                  -6.318
REMARK INTRA:                  -1.449
REMARK UNBOUND:                -1.756
REMARK SMILES CCCCCCCCCCCCCCCC(=O)[O-]
REMARK SMILES IDX 9 1 10 2 11 3 12 4 13 5 14 6 15 7 16 8 17 9 18 10 8 11 7 12
REMARK SMILES IDX 6 13 5 14 4 15 3 16 2 17 1 18
REMARK H PARENT
REMARK Flexibility Score: inf
ROOT
ATOM      1  C   UNL     1      39.807   2.851  -8.034  1.00  0.00     0.000 C 
ENDROOT
BRANCH   1   2
ATOM      2  C   UNL     1      39.623   3.844  -6.867  1.00  0.00     0.000 C 
BRANCH   2   3
ATOM      3  C   UNL     1      38.280   4.590  -6.950  1.00  0.00     0.000 C 
BRANCH   3   4
ATOM      4  C   UNL     1      37.466   4.202  -8.194  1.00  0.00     0.000 C 
BRANCH   4   5
ATOM      5  C   UNL     1      35.990   3.915  -7.865  1.00  0.00     0.000 C 
BRANCH   5   6
ATOM      6  C   UNL     1      35.183   5.198  -7.609  1.00  0.00     0.006 C 
BRANCH   6   7
ATOM      7  C   UNL     1      34.082   5.001  -6.558  1.00  0.00     0.053 C 
BRANCH   7   8
ATOM      8  C   UNL     1      34.634   5.196  -5.182  1.00  0.00     0.041 C 
ATOM      9  O   UNL     1      34.220   4.488  -4.226  1.00  0.00    -0.550 OA
ATOM     10  O   UNL     1      35.643   6.126  -4.963  1.00  0.00    -0.550 OA
ENDBRANCH   7   8
ENDBRANCH   6   7
ENDBRANCH   5   6
ENDBRANCH   4   5
ENDBRANCH   3   4
ENDBRANCH   2   3
ENDBRANCH   1   2
BRANCH   1  11
ATOM     11  C   UNL     1      40.208   1.436  -7.581  1.00  0.00     0.000 C 
BRANCH  11  12
ATOM     12  C   UNL     1      39.006   0.577  -7.165  1.00  0.00    -0.000 C 
BRANCH  12  13
ATOM     13  C   UNL     1      38.028   0.397  -8.332  1.00  0.00    -0.000 C 
BRANCH  13  14
ATOM     14  C   UNL     1      36.576   0.544  -7.860  1.00  0.00    -0.000 C 
BRANCH  14  15
ATOM     15  C   UNL     1      36.194  -0.590  -6.896  1.00  0.00    -0.000 C 
BRANCH  15  16
ATOM     16  C   UNL     1      36.336  -1.981  -7.534  1.00  0.00    -0.000 C 
BRANCH  16  17
ATOM     17  C   UNL     1      35.617  -3.076  -6.732  1.00  0.00    -0.003 C 
ATOM     18  C   UNL     1      34.966  -2.500  -5.478  1.00  0.00     0.004 C 
ENDBRANCH  16  17
ENDBRANCH  15  16
ENDBRANCH  14  15
ENDBRANCH  13  14
ENDBRANCH  12  13
ENDBRANCH  11  12
ENDBRANCH   1  11
TORSDOF 14
ENDMDL
MODEL 5
REMARK VINA RESULT:    -3.224      3.407      6.326
REMARK INTER + INTRA:          -7.618
REMARK INTER:                  -5.812
REMARK INTRA:                  -1.806
REMARK UNBOUND:                -1.756
REMARK SMILES CCCCCCCCCCCCCCCC(=O)[O-]
REMARK SMILES IDX 9 1 10 2 11 3 12 4 13 5 14 6 15 7 16 8 17 9 18 10 8 11 7 12
REMARK SMILES IDX 6 13 5 14 4 15 3 16 2 17 1 18
REMARK H PARENT
REMARK Flexibility Score: inf
ROOT
ATOM      1  C   UNL     1      34.851   5.170  -5.107  1.00  0.00     0.000 C 
ENDROOT
BRANCH   1   2
ATOM      2  C   UNL     1      34.079   4.781  -6.386  1.00  0.00     0.000 C 
BRANCH   2   3
ATOM      3  C   UNL     1      34.981   4.799  -7.633  1.00  0.00     0.000 C 
BRANCH   3   4
ATOM      4  C   UNL     1      36.315   4.070  -7.406  1.00  0.00     0.000 C 
BRANCH   4   5
ATOM      5  C   UNL     1      37.529   5.003  -7.569  1.00  0.00     0.000 C 
BRANCH   5   6
ATOM      6  C   UNL     1      38.832   4.369  -7.055  1.00  0.00     0.006 C 
BRANCH   6   7
ATOM      7  C   UNL     1      38.928   2.874  -7.382  1.00  0.00     0.053 C 
BRANCH   7   8
ATOM      8  C   UNL     1      40.104   2.263  -6.688  1.00  0.00     0.041 C 
ATOM      9  O   UNL     1      41.223   2.213  -7.262  1.00  0.00    -0.550 OA
ATOM     10  O   UNL     1      39.976   1.792  -5.387  1.00  0.00    -0.550 OA
ENDBRANCH   7   8
ENDBRANCH   6   7
ENDBRANCH   5   6
ENDBRANCH   4   5
ENDBRANCH   3   4
ENDBRANCH   2   3
ENDBRANCH   1   2
BRANCH   1  11
ATOM     11  C   UNL     1      34.733   6.662  -4.746  1.00  0.00     0.000 C 
BRANCH  11  12
ATOM     12  C   UNL     1      35.905   7.499  -5.277  1.00  0.00    -0.000 C 
BRANCH  12  13
ATOM     13  C   UNL     1      35.496   8.288  -6.527  1.00  0.00    -0.000 C 
BRANCH  13  14
ATOM     14  C   UNL     1      33.981   8.526  -6.555  1.00  0.00    -0.000 C 
BRANCH  14  15
ATOM     15  C   UNL     1      33.387   8.124  -7.914  1.00  0.00    -0.000 C 
BRANCH  15  16
ATOM     16  C   UNL     1      31.850   8.144  -7.917  1.00  0.00    -0.000 C 
BRANCH  16  17
ATOM     17  C   UNL     1      31.240   6.830  -7.407  1.00  0.00    -0.003 C 
ATOM     18  C   UNL     1      29.814   7.045  -6.908  1.00  0.00     0.004 C 
ENDBRANCH  16  17
ENDBRANCH  15  16
ENDBRANCH  14  15
ENDBRANCH  13  14
ENDBRANCH  12  13
ENDBRANCH  11  12
ENDBRANCH   1  11
TORSDOF 14
ENDMDL
MODEL 6
REMARK VINA RESULT:    -3.218      4.327      6.219
REMARK INTER + INTRA:          -7.607
REMARK INTER:                  -5.663
REMARK INTRA:                  -1.944
REMARK UNBOUND:                -1.756
REMARK SMILES CCCCCCCCCCCCCCCC(=O)[O-]
REMARK SMILES IDX 9 1 10 2 11 3 12 4 13 5 14 6 15 7 16 8 17 9 18 10 8 11 7 12
REMARK SMILES IDX 6 13 5 14 4 15 3 16 2 17 1 18
REMARK H PARENT
REMARK Flexibility Score: inf
ROOT
ATOM      1  C   UNL     1      36.553   4.017  -8.933  1.00  0.00     0.000 C 
ENDROOT
BRANCH   1   2
ATOM      2  C   UNL     1      37.407   5.063  -8.186  1.00  0.00     0.000 C 
BRANCH   2   3
ATOM      3  C   UNL     1      37.112   5.079  -6.676  1.00  0.00     0.000 C 
BRANCH   3   4
ATOM      4  C   UNL     1      36.024   6.097  -6.300  1.00  0.00     0.000 C 
BRANCH   4   5
ATOM      5  C   UNL     1      34.915   5.478  -5.429  1.00  0.00     0.000 C 
BRANCH   5   6
ATOM      6  C   UNL     1      33.656   5.131  -6.238  1.00  0.00     0.006 C 
BRANCH   6   7
ATOM      7  C   UNL     1      33.603   5.858  -7.588  1.00  0.00     0.053 C 
BRANCH   7   8
ATOM      8  C   UNL     1      32.185   6.027  -8.035  1.00  0.00     0.041 C 
ATOM      9  O   UNL     1      31.912   6.100  -9.261  1.00  0.00    -0.550 OA
ATOM     10  O   UNL     1      31.160   6.054  -7.098  1.00  0.00    -0.550 OA
ENDBRANCH   7   8
ENDBRANCH   6   7
ENDBRANCH   5   6
ENDBRANCH   4   5
ENDBRANCH   3   4
ENDBRANCH   2   3
ENDBRANCH   1   2
BRANCH   1  11
ATOM     11  C   UNL     1      35.982   2.920  -8.017  1.00  0.00     0.000 C 
BRANCH  11  12
ATOM     12  C   UNL     1      36.193   1.505  -8.575  1.00  0.00    -0.000 C 
BRANCH  12  13
ATOM     13  C   UNL     1      36.480   0.506  -7.447  1.00  0.00    -0.000 C 
BRANCH  13  14
ATOM     14  C   UNL     1      37.747  -0.306  -7.741  1.00  0.00    -0.000 C 
BRANCH  14  15
ATOM     15  C   UNL     1      38.958   0.274  -6.993  1.00  0.00    -0.000 C 
BRANCH  15  16
ATOM     16  C   UNL     1      39.919   1.033  -7.921  1.00  0.00    -0.000 C 
BRANCH  16  17
ATOM     17  C   UNL     1      39.922   2.546  -7.661  1.00  0.00    -0.003 C 
ATOM     18  C   UNL     1      40.081   2.847  -6.174  1.00  0.00     0.004 C 
ENDBRANCH  16  17
ENDBRANCH  15  16
ENDBRANCH  14  15
ENDBRANCH  13  14
ENDBRANCH  12  13
ENDBRANCH  11  12
ENDBRANCH   1  11
TORSDOF 14
ENDMDL
MODEL 7
REMARK VINA RESULT:    -3.205     10.747     14.240
REMARK INTER + INTRA:          -7.584
REMARK INTER:                  -5.613
REMARK INTRA:                  -1.971
REMARK UNBOUND:                -1.756
REMARK SMILES CCCCCCCCCCCCCCCC(=O)[O-]
REMARK SMILES IDX 9 1 10 2 11 3 12 4 13 5 14 6 15 7 16 8 17 9 18 10 8 11 7 12
REMARK SMILES IDX 6 13 5 14 4 15 3 16 2 17 1 18
REMARK H PARENT
REMARK Flexibility Score: inf
ROOT
ATOM      1  C   UNL     1      28.524  -2.306   5.714  1.00  0.00     0.000 C 
ENDROOT
BRANCH   1   2
ATOM      2  C   UNL     1      29.686  -1.883   4.791  1.00  0.00     0.000 C 
BRANCH   2   3
ATOM      3  C   UNL     1      29.404  -0.547   4.082  1.00  0.00     0.000 C 
BRANCH   3   4
ATOM      4  C   UNL     1      30.160  -0.414   2.751  1.00  0.00     0.000 C 
BRANCH   4   5
ATOM      5  C   UNL     1      31.675  -0.634   2.912  1.00  0.00     0.000 C 
BRANCH   5   6
ATOM      6  C   UNL     1      32.505   0.315   2.033  1.00  0.00     0.006 C 
BRANCH   6   7
ATOM      7  C   UNL     1      31.690   1.513   1.528  1.00  0.00     0.053 C 
BRANCH   7   8
ATOM      8  C   UNL     1      32.597   2.648   1.172  1.00  0.00     0.041 C 
ATOM      9  O   UNL     1      33.843   2.476   1.132  1.00  0.00    -0.550 OA
ATOM     10  O   UNL     1      32.063   3.886   0.837  1.00  0.00    -0.550 OA
ENDBRANCH   7   8
ENDBRANCH   6   7
ENDBRANCH   5   6
ENDBRANCH   4   5
ENDBRANCH   3   4
ENDBRANCH   2   3
ENDBRANCH   1   2
BRANCH   1  11
ATOM     11  C   UNL     1      27.334  -1.330   5.694  1.00  0.00     0.000 C 
BRANCH  11  12
ATOM     12  C   UNL     1      26.000  -2.008   6.038  1.00  0.00    -0.000 C 
BRANCH  12  13
ATOM     13  C   UNL     1      25.182  -2.286   4.771  1.00  0.00    -0.000 C 
BRANCH  13  14
ATOM     14  C   UNL     1      25.840  -1.650   3.541  1.00  0.00    -0.000 C 
BRANCH  14  15
ATOM     15  C   UNL     1      26.017  -2.682   2.417  1.00  0.00    -0.000 C 
BRANCH  15  16
ATOM     16  C   UNL     1      27.313  -2.471   1.619  1.00  0.00    -0.000 C 
BRANCH  16  17
ATOM     17  C   UNL     1      28.327  -3.605   1.827  1.00  0.00    -0.003 C 
ATOM     18  C   UNL     1      27.793  -4.647   2.806  1.00  0.00     0.004 C 
ENDBRANCH  16  17
ENDBRANCH  15  16
ENDBRANCH  14  15
ENDBRANCH  13  14
ENDBRANCH  12  13
ENDBRANCH  11  12
ENDBRANCH   1  11
TORSDOF 14
ENDMDL
MODEL 8
REMARK VINA RESULT:    -3.203     11.591     15.206
REMARK INTER + INTRA:          -7.580
REMARK INTER:                  -5.416
REMARK INTRA:                  -2.164
REMARK UNBOUND:                -1.756
REMARK SMILES CCCCCCCCCCCCCCCC(=O)[O-]
REMARK SMILES IDX 9 1 10 2 11 3 12 4 13 5 14 6 15 7 16 8 17 9 18 10 8 11 7 12
REMARK SMILES IDX 6 13 5 14 4 15 3 16 2 17 1 18
REMARK H PARENT
REMARK Flexibility Score: inf
ROOT
ATOM      1  C   UNL     1      26.669  -2.950   1.790  1.00  0.00     0.000 C 
ENDROOT
BRANCH   1   2
ATOM      2  C   UNL     1      26.940  -1.518   2.298  1.00  0.00     0.000 C 
BRANCH   2   3
ATOM      3  C   UNL     1      28.442  -1.250   2.495  1.00  0.00     0.000 C 
BRANCH   3   4
ATOM      4  C   UNL     1      29.234  -2.530   2.804  1.00  0.00     0.000 C 
BRANCH   4   5
ATOM      5  C   UNL     1      30.743  -2.265   2.959  1.00  0.00     0.000 C 
BRANCH   5   6
ATOM      6  C   UNL     1      31.051  -0.800   3.309  1.00  0.00     0.006 C 
BRANCH   6   7
ATOM      7  C   UNL     1      32.139  -0.197   2.411  1.00  0.00     0.053 C 
BRANCH   7   8
ATOM      8  C   UNL     1      31.698   1.128   1.876  1.00  0.00     0.041 C 
ATOM      9  O   UNL     1      30.778   1.192   1.018  1.00  0.00    -0.550 OA
ATOM     10  O   UNL     1      32.268   2.298   2.361  1.00  0.00    -0.550 OA
ENDBRANCH   7   8
ENDBRANCH   6   7
ENDBRANCH   5   6
ENDBRANCH   4   5
ENDBRANCH   3   4
ENDBRANCH   2   3
ENDBRANCH   1   2
BRANCH   1  11
ATOM     11  C   UNL     1      25.688  -3.742   2.673  1.00  0.00     0.000 C 
BRANCH  11  12
ATOM     12  C   UNL     1      24.546  -2.876   3.222  1.00  0.00    -0.000 C 
BRANCH  12  13
ATOM     13  C   UNL     1      24.514  -2.913   4.754  1.00  0.00    -0.000 C 
BRANCH  13  14
ATOM     14  C   UNL     1      24.899  -1.551   5.345  1.00  0.00    -0.000 C 
BRANCH  14  15
ATOM     15  C   UNL     1      25.974  -1.708   6.432  1.00  0.00    -0.000 C 
BRANCH  15  16
ATOM     16  C   UNL     1      27.063  -2.720   6.045  1.00  0.00    -0.000 C 
BRANCH  16  17
ATOM     17  C   UNL     1      28.482  -2.157   6.214  1.00  0.00    -0.003 C 
ATOM     18  C   UNL     1      28.476  -0.631   6.173  1.00  0.00     0.004 C 
ENDBRANCH  16  17
ENDBRANCH  15  16
ENDBRANCH  14  15
ENDBRANCH  13  14
ENDBRANCH  12  13
ENDBRANCH  11  12
ENDBRANCH   1  11
TORSDOF 14
ENDMDL
MODEL 9
REMARK VINA RESULT:    -3.136     11.057     12.630
REMARK INTER + INTRA:          -7.459
REMARK INTER:                  -5.372
REMARK INTRA:                  -2.087
REMARK UNBOUND:                -1.756
REMARK SMILES CCCCCCCCCCCCCCCC(=O)[O-]
REMARK SMILES IDX 9 1 10 2 11 3 12 4 13 5 14 6 15 7 16 8 17 9 18 10 8 11 7 12
REMARK SMILES IDX 6 13 5 14 4 15 3 16 2 17 1 18
REMARK H PARENT
REMARK Flexibility Score: inf
ROOT
ATOM      1  C   UNL     1      41.350   3.517   6.203  1.00  0.00     0.000 C 
ENDROOT
BRANCH   1   2
ATOM      2  C   UNL     1      40.235   4.579   6.311  1.00  0.00     0.000 C 
BRANCH   2   3
ATOM      3  C   UNL     1      38.866   3.950   6.622  1.00  0.00     0.000 C 
BRANCH   3   4
ATOM      4  C   UNL     1      37.798   4.319   5.580  1.00  0.00     0.000 C 
BRANCH   4   5
ATOM      5  C   UNL     1      38.249   5.465   4.656  1.00  0.00     0.000 C 
BRANCH   5   6
ATOM      6  C   UNL     1      37.741   6.836   5.128  1.00  0.00     0.006 C 
BRANCH   6   7
ATOM      7  C   UNL     1      38.262   7.988   4.259  1.00  0.00     0.053 C 
BRANCH   7   8
ATOM      8  C   UNL     1      37.481   8.075   2.986  1.00  0.00     0.041 C 
ATOM      9  O   UNL     1      36.241   8.290   3.016  1.00  0.00    -0.550 OA
ATOM     10  O   UNL     1      38.132   7.969   1.763  1.00  0.00    -0.550 OA
ENDBRANCH   7   8
ENDBRANCH   6   7
ENDBRANCH   5   6
ENDBRANCH   4   5
ENDBRANCH   3   4
ENDBRANCH   2   3
ENDBRANCH   1   2
BRANCH   1  11
ATOM     11  C   UNL     1      40.863   2.166   5.649  1.00  0.00     0.000 C 
BRANCH  11  12
ATOM     12  C   UNL     1      41.646   1.711   4.409  1.00  0.00    -0.000 C 
BRANCH  12  13
ATOM     13  C   UNL     1      41.519   2.733   3.272  1.00  0.00    -0.000 C 
BRANCH  13  14
ATOM     14  C   UNL     1      40.076   2.807   2.758  1.00  0.00    -0.000 C 
BRANCH  14  15
ATOM     15  C   UNL     1      39.745   1.595   1.873  1.00  0.00    -0.000 C 
BRANCH  15  16
ATOM     16  C   UNL     1      38.302   1.103   2.061  1.00  0.00    -0.000 C 
BRANCH  16  17
ATOM     17  C   UNL     1      37.696   1.542   3.402  1.00  0.00    -0.003 C 
ATOM     18  C   UNL     1      37.833   0.444   4.452  1.00  0.00     0.004 C 
ENDBRANCH  16  17
ENDBRANCH  15  16
ENDBRANCH  14  15
ENDBRANCH  13  14
ENDBRANCH  12  13
ENDBRANCH  11  12
ENDBRANCH   1  11
TORSDOF 14
ENDMDL
