MODEL 1
REMARK VINA RESULT:    -4.685      0.000      0.000
REMARK INTER + INTRA:         -13.744
REMARK INTER:                 -10.163
REMARK INTRA:                  -3.580
REMARK UNBOUND:                -3.580
REMARK SMILES CCCCCCCCCCCCCCCCCCCCCC(=O)[O-]
REMARK SMILES IDX 12 1 11 2 10 3 9 4 8 5 7 6 6 7 5 8 4 9 3 10 2 11 1 12 13 13
REMARK SMILES IDX 14 14 15 15 16 16 17 17 18 18 19 19 20 20 21 21 22 22 23 23
REMARK SMILES IDX 24 24
REMARK H PARENT
REMARK Flexibility Score: inf
ROOT
ATOM      1  C   UNL     1     -16.720  -6.139  32.928  1.00  0.00     0.000 C 
ENDROOT
BRANCH   1   2
ATOM      2  C   UNL     1     -15.630  -6.236  31.849  1.00  0.00     0.000 C 
BRANCH   2   3
ATOM      3  C   UNL     1     -14.401  -7.037  32.313  1.00  0.00     0.000 C 
BRANCH   3   4
ATOM      4  C   UNL     1     -13.043  -6.365  32.028  1.00  0.00    -0.000 C 
BRANCH   4   5
ATOM      5  C   UNL     1     -12.742  -5.113  32.875  1.00  0.00    -0.000 C 
BRANCH   5   6
ATOM      6  C   UNL     1     -13.006  -3.770  32.171  1.00  0.00    -0.000 C 
BRANCH   6   7
ATOM      7  C   UNL     1     -13.571  -2.699  33.119  1.00  0.00    -0.000 C 
BRANCH   7   8
ATOM      8  C   UNL     1     -14.966  -2.213  32.694  1.00  0.00    -0.000 C 
BRANCH   8   9
ATOM      9  C   UNL     1     -15.410  -2.801  31.342  1.00  0.00    -0.000 C 
BRANCH   9  10
ATOM     10  C   UNL     1     -16.914  -2.618  31.086  1.00  0.00    -0.000 C 
BRANCH  10  11
ATOM     11  C   UNL     1     -17.529  -1.507  31.952  1.00  0.00    -0.003 C 
ATOM     12  C   UNL     1     -18.646  -2.056  32.834  1.00  0.00     0.004 C 
ENDBRANCH  10  11
ENDBRANCH   9  10
ENDBRANCH   8   9
ENDBRANCH   7   8
ENDBRANCH   6   7
ENDBRANCH   5   6
ENDBRANCH   4   5
ENDBRANCH   3   4
ENDBRANCH   2   3
ENDBRANCH   1   2
BRANCH   1  13
ATOM     13  C   UNL     1     -16.369  -5.066  33.970  1.00  0.00     0.000 C 
BRANCH  13  14
ATOM     14  C   UNL     1     -15.957  -5.664  35.326  1.00  0.00     0.000 C 
BRANCH  14  15
ATOM     15  C   UNL     1     -14.637  -5.079  35.855  1.00  0.00     0.000 C 
BRANCH  15  16
ATOM     16  C   UNL     1     -14.807  -3.684  36.483  1.00  0.00     0.000 C 
BRANCH  16  17
ATOM     17  C   UNL     1     -15.843  -3.592  37.619  1.00  0.00     0.000 C 
BRANCH  17  18
ATOM     18  C   UNL     1     -16.723  -2.335  37.528  1.00  0.00     0.000 C 
BRANCH  18  19
ATOM     19  C   UNL     1     -16.759  -1.725  36.113  1.00  0.00     0.000 C 
BRANCH  19  20
ATOM     20  C   UNL     1     -17.669  -0.494  35.950  1.00  0.00     0.006 C 
BRANCH  20  21
ATOM     21  C   UNL     1     -18.176   0.060  37.289  1.00  0.00     0.053 C 
BRANCH  21  22
ATOM     22  C   UNL     1     -18.311   1.549  37.222  1.00  0.00     0.041 C 
ATOM     23  O   UNL     1     -18.730   2.192  38.218  1.00  0.00    -0.550 OA
ATOM     24  O   UNL     1     -17.930   2.231  36.074  1.00  0.00    -0.550 OA
ENDBRANCH  21  22
ENDBRANCH  20  21
ENDBRANCH  19  20
ENDBRANCH  18  19
ENDBRANCH  17  18
ENDBRANCH  16  17
ENDBRANCH  15  16
ENDBRANCH  14  15
ENDBRANCH  13  14
ENDBRANCH   1  13
TORSDOF 20
ENDMDL
MODEL 2
REMARK VINA RESULT:    -4.585      1.370      3.300
REMARK INTER + INTRA:         -13.526
REMARK INTER:                 -10.802
REMARK INTRA:                  -2.724
REMARK UNBOUND:                -3.580
REMARK SMILES CCCCCCCCCCCCCCCCCCCCCC(=O)[O-]
REMARK SMILES IDX 12 1 11 2 10 3 9 4 8 5 7 6 6 7 5 8 4 9 3 10 2 11 1 12 13 13
REMARK SMILES IDX 14 14 15 15 16 16 17 17 18 18 19 19 20 20 21 21 22 22 23 23
REMARK SMILES IDX 24 24
REMARK H PARENT
REMARK Flexibility Score: inf
ROOT
ATOM      1  C   UNL     1     -17.921  -3.062  32.121  1.00  0.00     0.000 C 
ENDROOT
BRANCH   1   2
ATOM      2  C   UNL     1     -16.777  -2.463  31.288  1.00  0.00     0.000 C 
BRANCH   2   3
ATOM      3  C   UNL     1     -15.516  -3.346  31.286  1.00  0.00     0.000 C 
BRANCH   3   4
ATOM      4  C   UNL     1     -14.294  -2.733  31.998  1.00  0.00    -0.000 C 
BRANCH   4   5
ATOM      5  C   UNL     1     -13.130  -3.709  32.258  1.00  0.00    -0.000 C 
BRANCH   5   6
ATOM      6  C   UNL     1     -13.149  -4.397  33.634  1.00  0.00    -0.000 C 
BRANCH   6   7
ATOM      7  C   UNL     1     -13.033  -5.928  33.539  1.00  0.00    -0.000 C 
BRANCH   7   8
ATOM      8  C   UNL     1     -13.547  -6.476  32.198  1.00  0.00    -0.000 C 
BRANCH   8   9
ATOM      9  C   UNL     1     -15.017  -6.929  32.269  1.00  0.00    -0.000 C 
BRANCH   9  10
ATOM     10  C   UNL     1     -15.669  -7.032  30.881  1.00  0.00    -0.000 C 
BRANCH  10  11
ATOM     11  C   UNL     1     -17.202  -7.101  30.955  1.00  0.00    -0.003 C 
ATOM     12  C   UNL     1     -17.688  -6.979  32.396  1.00  0.00     0.004 C 
ENDBRANCH  10  11
ENDBRANCH   9  10
ENDBRANCH   8   9
ENDBRANCH   7   8
ENDBRANCH   6   7
ENDBRANCH   5   6
ENDBRANCH   4   5
ENDBRANCH   3   4
ENDBRANCH   2   3
ENDBRANCH   1   2
BRANCH   1  13
ATOM     13  C   UNL     1     -18.391  -2.073  33.200  1.00  0.00     0.000 C 
BRANCH  13  14
ATOM     14  C   UNL     1     -17.252  -1.619  34.128  1.00  0.00     0.000 C 
BRANCH  14  15
ATOM     15  C   UNL     1     -16.592  -2.791  34.874  1.00  0.00     0.000 C 
BRANCH  15  16
ATOM     16  C   UNL     1     -15.764  -2.337  36.091  1.00  0.00     0.000 C 
BRANCH  16  17
ATOM     17  C   UNL     1     -16.169  -2.965  37.437  1.00  0.00     0.000 C 
BRANCH  17  18
ATOM     18  C   UNL     1     -17.217  -2.134  38.196  1.00  0.00     0.000 C 
BRANCH  18  19
ATOM     19  C   UNL     1     -17.414  -0.725  37.603  1.00  0.00     0.000 C 
BRANCH  19  20
ATOM     20  C   UNL     1     -18.877  -0.261  37.483  1.00  0.00     0.006 C 
BRANCH  20  21
ATOM     21  C   UNL     1     -19.074   0.841  36.434  1.00  0.00     0.053 C 
BRANCH  21  22
ATOM     22  C   UNL     1     -17.952   1.830  36.496  1.00  0.00     0.041 C 
ATOM     23  O   UNL     1     -17.126   1.912  35.551  1.00  0.00    -0.550 OA
ATOM     24  O   UNL     1     -17.846   2.694  37.579  1.00  0.00    -0.550 OA
ENDBRANCH  21  22
ENDBRANCH  20  21
ENDBRANCH  19  20
ENDBRANCH  18  19
ENDBRANCH  17  18
ENDBRANCH  16  17
ENDBRANCH  15  16
ENDBRANCH  14  15
ENDBRANCH  13  14
ENDBRANCH   1  13
TORSDOF 20
ENDMDL
MODEL 3
REMARK VINA RESULT:    -4.492      1.253      3.971
REMARK INTER + INTRA:         -13.324
REMARK INTER:                  -9.445
REMARK INTRA:                  -3.879
REMARK UNBOUND:                -3.580
REMARK SMILES CCCCCCCCCCCCCCCCCCCCCC(=O)[O-]
REMARK SMILES IDX 12 1 11 2 10 3 9 4 8 5 7 6 6 7 5 8 4 9 3 10 2 11 1 12 13 13
REMARK SMILES IDX 14 14 15 15 16 16 17 17 18 18 19 19 20 20 21 21 22 22 23 23
REMARK SMILES IDX 24 24
REMARK H PARENT
REMARK Flexibility Score: inf
ROOT
ATOM      1  C   UNL     1     -12.869  -4.509  32.499  1.00  0.00     0.000 C 
ENDROOT
BRANCH   1   2
ATOM      2  C   UNL     1     -13.443  -3.259  31.816  1.00  0.00     0.000 C 
BRANCH   2   3
ATOM      3  C   UNL     1     -14.044  -2.255  32.817  1.00  0.00     0.000 C 
BRANCH   3   4
ATOM      4  C   UNL     1     -15.551  -1.984  32.637  1.00  0.00    -0.000 C 
BRANCH   4   5
ATOM      5  C   UNL     1     -16.333  -3.092  31.905  1.00  0.00    -0.000 C 
BRANCH   5   6
ATOM      6  C   UNL     1     -17.174  -4.007  32.812  1.00  0.00    -0.000 C 
BRANCH   6   7
ATOM      7  C   UNL     1     -17.010  -5.499  32.473  1.00  0.00    -0.000 C 
BRANCH   7   8
ATOM      8  C   UNL     1     -16.063  -5.733  31.286  1.00  0.00    -0.000 C 
BRANCH   8   9
ATOM      9  C   UNL     1     -15.684  -7.215  31.115  1.00  0.00    -0.000 C 
BRANCH   9  10
ATOM     10  C   UNL     1     -15.972  -8.046  32.375  1.00  0.00    -0.000 C 
BRANCH  10  11
ATOM     11  C   UNL     1     -14.694  -8.420  33.139  1.00  0.00    -0.003 C 
ATOM     12  C   UNL     1     -13.503  -8.535  32.192  1.00  0.00     0.004 C 
ENDBRANCH  10  11
ENDBRANCH   9  10
ENDBRANCH   8   9
ENDBRANCH   7   8
ENDBRANCH   6   7
ENDBRANCH   5   6
ENDBRANCH   4   5
ENDBRANCH   3   4
ENDBRANCH   2   3
ENDBRANCH   1   2
BRANCH   1  13
ATOM     13  C   UNL     1     -13.005  -4.413  34.027  1.00  0.00     0.000 C 
BRANCH  13  14
ATOM     14  C   UNL     1     -12.792  -5.765  34.730  1.00  0.00     0.000 C 
BRANCH  14  15
ATOM     15  C   UNL     1     -13.769  -5.986  35.896  1.00  0.00     0.000 C 
BRANCH  15  16
ATOM     16  C   UNL     1     -15.229  -5.666  35.525  1.00  0.00     0.000 C 
BRANCH  16  17
ATOM     17  C   UNL     1     -16.039  -4.931  36.609  1.00  0.00     0.000 C 
BRANCH  17  18
ATOM     18  C   UNL     1     -15.419  -3.582  37.010  1.00  0.00     0.000 C 
BRANCH  18  19
ATOM     19  C   UNL     1     -15.842  -2.425  36.084  1.00  0.00     0.000 C 
BRANCH  19  20
ATOM     20  C   UNL     1     -17.108  -1.664  36.518  1.00  0.00     0.006 C 
BRANCH  20  21
ATOM     21  C   UNL     1     -17.535  -0.586  35.513  1.00  0.00     0.053 C 
BRANCH  21  22
ATOM     22  C   UNL     1     -18.069   0.615  36.229  1.00  0.00     0.041 C 
ATOM     23  O   UNL     1     -18.968   0.485  37.100  1.00  0.00    -0.550 OA
ATOM     24  O   UNL     1     -17.541   1.873  35.968  1.00  0.00    -0.550 OA
ENDBRANCH  21  22
ENDBRANCH  20  21
ENDBRANCH  19  20
ENDBRANCH  18  19
ENDBRANCH  17  18
ENDBRANCH  16  17
ENDBRANCH  15  16
ENDBRANCH  14  15
ENDBRANCH  13  14
ENDBRANCH   1  13
TORSDOF 20
ENDMDL
MODEL 4
REMARK VINA RESULT:    -4.426      1.253      2.556
REMARK INTER + INTRA:         -13.180
REMARK INTER:                  -9.734
REMARK INTRA:                  -3.447
REMARK UNBOUND:                -3.580
REMARK SMILES CCCCCCCCCCCCCCCCCCCCCC(=O)[O-]
REMARK SMILES IDX 12 1 11 2 10 3 9 4 8 5 7 6 6 7 5 8 4 9 3 10 2 11 1 12 13 13
REMARK SMILES IDX 14 14 15 15 16 16 17 17 18 18 19 19 20 20 21 21 22 22 23 23
REMARK SMILES IDX 24 24
REMARK H PARENT
REMARK Flexibility Score: inf
ROOT
ATOM      1  C   UNL     1     -13.639  -3.468  34.162  1.00  0.00     0.000 C 
ENDROOT
BRANCH   1   2
ATOM      2  C   UNL     1     -13.500  -3.886  32.690  1.00  0.00     0.000 C 
BRANCH   2   3
ATOM      3  C   UNL     1     -12.729  -5.207  32.515  1.00  0.00     0.000 C 
BRANCH   3   4
ATOM      4  C   UNL     1     -13.571  -6.384  31.985  1.00  0.00    -0.000 C 
BRANCH   4   5
ATOM      5  C   UNL     1     -15.007  -6.021  31.556  1.00  0.00    -0.000 C 
BRANCH   5   6
ATOM      6  C   UNL     1     -16.120  -6.812  32.265  1.00  0.00    -0.000 C 
BRANCH   6   7
ATOM      7  C   UNL     1     -17.333  -5.941  32.631  1.00  0.00    -0.000 C 
BRANCH   7   8
ATOM      8  C   UNL     1     -17.242  -4.525  32.040  1.00  0.00    -0.000 C 
BRANCH   8   9
ATOM      9  C   UNL     1     -17.242  -3.431  33.123  1.00  0.00    -0.000 C 
BRANCH   9  10
ATOM     10  C   UNL     1     -18.220  -2.289  32.806  1.00  0.00    -0.000 C 
BRANCH  10  11
ATOM     11  C   UNL     1     -18.404  -2.072  31.297  1.00  0.00    -0.003 C 
ATOM     12  C   UNL     1     -19.882  -2.085  30.918  1.00  0.00     0.004 C 
ENDBRANCH  10  11
ENDBRANCH   9  10
ENDBRANCH   8   9
ENDBRANCH   7   8
ENDBRANCH   6   7
ENDBRANCH   5   6
ENDBRANCH   4   5
ENDBRANCH   3   4
ENDBRANCH   2   3
ENDBRANCH   1   2
BRANCH   1  13
ATOM     13  C   UNL     1     -12.771  -4.354  35.070  1.00  0.00     0.000 C 
BRANCH  13  14
ATOM     14  C   UNL     1     -13.593  -5.103  36.132  1.00  0.00     0.000 C 
BRANCH  14  15
ATOM     15  C   UNL     1     -14.900  -5.686  35.568  1.00  0.00     0.000 C 
BRANCH  15  16
ATOM     16  C   UNL     1     -16.157  -5.041  36.180  1.00  0.00     0.000 C 
BRANCH  16  17
ATOM     17  C   UNL     1     -16.001  -4.525  37.622  1.00  0.00     0.000 C 
BRANCH  17  18
ATOM     18  C   UNL     1     -16.309  -3.025  37.758  1.00  0.00     0.000 C 
BRANCH  18  19
ATOM     19  C   UNL     1     -16.232  -2.269  36.417  1.00  0.00     0.000 C 
BRANCH  19  20
ATOM     20  C   UNL     1     -17.310  -1.190  36.207  1.00  0.00     0.006 C 
BRANCH  20  21
ATOM     21  C   UNL     1     -17.918  -0.684  37.522  1.00  0.00     0.053 C 
BRANCH  21  22
ATOM     22  C   UNL     1     -18.542   0.662  37.326  1.00  0.00     0.041 C 
ATOM     23  O   UNL     1     -19.360   0.851  36.389  1.00  0.00    -0.550 OA
ATOM     24  O   UNL     1     -18.257   1.696  38.209  1.00  0.00    -0.550 OA
ENDBRANCH  21  22
ENDBRANCH  20  21
ENDBRANCH  19  20
ENDBRANCH  18  19
ENDBRANCH  17  18
ENDBRANCH  16  17
ENDBRANCH  15  16
ENDBRANCH  14  15
ENDBRANCH  13  14
ENDBRANCH   1  13
TORSDOF 20
ENDMDL
MODEL 5
REMARK VINA RESULT:    -4.417      1.089      2.418
REMARK INTER + INTRA:         -13.161
REMARK INTER:                 -10.403
REMARK INTRA:                  -2.758
REMARK UNBOUND:                -3.580
REMARK SMILES CCCCCCCCCCCCCCCCCCCCCC(=O)[O-]
REMARK SMILES IDX 12 1 11 2 10 3 9 4 8 5 7 6 6 7 5 8 4 9 3 10 2 11 1 12 13 13
REMARK SMILES IDX 14 14 15 15 16 16 17 17 18 18 19 19 20 20 21 21 22 22 23 23
REMARK SMILES IDX 24 24
REMARK H PARENT
REMARK Flexibility Score: inf
ROOT
ATOM      1  C   UNL     1     -13.890  -7.140  33.201  1.00  0.00     0.000 C 
ENDROOT
BRANCH   1   2
ATOM      2  C   UNL     1     -14.613  -7.965  32.126  1.00  0.00     0.000 C 
BRANCH   2   3
ATOM      3  C   UNL     1     -15.414  -7.093  31.143  1.00  0.00     0.000 C 
BRANCH   3   4
ATOM      4  C   UNL     1     -16.860  -6.785  31.580  1.00  0.00    -0.000 C 
BRANCH   4   5
ATOM      5  C   UNL     1     -16.997  -6.085  32.947  1.00  0.00    -0.000 C 
BRANCH   5   6
ATOM      6  C   UNL     1     -16.862  -4.553  32.911  1.00  0.00    -0.000 C 
BRANCH   6   7
ATOM      7  C   UNL     1     -16.224  -4.038  31.609  1.00  0.00    -0.000 C 
BRANCH   7   8
ATOM      8  C   UNL     1     -15.644  -2.623  31.756  1.00  0.00    -0.000 C 
BRANCH   8   9
ATOM      9  C   UNL     1     -16.693  -1.600  32.230  1.00  0.00    -0.000 C 
BRANCH   9  10
ATOM     10  C   UNL     1     -17.850  -1.437  31.231  1.00  0.00    -0.000 C 
BRANCH  10  11
ATOM     11  C   UNL     1     -19.190  -1.932  31.795  1.00  0.00    -0.003 C 
ATOM     12  C   UNL     1     -20.230  -2.078  30.688  1.00  0.00     0.004 C 
ENDBRANCH  10  11
ENDBRANCH   9  10
ENDBRANCH   8   9
ENDBRANCH   7   8
ENDBRANCH   6   7
ENDBRANCH   5   6
ENDBRANCH   4   5
ENDBRANCH   3   4
ENDBRANCH   2   3
ENDBRANCH   1   2
BRANCH   1  13
ATOM     13  C   UNL     1     -13.067  -6.008  32.566  1.00  0.00     0.000 C 
BRANCH  13  14
ATOM     14  C   UNL     1     -13.080  -4.719  33.404  1.00  0.00     0.000 C 
BRANCH  14  15
ATOM     15  C   UNL     1     -13.498  -4.965  34.864  1.00  0.00     0.000 C 
BRANCH  15  16
ATOM     16  C   UNL     1     -14.235  -3.765  35.487  1.00  0.00     0.000 C 
BRANCH  16  17
ATOM     17  C   UNL     1     -15.404  -4.122  36.423  1.00  0.00     0.000 C 
BRANCH  17  18
ATOM     18  C   UNL     1     -16.248  -2.900  36.821  1.00  0.00     0.000 C 
BRANCH  18  19
ATOM     19  C   UNL     1     -16.287  -1.812  35.730  1.00  0.00     0.000 C 
BRANCH  19  20
ATOM     20  C   UNL     1     -17.552  -0.934  35.720  1.00  0.00     0.006 C 
BRANCH  20  21
ATOM     21  C   UNL     1     -17.810  -0.237  37.063  1.00  0.00     0.053 C 
BRANCH  21  22
ATOM     22  C   UNL     1     -17.781   1.250  36.895  1.00  0.00     0.041 C 
ATOM     23  O   UNL     1     -17.421   1.756  35.801  1.00  0.00    -0.550 OA
ATOM     24  O   UNL     1     -18.198   2.075  37.931  1.00  0.00    -0.550 OA
ENDBRANCH  21  22
ENDBRANCH  20  21
ENDBRANCH  19  20
ENDBRANCH  18  19
ENDBRANCH  17  18
ENDBRANCH  16  17
ENDBRANCH  15  16
ENDBRANCH  14  15
ENDBRANCH  13  14
ENDBRANCH   1  13
TORSDOF 20
ENDMDL
MODEL 6
REMARK VINA RESULT:    -4.337      1.951      5.259
REMARK INTER + INTRA:         -12.988
REMARK INTER:                  -9.673
REMARK INTRA:                  -3.315
REMARK UNBOUND:                -3.580
REMARK SMILES CCCCCCCCCCCCCCCCCCCCCC(=O)[O-]
REMARK SMILES IDX 12 1 11 2 10 3 9 4 8 5 7 6 6 7 5 8 4 9 3 10 2 11 1 12 13 13
REMARK SMILES IDX 14 14 15 15 16 16 17 17 18 18 19 19 20 20 21 21 22 22 23 23
REMARK SMILES IDX 24 24
REMARK H PARENT
REMARK Flexibility Score: inf
ROOT
ATOM      1  C   UNL     1     -15.505  -7.404  33.828  1.00  0.00     0.000 C 
ENDROOT
BRANCH   1   2
ATOM      2  C   UNL     1     -15.905  -6.321  34.842  1.00  0.00     0.000 C 
BRANCH   2   3
ATOM      3  C   UNL     1     -15.007  -6.314  36.092  1.00  0.00     0.000 C 
BRANCH   3   4
ATOM      4  C   UNL     1     -15.114  -5.044  36.959  1.00  0.00    -0.000 C 
BRANCH   4   5
ATOM      5  C   UNL     1     -16.125  -3.993  36.460  1.00  0.00    -0.000 C 
BRANCH   5   6
ATOM      6  C   UNL     1     -15.529  -2.607  36.156  1.00  0.00    -0.000 C 
BRANCH   6   7
ATOM      7  C   UNL     1     -16.570  -1.478  36.238  1.00  0.00    -0.000 C 
BRANCH   7   8
ATOM      8  C   UNL     1     -17.395  -1.530  37.533  1.00  0.00    -0.000 C 
BRANCH   8   9
ATOM      9  C   UNL     1     -18.297  -0.294  37.710  1.00  0.00    -0.000 C 
BRANCH   9  10
ATOM     10  C   UNL     1     -18.430   0.528  36.419  1.00  0.00    -0.000 C 
BRANCH  10  11
ATOM     11  C   UNL     1     -18.027   1.998  36.612  1.00  0.00    -0.003 C 
ATOM     12  C   UNL     1     -17.757   2.303  38.082  1.00  0.00     0.004 C 
ENDBRANCH  10  11
ENDBRANCH   9  10
ENDBRANCH   8   9
ENDBRANCH   7   8
ENDBRANCH   6   7
ENDBRANCH   5   6
ENDBRANCH   4   5
ENDBRANCH   3   4
ENDBRANCH   2   3
ENDBRANCH   1   2
BRANCH   1  13
ATOM     13  C   UNL     1     -15.696  -6.906  32.387  1.00  0.00     0.000 C 
BRANCH  13  14
ATOM     14  C   UNL     1     -14.409  -6.999  31.549  1.00  0.00     0.000 C 
BRANCH  14  15
ATOM     15  C   UNL     1     -13.141  -6.742  32.380  1.00  0.00     0.000 C 
BRANCH  15  16
ATOM     16  C   UNL     1     -12.687  -5.271  32.342  1.00  0.00     0.000 C 
BRANCH  16  17
ATOM     17  C   UNL     1     -13.012  -4.447  33.602  1.00  0.00     0.000 C 
BRANCH  17  18
ATOM     18  C   UNL     1     -13.966  -3.274  33.322  1.00  0.00     0.000 C 
BRANCH  18  19
ATOM     19  C   UNL     1     -14.258  -3.080  31.821  1.00  0.00     0.000 C 
BRANCH  19  20
ATOM     20  C   UNL     1     -15.717  -3.332  31.398  1.00  0.00     0.006 C 
BRANCH  20  21
ATOM     21  C   UNL     1     -16.695  -3.334  32.580  1.00  0.00     0.053 C 
BRANCH  21  22
ATOM     22  C   UNL     1     -17.722  -2.260  32.412  1.00  0.00     0.041 C 
ATOM     23  O   UNL     1     -18.500  -1.973  33.359  1.00  0.00    -0.550 OA
ATOM     24  O   UNL     1     -17.790  -1.541  31.226  1.00  0.00    -0.550 OA
ENDBRANCH  21  22
ENDBRANCH  20  21
ENDBRANCH  19  20
ENDBRANCH  18  19
ENDBRANCH  17  18
ENDBRANCH  16  17
ENDBRANCH  15  16
ENDBRANCH  14  15
ENDBRANCH  13  14
ENDBRANCH   1  13
TORSDOF 20
ENDMDL
MODEL 7
REMARK VINA RESULT:    -4.326      1.232      4.483
REMARK INTER + INTRA:         -12.964
REMARK INTER:                  -9.628
REMARK INTRA:                  -3.336
REMARK UNBOUND:                -3.580
REMARK SMILES CCCCCCCCCCCCCCCCCCCCCC(=O)[O-]
REMARK SMILES IDX 12 1 11 2 10 3 9 4 8 5 7 6 6 7 5 8 4 9 3 10 2 11 1 12 13 13
REMARK SMILES IDX 14 14 15 15 16 16 17 17 18 18 19 19 20 20 21 21 22 22 23 23
REMARK SMILES IDX 24 24
REMARK H PARENT
REMARK Flexibility Score: inf
ROOT
ATOM      1  C   UNL     1     -14.375  -2.399  32.617  1.00  0.00     0.000 C 
ENDROOT
BRANCH   1   2
ATOM      2  C   UNL     1     -13.891  -2.814  34.015  1.00  0.00     0.000 C 
BRANCH   2   3
ATOM      3  C   UNL     1     -13.175  -4.176  34.019  1.00  0.00     0.000 C 
BRANCH   3   4
ATOM      4  C   UNL     1     -13.570  -5.113  35.177  1.00  0.00    -0.000 C 
BRANCH   4   5
ATOM      5  C   UNL     1     -14.949  -4.832  35.806  1.00  0.00    -0.000 C 
BRANCH   5   6
ATOM      6  C   UNL     1     -16.012  -5.916  35.559  1.00  0.00    -0.000 C 
BRANCH   6   7
ATOM      7  C   UNL     1     -16.112  -6.331  34.082  1.00  0.00    -0.000 C 
BRANCH   7   8
ATOM      8  C   UNL     1     -16.186  -7.856  33.901  1.00  0.00    -0.000 C 
BRANCH   8   9
ATOM      9  C   UNL     1     -15.644  -8.317  32.536  1.00  0.00    -0.000 C 
BRANCH   9  10
ATOM     10  C   UNL     1     -14.829  -7.224  31.826  1.00  0.00    -0.000 C 
BRANCH  10  11
ATOM     11  C   UNL     1     -13.323  -7.340  32.103  1.00  0.00    -0.003 C 
ATOM     12  C   UNL     1     -12.940  -8.773  32.460  1.00  0.00     0.004 C 
ENDBRANCH  10  11
ENDBRANCH   9  10
ENDBRANCH   8   9
ENDBRANCH   7   8
ENDBRANCH   6   7
ENDBRANCH   5   6
ENDBRANCH   4   5
ENDBRANCH   3   4
ENDBRANCH   2   3
ENDBRANCH   1   2
BRANCH   1  13
ATOM     13  C   UNL     1     -14.862  -3.619  31.819  1.00  0.00     0.000 C 
BRANCH  13  14
ATOM     14  C   UNL     1     -16.393  -3.668  31.680  1.00  0.00     0.000 C 
BRANCH  14  15
ATOM     15  C   UNL     1     -16.999  -2.300  31.321  1.00  0.00     0.000 C 
BRANCH  15  16
ATOM     16  C   UNL     1     -18.120  -1.870  32.286  1.00  0.00     0.000 C 
BRANCH  16  17
ATOM     17  C   UNL     1     -17.910  -2.264  33.759  1.00  0.00     0.000 C 
BRANCH  17  18
ATOM     18  C   UNL     1     -17.343  -1.116  34.612  1.00  0.00     0.000 C 
BRANCH  18  19
ATOM     19  C   UNL     1     -16.824  -1.585  35.985  1.00  0.00     0.000 C 
BRANCH  19  20
ATOM     20  C   UNL     1     -17.750  -1.283  37.177  1.00  0.00     0.006 C 
BRANCH  20  21
ATOM     21  C   UNL     1     -17.478   0.084  37.819  1.00  0.00     0.053 C 
BRANCH  21  22
ATOM     22  C   UNL     1     -18.583   1.041  37.501  1.00  0.00     0.041 C 
ATOM     23  O   UNL     1     -19.396   0.785  36.576  1.00  0.00    -0.550 OA
ATOM     24  O   UNL     1     -18.744   2.194  38.258  1.00  0.00    -0.550 OA
ENDBRANCH  21  22
ENDBRANCH  20  21
ENDBRANCH  19  20
ENDBRANCH  18  19
ENDBRANCH  17  18
ENDBRANCH  16  17
ENDBRANCH  15  16
ENDBRANCH  14  15
ENDBRANCH  13  14
ENDBRANCH   1  13
TORSDOF 20
ENDMDL
MODEL 8
REMARK VINA RESULT:    -4.320      1.553      4.335
REMARK INTER + INTRA:         -12.952
REMARK INTER:                  -8.991
REMARK INTRA:                  -3.961
REMARK UNBOUND:                -3.580
REMARK SMILES CCCCCCCCCCCCCCCCCCCCCC(=O)[O-]
REMARK SMILES IDX 12 1 11 2 10 3 9 4 8 5 7 6 6 7 5 8 4 9 3 10 2 11 1 12 13 13
REMARK SMILES IDX 14 14 15 15 16 16 17 17 18 18 19 19 20 20 21 21 22 22 23 23
REMARK SMILES IDX 24 24
REMARK H PARENT
REMARK Flexibility Score: inf
ROOT
ATOM      1  C   UNL     1     -16.808  -2.190  32.083  1.00  0.00     0.000 C 
ENDROOT
BRANCH   1   2
ATOM      2  C   UNL     1     -17.464  -3.399  32.767  1.00  0.00     0.000 C 
BRANCH   2   3
ATOM      3  C   UNL     1     -17.165  -4.727  32.048  1.00  0.00     0.000 C 
BRANCH   3   4
ATOM      4  C   UNL     1     -17.154  -5.969  32.960  1.00  0.00    -0.000 C 
BRANCH   4   5
ATOM      5  C   UNL     1     -16.027  -6.982  32.673  1.00  0.00    -0.000 C 
BRANCH   5   6
ATOM      6  C   UNL     1     -15.180  -6.680  31.425  1.00  0.00    -0.000 C 
BRANCH   6   7
ATOM      7  C   UNL     1     -13.678  -6.925  31.648  1.00  0.00    -0.000 C 
BRANCH   7   8
ATOM      8  C   UNL     1     -13.386  -8.328  32.204  1.00  0.00    -0.000 C 
BRANCH   8   9
ATOM      9  C   UNL     1     -12.371  -8.306  33.361  1.00  0.00    -0.000 C 
BRANCH   9  10
ATOM     10  C   UNL     1     -12.608  -7.137  34.330  1.00  0.00    -0.000 C 
BRANCH  10  11
ATOM     11  C   UNL     1     -12.939  -7.610  35.754  1.00  0.00    -0.003 C 
ATOM     12  C   UNL     1     -14.419  -7.954  35.887  1.00  0.00     0.004 C 
ENDBRANCH  10  11
ENDBRANCH   9  10
ENDBRANCH   8   9
ENDBRANCH   7   8
ENDBRANCH   6   7
ENDBRANCH   5   6
ENDBRANCH   4   5
ENDBRANCH   3   4
ENDBRANCH   2   3
ENDBRANCH   1   2
BRANCH   1  13
ATOM     13  C   UNL     1     -15.431  -1.892  32.696  1.00  0.00     0.000 C 
BRANCH  13  14
ATOM     14  C   UNL     1     -14.306  -2.737  32.075  1.00  0.00     0.000 C 
BRANCH  14  15
ATOM     15  C   UNL     1     -13.657  -3.696  33.087  1.00  0.00     0.000 C 
BRANCH  15  16
ATOM     16  C   UNL     1     -14.014  -3.359  34.547  1.00  0.00     0.000 C 
BRANCH  16  17
ATOM     17  C   UNL     1     -14.866  -4.412  35.278  1.00  0.00     0.000 C 
BRANCH  17  18
ATOM     18  C   UNL     1     -15.925  -3.790  36.203  1.00  0.00     0.000 C 
BRANCH  18  19
ATOM     19  C   UNL     1     -15.871  -2.250  36.231  1.00  0.00     0.000 C 
BRANCH  19  20
ATOM     20  C   UNL     1     -17.210  -1.550  36.527  1.00  0.00     0.006 C 
BRANCH  20  21
ATOM     21  C   UNL     1     -17.586  -0.500  35.473  1.00  0.00     0.053 C 
BRANCH  21  22
ATOM     22  C   UNL     1     -18.172   0.712  36.128  1.00  0.00     0.041 C 
ATOM     23  O   UNL     1     -19.331   0.669  36.615  1.00  0.00    -0.550 OA
ATOM     24  O   UNL     1     -17.420   1.873  36.242  1.00  0.00    -0.550 OA
ENDBRANCH  21  22
ENDBRANCH  20  21
ENDBRANCH  19  20
ENDBRANCH  18  19
ENDBRANCH  17  18
ENDBRANCH  16  17
ENDBRANCH  15  16
ENDBRANCH  14  15
ENDBRANCH  13  14
ENDBRANCH   1  13
TORSDOF 20
ENDMDL
MODEL 9
REMARK VINA RESULT:    -4.295      1.377      3.730
REMARK INTER + INTRA:         -12.897
REMARK INTER:                  -9.601
REMARK INTRA:                  -3.296
REMARK UNBOUND:                -3.580
REMARK SMILES CCCCCCCCCCCCCCCCCCCCCC(=O)[O-]
REMARK SMILES IDX 12 1 11 2 10 3 9 4 8 5 7 6 6 7 5 8 4 9 3 10 2 11 1 12 13 13
REMARK SMILES IDX 14 14 15 15 16 16 17 17 18 18 19 19 20 20 21 21 22 22 23 23
REMARK SMILES IDX 24 24
REMARK H PARENT
REMARK Flexibility Score: inf
ROOT
ATOM      1  C   UNL     1     -16.942  -6.316  31.738  1.00  0.00     0.000 C 
ENDROOT
BRANCH   1   2
ATOM      2  C   UNL     1     -15.823  -6.998  32.539  1.00  0.00     0.000 C 
BRANCH   2   3
ATOM      3  C   UNL     1     -14.515  -7.135  31.739  1.00  0.00     0.000 C 
BRANCH   3   4
ATOM      4  C   UNL     1     -13.238  -6.754  32.514  1.00  0.00    -0.000 C 
BRANCH   4   5
ATOM      5  C   UNL     1     -12.909  -5.248  32.534  1.00  0.00    -0.000 C 
BRANCH   5   6
ATOM      6  C   UNL     1     -12.941  -4.592  33.925  1.00  0.00    -0.000 C 
BRANCH   6   7
ATOM      7  C   UNL     1     -14.006  -3.487  34.039  1.00  0.00    -0.000 C 
BRANCH   7   8
ATOM      8  C   UNL     1     -14.690  -3.468  35.415  1.00  0.00    -0.000 C 
BRANCH   8   9
ATOM      9  C   UNL     1     -15.873  -4.449  35.500  1.00  0.00    -0.000 C 
BRANCH   9  10
ATOM     10  C   UNL     1     -15.647  -5.556  36.542  1.00  0.00    -0.000 C 
BRANCH  10  11
ATOM     11  C   UNL     1     -15.353  -6.920  35.898  1.00  0.00    -0.003 C 
ATOM     12  C   UNL     1     -13.935  -7.383  36.220  1.00  0.00     0.004 C 
ENDBRANCH  10  11
ENDBRANCH   9  10
ENDBRANCH   8   9
ENDBRANCH   7   8
ENDBRANCH   6   7
ENDBRANCH   5   6
ENDBRANCH   4   5
ENDBRANCH   3   4
ENDBRANCH   2   3
ENDBRANCH   1   2
BRANCH   1  13
ATOM     13  C   UNL     1     -17.131  -4.859  32.188  1.00  0.00     0.000 C 
BRANCH  13  14
ATOM     14  C   UNL     1     -16.197  -3.883  31.452  1.00  0.00     0.000 C 
BRANCH  14  15
ATOM     15  C   UNL     1     -16.680  -2.425  31.536  1.00  0.00     0.000 C 
BRANCH  15  16
ATOM     16  C   UNL     1     -18.178  -2.307  31.872  1.00  0.00     0.000 C 
BRANCH  16  17
ATOM     17  C   UNL     1     -18.498  -1.848  33.306  1.00  0.00     0.000 C 
BRANCH  17  18
ATOM     18  C   UNL     1     -17.321  -1.125  33.982  1.00  0.00     0.000 C 
BRANCH  18  19
ATOM     19  C   UNL     1     -17.468  -1.034  35.513  1.00  0.00     0.000 C 
BRANCH  19  20
ATOM     20  C   UNL     1     -18.340   0.128  36.023  1.00  0.00     0.006 C 
BRANCH  20  21
ATOM     21  C   UNL     1     -17.516   1.322  36.524  1.00  0.00     0.053 C 
BRANCH  21  22
ATOM     22  C   UNL     1     -18.059   1.823  37.825  1.00  0.00     0.041 C 
ATOM     23  O   UNL     1     -17.368   2.589  38.547  1.00  0.00    -0.550 OA
ATOM     24  O   UNL     1     -19.346   1.483  38.220  1.00  0.00    -0.550 OA
ENDBRANCH  21  22
ENDBRANCH  20  21
ENDBRANCH  19  20
ENDBRANCH  18  19
ENDBRANCH  17  18
ENDBRANCH  16  17
ENDBRANCH  15  16
ENDBRANCH  14  15
ENDBRANCH  13  14
ENDBRANCH   1  13
TORSDOF 20
ENDMDL
