MODEL 1
REMARK VINA RESULT:    -4.513      0.000      0.000
REMARK INTER + INTRA:          -8.317
REMARK INTER:                  -7.679
REMARK INTRA:                  -0.638
REMARK UNBOUND:                -0.638
REMARK SMILES CCCCCCCCCCCCCC(=O)[O-]
REMARK SMILES IDX 8 1 9 2 10 3 11 4 12 5 13 6 14 7 15 8 16 9 7 10 6 11 5 12
REMARK SMILES IDX 4 13 3 14 2 15 1 16
REMARK H PARENT
REMARK Flexibility Score: inf
ROOT
ATOM      1  C   UNL     1      36.584  29.954  29.318  1.00  0.00     0.000 C 
ENDROOT
BRANCH   1   2
ATOM      2  C   UNL     1      37.265  30.682  28.149  1.00  0.00     0.000 C 
BRANCH   2   3
ATOM      3  C   UNL     1      37.549  32.146  28.505  1.00  0.00     0.000 C 
BRANCH   3   4
ATOM      4  C   UNL     1      38.978  32.542  28.104  1.00  0.00     0.000 C 
BRANCH   4   5
ATOM      5  C   UNL     1      39.839  32.948  29.310  1.00  0.00     0.006 C 
BRANCH   5   6
ATOM      6  C   UNL     1      40.698  31.791  29.840  1.00  0.00     0.053 C 
BRANCH   6   7
ATOM      7  C   UNL     1      42.136  32.006  29.490  1.00  0.00     0.041 C 
ATOM      8  O   UNL     1      42.913  31.023  29.371  1.00  0.00    -0.550 OA
ATOM      9  O   UNL     1      42.631  33.296  29.343  1.00  0.00    -0.550 OA
ENDBRANCH   6   7
ENDBRANCH   5   6
ENDBRANCH   4   5
ENDBRANCH   3   4
ENDBRANCH   2   3
ENDBRANCH   1   2
BRANCH   1  10
ATOM     10  C   UNL     1      35.292  29.237  28.896  1.00  0.00     0.000 C 
BRANCH  10  11
ATOM     11  C   UNL     1      35.187  27.816  29.477  1.00  0.00    -0.000 C 
BRANCH  11  12
ATOM     12  C   UNL     1      33.744  27.433  29.843  1.00  0.00    -0.000 C 
BRANCH  12  13
ATOM     13  C   UNL     1      32.723  27.903  28.796  1.00  0.00    -0.000 C 
BRANCH  13  14
ATOM     14  C   UNL     1      31.761  26.767  28.419  1.00  0.00    -0.000 C 
BRANCH  14  15
ATOM     15  C   UNL     1      32.078  26.154  27.047  1.00  0.00    -0.003 C 
ATOM     16  C   UNL     1      32.610  27.181  26.048  1.00  0.00     0.004 C 
ENDBRANCH  14  15
ENDBRANCH  13  14
ENDBRANCH  12  13
ENDBRANCH  11  12
ENDBRANCH  10  11
ENDBRANCH   1  10
TORSDOF 12
ENDMDL
MODEL 2
REMARK VINA RESULT:    -4.255      1.693      2.979
REMARK INTER + INTRA:          -7.878
REMARK INTER:                  -7.498
REMARK INTRA:                  -0.380
REMARK UNBOUND:                -0.638
REMARK SMILES CCCCCCCCCCCCCC(=O)[O-]
REMARK SMILES IDX 8 1 9 2 10 3 11 4 12 5 13 6 14 7 15 8 16 9 7 10 6 11 5 12
REMARK SMILES IDX 4 13 3 14 2 15 1 16
REMARK H PARENT
REMARK Flexibility Score: inf
ROOT
ATOM      1  C   UNL     1      38.665  31.367  28.990  1.00  0.00     0.000 C 
ENDROOT
BRANCH   1   2
ATOM      2  C   UNL     1      39.960  31.538  29.800  1.00  0.00     0.000 C 
BRANCH   2   3
ATOM      3  C   UNL     1      40.695  32.823  29.398  1.00  0.00     0.000 C 
BRANCH   3   4
ATOM      4  C   UNL     1      42.216  32.612  29.409  1.00  0.00     0.000 C 
BRANCH   4   5
ATOM      5  C   UNL     1      42.610  31.165  29.742  1.00  0.00     0.006 C 
BRANCH   5   6
ATOM      6  C   UNL     1      43.858  30.701  28.978  1.00  0.00     0.053 C 
BRANCH   6   7
ATOM      7  C   UNL     1      44.145  29.263  29.271  1.00  0.00     0.041 C 
ATOM      8  O   UNL     1      43.209  28.479  29.578  1.00  0.00    -0.550 OA
ATOM      9  O   UNL     1      45.455  28.798  29.255  1.00  0.00    -0.550 OA
ENDBRANCH   6   7
ENDBRANCH   5   6
ENDBRANCH   4   5
ENDBRANCH   3   4
ENDBRANCH   2   3
ENDBRANCH   1   2
BRANCH   1  10
ATOM     10  C   UNL     1      37.919  30.070  29.336  1.00  0.00     0.000 C 
BRANCH  10  11
ATOM     11  C   UNL     1      36.496  30.033  28.750  1.00  0.00    -0.000 C 
BRANCH  11  12
ATOM     12  C   UNL     1      35.760  28.722  29.071  1.00  0.00    -0.000 C 
BRANCH  12  13
ATOM     13  C   UNL     1      34.254  28.802  28.776  1.00  0.00    -0.000 C 
BRANCH  13  14
ATOM     14  C   UNL     1      33.633  27.399  28.713  1.00  0.00    -0.000 C 
BRANCH  14  15
ATOM     15  C   UNL     1      32.439  27.324  27.750  1.00  0.00    -0.003 C 
ATOM     16  C   UNL     1      32.513  26.124  26.806  1.00  0.00     0.004 C 
ENDBRANCH  14  15
ENDBRANCH  13  14
ENDBRANCH  12  13
ENDBRANCH  11  12
ENDBRANCH  10  11
ENDBRANCH   1  10
TORSDOF 12
ENDMDL
MODEL 3
REMARK VINA RESULT:    -4.078      2.276      4.662
REMARK INTER + INTRA:          -7.576
REMARK INTER:                  -7.182
REMARK INTRA:                  -0.394
REMARK UNBOUND:                -0.638
REMARK SMILES CCCCCCCCCCCCCC(=O)[O-]
REMARK SMILES IDX 8 1 9 2 10 3 11 4 12 5 13 6 14 7 15 8 16 9 7 10 6 11 5 12
REMARK SMILES IDX 4 13 3 14 2 15 1 16
REMARK H PARENT
REMARK Flexibility Score: inf
ROOT
ATOM      1  C   UNL     1      39.684  32.207  29.384  1.00  0.00     0.000 C 
ENDROOT
BRANCH   1   2
ATOM      2  C   UNL     1      41.027  32.949  29.465  1.00  0.00     0.000 C 
BRANCH   2   3
ATOM      3  C   UNL     1      42.139  32.021  29.969  1.00  0.00     0.000 C 
BRANCH   3   4
ATOM      4  C   UNL     1      43.493  32.398  29.351  1.00  0.00     0.000 C 
BRANCH   4   5
ATOM      5  C   UNL     1      43.846  33.879  29.559  1.00  0.00     0.006 C 
BRANCH   5   6
ATOM      6  C   UNL     1      43.937  34.656  28.239  1.00  0.00     0.053 C 
BRANCH   6   7
ATOM      7  C   UNL     1      44.297  36.084  28.498  1.00  0.00     0.041 C 
ATOM      8  O   UNL     1      43.871  36.669  29.529  1.00  0.00    -0.550 OA
ATOM      9  O   UNL     1      45.061  36.788  27.575  1.00  0.00    -0.550 OA
ENDBRANCH   6   7
ENDBRANCH   5   6
ENDBRANCH   4   5
ENDBRANCH   3   4
ENDBRANCH   2   3
ENDBRANCH   1   2
BRANCH   1  10
ATOM     10  C   UNL     1      38.852  32.623  28.161  1.00  0.00     0.000 C 
BRANCH  10  11
ATOM     11  C   UNL     1      37.391  32.150  28.253  1.00  0.00    -0.000 C 
BRANCH  11  12
ATOM     12  C   UNL     1      37.258  30.621  28.159  1.00  0.00    -0.000 C 
BRANCH  12  13
ATOM     13  C   UNL     1      37.030  29.962  29.528  1.00  0.00    -0.000 C 
BRANCH  13  14
ATOM     14  C   UNL     1      36.187  28.686  29.389  1.00  0.00    -0.000 C 
BRANCH  14  15
ATOM     15  C   UNL     1      34.681  28.955  29.525  1.00  0.00    -0.003 C 
ATOM     16  C   UNL     1      33.838  28.104  28.577  1.00  0.00     0.004 C 
ENDBRANCH  14  15
ENDBRANCH  13  14
ENDBRANCH  12  13
ENDBRANCH  11  12
ENDBRANCH  10  11
ENDBRANCH   1  10
TORSDOF 12
ENDMDL
MODEL 4
REMARK VINA RESULT:    -4.018     13.304     14.235
REMARK INTER + INTRA:          -7.475
REMARK INTER:                  -7.035
REMARK INTRA:                  -0.441
REMARK UNBOUND:                -0.638
REMARK SMILES CCCCCCCCCCCCCC(=O)[O-]
REMARK SMILES IDX 8 1 9 2 10 3 11 4 12 5 13 6 14 7 15 8 16 9 7 10 6 11 5 12
REMARK SMILES IDX 4 13 3 14 2 15 1 16
REMARK H PARENT
REMARK Flexibility Score: inf
ROOT
ATOM      1  C   UNL     1      43.137  23.952  16.935  1.00  0.00     0.000 C 
ENDROOT
BRANCH   1   2
ATOM      2  C   UNL     1      42.632  25.166  17.730  1.00  0.00     0.000 C 
BRANCH   2   3
ATOM      3  C   UNL     1      41.494  25.875  16.986  1.00  0.00     0.000 C 
BRANCH   3   4
ATOM      4  C   UNL     1      41.623  27.400  17.110  1.00  0.00     0.000 C 
BRANCH   4   5
ATOM      5  C   UNL     1      41.380  27.900  18.543  1.00  0.00     0.006 C 
BRANCH   5   6
ATOM      6  C   UNL     1      40.337  27.061  19.293  1.00  0.00     0.053 C 
BRANCH   6   7
ATOM      7  C   UNL     1      40.804  26.767  20.682  1.00  0.00     0.041 C 
ATOM      8  O   UNL     1      40.172  25.954  21.406  1.00  0.00    -0.550 OA
ATOM      9  O   UNL     1      41.912  27.430  21.198  1.00  0.00    -0.550 OA
ENDBRANCH   6   7
ENDBRANCH   5   6
ENDBRANCH   4   5
ENDBRANCH   3   4
ENDBRANCH   2   3
ENDBRANCH   1   2
BRANCH   1  10
ATOM     10  C   UNL     1      44.469  23.406  17.473  1.00  0.00     0.000 C 
BRANCH  10  11
ATOM     11  C   UNL     1      44.699  21.932  17.095  1.00  0.00    -0.000 C 
BRANCH  11  12
ATOM     12  C   UNL     1      43.622  21.000  17.672  1.00  0.00    -0.000 C 
BRANCH  12  13
ATOM     13  C   UNL     1      42.868  20.221  16.583  1.00  0.00    -0.000 C 
BRANCH  13  14
ATOM     14  C   UNL     1      41.646  19.501  17.171  1.00  0.00    -0.000 C 
BRANCH  14  15
ATOM     15  C   UNL     1      40.672  19.010  16.090  1.00  0.00    -0.003 C 
ATOM     16  C   UNL     1      40.974  17.586  15.623  1.00  0.00     0.004 C 
ENDBRANCH  14  15
ENDBRANCH  13  14
ENDBRANCH  12  13
ENDBRANCH  11  12
ENDBRANCH  10  11
ENDBRANCH   1  10
TORSDOF 12
ENDMDL
MODEL 5
REMARK VINA RESULT:    -3.988     10.721     12.219
REMARK INTER + INTRA:          -7.424
REMARK INTER:                  -7.043
REMARK INTRA:                  -0.381
REMARK UNBOUND:                -0.638
REMARK SMILES CCCCCCCCCCCCCC(=O)[O-]
REMARK SMILES IDX 8 1 9 2 10 3 11 4 12 5 13 6 14 7 15 8 16 9 7 10 6 11 5 12
REMARK SMILES IDX 4 13 3 14 2 15 1 16
REMARK H PARENT
REMARK Flexibility Score: inf
ROOT
ATOM      1  C   UNL     1      38.946  26.208  17.145  1.00  0.00     0.000 C 
ENDROOT
BRANCH   1   2
ATOM      2  C   UNL     1      40.266  26.810  16.641  1.00  0.00     0.000 C 
BRANCH   2   3
ATOM      3  C   UNL     1      41.469  26.016  17.166  1.00  0.00     0.000 C 
BRANCH   3   4
ATOM      4  C   UNL     1      41.496  26.012  18.702  1.00  0.00     0.000 C 
BRANCH   4   5
ATOM      5  C   UNL     1      41.140  27.381  19.303  1.00  0.00     0.006 C 
BRANCH   5   6
ATOM      6  C   UNL     1      40.272  27.266  20.563  1.00  0.00     0.053 C 
BRANCH   6   7
ATOM      7  C   UNL     1      41.123  27.338  21.791  1.00  0.00     0.041 C 
ATOM      8  O   UNL     1      40.589  27.426  22.928  1.00  0.00    -0.550 OA
ATOM      9  O   UNL     1      42.508  27.359  21.677  1.00  0.00    -0.550 OA
ENDBRANCH   6   7
ENDBRANCH   5   6
ENDBRANCH   4   5
ENDBRANCH   3   4
ENDBRANCH   2   3
ENDBRANCH   1   2
BRANCH   1  10
ATOM     10  C   UNL     1      37.888  26.093  16.036  1.00  0.00     0.000 C 
BRANCH  10  11
ATOM     11  C   UNL     1      36.499  25.717  16.582  1.00  0.00    -0.000 C 
BRANCH  11  12
ATOM     12  C   UNL     1      35.357  26.208  15.677  1.00  0.00    -0.000 C 
BRANCH  12  13
ATOM     13  C   UNL     1      34.975  27.671  15.947  1.00  0.00    -0.000 C 
BRANCH  13  14
ATOM     14  C   UNL     1      35.044  28.502  14.658  1.00  0.00    -0.000 C 
BRANCH  14  15
ATOM     15  C   UNL     1      34.948  30.012  14.923  1.00  0.00    -0.003 C 
ATOM     16  C   UNL     1      34.368  30.786  13.739  1.00  0.00     0.004 C 
ENDBRANCH  14  15
ENDBRANCH  13  14
ENDBRANCH  12  13
ENDBRANCH  11  12
ENDBRANCH  10  11
ENDBRANCH   1  10
TORSDOF 12
ENDMDL
MODEL 6
REMARK VINA RESULT:    -3.938     12.416     15.004
REMARK INTER + INTRA:          -7.339
REMARK INTER:                  -6.811
REMARK INTRA:                  -0.528
REMARK UNBOUND:                -0.638
REMARK SMILES CCCCCCCCCCCCCC(=O)[O-]
REMARK SMILES IDX 8 1 9 2 10 3 11 4 12 5 13 6 14 7 15 8 16 9 7 10 6 11 5 12
REMARK SMILES IDX 4 13 3 14 2 15 1 16
REMARK H PARENT
REMARK Flexibility Score: inf
ROOT
ATOM      1  C   UNL     1      42.468  29.572  16.031  1.00  0.00     0.000 C 
ENDROOT
BRANCH   1   2
ATOM      2  C   UNL     1      41.755  28.758  17.121  1.00  0.00     0.000 C 
BRANCH   2   3
ATOM      3  C   UNL     1      41.455  27.334  16.637  1.00  0.00     0.000 C 
BRANCH   3   4
ATOM      4  C   UNL     1      41.344  26.362  17.820  1.00  0.00     0.000 C 
BRANCH   4   5
ATOM      5  C   UNL     1      40.541  26.947  18.993  1.00  0.00     0.006 C 
BRANCH   5   6
ATOM      6  C   UNL     1      41.176  26.640  20.356  1.00  0.00     0.053 C 
BRANCH   6   7
ATOM      7  C   UNL     1      40.578  27.508  21.417  1.00  0.00     0.041 C 
ATOM      8  O   UNL     1      39.826  28.467  21.103  1.00  0.00    -0.550 OA
ATOM      9  O   UNL     1      40.891  27.287  22.753  1.00  0.00    -0.550 OA
ENDBRANCH   6   7
ENDBRANCH   5   6
ENDBRANCH   4   5
ENDBRANCH   3   4
ENDBRANCH   2   3
ENDBRANCH   1   2
BRANCH   1  10
ATOM     10  C   UNL     1      42.298  31.088  16.219  1.00  0.00     0.000 C 
BRANCH  10  11
ATOM     11  C   UNL     1      43.505  31.887  15.695  1.00  0.00    -0.000 C 
BRANCH  11  12
ATOM     12  C   UNL     1      44.821  31.484  16.379  1.00  0.00    -0.000 C 
BRANCH  12  13
ATOM     13  C   UNL     1      45.932  31.147  15.373  1.00  0.00    -0.000 C 
BRANCH  13  14
ATOM     14  C   UNL     1      47.105  30.440  16.067  1.00  0.00    -0.000 C 
BRANCH  14  15
ATOM     15  C   UNL     1      48.004  29.678  15.082  1.00  0.00    -0.003 C 
ATOM     16  C   UNL     1      49.287  30.436  14.742  1.00  0.00     0.004 C 
ENDBRANCH  14  15
ENDBRANCH  13  14
ENDBRANCH  12  13
ENDBRANCH  11  12
ENDBRANCH  10  11
ENDBRANCH   1  10
TORSDOF 12
ENDMDL
MODEL 7
REMARK VINA RESULT:    -3.854     10.899     12.519
REMARK INTER + INTRA:          -7.195
REMARK INTER:                  -6.663
REMARK INTRA:                  -0.532
REMARK UNBOUND:                -0.638
REMARK SMILES CCCCCCCCCCCCCC(=O)[O-]
REMARK SMILES IDX 8 1 9 2 10 3 11 4 12 5 13 6 14 7 15 8 16 9 7 10 6 11 5 12
REMARK SMILES IDX 4 13 3 14 2 15 1 16
REMARK H PARENT
REMARK Flexibility Score: inf
ROOT
ATOM      1  C   UNL     1      37.908  26.246  16.179  1.00  0.00     0.000 C 
ENDROOT
BRANCH   1   2
ATOM      2  C   UNL     1      38.988  26.362  17.265  1.00  0.00     0.000 C 
BRANCH   2   3
ATOM      3  C   UNL     1      40.389  26.409  16.644  1.00  0.00     0.000 C 
BRANCH   3   4
ATOM      4  C   UNL     1      41.472  26.473  17.731  1.00  0.00     0.000 C 
BRANCH   4   5
ATOM      5  C   UNL     1      41.101  27.426  18.879  1.00  0.00     0.006 C 
BRANCH   5   6
ATOM      6  C   UNL     1      41.439  26.849  20.260  1.00  0.00     0.053 C 
BRANCH   6   7
ATOM      7  C   UNL     1      40.623  27.519  21.319  1.00  0.00     0.041 C 
ATOM      8  O   UNL     1      39.917  28.522  21.037  1.00  0.00    -0.550 OA
ATOM      9  O   UNL     1      40.680  27.064  22.632  1.00  0.00    -0.550 OA
ENDBRANCH   6   7
ENDBRANCH   5   6
ENDBRANCH   4   5
ENDBRANCH   3   4
ENDBRANCH   2   3
ENDBRANCH   1   2
BRANCH   1  10
ATOM     10  C   UNL     1      36.668  25.476  16.659  1.00  0.00     0.000 C 
BRANCH  10  11
ATOM     11  C   UNL     1      35.398  25.855  15.877  1.00  0.00    -0.000 C 
BRANCH  11  12
ATOM     12  C   UNL     1      35.015  27.333  16.054  1.00  0.00    -0.000 C 
BRANCH  12  13
ATOM     13  C   UNL     1      35.040  28.114  14.731  1.00  0.00    -0.000 C 
BRANCH  13  14
ATOM     14  C   UNL     1      34.941  29.625  14.985  1.00  0.00    -0.000 C 
BRANCH  14  15
ATOM     15  C   UNL     1      34.938  30.444  13.685  1.00  0.00    -0.003 C 
ATOM     16  C   UNL     1      33.750  31.400  13.590  1.00  0.00     0.004 C 
ENDBRANCH  14  15
ENDBRANCH  13  14
ENDBRANCH  12  13
ENDBRANCH  11  12
ENDBRANCH  10  11
ENDBRANCH   1  10
TORSDOF 12
ENDMDL
MODEL 8
REMARK VINA RESULT:    -3.737      2.174      4.586
REMARK INTER + INTRA:          -6.997
REMARK INTER:                  -6.508
REMARK INTRA:                  -0.489
REMARK UNBOUND:                -0.638
REMARK SMILES CCCCCCCCCCCCCC(=O)[O-]
REMARK SMILES IDX 8 1 9 2 10 3 11 4 12 5 13 6 14 7 15 8 16 9 7 10 6 11 5 12
REMARK SMILES IDX 4 13 3 14 2 15 1 16
REMARK H PARENT
REMARK Flexibility Score: inf
ROOT
ATOM      1  C   UNL     1      40.450  32.510  29.413  1.00  0.00     0.000 C 
ENDROOT
BRANCH   1   2
ATOM      2  C   UNL     1      41.796  32.711  30.125  1.00  0.00     0.000 C 
BRANCH   2   3
ATOM      3  C   UNL     1      42.928  32.921  29.112  1.00  0.00     0.000 C 
BRANCH   3   4
ATOM      4  C   UNL     1      43.967  31.795  29.206  1.00  0.00     0.000 C 
BRANCH   4   5
ATOM      5  C   UNL     1      43.473  30.603  30.042  1.00  0.00     0.006 C 
BRANCH   5   6
ATOM      6  C   UNL     1      44.505  29.471  30.125  1.00  0.00     0.053 C 
BRANCH   6   7
ATOM      7  C   UNL     1      43.918  28.191  29.620  1.00  0.00     0.041 C 
ATOM      8  O   UNL     1      42.816  27.779  30.067  1.00  0.00    -0.550 OA
ATOM      9  O   UNL     1      44.613  27.427  28.690  1.00  0.00    -0.550 OA
ENDBRANCH   6   7
ENDBRANCH   5   6
ENDBRANCH   4   5
ENDBRANCH   3   4
ENDBRANCH   2   3
ENDBRANCH   1   2
BRANCH   1  10
ATOM     10  C   UNL     1      39.664  31.309  29.962  1.00  0.00     0.000 C 
BRANCH  10  11
ATOM     11  C   UNL     1      38.511  30.884  29.036  1.00  0.00    -0.000 C 
BRANCH  11  12
ATOM     12  C   UNL     1      37.610  29.812  29.669  1.00  0.00    -0.000 C 
BRANCH  12  13
ATOM     13  C   UNL     1      36.300  29.606  28.894  1.00  0.00    -0.000 C 
BRANCH  13  14
ATOM     14  C   UNL     1      35.159  29.207  29.841  1.00  0.00    -0.000 C 
BRANCH  14  15
ATOM     15  C   UNL     1      34.593  27.814  29.531  1.00  0.00    -0.003 C 
ATOM     16  C   UNL     1      33.563  27.830  28.401  1.00  0.00     0.004 C 
ENDBRANCH  14  15
ENDBRANCH  13  14
ENDBRANCH  12  13
ENDBRANCH  11  12
ENDBRANCH  10  11
ENDBRANCH   1  10
TORSDOF 12
ENDMDL
MODEL 9
REMARK VINA RESULT:    -2.557      1.668      2.860
REMARK INTER + INTRA:          -4.988
REMARK INTER:                  -4.181
REMARK INTRA:                  -0.808
REMARK UNBOUND:                -0.638
REMARK SMILES CCCCCCCCCCCCCC(=O)[O-]
REMARK SMILES IDX 8 1 9 2 10 3 11 4 12 5 13 6 14 7 15 8 16 9 7 10 6 11 5 12
REMARK SMILES IDX 4 13 3 14 2 15 1 16
REMARK H PARENT
REMARK Flexibility Score: inf
ROOT
ATOM      1  C   UNL     1      34.936  27.717  29.260  1.00  0.00     0.000 C 
ENDROOT
BRANCH   1   2
ATOM      2  C   UNL     1      36.143  28.112  30.125  1.00  0.00     0.000 C 
BRANCH   2   3
ATOM      3  C   UNL     1      36.981  29.195  29.436  1.00  0.00     0.000 C 
BRANCH   3   4
ATOM      4  C   UNL     1      38.422  29.197  29.969  1.00  0.00     0.000 C 
BRANCH   4   5
ATOM      5  C   UNL     1      39.160  30.513  29.674  1.00  0.00     0.006 C 
BRANCH   5   6
ATOM      6  C   UNL     1      38.235  31.593  29.098  1.00  0.00     0.053 C 
BRANCH   6   7
ATOM      7  C   UNL     1      39.014  32.828  28.775  1.00  0.00     0.041 C 
ATOM      8  O   UNL     1      38.439  33.826  28.266  1.00  0.00    -0.550 OA
ATOM      9  O   UNL     1      40.387  32.861  28.990  1.00  0.00    -0.550 OA
ENDBRANCH   6   7
ENDBRANCH   5   6
ENDBRANCH   4   5
ENDBRANCH   3   4
ENDBRANCH   2   3
ENDBRANCH   1   2
BRANCH   1  10
ATOM     10  C   UNL     1      33.688  27.397  30.097  1.00  0.00     0.000 C 
BRANCH  10  11
ATOM     11  C   UNL     1      32.679  28.559  30.123  1.00  0.00    -0.000 C 
BRANCH  11  12
ATOM     12  C   UNL     1      31.428  28.272  29.278  1.00  0.00    -0.000 C 
BRANCH  12  13
ATOM     13  C   UNL     1      31.123  26.771  29.162  1.00  0.00    -0.000 C 
BRANCH  13  14
ATOM     14  C   UNL     1      31.221  26.303  27.703  1.00  0.00    -0.000 C 
BRANCH  14  15
ATOM     15  C   UNL     1      31.807  27.377  26.775  1.00  0.00    -0.003 C 
ATOM     16  C   UNL     1      32.716  26.795  25.693  1.00  0.00     0.004 C 
ENDBRANCH  14  15
ENDBRANCH  13  14
ENDBRANCH  12  13
ENDBRANCH  11  12
ENDBRANCH  10  11
ENDBRANCH   1  10
TORSDOF 12
ENDMDL
