MODEL 1
REMARK VINA RESULT:    -3.013      0.000      0.000
REMARK INTER + INTRA:         -11.417
REMARK INTER:                  -6.888
REMARK INTRA:                  -4.530
REMARK UNBOUND:                -4.530
REMARK SMILES CCCCCCCCCCCCCCCCCCCCCCCC(=O)[O-]
REMARK SMILES IDX 13 1 14 2 15 3 16 4 17 5 18 6 19 7 20 8 21 9 22 10 23 11
REMARK SMILES IDX 24 12 25 13 26 14 12 15 11 16 10 17 9 18 8 19 7 20 6 21 5 22
REMARK SMILES IDX 4 23 3 24 2 25 1 26
REMARK H PARENT
REMARK Flexibility Score: inf
ROOT
ATOM      1  C   UNL     1      21.619   6.596  33.552  1.00  0.00     0.000 C 
ENDROOT
BRANCH   1   2
ATOM      2  C   UNL     1      20.787   5.474  32.907  1.00  0.00     0.000 C 
BRANCH   2   3
ATOM      3  C   UNL     1      21.627   4.536  32.019  1.00  0.00     0.000 C 
BRANCH   3   4
ATOM      4  C   UNL     1      22.199   3.292  32.726  1.00  0.00     0.000 C 
BRANCH   4   5
ATOM      5  C   UNL     1      23.451   3.599  33.566  1.00  0.00     0.000 C 
BRANCH   5   6
ATOM      6  C   UNL     1      23.411   2.923  34.946  1.00  0.00     0.000 C 
BRANCH   6   7
ATOM      7  C   UNL     1      22.466   3.632  35.929  1.00  0.00     0.000 C 
BRANCH   7   8
ATOM      8  C   UNL     1      21.288   2.726  36.305  1.00  0.00     0.000 C 
BRANCH   8   9
ATOM      9  C   UNL     1      19.985   3.527  36.420  1.00  0.00     0.000 C 
BRANCH   9  10
ATOM     10  C   UNL     1      19.066   3.256  35.220  1.00  0.00     0.006 C 
BRANCH  10  11
ATOM     11  C   UNL     1      19.331   1.886  34.583  1.00  0.00     0.053 C 
BRANCH  11  12
ATOM     12  C   UNL     1      18.150   0.972  34.705  1.00  0.00     0.041 C 
ATOM     13  O   UNL     1      17.186   1.279  35.455  1.00  0.00    -0.550 OA
ATOM     14  O   UNL     1      18.113  -0.220  33.987  1.00  0.00    -0.550 OA
ENDBRANCH  11  12
ENDBRANCH  10  11
ENDBRANCH   9  10
ENDBRANCH   8   9
ENDBRANCH   7   8
ENDBRANCH   6   7
ENDBRANCH   5   6
ENDBRANCH   4   5
ENDBRANCH   3   4
ENDBRANCH   2   3
ENDBRANCH   1   2
BRANCH   1  15
ATOM     15  C   UNL     1      21.235   6.866  35.018  1.00  0.00     0.000 C 
BRANCH  15  16
ATOM     16  C   UNL     1      19.725   6.988  35.289  1.00  0.00     0.000 C 
BRANCH  16  17
ATOM     17  C   UNL     1      19.292   8.419  35.652  1.00  0.00     0.000 C 
BRANCH  17  18
ATOM     18  C   UNL     1      20.454   9.434  35.577  1.00  0.00    -0.000 C 
BRANCH  18  19
ATOM     19  C   UNL     1      20.847  10.037  36.939  1.00  0.00    -0.000 C 
BRANCH  19  20
ATOM     20  C   UNL     1      22.264   9.686  37.429  1.00  0.00    -0.000 C 
BRANCH  20  21
ATOM     21  C   UNL     1      22.323   8.804  38.693  1.00  0.00    -0.000 C 
BRANCH  21  22
ATOM     22  C   UNL     1      20.960   8.293  39.196  1.00  0.00    -0.000 C 
BRANCH  22  23
ATOM     23  C   UNL     1      20.744   6.796  38.923  1.00  0.00    -0.000 C 
BRANCH  23  24
ATOM     24  C   UNL     1      22.057   6.074  38.550  1.00  0.00    -0.000 C 
BRANCH  24  25
ATOM     25  C   UNL     1      22.434   4.938  39.514  1.00  0.00    -0.003 C 
ATOM     26  C   UNL     1      21.328   4.610  40.514  1.00  0.00     0.004 C 
ENDBRANCH  24  25
ENDBRANCH  23  24
ENDBRANCH  22  23
ENDBRANCH  21  22
ENDBRANCH  20  21
ENDBRANCH  19  20
ENDBRANCH  18  19
ENDBRANCH  17  18
ENDBRANCH  16  17
ENDBRANCH  15  16
ENDBRANCH   1  15
TORSDOF 22
ENDMDL
MODEL 2
REMARK VINA RESULT:    -2.956      8.960     11.707
REMARK INTER + INTRA:         -11.287
REMARK INTER:                  -7.162
REMARK INTRA:                  -4.125
REMARK UNBOUND:                -4.530
REMARK SMILES CCCCCCCCCCCCCCCCCCCCCCCC(=O)[O-]
REMARK SMILES IDX 13 1 14 2 15 3 16 4 17 5 18 6 19 7 20 8 21 9 22 10 23 11
REMARK SMILES IDX 24 12 25 13 26 14 12 15 11 16 10 17 9 18 8 19 7 20 6 21 5 22
REMARK SMILES IDX 4 23 3 24 2 25 1 26
REMARK H PARENT
REMARK Flexibility Score: inf
ROOT
ATOM      1  C   UNL     1      10.845   4.329  29.232  1.00  0.00     0.000 C 
ENDROOT
BRANCH   1   2
ATOM      2  C   UNL     1      10.725   2.885  29.747  1.00  0.00     0.000 C 
BRANCH   2   3
ATOM      3  C   UNL     1       9.266   2.447  29.979  1.00  0.00     0.000 C 
BRANCH   3   4
ATOM      4  C   UNL     1       8.912   2.063  31.429  1.00  0.00     0.000 C 
BRANCH   4   5
ATOM      5  C   UNL     1      10.108   1.491  32.210  1.00  0.00     0.000 C 
BRANCH   5   6
ATOM      6  C   UNL     1      10.052   1.839  33.706  1.00  0.00     0.000 C 
BRANCH   6   7
ATOM      7  C   UNL     1       8.900   2.796  34.051  1.00  0.00     0.000 C 
BRANCH   7   8
ATOM      8  C   UNL     1       9.018   3.294  35.496  1.00  0.00     0.000 C 
BRANCH   8   9
ATOM      9  C   UNL     1       9.154   4.821  35.549  1.00  0.00     0.000 C 
BRANCH   9  10
ATOM     10  C   UNL     1      10.535   5.231  36.080  1.00  0.00     0.006 C 
BRANCH  10  11
ATOM     11  C   UNL     1      11.021   4.310  37.208  1.00  0.00     0.053 C 
BRANCH  11  12
ATOM     12  C   UNL     1      10.841   4.934  38.558  1.00  0.00     0.041 C 
ATOM     13  O   UNL     1       9.842   4.639  39.265  1.00  0.00    -0.550 OA
ATOM     14  O   UNL     1      11.781   5.842  39.038  1.00  0.00    -0.550 OA
ENDBRANCH  11  12
ENDBRANCH  10  11
ENDBRANCH   9  10
ENDBRANCH   8   9
ENDBRANCH   7   8
ENDBRANCH   6   7
ENDBRANCH   5   6
ENDBRANCH   4   5
ENDBRANCH   3   4
ENDBRANCH   2   3
ENDBRANCH   1   2
BRANCH   1  15
ATOM     15  C   UNL     1       9.510   5.094  29.259  1.00  0.00     0.000 C 
BRANCH  15  16
ATOM     16  C   UNL     1       9.619   6.595  29.585  1.00  0.00     0.000 C 
BRANCH  16  17
ATOM     17  C   UNL     1       8.885   6.984  30.880  1.00  0.00     0.000 C 
BRANCH  17  18
ATOM     18  C   UNL     1       9.422   6.237  32.121  1.00  0.00    -0.000 C 
BRANCH  18  19
ATOM     19  C   UNL     1      10.581   6.961  32.833  1.00  0.00    -0.000 C 
BRANCH  19  20
ATOM     20  C   UNL     1      11.949   6.261  32.740  1.00  0.00    -0.000 C 
BRANCH  20  21
ATOM     21  C   UNL     1      11.899   4.719  32.739  1.00  0.00    -0.000 C 
BRANCH  21  22
ATOM     22  C   UNL     1      13.214   4.025  32.338  1.00  0.00    -0.000 C 
BRANCH  22  23
ATOM     23  C   UNL     1      13.996   4.798  31.263  1.00  0.00    -0.000 C 
BRANCH  23  24
ATOM     24  C   UNL     1      15.119   3.949  30.632  1.00  0.00    -0.000 C 
BRANCH  24  25
ATOM     25  C   UNL     1      15.503   4.388  29.210  1.00  0.00    -0.003 C 
ATOM     26  C   UNL     1      14.390   5.155  28.500  1.00  0.00     0.004 C 
ENDBRANCH  24  25
ENDBRANCH  23  24
ENDBRANCH  22  23
ENDBRANCH  21  22
ENDBRANCH  20  21
ENDBRANCH  19  20
ENDBRANCH  18  19
ENDBRANCH  17  18
ENDBRANCH  16  17
ENDBRANCH  15  16
ENDBRANCH   1  15
TORSDOF 22
ENDMDL
MODEL 3
REMARK VINA RESULT:    -2.929      8.171     10.712
REMARK INTER + INTRA:         -11.226
REMARK INTER:                  -6.983
REMARK INTRA:                  -4.243
REMARK UNBOUND:                -4.530
REMARK SMILES CCCCCCCCCCCCCCCCCCCCCCCC(=O)[O-]
REMARK SMILES IDX 13 1 14 2 15 3 16 4 17 5 18 6 19 7 20 8 21 9 22 10 23 11
REMARK SMILES IDX 24 12 25 13 26 14 12 15 11 16 10 17 9 18 8 19 7 20 6 21 5 22
REMARK SMILES IDX 4 23 3 24 2 25 1 26
REMARK H PARENT
REMARK Flexibility Score: inf
ROOT
ATOM      1  C   UNL     1      10.278   1.829  30.524  1.00  0.00     0.000 C 
ENDROOT
BRANCH   1   2
ATOM      2  C   UNL     1      11.748   1.756  30.079  1.00  0.00     0.000 C 
BRANCH   2   3
ATOM      3  C   UNL     1      11.922   1.159  28.669  1.00  0.00     0.000 C 
BRANCH   3   4
ATOM      4  C   UNL     1      12.649   2.060  27.653  1.00  0.00     0.000 C 
BRANCH   4   5
ATOM      5  C   UNL     1      12.290   3.548  27.802  1.00  0.00     0.000 C 
BRANCH   5   6
ATOM      6  C   UNL     1      13.447   4.474  27.393  1.00  0.00     0.000 C 
BRANCH   6   7
ATOM      7  C   UNL     1      13.788   5.513  28.473  1.00  0.00     0.000 C 
BRANCH   7   8
ATOM      8  C   UNL     1      13.709   4.892  29.873  1.00  0.00     0.000 C 
BRANCH   8   9
ATOM      9  C   UNL     1      15.071   4.340  30.314  1.00  0.00     0.000 C 
BRANCH   9  10
ATOM     10  C   UNL     1      16.218   5.135  29.674  1.00  0.00     0.006 C 
BRANCH  10  11
ATOM     11  C   UNL     1      17.238   4.225  28.977  1.00  0.00     0.053 C 
BRANCH  11  12
ATOM     12  C   UNL     1      18.369   3.850  29.887  1.00  0.00     0.041 C 
ATOM     13  O   UNL     1      19.071   2.835  29.639  1.00  0.00    -0.550 OA
ATOM     14  O   UNL     1      18.648   4.624  31.009  1.00  0.00    -0.550 OA
ENDBRANCH  11  12
ENDBRANCH  10  11
ENDBRANCH   9  10
ENDBRANCH   8   9
ENDBRANCH   7   8
ENDBRANCH   6   7
ENDBRANCH   5   6
ENDBRANCH   4   5
ENDBRANCH   3   4
ENDBRANCH   2   3
ENDBRANCH   1   2
BRANCH   1  15
ATOM     15  C   UNL     1       9.548   3.077  29.997  1.00  0.00     0.000 C 
BRANCH  15  16
ATOM     16  C   UNL     1       9.962   4.407  30.652  1.00  0.00     0.000 C 
BRANCH  16  17
ATOM     17  C   UNL     1       9.763   5.621  29.728  1.00  0.00     0.000 C 
BRANCH  17  18
ATOM     18  C   UNL     1      10.305   6.933  30.337  1.00  0.00    -0.000 C 
BRANCH  18  19
ATOM     19  C   UNL     1      11.113   6.734  31.634  1.00  0.00    -0.000 C 
BRANCH  19  20
ATOM     20  C   UNL     1      10.885   7.801  32.719  1.00  0.00    -0.000 C 
BRANCH  20  21
ATOM     21  C   UNL     1      10.420   7.260  34.087  1.00  0.00    -0.000 C 
BRANCH  21  22
ATOM     22  C   UNL     1       9.967   5.788  34.085  1.00  0.00    -0.000 C 
BRANCH  22  23
ATOM     23  C   UNL     1      10.981   4.849  34.760  1.00  0.00    -0.000 C 
BRANCH  23  24
ATOM     24  C   UNL     1      11.302   3.614  33.892  1.00  0.00    -0.000 C 
BRANCH  24  25
ATOM     25  C   UNL     1      12.705   3.648  33.263  1.00  0.00    -0.003 C 
ATOM     26  C   UNL     1      13.536   4.844  33.718  1.00  0.00     0.004 C 
ENDBRANCH  24  25
ENDBRANCH  23  24
ENDBRANCH  22  23
ENDBRANCH  21  22
ENDBRANCH  20  21
ENDBRANCH  19  20
ENDBRANCH  18  19
ENDBRANCH  17  18
ENDBRANCH  16  17
ENDBRANCH  15  16
ENDBRANCH   1  15
TORSDOF 22
ENDMDL
MODEL 4
REMARK VINA RESULT:    -2.881      5.256      7.479
REMARK INTER + INTRA:         -11.116
REMARK INTER:                  -9.225
REMARK INTRA:                  -1.891
REMARK UNBOUND:                -4.530
REMARK SMILES CCCCCCCCCCCCCCCCCCCCCCCC(=O)[O-]
REMARK SMILES IDX 13 1 14 2 15 3 16 4 17 5 18 6 19 7 20 8 21 9 22 10 23 11
REMARK SMILES IDX 24 12 25 13 26 14 12 15 11 16 10 17 9 18 8 19 7 20 6 21 5 22
REMARK SMILES IDX 4 23 3 24 2 25 1 26
REMARK H PARENT
REMARK Flexibility Score: inf
ROOT
ATOM      1  C   UNL     1      22.007   3.531  30.676  1.00  0.00     0.000 C 
ENDROOT
BRANCH   1   2
ATOM      2  C   UNL     1      22.577   2.108  30.554  1.00  0.00     0.000 C 
BRANCH   2   3
ATOM      3  C   UNL     1      22.793   1.668  29.093  1.00  0.00     0.000 C 
BRANCH   3   4
ATOM      4  C   UNL     1      21.721   2.142  28.093  1.00  0.00     0.000 C 
BRANCH   4   5
ATOM      5  C   UNL     1      22.225   3.244  27.146  1.00  0.00     0.000 C 
BRANCH   5   6
ATOM      6  C   UNL     1      23.704   3.063  26.768  1.00  0.00     0.000 C 
BRANCH   6   7
ATOM      7  C   UNL     1      24.373   4.377  26.335  1.00  0.00     0.000 C 
BRANCH   7   8
ATOM      8  C   UNL     1      23.829   5.560  27.145  1.00  0.00     0.000 C 
BRANCH   8   9
ATOM      9  C   UNL     1      23.903   6.864  26.341  1.00  0.00     0.000 C 
BRANCH   9  10
ATOM     10  C   UNL     1      25.309   7.479  26.423  1.00  0.00     0.006 C 
BRANCH  10  11
ATOM     11  C   UNL     1      25.792   7.634  27.871  1.00  0.00     0.053 C 
BRANCH  11  12
ATOM     12  C   UNL     1      25.326   8.920  28.483  1.00  0.00     0.041 C 
ATOM     13  O   UNL     1      25.107   8.989  29.721  1.00  0.00    -0.550 OA
ATOM     14  O   UNL     1      25.137  10.044  27.685  1.00  0.00    -0.550 OA
ENDBRANCH  11  12
ENDBRANCH  10  11
ENDBRANCH   9  10
ENDBRANCH   8   9
ENDBRANCH   7   8
ENDBRANCH   6   7
ENDBRANCH   5   6
ENDBRANCH   4   5
ENDBRANCH   3   4
ENDBRANCH   2   3
ENDBRANCH   1   2
BRANCH   1  15
ATOM     15  C   UNL     1      22.327   4.196  32.026  1.00  0.00     0.000 C 
BRANCH  15  16
ATOM     16  C   UNL     1      22.465   5.729  31.987  1.00  0.00     0.000 C 
BRANCH  16  17
ATOM     17  C   UNL     1      21.642   6.436  33.078  1.00  0.00     0.000 C 
BRANCH  17  18
ATOM     18  C   UNL     1      20.683   5.479  33.819  1.00  0.00    -0.000 C 
BRANCH  18  19
ATOM     19  C   UNL     1      19.604   6.197  34.652  1.00  0.00    -0.000 C 
BRANCH  19  20
ATOM     20  C   UNL     1      20.107   6.860  35.947  1.00  0.00    -0.000 C 
BRANCH  20  21
ATOM     21  C   UNL     1      20.116   8.403  35.935  1.00  0.00    -0.000 C 
BRANCH  21  22
ATOM     22  C   UNL     1      21.433   9.043  35.457  1.00  0.00    -0.000 C 
BRANCH  22  23
ATOM     23  C   UNL     1      22.447   9.245  36.595  1.00  0.00    -0.000 C 
BRANCH  23  24
ATOM     24  C   UNL     1      21.760   9.482  37.956  1.00  0.00    -0.000 C 
BRANCH  24  25
ATOM     25  C   UNL     1      22.388   8.688  39.113  1.00  0.00    -0.003 C 
ATOM     26  C   UNL     1      22.082   7.194  39.048  1.00  0.00     0.004 C 
ENDBRANCH  24  25
ENDBRANCH  23  24
ENDBRANCH  22  23
ENDBRANCH  21  22
ENDBRANCH  20  21
ENDBRANCH  19  20
ENDBRANCH  18  19
ENDBRANCH  17  18
ENDBRANCH  16  17
ENDBRANCH  15  16
ENDBRANCH   1  15
TORSDOF 22
ENDMDL
MODEL 5
REMARK VINA RESULT:    -2.845      8.461     10.935
REMARK INTER + INTRA:         -11.034
REMARK INTER:                  -6.262
REMARK INTRA:                  -4.773
REMARK UNBOUND:                -4.530
REMARK SMILES CCCCCCCCCCCCCCCCCCCCCCCC(=O)[O-]
REMARK SMILES IDX 13 1 14 2 15 3 16 4 17 5 18 6 19 7 20 8 21 9 22 10 23 11
REMARK SMILES IDX 24 12 25 13 26 14 12 15 11 16 10 17 9 18 8 19 7 20 6 21 5 22
REMARK SMILES IDX 4 23 3 24 2 25 1 26
REMARK H PARENT
REMARK Flexibility Score: inf
ROOT
ATOM      1  C   UNL     1      10.779   4.521  29.080  1.00  0.00     0.000 C 
ENDROOT
BRANCH   1   2
ATOM      2  C   UNL     1       9.530   5.398  29.266  1.00  0.00     0.000 C 
BRANCH   2   3
ATOM      3  C   UNL     1       9.866   6.845  29.676  1.00  0.00     0.000 C 
BRANCH   3   4
ATOM      4  C   UNL     1       9.366   7.271  31.070  1.00  0.00     0.000 C 
BRANCH   4   5
ATOM      5  C   UNL     1      10.478   7.276  32.133  1.00  0.00     0.000 C 
BRANCH   5   6
ATOM      6  C   UNL     1      10.301   6.156  33.171  1.00  0.00     0.000 C 
BRANCH   6   7
ATOM      7  C   UNL     1       8.947   5.441  33.050  1.00  0.00     0.000 C 
BRANCH   7   8
ATOM      8  C   UNL     1       9.123   3.920  33.119  1.00  0.00     0.000 C 
BRANCH   8   9
ATOM      9  C   UNL     1      10.506   3.497  32.605  1.00  0.00     0.000 C 
BRANCH   9  10
ATOM     10  C   UNL     1      10.623   1.967  32.542  1.00  0.00     0.006 C 
BRANCH  10  11
ATOM     11  C   UNL     1      10.607   1.443  31.100  1.00  0.00     0.053 C 
BRANCH  11  12
ATOM     12  C   UNL     1      11.987   1.160  30.590  1.00  0.00     0.041 C 
ATOM     13  O   UNL     1      12.914   0.878  31.393  1.00  0.00    -0.550 OA
ATOM     14  O   UNL     1      12.249   1.206  29.224  1.00  0.00    -0.550 OA
ENDBRANCH  11  12
ENDBRANCH  10  11
ENDBRANCH   9  10
ENDBRANCH   8   9
ENDBRANCH   7   8
ENDBRANCH   6   7
ENDBRANCH   5   6
ENDBRANCH   4   5
ENDBRANCH   3   4
ENDBRANCH   2   3
ENDBRANCH   1   2
BRANCH   1  15
ATOM     15  C   UNL     1      12.094   5.274  29.351  1.00  0.00     0.000 C 
BRANCH  15  16
ATOM     16  C   UNL     1      12.826   4.874  30.644  1.00  0.00     0.000 C 
BRANCH  16  17
ATOM     17  C   UNL     1      14.307   4.525  30.414  1.00  0.00     0.000 C 
BRANCH  17  18
ATOM     18  C   UNL     1      15.053   4.189  31.724  1.00  0.00    -0.000 C 
BRANCH  18  19
ATOM     19  C   UNL     1      14.194   4.349  32.993  1.00  0.00    -0.000 C 
BRANCH  19  20
ATOM     20  C   UNL     1      13.970   3.059  33.801  1.00  0.00    -0.000 C 
BRANCH  20  21
ATOM     21  C   UNL     1      13.555   3.268  35.272  1.00  0.00    -0.000 C 
BRANCH  21  22
ATOM     22  C   UNL     1      12.585   4.439  35.515  1.00  0.00    -0.000 C 
BRANCH  22  23
ATOM     23  C   UNL     1      11.679   4.222  36.738  1.00  0.00    -0.000 C 
BRANCH  23  24
ATOM     24  C   UNL     1      10.383   5.056  36.662  1.00  0.00    -0.000 C 
BRANCH  24  25
ATOM     25  C   UNL     1       9.100   4.223  36.818  1.00  0.00    -0.003 C 
ATOM     26  C   UNL     1       9.330   2.727  36.620  1.00  0.00     0.004 C 
ENDBRANCH  24  25
ENDBRANCH  23  24
ENDBRANCH  22  23
ENDBRANCH  21  22
ENDBRANCH  20  21
ENDBRANCH  19  20
ENDBRANCH  18  19
ENDBRANCH  17  18
ENDBRANCH  16  17
ENDBRANCH  15  16
ENDBRANCH   1  15
TORSDOF 22
ENDMDL
MODEL 6
REMARK VINA RESULT:    -2.841      8.283     10.747
REMARK INTER + INTRA:         -11.024
REMARK INTER:                  -6.530
REMARK INTRA:                  -4.494
REMARK UNBOUND:                -4.530
REMARK SMILES CCCCCCCCCCCCCCCCCCCCCCCC(=O)[O-]
REMARK SMILES IDX 13 1 14 2 15 3 16 4 17 5 18 6 19 7 20 8 21 9 22 10 23 11
REMARK SMILES IDX 24 12 25 13 26 14 12 15 11 16 10 17 9 18 8 19 7 20 6 21 5 22
REMARK SMILES IDX 4 23 3 24 2 25 1 26
REMARK H PARENT
REMARK Flexibility Score: inf
ROOT
ATOM      1  C   UNL     1      11.425   3.272  29.285  1.00  0.00     0.000 C 
ENDROOT
BRANCH   1   2
ATOM      2  C   UNL     1      10.578   2.015  29.543  1.00  0.00     0.000 C 
BRANCH   2   3
ATOM      3  C   UNL     1       9.369   2.279  30.459  1.00  0.00     0.000 C 
BRANCH   3   4
ATOM      4  C   UNL     1       9.415   1.584  31.834  1.00  0.00     0.000 C 
BRANCH   4   5
ATOM      5  C   UNL     1      10.421   2.231  32.802  1.00  0.00     0.000 C 
BRANCH   5   6
ATOM      6  C   UNL     1      11.730   1.432  32.908  1.00  0.00     0.000 C 
BRANCH   6   7
ATOM      7  C   UNL     1      12.972   2.284  32.607  1.00  0.00     0.000 C 
BRANCH   7   8
ATOM      8  C   UNL     1      12.655   3.778  32.738  1.00  0.00     0.000 C 
BRANCH   8   9
ATOM      9  C   UNL     1      13.765   4.638  32.119  1.00  0.00     0.000 C 
BRANCH   9  10
ATOM     10  C   UNL     1      14.716   3.780  31.272  1.00  0.00     0.006 C 
BRANCH  10  11
ATOM     11  C   UNL     1      15.704   4.633  30.465  1.00  0.00     0.053 C 
BRANCH  11  12
ATOM     12  C   UNL     1      15.281   4.780  29.035  1.00  0.00     0.041 C 
ATOM     13  O   UNL     1      14.298   5.507  28.737  1.00  0.00    -0.550 OA
ATOM     14  O   UNL     1      15.976   4.114  28.030  1.00  0.00    -0.550 OA
ENDBRANCH  11  12
ENDBRANCH  10  11
ENDBRANCH   9  10
ENDBRANCH   8   9
ENDBRANCH   7   8
ENDBRANCH   6   7
ENDBRANCH   5   6
ENDBRANCH   4   5
ENDBRANCH   3   4
ENDBRANCH   2   3
ENDBRANCH   1   2
BRANCH   1  15
ATOM     15  C   UNL     1      10.588   4.562  29.226  1.00  0.00     0.000 C 
BRANCH  15  16
ATOM     16  C   UNL     1      11.068   5.700  30.147  1.00  0.00     0.000 C 
BRANCH  16  17
ATOM     17  C   UNL     1       9.910   6.462  30.815  1.00  0.00     0.000 C 
BRANCH  17  18
ATOM     18  C   UNL     1       9.257   5.668  31.967  1.00  0.00    -0.000 C 
BRANCH  18  19
ATOM     19  C   UNL     1       9.890   5.932  33.347  1.00  0.00    -0.000 C 
BRANCH  19  20
ATOM     20  C   UNL     1       9.239   5.181  34.523  1.00  0.00    -0.000 C 
BRANCH  20  21
ATOM     21  C   UNL     1       9.352   5.880  35.893  1.00  0.00    -0.000 C 
BRANCH  21  22
ATOM     22  C   UNL     1      10.468   5.343  36.808  1.00  0.00    -0.000 C 
BRANCH  22  23
ATOM     23  C   UNL     1      10.447   3.811  36.942  1.00  0.00    -0.000 C 
BRANCH  23  24
ATOM     24  C   UNL     1      11.666   3.149  36.264  1.00  0.00    -0.000 C 
BRANCH  24  25
ATOM     25  C   UNL     1      12.897   4.065  36.172  1.00  0.00    -0.003 C 
ATOM     26  C   UNL     1      14.216   3.297  36.171  1.00  0.00     0.004 C 
ENDBRANCH  24  25
ENDBRANCH  23  24
ENDBRANCH  22  23
ENDBRANCH  21  22
ENDBRANCH  20  21
ENDBRANCH  19  20
ENDBRANCH  18  19
ENDBRANCH  17  18
ENDBRANCH  16  17
ENDBRANCH  15  16
ENDBRANCH   1  15
TORSDOF 22
ENDMDL
MODEL 7
REMARK VINA RESULT:    -2.834      8.275     10.762
REMARK INTER + INTRA:         -11.009
REMARK INTER:                  -6.707
REMARK INTRA:                  -4.302
REMARK UNBOUND:                -4.530
REMARK SMILES CCCCCCCCCCCCCCCCCCCCCCCC(=O)[O-]
REMARK SMILES IDX 13 1 14 2 15 3 16 4 17 5 18 6 19 7 20 8 21 9 22 10 23 11
REMARK SMILES IDX 24 12 25 13 26 14 12 15 11 16 10 17 9 18 8 19 7 20 6 21 5 22
REMARK SMILES IDX 4 23 3 24 2 25 1 26
REMARK H PARENT
REMARK Flexibility Score: inf
ROOT
ATOM      1  C   UNL     1      10.398   6.964  30.474  1.00  0.00     0.000 C 
ENDROOT
BRANCH   1   2
ATOM      2  C   UNL     1       9.222   6.274  29.763  1.00  0.00     0.000 C 
BRANCH   2   3
ATOM      3  C   UNL     1       9.612   4.928  29.121  1.00  0.00     0.000 C 
BRANCH   3   4
ATOM      4  C   UNL     1       9.781   3.751  30.100  1.00  0.00     0.000 C 
BRANCH   4   5
ATOM      5  C   UNL     1      10.729   2.660  29.573  1.00  0.00     0.000 C 
BRANCH   5   6
ATOM      6  C   UNL     1      12.019   2.552  30.401  1.00  0.00     0.000 C 
BRANCH   6   7
ATOM      7  C   UNL     1      12.288   3.805  31.249  1.00  0.00     0.000 C 
BRANCH   7   8
ATOM      8  C   UNL     1      13.564   4.516  30.785  1.00  0.00     0.000 C 
BRANCH   8   9
ATOM      9  C   UNL     1      13.374   5.154  29.402  1.00  0.00     0.000 C 
BRANCH   9  10
ATOM     10  C   UNL     1      14.441   4.656  28.417  1.00  0.00     0.006 C 
BRANCH  10  11
ATOM     11  C   UNL     1      15.383   3.625  29.052  1.00  0.00     0.053 C 
BRANCH  11  12
ATOM     12  C   UNL     1      16.795   4.122  29.121  1.00  0.00     0.041 C 
ATOM     13  O   UNL     1      17.054   5.220  29.679  1.00  0.00    -0.550 OA
ATOM     14  O   UNL     1      17.827   3.368  28.569  1.00  0.00    -0.550 OA
ENDBRANCH  11  12
ENDBRANCH  10  11
ENDBRANCH   9  10
ENDBRANCH   8   9
ENDBRANCH   7   8
ENDBRANCH   6   7
ENDBRANCH   5   6
ENDBRANCH   4   5
ENDBRANCH   3   4
ENDBRANCH   2   3
ENDBRANCH   1   2
BRANCH   1  15
ATOM     15  C   UNL     1      10.025   7.520  31.860  1.00  0.00     0.000 C 
BRANCH  15  16
ATOM     16  C   UNL     1      11.160   7.507  32.900  1.00  0.00     0.000 C 
BRANCH  16  17
ATOM     17  C   UNL     1      11.188   6.220  33.744  1.00  0.00     0.000 C 
BRANCH  17  18
ATOM     18  C   UNL     1      10.085   6.186  34.823  1.00  0.00    -0.000 C 
BRANCH  18  19
ATOM     19  C   UNL     1       9.047   5.066  34.621  1.00  0.00    -0.000 C 
BRANCH  19  20
ATOM     20  C   UNL     1       9.443   3.979  33.606  1.00  0.00    -0.000 C 
BRANCH  20  21
ATOM     21  C   UNL     1       9.896   2.639  34.221  1.00  0.00    -0.000 C 
BRANCH  21  22
ATOM     22  C   UNL     1      11.383   2.573  34.617  1.00  0.00    -0.000 C 
BRANCH  22  23
ATOM     23  C   UNL     1      11.634   3.002  36.072  1.00  0.00    -0.000 C 
BRANCH  23  24
ATOM     24  C   UNL     1      12.858   3.933  36.205  1.00  0.00    -0.000 C 
BRANCH  24  25
ATOM     25  C   UNL     1      14.071   3.484  35.374  1.00  0.00    -0.003 C 
ATOM     26  C   UNL     1      14.521   4.530  34.358  1.00  0.00     0.004 C 
ENDBRANCH  24  25
ENDBRANCH  23  24
ENDBRANCH  22  23
ENDBRANCH  21  22
ENDBRANCH  20  21
ENDBRANCH  19  20
ENDBRANCH  18  19
ENDBRANCH  17  18
ENDBRANCH  16  17
ENDBRANCH  15  16
ENDBRANCH   1  15
TORSDOF 22
ENDMDL
MODEL 8
REMARK VINA RESULT:    -2.828      9.199     11.648
REMARK INTER + INTRA:         -10.996
REMARK INTER:                  -6.392
REMARK INTRA:                  -4.604
REMARK UNBOUND:                -4.530
REMARK SMILES CCCCCCCCCCCCCCCCCCCCCCCC(=O)[O-]
REMARK SMILES IDX 13 1 14 2 15 3 16 4 17 5 18 6 19 7 20 8 21 9 22 10 23 11
REMARK SMILES IDX 24 12 25 13 26 14 12 15 11 16 10 17 9 18 8 19 7 20 6 21 5 22
REMARK SMILES IDX 4 23 3 24 2 25 1 26
REMARK H PARENT
REMARK Flexibility Score: inf
ROOT
ATOM      1  C   UNL     1      12.366   1.473  31.836  1.00  0.00     0.000 C 
ENDROOT
BRANCH   1   2
ATOM      2  C   UNL     1      13.460   0.927  30.904  1.00  0.00     0.000 C 
BRANCH   2   3
ATOM      3  C   UNL     1      14.615   1.922  30.681  1.00  0.00     0.000 C 
BRANCH   3   4
ATOM      4  C   UNL     1      14.436   3.302  31.342  1.00  0.00     0.000 C 
BRANCH   4   5
ATOM      5  C   UNL     1      14.717   4.472  30.382  1.00  0.00     0.000 C 
BRANCH   5   6
ATOM      6  C   UNL     1      13.437   5.220  29.979  1.00  0.00     0.000 C 
BRANCH   6   7
ATOM      7  C   UNL     1      13.330   5.441  28.462  1.00  0.00     0.000 C 
BRANCH   7   8
ATOM      8  C   UNL     1      13.612   4.142  27.699  1.00  0.00     0.000 C 
BRANCH   8   9
ATOM      9  C   UNL     1      12.394   3.210  27.719  1.00  0.00     0.000 C 
BRANCH   9  10
ATOM     10  C   UNL     1      12.788   1.785  27.303  1.00  0.00     0.006 C 
BRANCH  10  11
ATOM     11  C   UNL     1      11.681   0.765  27.604  1.00  0.00     0.053 C 
BRANCH  11  12
ATOM     12  C   UNL     1      11.524  -0.235  26.500  1.00  0.00     0.041 C 
ATOM     13  O   UNL     1      12.492  -0.965  26.162  1.00  0.00    -0.550 OA
ATOM     14  O   UNL     1      10.303  -0.363  25.843  1.00  0.00    -0.550 OA
ENDBRANCH  11  12
ENDBRANCH  10  11
ENDBRANCH   9  10
ENDBRANCH   8   9
ENDBRANCH   7   8
ENDBRANCH   6   7
ENDBRANCH   5   6
ENDBRANCH   4   5
ENDBRANCH   3   4
ENDBRANCH   2   3
ENDBRANCH   1   2
BRANCH   1  15
ATOM     15  C   UNL     1      10.958   0.966  31.476  1.00  0.00     0.000 C 
BRANCH  15  16
ATOM     16  C   UNL     1       9.832   2.010  31.600  1.00  0.00     0.000 C 
BRANCH  16  17
ATOM     17  C   UNL     1       9.587   2.788  30.296  1.00  0.00     0.000 C 
BRANCH  17  18
ATOM     18  C   UNL     1      10.120   4.237  30.354  1.00  0.00    -0.000 C 
BRANCH  18  19
ATOM     19  C   UNL     1       9.567   5.151  29.243  1.00  0.00    -0.000 C 
BRANCH  19  20
ATOM     20  C   UNL     1       9.667   6.661  29.525  1.00  0.00    -0.000 C 
BRANCH  20  21
ATOM     21  C   UNL     1       9.099   7.114  30.886  1.00  0.00    -0.000 C 
BRANCH  21  22
ATOM     22  C   UNL     1      10.142   7.660  31.879  1.00  0.00    -0.000 C 
BRANCH  22  23
ATOM     23  C   UNL     1      10.408   6.703  33.053  1.00  0.00    -0.000 C 
BRANCH  23  24
ATOM     24  C   UNL     1      11.877   6.231  33.101  1.00  0.00    -0.000 C 
BRANCH  24  25
ATOM     25  C   UNL     1      12.051   4.801  33.637  1.00  0.00    -0.003 C 
ATOM     26  C   UNL     1      10.817   4.283  34.371  1.00  0.00     0.004 C 
ENDBRANCH  24  25
ENDBRANCH  23  24
ENDBRANCH  22  23
ENDBRANCH  21  22
ENDBRANCH  20  21
ENDBRANCH  19  20
ENDBRANCH  18  19
ENDBRANCH  17  18
ENDBRANCH  16  17
ENDBRANCH  15  16
ENDBRANCH   1  15
TORSDOF 22
ENDMDL
MODEL 9
REMARK VINA RESULT:    -2.819      7.963     11.491
REMARK INTER + INTRA:         -10.974
REMARK INTER:                  -6.473
REMARK INTRA:                  -4.501
REMARK UNBOUND:                -4.530
REMARK SMILES CCCCCCCCCCCCCCCCCCCCCCCC(=O)[O-]
REMARK SMILES IDX 13 1 14 2 15 3 16 4 17 5 18 6 19 7 20 8 21 9 22 10 23 11
REMARK SMILES IDX 24 12 25 13 26 14 12 15 11 16 10 17 9 18 8 19 7 20 6 21 5 22
REMARK SMILES IDX 4 23 3 24 2 25 1 26
REMARK H PARENT
REMARK Flexibility Score: inf
ROOT
ATOM      1  C   UNL     1      10.726   5.991  29.649  1.00  0.00     0.000 C 
ENDROOT
BRANCH   1   2
ATOM      2  C   UNL     1       9.266   6.434  29.842  1.00  0.00     0.000 C 
BRANCH   2   3
ATOM      3  C   UNL     1       9.025   7.146  31.187  1.00  0.00     0.000 C 
BRANCH   3   4
ATOM      4  C   UNL     1      10.246   7.876  31.778  1.00  0.00     0.000 C 
BRANCH   4   5
ATOM      5  C   UNL     1      10.625   7.376  33.183  1.00  0.00     0.000 C 
BRANCH   5   6
ATOM      6  C   UNL     1      10.078   5.969  33.472  1.00  0.00     0.000 C 
BRANCH   6   7
ATOM      7  C   UNL     1      11.184   4.906  33.557  1.00  0.00     0.000 C 
BRANCH   7   8
ATOM      8  C   UNL     1      12.565   5.537  33.346  1.00  0.00     0.000 C 
BRANCH   8   9
ATOM      9  C   UNL     1      13.367   4.777  32.281  1.00  0.00     0.000 C 
BRANCH   9  10
ATOM     10  C   UNL     1      14.449   3.902  32.930  1.00  0.00     0.006 C 
BRANCH  10  11
ATOM     11  C   UNL     1      14.636   4.219  34.420  1.00  0.00     0.053 C 
BRANCH  11  12
ATOM     12  C   UNL     1      14.308   3.043  35.290  1.00  0.00     0.041 C 
ATOM     13  O   UNL     1      13.264   2.372  35.081  1.00  0.00    -0.550 OA
ATOM     14  O   UNL     1      15.159   2.688  36.332  1.00  0.00    -0.550 OA
ENDBRANCH  11  12
ENDBRANCH  10  11
ENDBRANCH   9  10
ENDBRANCH   8   9
ENDBRANCH   7   8
ENDBRANCH   6   7
ENDBRANCH   5   6
ENDBRANCH   4   5
ENDBRANCH   3   4
ENDBRANCH   2   3
ENDBRANCH   1   2
BRANCH   1  15
ATOM     15  C   UNL     1      10.900   4.462  29.658  1.00  0.00     0.000 C 
BRANCH  15  16
ATOM     16  C   UNL     1       9.623   3.657  29.963  1.00  0.00     0.000 C 
BRANCH  16  17
ATOM     17  C   UNL     1       9.901   2.169  30.238  1.00  0.00     0.000 C 
BRANCH  17  18
ATOM     18  C   UNL     1      10.648   1.935  31.569  1.00  0.00    -0.000 C 
BRANCH  18  19
ATOM     19  C   UNL     1      12.063   1.350  31.398  1.00  0.00    -0.000 C 
BRANCH  19  20
ATOM     20  C   UNL     1      12.503   1.113  29.942  1.00  0.00    -0.000 C 
BRANCH  20  21
ATOM     21  C   UNL     1      13.657   2.011  29.449  1.00  0.00    -0.000 C 
BRANCH  21  22
ATOM     22  C   UNL     1      13.608   2.372  27.953  1.00  0.00    -0.000 C 
BRANCH  22  23
ATOM     23  C   UNL     1      13.948   3.847  27.682  1.00  0.00    -0.000 C 
BRANCH  23  24
ATOM     24  C   UNL     1      14.538   4.549  28.924  1.00  0.00    -0.000 C 
BRANCH  24  25
ATOM     25  C   UNL     1      16.053   4.797  28.833  1.00  0.00    -0.003 C 
ATOM     26  C   UNL     1      16.773   4.592  30.164  1.00  0.00     0.004 C 
ENDBRANCH  24  25
ENDBRANCH  23  24
ENDBRANCH  22  23
ENDBRANCH  21  22
ENDBRANCH  20  21
ENDBRANCH  19  20
ENDBRANCH  18  19
ENDBRANCH  17  18
ENDBRANCH  16  17
ENDBRANCH  15  16
ENDBRANCH   1  15
TORSDOF 22
ENDMDL
