MODEL 1
REMARK VINA RESULT:    -5.378      0.000      0.000
REMARK INTER + INTRA:          -5.692
REMARK INTER:                  -5.692
REMARK INTRA:                   0.000
REMARK UNBOUND:                 0.000
REMARK SMILES O=c1ccc2cc(O)c(O)cc2o1
REMARK SMILES IDX 4 1 3 2 2 3 1 4 13 5 12 6 11 7 9 8 7 9 6 10 5 11 8 12 10 14
REMARK H PARENT 8 13 10 15
REMARK Flexibility Score: inf
ROOT
ATOM      1  C   UNL     1       5.893   5.288   9.519  1.00  0.00     0.019 A 
ATOM      2  C   UNL     1       6.260   6.565   9.943  1.00  0.00     0.094 A 
ATOM      3  C   UNL     1       7.331   6.702  10.833  1.00  0.00     0.336 A 
ATOM      4  O   UNL     1       7.677   7.846  11.227  1.00  0.00    -0.246 OA
ATOM      5  O   UNL     1       7.987   5.629  11.268  1.00  0.00    -0.423 OA
ATOM      6  C   UNL     1       7.669   4.394  10.888  1.00  0.00     0.142 A 
ATOM      7  C   UNL     1       8.395   3.303  11.378  1.00  0.00     0.098 A 
ATOM      8  C   UNL     1       8.064   1.999  10.981  1.00  0.00     0.161 A 
ATOM      9  C   UNL     1       7.003   1.785  10.090  1.00  0.00     0.158 A 
ATOM     10  C   UNL     1       6.270   2.875   9.596  1.00  0.00     0.062 A 
ATOM     11  C   UNL     1       6.600   4.179   9.992  1.00  0.00     0.022 A 
ENDROOT
BRANCH   9  12
ATOM     12  O   UNL     1       6.681   0.486   9.702  1.00  0.00    -0.504 OA
ATOM     13  H   UNL     1       5.739   0.232   9.428  1.00  0.00     0.293 HD
ENDBRANCH   9  12
BRANCH   8  14
ATOM     14  O   UNL     1       8.786   0.911  11.468  1.00  0.00    -0.504 OA
ATOM     15  H   UNL     1       9.550   1.032  12.123  1.00  0.00     0.293 HD
ENDBRANCH   8  14
TORSDOF 2
ENDMDL
MODEL 2
REMARK VINA RESULT:    -4.941      1.139      4.504
REMARK INTER + INTRA:          -5.230
REMARK INTER:                  -5.230
REMARK INTRA:                   0.000
REMARK UNBOUND:                 0.000
REMARK SMILES O=c1ccc2cc(O)c(O)cc2o1
REMARK SMILES IDX 4 1 3 2 2 3 1 4 13 5 12 6 11 7 9 8 7 9 6 10 5 11 8 12 10 14
REMARK H PARENT 8 13 10 15
REMARK Flexibility Score: inf
ROOT
ATOM      1  C   UNL     1       6.651   2.315   9.625  1.00  0.00     0.019 A 
ATOM      2  C   UNL     1       7.380   1.232  10.113  1.00  0.00     0.094 A 
ATOM      3  C   UNL     1       8.392   1.463  11.051  1.00  0.00     0.336 A 
ATOM      4  O   UNL     1       9.062   0.498  11.503  1.00  0.00    -0.246 OA
ATOM      5  O   UNL     1       8.655   2.699  11.468  1.00  0.00    -0.423 OA
ATOM      6  C   UNL     1       7.984   3.760  11.027  1.00  0.00     0.142 A 
ATOM      7  C   UNL     1       8.303   5.037  11.502  1.00  0.00     0.098 A 
ATOM      8  C   UNL     1       7.599   6.159  11.040  1.00  0.00     0.161 A 
ATOM      9  C   UNL     1       6.570   6.003  10.101  1.00  0.00     0.158 A 
ATOM     10  C   UNL     1       6.245   4.726   9.620  1.00  0.00     0.062 A 
ATOM     11  C   UNL     1       6.948   3.603  10.080  1.00  0.00     0.022 A 
ENDROOT
BRANCH   9  12
ATOM     12  O   UNL     1       5.875   7.123   9.648  1.00  0.00    -0.504 OA
ATOM     13  H   UNL     1       5.125   7.537  10.188  1.00  0.00     0.293 HD
ENDBRANCH   9  12
BRANCH   8  14
ATOM     14  O   UNL     1       7.915   7.431  11.512  1.00  0.00    -0.504 OA
ATOM     15  H   UNL     1       7.328   8.232  11.312  1.00  0.00     0.293 HD
ENDBRANCH   8  14
TORSDOF 2
ENDMDL
MODEL 3
REMARK VINA RESULT:    -4.863      8.515     10.562
REMARK INTER + INTRA:          -5.147
REMARK INTER:                  -5.147
REMARK INTRA:                   0.000
REMARK UNBOUND:                 0.000
REMARK SMILES O=c1ccc2cc(O)c(O)cc2o1
REMARK SMILES IDX 4 1 3 2 2 3 1 4 13 5 12 6 11 7 9 8 7 9 6 10 5 11 8 12 10 14
REMARK H PARENT 8 13 10 15
REMARK Flexibility Score: inf
ROOT
ATOM      1  C   UNL     1      12.056   0.429  19.946  1.00  0.00     0.019 A 
ATOM      2  C   UNL     1      13.368  -0.007  20.125  1.00  0.00     0.094 A 
ATOM      3  C   UNL     1      13.897  -0.948  19.236  1.00  0.00     0.336 A 
ATOM      4  O   UNL     1      15.080  -1.354  19.380  1.00  0.00    -0.246 OA
ATOM      5  O   UNL     1      13.156  -1.421  18.237  1.00  0.00    -0.423 OA
ATOM      6  C   UNL     1      11.900  -1.032  18.031  1.00  0.00     0.142 A 
ATOM      7  C   UNL     1      11.170  -1.563  16.963  1.00  0.00     0.098 A 
ATOM      8  C   UNL     1       9.846  -1.157  16.742  1.00  0.00     0.161 A 
ATOM      9  C   UNL     1       9.250  -0.215  17.592  1.00  0.00     0.158 A 
ATOM     10  C   UNL     1       9.977   0.321  18.665  1.00  0.00     0.062 A 
ATOM     11  C   UNL     1      11.301  -0.084  18.888  1.00  0.00     0.022 A 
ENDROOT
BRANCH   9  12
ATOM     12  O   UNL     1       7.934   0.184  17.365  1.00  0.00    -0.504 OA
ATOM     13  H   UNL     1       7.297   0.374  18.130  1.00  0.00     0.293 HD
ENDBRANCH   9  12
BRANCH   8  14
ATOM     14  O   UNL     1       9.116  -1.685  15.678  1.00  0.00    -0.504 OA
ATOM     15  H   UNL     1       8.504  -1.105  15.115  1.00  0.00     0.293 HD
ENDBRANCH   8  14
TORSDOF 2
ENDMDL
MODEL 4
REMARK VINA RESULT:    -4.852      8.632     10.700
REMARK INTER + INTRA:          -5.136
REMARK INTER:                  -5.136
REMARK INTRA:                   0.000
REMARK UNBOUND:                 0.000
REMARK SMILES O=c1ccc2cc(O)c(O)cc2o1
REMARK SMILES IDX 4 1 3 2 2 3 1 4 13 5 12 6 11 7 9 8 7 9 6 10 5 11 8 12 10 14
REMARK H PARENT 8 13 10 15
REMARK Flexibility Score: inf
ROOT
ATOM      1  C   UNL     1      12.112  -3.053  18.645  1.00  0.00     0.019 A 
ATOM      2  C   UNL     1      13.350  -2.539  19.026  1.00  0.00     0.094 A 
ATOM      3  C   UNL     1      13.532  -1.152  19.048  1.00  0.00     0.336 A 
ATOM      4  O   UNL     1      14.642  -0.669  19.390  1.00  0.00    -0.246 OA
ATOM      5  O   UNL     1      12.536  -0.337  18.708  1.00  0.00    -0.423 OA
ATOM      6  C   UNL     1      11.339  -0.786  18.337  1.00  0.00     0.142 A 
ATOM      7  C   UNL     1      10.330   0.118  17.991  1.00  0.00     0.098 A 
ATOM      8  C   UNL     1       9.067  -0.350  17.600  1.00  0.00     0.161 A 
ATOM      9  C   UNL     1       8.811  -1.728  17.556  1.00  0.00     0.158 A 
ATOM     10  C   UNL     1       9.820  -2.640  17.901  1.00  0.00     0.062 A 
ATOM     11  C   UNL     1      11.083  -2.174  18.293  1.00  0.00     0.022 A 
ENDROOT
BRANCH   9  12
ATOM     12  O   UNL     1       7.554  -2.184  17.166  1.00  0.00    -0.504 OA
ATOM     13  H   UNL     1       7.302  -2.277  16.189  1.00  0.00     0.293 HD
ENDBRANCH   9  12
BRANCH   8  14
ATOM     14  O   UNL     1       8.060   0.549  17.254  1.00  0.00    -0.504 OA
ATOM     15  H   UNL     1       7.170   0.233  16.886  1.00  0.00     0.293 HD
ENDBRANCH   8  14
TORSDOF 2
ENDMDL
MODEL 5
REMARK VINA RESULT:    -4.764      8.679     10.186
REMARK INTER + INTRA:          -5.043
REMARK INTER:                  -5.043
REMARK INTRA:                   0.000
REMARK UNBOUND:                 0.000
REMARK SMILES O=c1ccc2cc(O)c(O)cc2o1
REMARK SMILES IDX 4 1 3 2 2 3 1 4 13 5 12 6 11 7 9 8 7 9 6 10 5 11 8 12 10 14
REMARK H PARENT 8 13 10 15
REMARK Flexibility Score: inf
ROOT
ATOM      1  C   UNL     1      10.930   1.990  19.679  1.00  0.00     0.019 A 
ATOM      2  C   UNL     1       9.616   2.296  19.328  1.00  0.00     0.094 A 
ATOM      3  C   UNL     1       8.944   1.464  18.425  1.00  0.00     0.336 A 
ATOM      4  O   UNL     1       7.758   1.723  18.095  1.00  0.00    -0.246 OA
ATOM      5  O   UNL     1       9.554   0.399  17.909  1.00  0.00    -0.423 OA
ATOM      6  C   UNL     1      10.806   0.072  18.218  1.00  0.00     0.142 A 
ATOM      7  C   UNL     1      11.395  -1.060  17.646  1.00  0.00     0.098 A 
ATOM      8  C   UNL     1      12.715  -1.409  17.968  1.00  0.00     0.161 A 
ATOM      9  C   UNL     1      13.449  -0.623  18.867  1.00  0.00     0.158 A 
ATOM     10  C   UNL     1      12.864   0.514  19.444  1.00  0.00     0.062 A 
ATOM     11  C   UNL     1      11.545   0.865  19.124  1.00  0.00     0.022 A 
ENDROOT
BRANCH   9  12
ATOM     12  O   UNL     1      14.759  -0.977  19.182  1.00  0.00    -0.504 OA
ATOM     13  H   UNL     1      14.979  -1.859  19.628  1.00  0.00     0.293 HD
ENDBRANCH   9  12
BRANCH   8  14
ATOM     14  O   UNL     1      13.303  -2.537  17.399  1.00  0.00    -0.504 OA
ATOM     15  H   UNL     1      13.811  -3.211  17.960  1.00  0.00     0.293 HD
ENDBRANCH   8  14
TORSDOF 2
ENDMDL
MODEL 6
REMARK VINA RESULT:    -4.694      8.497     10.547
REMARK INTER + INTRA:          -4.968
REMARK INTER:                  -4.968
REMARK INTRA:                   0.000
REMARK UNBOUND:                 0.000
REMARK SMILES O=c1ccc2cc(O)c(O)cc2o1
REMARK SMILES IDX 4 1 3 2 2 3 1 4 13 5 12 6 11 7 9 8 7 9 6 10 5 11 8 12 10 14
REMARK H PARENT 8 13 10 15
REMARK Flexibility Score: inf
ROOT
ATOM      1  C   UNL     1      11.899  -2.045  17.887  1.00  0.00     0.019 A 
ATOM      2  C   UNL     1      13.211  -2.124  18.351  1.00  0.00     0.094 A 
ATOM      3  C   UNL     1      13.774  -1.014  18.989  1.00  0.00     0.336 A 
ATOM      4  O   UNL     1      14.956  -1.065  19.415  1.00  0.00    -0.246 OA
ATOM      5  O   UNL     1      13.065   0.102  19.147  1.00  0.00    -0.423 OA
ATOM      6  C   UNL     1      11.810   0.220  18.719  1.00  0.00     0.142 A 
ATOM      7  C   UNL     1      11.114   1.417  18.915  1.00  0.00     0.098 A 
ATOM      8  C   UNL     1       9.792   1.546  18.465  1.00  0.00     0.161 A 
ATOM      9  C   UNL     1       9.162   0.473  17.818  1.00  0.00     0.158 A 
ATOM     10  C   UNL     1       9.856  -0.731  17.619  1.00  0.00     0.062 A 
ATOM     11  C   UNL     1      11.178  -0.861  18.068  1.00  0.00     0.022 A 
ENDROOT
BRANCH   9  12
ATOM     12  O   UNL     1       7.849   0.609  17.375  1.00  0.00    -0.504 OA
ATOM     13  H   UNL     1       7.291   1.423  17.607  1.00  0.00     0.293 HD
ENDBRANCH   9  12
BRANCH   8  14
ATOM     14  O   UNL     1       9.096   2.738  18.658  1.00  0.00    -0.504 OA
ATOM     15  H   UNL     1       9.009   3.158  19.577  1.00  0.00     0.293 HD
ENDBRANCH   8  14
TORSDOF 2
ENDMDL
MODEL 7
REMARK VINA RESULT:    -4.655      8.631     10.426
REMARK INTER + INTRA:          -4.927
REMARK INTER:                  -4.927
REMARK INTRA:                   0.000
REMARK UNBOUND:                 0.000
REMARK SMILES O=c1ccc2cc(O)c(O)cc2o1
REMARK SMILES IDX 4 1 3 2 2 3 1 4 13 5 12 6 11 7 9 8 7 9 6 10 5 11 8 12 10 14
REMARK H PARENT 8 13 10 15
REMARK Flexibility Score: inf
ROOT
ATOM      1  C   UNL     1       8.728  -2.064  18.550  1.00  0.00     0.019 A 
ATOM      2  C   UNL     1       7.900  -1.002  18.191  1.00  0.00     0.094 A 
ATOM      3  C   UNL     1       8.478   0.233  17.878  1.00  0.00     0.336 A 
ATOM      4  O   UNL     1       7.748   1.204  17.552  1.00  0.00    -0.246 OA
ATOM      5  O   UNL     1       9.799   0.389  17.925  1.00  0.00    -0.423 OA
ATOM      6  C   UNL     1      10.624  -0.598  18.263  1.00  0.00     0.142 A 
ATOM      7  C   UNL     1      12.005  -0.376  18.294  1.00  0.00     0.098 A 
ATOM      8  C   UNL     1      12.879  -1.414  18.650  1.00  0.00     0.161 A 
ATOM      9  C   UNL     1      12.371  -2.679  18.975  1.00  0.00     0.158 A 
ATOM     10  C   UNL     1      10.987  -2.908  18.946  1.00  0.00     0.062 A 
ATOM     11  C   UNL     1      10.112  -1.873  18.591  1.00  0.00     0.022 A 
ENDROOT
BRANCH   9  12
ATOM     12  O   UNL     1      13.247  -3.704  19.327  1.00  0.00    -0.504 OA
ATOM     13  H   UNL     1      14.151  -3.512  19.740  1.00  0.00     0.293 HD
ENDBRANCH   9  12
BRANCH   8  14
ATOM     14  O   UNL     1      14.255  -1.194  18.682  1.00  0.00    -0.504 OA
ATOM     15  H   UNL     1      14.897  -1.773  18.152  1.00  0.00     0.293 HD
ENDBRANCH   8  14
TORSDOF 2
ENDMDL
MODEL 8
REMARK VINA RESULT:    -4.643      9.070      9.997
REMARK INTER + INTRA:          -4.915
REMARK INTER:                  -4.915
REMARK INTRA:                   0.000
REMARK UNBOUND:                 0.000
REMARK SMILES O=c1ccc2cc(O)c(O)cc2o1
REMARK SMILES IDX 4 1 3 2 2 3 1 4 13 5 12 6 11 7 9 8 7 9 6 10 5 11 8 12 10 14
REMARK H PARENT 8 13 10 15
REMARK Flexibility Score: inf
ROOT
ATOM      1  C   UNL     1       9.295   0.126  17.864  1.00  0.00     0.019 A 
ATOM      2  C   UNL     1       8.683   1.239  18.439  1.00  0.00     0.094 A 
ATOM      3  C   UNL     1       9.429   2.056  19.296  1.00  0.00     0.336 A 
ATOM      4  O   UNL     1       8.895   3.065  19.825  1.00  0.00    -0.246 OA
ATOM      5  O   UNL     1      10.703   1.773  19.557  1.00  0.00    -0.423 OA
ATOM      6  C   UNL     1      11.324   0.721  19.029  1.00  0.00     0.142 A 
ATOM      7  C   UNL     1      12.666   0.473  19.339  1.00  0.00     0.098 A 
ATOM      8  C   UNL     1      13.325  -0.634  18.786  1.00  0.00     0.161 A 
ATOM      9  C   UNL     1      12.641  -1.496  17.918  1.00  0.00     0.158 A 
ATOM     10  C   UNL     1      11.296  -1.254  17.603  1.00  0.00     0.062 A 
ATOM     11  C   UNL     1      10.635  -0.147  18.155  1.00  0.00     0.022 A 
ENDROOT
BRANCH   9  12
ATOM     12  O   UNL     1      13.304  -2.594  17.372  1.00  0.00    -0.504 OA
ATOM     13  H   UNL     1      14.154  -2.960  17.785  1.00  0.00     0.293 HD
ENDBRANCH   9  12
BRANCH   8  14
ATOM     14  O   UNL     1      14.661  -0.883  19.094  1.00  0.00    -0.504 OA
ATOM     15  H   UNL     1      15.044  -1.821  19.076  1.00  0.00     0.293 HD
ENDBRANCH   8  14
TORSDOF 2
ENDMDL
MODEL 9
REMARK VINA RESULT:    -4.444      1.061      2.239
REMARK INTER + INTRA:          -4.704
REMARK INTER:                  -4.704
REMARK INTRA:                   0.000
REMARK UNBOUND:                 0.000
REMARK SMILES O=c1ccc2cc(O)c(O)cc2o1
REMARK SMILES IDX 4 1 3 2 2 3 1 4 13 5 12 6 11 7 9 8 7 9 6 10 5 11 8 12 10 14
REMARK H PARENT 8 13 10 15
REMARK Flexibility Score: inf
ROOT
ATOM      1  C   UNL     1       8.208   5.335  11.573  1.00  0.00     0.019 A 
ATOM      2  C   UNL     1       7.528   6.467  11.125  1.00  0.00     0.094 A 
ATOM      3  C   UNL     1       6.501   6.314  10.187  1.00  0.00     0.336 A 
ATOM      4  O   UNL     1       5.875   7.323   9.770  1.00  0.00    -0.246 OA
ATOM      5  O   UNL     1       6.181   5.106   9.730  1.00  0.00    -0.423 OA
ATOM      6  C   UNL     1       6.804   4.001  10.131  1.00  0.00     0.142 A 
ATOM      7  C   UNL     1       6.424   2.757   9.617  1.00  0.00     0.098 A 
ATOM      8  C   UNL     1       7.079   1.589  10.036  1.00  0.00     0.161 A 
ATOM      9  C   UNL     1       8.117   1.665  10.975  1.00  0.00     0.158 A 
ATOM     10  C   UNL     1       8.503   2.910  11.494  1.00  0.00     0.062 A 
ATOM     11  C   UNL     1       7.850   4.078  11.076  1.00  0.00     0.022 A 
ENDROOT
BRANCH   9  12
ATOM     12  O   UNL     1       8.762   0.501  11.386  1.00  0.00    -0.504 OA
ATOM     13  H   UNL     1       8.456  -0.016  12.203  1.00  0.00     0.293 HD
ENDBRANCH   9  12
BRANCH   8  14
ATOM     14  O   UNL     1       6.702   0.349   9.524  1.00  0.00    -0.504 OA
ATOM     15  H   UNL     1       6.267  -0.356  10.109  1.00  0.00     0.293 HD
ENDBRANCH   8  14
TORSDOF 2
ENDMDL
