MODEL 1
REMARK VINA RESULT:    -4.997      0.000      0.000
REMARK INTER + INTRA:          -6.261
REMARK INTER:                  -6.166
REMARK INTRA:                  -0.095
REMARK UNBOUND:                -0.095
REMARK SMILES Oc1cc(O)c2cc(O)c(-c3cc(O)c(O)c(O)c3)[o+]c2c1
REMARK SMILES IDX 10 1 20 2 21 3 22 4 2 5 3 6 4 7 6 8 7 9 8 10 11 11 12 12
REMARK SMILES IDX 13 13 19 14 15 15 17 16 14 17 16 19 18 21 9 23 1 25 5 27
REMARK H PARENT 14 18 16 20 18 22 9 24 1 26 5 28
REMARK Flexibility Score: inf
ROOT
ATOM      1  C   UNL     1      -9.077   6.172  10.614  1.00  0.00     0.402 A 
ATOM      2  O   UNL     1      -8.238   6.685  11.514  1.00  0.00    -0.202 OA
ATOM      3  C   UNL     1      -8.518   6.758  12.811  1.00  0.00     0.368 A 
ATOM      4  C   UNL     1      -7.582   7.306  13.692  1.00  0.00     0.162 A 
ATOM      5  C   UNL     1      -7.863   7.386  15.059  1.00  0.00     0.128 A 
ATOM      6  C   UNL     1      -9.087   6.914  15.550  1.00  0.00     0.093 A 
ATOM      7  C   UNL     1     -10.039   6.362  14.678  1.00  0.00     0.136 A 
ATOM      8  C   UNL     1      -9.755   6.282  13.301  1.00  0.00     0.125 A 
ATOM      9  C   UNL     1     -10.668   5.749  12.384  1.00  0.00     0.078 A 
ATOM     10  C   UNL     1     -10.339   5.700  11.026  1.00  0.00     0.223 A 
ENDROOT
BRANCH   1  11
ATOM     11  C   UNL     1      -8.648   6.138   9.196  1.00  0.00     0.091 A 
ATOM     12  C   UNL     1      -9.440   6.760   8.221  1.00  0.00     0.068 A 
ATOM     13  C   UNL     1      -9.055   6.764   6.875  1.00  0.00     0.162 A 
ATOM     14  C   UNL     1      -7.436   5.545   8.814  1.00  0.00     0.068 A 
ATOM     15  C   UNL     1      -7.842   6.143   6.493  1.00  0.00     0.200 A 
ATOM     16  C   UNL     1      -7.035   5.541   7.475  1.00  0.00     0.162 A 
BRANCH  13  17
ATOM     17  O   UNL     1      -9.903   7.393   5.962  1.00  0.00    -0.504 OA
ATOM     18  H   UNL     1     -10.832   7.722   6.183  1.00  0.00     0.293 HD
ENDBRANCH  13  17
BRANCH  15  19
ATOM     19  O   UNL     1      -7.409   6.110   5.164  1.00  0.00    -0.502 OA
ATOM     20  H   UNL     1      -6.510   5.757   4.870  1.00  0.00     0.293 HD
ENDBRANCH  15  19
BRANCH  16  21
ATOM     21  O   UNL     1      -5.825   4.933   7.140  1.00  0.00    -0.504 OA
ATOM     22  H   UNL     1      -5.111   5.409   6.601  1.00  0.00     0.293 HD
ENDBRANCH  16  21
ENDBRANCH   1  11
BRANCH  10  23
ATOM     23  O   UNL     1     -11.264   5.216  10.101  1.00  0.00    -0.500 OA
ATOM     24  H   UNL     1     -12.232   5.053  10.351  1.00  0.00     0.294 HD
ENDBRANCH  10  23
BRANCH   5  25
ATOM     25  O   UNL     1      -6.917   7.934  15.923  1.00  0.00    -0.507 OA
ATOM     26  H   UNL     1      -6.927   7.735  16.916  1.00  0.00     0.293 HD
ENDBRANCH   5  25
BRANCH   7  27
ATOM     27  O   UNL     1     -11.255   5.897  15.177  1.00  0.00    -0.507 OA
ATOM     28  H   UNL     1     -12.138   6.159  14.754  1.00  0.00     0.293 HD
ENDBRANCH   7  27
TORSDOF 7
ENDMDL
MODEL 2
REMARK VINA RESULT:    -4.977      1.518      7.123
REMARK INTER + INTRA:          -6.236
REMARK INTER:                  -6.221
REMARK INTRA:                  -0.015
REMARK UNBOUND:                -0.095
REMARK SMILES Oc1cc(O)c2cc(O)c(-c3cc(O)c(O)c(O)c3)[o+]c2c1
REMARK SMILES IDX 10 1 20 2 21 3 22 4 2 5 3 6 4 7 6 8 7 9 8 10 11 11 12 12
REMARK SMILES IDX 13 13 19 14 15 15 17 16 14 17 16 19 18 21 9 23 1 25 5 27
REMARK H PARENT 14 18 16 20 18 22 9 24 1 26 5 28
REMARK Flexibility Score: inf
ROOT
ATOM      1  C   UNL     1      -8.906   6.607  10.471  1.00  0.00     0.402 A 
ATOM      2  O   UNL     1      -9.995   7.120   9.899  1.00  0.00    -0.202 OA
ATOM      3  C   UNL     1     -10.228   7.061   8.592  1.00  0.00     0.368 A 
ATOM      4  C   UNL     1     -11.398   7.621   8.071  1.00  0.00     0.162 A 
ATOM      5  C   UNL     1     -11.656   7.563   6.698  1.00  0.00     0.128 A 
ATOM      6  C   UNL     1     -10.739   6.942   5.840  1.00  0.00     0.093 A 
ATOM      7  C   UNL     1      -9.559   6.376   6.347  1.00  0.00     0.136 A 
ATOM      8  C   UNL     1      -9.300   6.435   7.731  1.00  0.00     0.125 A 
ATOM      9  C   UNL     1      -8.138   5.896   8.292  1.00  0.00     0.078 A 
ATOM     10  C   UNL     1      -7.925   5.987   9.671  1.00  0.00     0.223 A 
ENDROOT
BRANCH   1  11
ATOM     11  C   UNL     1      -8.763   6.727  11.940  1.00  0.00     0.091 A 
ATOM     12  C   UNL     1      -9.822   6.332  12.770  1.00  0.00     0.068 A 
ATOM     13  C   UNL     1      -9.714   6.413  14.163  1.00  0.00     0.162 A 
ATOM     14  C   UNL     1      -7.569   7.173  12.524  1.00  0.00     0.068 A 
ATOM     15  C   UNL     1      -8.515   6.886  14.746  1.00  0.00     0.200 A 
ATOM     16  C   UNL     1      -7.443   7.258  13.913  1.00  0.00     0.162 A 
BRANCH  13  17
ATOM     17  O   UNL     1     -10.816   6.014  14.922  1.00  0.00    -0.504 OA
ATOM     18  H   UNL     1     -10.953   6.252  15.894  1.00  0.00     0.293 HD
ENDBRANCH  13  17
BRANCH  15  19
ATOM     19  O   UNL     1      -8.350   6.995  16.130  1.00  0.00    -0.502 OA
ATOM     20  H   UNL     1      -7.875   7.760  16.586  1.00  0.00     0.293 HD
ENDBRANCH  15  19
BRANCH  16  21
ATOM     21  O   UNL     1      -6.238   7.714  14.450  1.00  0.00    -0.504 OA
ATOM     22  H   UNL     1      -5.431   7.916  13.872  1.00  0.00     0.293 HD
ENDBRANCH  16  21
ENDBRANCH   1  11
BRANCH  10  23
ATOM     23  O   UNL     1      -6.745   5.496  10.230  1.00  0.00    -0.500 OA
ATOM     24  H   UNL     1      -5.837   5.846   9.948  1.00  0.00     0.294 HD
ENDBRANCH  10  23
BRANCH   5  25
ATOM     25  O   UNL     1     -12.828   8.125   6.196  1.00  0.00    -0.507 OA
ATOM     26  H   UNL     1     -13.186   7.877   5.282  1.00  0.00     0.293 HD
ENDBRANCH   5  25
BRANCH   7  27
ATOM     27  O   UNL     1      -8.653   5.761   5.484  1.00  0.00    -0.507 OA
ATOM     28  H   UNL     1      -7.785   6.211   5.217  1.00  0.00     0.293 HD
ENDBRANCH   7  27
TORSDOF 7
ENDMDL
MODEL 3
REMARK VINA RESULT:    -4.947      1.282      2.349
REMARK INTER + INTRA:          -6.199
REMARK INTER:                  -6.131
REMARK INTRA:                  -0.068
REMARK UNBOUND:                -0.095
REMARK SMILES Oc1cc(O)c2cc(O)c(-c3cc(O)c(O)c(O)c3)[o+]c2c1
REMARK SMILES IDX 10 1 20 2 21 3 22 4 2 5 3 6 4 7 6 8 7 9 8 10 11 11 12 12
REMARK SMILES IDX 13 13 19 14 15 15 17 16 14 17 16 19 18 21 9 23 1 25 5 27
REMARK H PARENT 14 18 16 20 18 22 9 24 1 26 5 28
REMARK Flexibility Score: inf
ROOT
ATOM      1  C   UNL     1      -9.311   6.619  11.119  1.00  0.00     0.402 A 
ATOM      2  O   UNL     1      -8.111   6.856  11.646  1.00  0.00    -0.202 OA
ATOM      3  C   UNL     1      -7.879   6.863  12.955  1.00  0.00     0.368 A 
ATOM      4  C   UNL     1      -6.588   7.116  13.428  1.00  0.00     0.162 A 
ATOM      5  C   UNL     1      -6.331   7.123  14.803  1.00  0.00     0.128 A 
ATOM      6  C   UNL     1      -7.369   6.875  15.710  1.00  0.00     0.093 A 
ATOM      7  C   UNL     1      -8.670   6.620  15.250  1.00  0.00     0.136 A 
ATOM      8  C   UNL     1      -8.929   6.613  13.866  1.00  0.00     0.125 A 
ATOM      9  C   UNL     1     -10.208   6.373  13.351  1.00  0.00     0.078 A 
ATOM     10  C   UNL     1     -10.412   6.385  11.968  1.00  0.00     0.223 A 
ENDROOT
BRANCH   1  11
ATOM     11  C   UNL     1      -9.443   6.629   9.644  1.00  0.00     0.091 A 
ATOM     12  C   UNL     1      -8.610   5.808   8.871  1.00  0.00     0.068 A 
ATOM     13  C   UNL     1      -8.720   5.777   7.476  1.00  0.00     0.162 A 
ATOM     14  C   UNL     1     -10.424   7.400   9.003  1.00  0.00     0.068 A 
ATOM     15  C   UNL     1      -9.696   6.575   6.834  1.00  0.00     0.200 A 
ATOM     16  C   UNL     1     -10.550   7.380   7.611  1.00  0.00     0.162 A 
BRANCH  13  17
ATOM     17  O   UNL     1      -7.846   4.943   6.776  1.00  0.00    -0.504 OA
ATOM     18  H   UNL     1      -6.850   5.097   6.704  1.00  0.00     0.293 HD
ENDBRANCH  13  17
BRANCH  15  19
ATOM     19  O   UNL     1      -9.850   6.591   5.445  1.00  0.00    -0.502 OA
ATOM     20  H   UNL     1     -10.111   7.408   4.913  1.00  0.00     0.293 HD
ENDBRANCH  15  19
BRANCH  16  21
ATOM     21  O   UNL     1     -11.535   8.168   7.016  1.00  0.00    -0.504 OA
ATOM     22  H   UNL     1     -11.905   7.968   6.095  1.00  0.00     0.293 HD
ENDBRANCH  16  21
ENDBRANCH   1  11
BRANCH  10  23
ATOM     23  O   UNL     1     -11.693   6.196  11.449  1.00  0.00    -0.500 OA
ATOM     24  H   UNL     1     -12.172   5.306  11.525  1.00  0.00     0.294 HD
ENDBRANCH  10  23
BRANCH   5  25
ATOM     25  O   UNL     1      -5.038   7.376  15.257  1.00  0.00    -0.507 OA
ATOM     26  H   UNL     1      -4.621   8.296  15.183  1.00  0.00     0.293 HD
ENDBRANCH   5  25
BRANCH   7  27
ATOM     27  O   UNL     1      -9.697   6.376  16.163  1.00  0.00    -0.507 OA
ATOM     28  H   UNL     1      -9.938   7.047  16.883  1.00  0.00     0.293 HD
ENDBRANCH   7  27
TORSDOF 7
ENDMDL
MODEL 4
REMARK VINA RESULT:    -4.942      1.342      7.331
REMARK INTER + INTRA:          -6.193
REMARK INTER:                  -5.959
REMARK INTRA:                  -0.234
REMARK UNBOUND:                -0.095
REMARK SMILES Oc1cc(O)c2cc(O)c(-c3cc(O)c(O)c(O)c3)[o+]c2c1
REMARK SMILES IDX 10 1 20 2 21 3 22 4 2 5 3 6 4 7 6 8 7 9 8 10 11 11 12 12
REMARK SMILES IDX 13 13 19 14 15 15 17 16 14 17 16 19 18 21 9 23 1 25 5 27
REMARK H PARENT 14 18 16 20 18 22 9 24 1 26 5 28
REMARK Flexibility Score: inf
ROOT
ATOM      1  C   UNL     1      -9.149   6.278  11.337  1.00  0.00     0.402 A 
ATOM      2  O   UNL     1     -10.086   6.842  10.576  1.00  0.00    -0.202 OA
ATOM      3  C   UNL     1     -10.014   6.888   9.250  1.00  0.00     0.368 A 
ATOM      4  C   UNL     1     -11.043   7.494   8.522  1.00  0.00     0.162 A 
ATOM      5  C   UNL     1     -10.982   7.548   7.125  1.00  0.00     0.128 A 
ATOM      6  C   UNL     1      -9.886   6.992   6.452  1.00  0.00     0.093 A 
ATOM      7  C   UNL     1      -8.845   6.381   7.168  1.00  0.00     0.136 A 
ATOM      8  C   UNL     1      -8.908   6.328   8.575  1.00  0.00     0.125 A 
ATOM      9  C   UNL     1      -7.896   5.739   9.341  1.00  0.00     0.078 A 
ATOM     10  C   UNL     1      -8.003   5.719  10.735  1.00  0.00     0.223 A 
ENDROOT
BRANCH   1  11
ATOM     11  C   UNL     1      -9.344   6.280  12.805  1.00  0.00     0.091 A 
ATOM     12  C   UNL     1      -8.497   7.051  13.613  1.00  0.00     0.068 A 
ATOM     13  C   UNL     1      -8.666   7.092  15.002  1.00  0.00     0.162 A 
ATOM     14  C   UNL     1     -10.396   5.570  13.403  1.00  0.00     0.068 A 
ATOM     15  C   UNL     1      -9.715   6.356  15.601  1.00  0.00     0.200 A 
ATOM     16  C   UNL     1     -10.581   5.601  14.788  1.00  0.00     0.162 A 
BRANCH  13  17
ATOM     17  O   UNL     1      -7.774   7.874  15.739  1.00  0.00    -0.504 OA
ATOM     18  H   UNL     1      -6.828   8.080  15.451  1.00  0.00     0.293 HD
ENDBRANCH  13  17
BRANCH  15  19
ATOM     19  O   UNL     1      -9.929   6.352  16.982  1.00  0.00    -0.502 OA
ATOM     20  H   UNL     1      -9.676   7.112  17.597  1.00  0.00     0.293 HD
ENDBRANCH  15  19
BRANCH  16  21
ATOM     21  O   UNL     1     -11.637   4.875  15.340  1.00  0.00    -0.504 OA
ATOM     22  H   UNL     1     -11.491   4.150  16.032  1.00  0.00     0.293 HD
ENDBRANCH  16  21
ENDBRANCH   1  11
BRANCH  10  23
ATOM     23  O   UNL     1      -6.975   5.179  11.507  1.00  0.00    -0.500 OA
ATOM     24  H   UNL     1      -6.025   5.118  11.161  1.00  0.00     0.294 HD
ENDBRANCH  10  23
BRANCH   5  25
ATOM     25  O   UNL     1     -12.016   8.154   6.417  1.00  0.00    -0.507 OA
ATOM     26  H   UNL     1     -11.902   9.064   5.988  1.00  0.00     0.293 HD
ENDBRANCH   5  25
BRANCH   7  27
ATOM     27  O   UNL     1      -7.758   5.832   6.488  1.00  0.00    -0.507 OA
ATOM     28  H   UNL     1      -6.874   5.658   6.951  1.00  0.00     0.293 HD
ENDBRANCH   7  27
TORSDOF 7
ENDMDL
MODEL 5
REMARK VINA RESULT:    -4.736      2.593      3.737
REMARK INTER + INTRA:          -5.938
REMARK INTER:                  -6.158
REMARK INTRA:                   0.220
REMARK UNBOUND:                -0.095
REMARK SMILES Oc1cc(O)c2cc(O)c(-c3cc(O)c(O)c(O)c3)[o+]c2c1
REMARK SMILES IDX 10 1 20 2 21 3 22 4 2 5 3 6 4 7 6 8 7 9 8 10 11 11 12 12
REMARK SMILES IDX 13 13 19 14 15 15 17 16 14 17 16 19 18 21 9 23 1 25 5 27
REMARK H PARENT 14 18 16 20 18 22 9 24 1 26 5 28
REMARK Flexibility Score: inf
ROOT
ATOM      1  C   UNL     1      -9.742   6.630  11.991  1.00  0.00     0.402 A 
ATOM      2  O   UNL     1      -8.448   6.899  11.825  1.00  0.00    -0.202 OA
ATOM      3  C   UNL     1      -7.578   6.939  12.829  1.00  0.00     0.368 A 
ATOM      4  C   UNL     1      -6.233   7.224  12.570  1.00  0.00     0.162 A 
ATOM      5  C   UNL     1      -5.307   7.265  13.617  1.00  0.00     0.128 A 
ATOM      6  C   UNL     1      -5.726   7.020  14.931  1.00  0.00     0.093 A 
ATOM      7  C   UNL     1      -7.072   6.733  15.208  1.00  0.00     0.136 A 
ATOM      8  C   UNL     1      -8.004   6.691  14.152  1.00  0.00     0.125 A 
ATOM      9  C   UNL     1      -9.359   6.419  14.369  1.00  0.00     0.078 A 
ATOM     10  C   UNL     1     -10.245   6.397  13.287  1.00  0.00     0.223 A 
ENDROOT
BRANCH   1  11
ATOM     11  C   UNL     1     -10.612   6.606  10.793  1.00  0.00     0.091 A 
ATOM     12  C   UNL     1     -11.740   5.774  10.777  1.00  0.00     0.068 A 
ATOM     13  C   UNL     1     -12.595   5.740   9.670  1.00  0.00     0.162 A 
ATOM     14  C   UNL     1     -10.366   7.441   9.694  1.00  0.00     0.068 A 
ATOM     15  C   UNL     1     -12.328   6.568   8.554  1.00  0.00     0.200 A 
ATOM     16  C   UNL     1     -11.210   7.422   8.581  1.00  0.00     0.162 A 
BRANCH  13  17
ATOM     17  O   UNL     1     -13.691   4.875   9.724  1.00  0.00    -0.504 OA
ATOM     18  H   UNL     1     -14.388   4.796   8.998  1.00  0.00     0.293 HD
ENDBRANCH  13  17
BRANCH  15  19
ATOM     19  O   UNL     1     -13.142   6.574   7.418  1.00  0.00    -0.502 OA
ATOM     20  H   UNL     1     -14.128   6.355   7.425  1.00  0.00     0.293 HD
ENDBRANCH  15  19
BRANCH  16  21
ATOM     21  O   UNL     1     -10.923   8.266   7.507  1.00  0.00    -0.504 OA
ATOM     22  H   UNL     1     -11.361   9.173   7.399  1.00  0.00     0.293 HD
ENDBRANCH  16  21
ENDBRANCH   1  11
BRANCH  10  23
ATOM     23  O   UNL     1     -11.605   6.175  13.502  1.00  0.00    -0.500 OA
ATOM     24  H   UNL     1     -11.954   5.278  13.821  1.00  0.00     0.294 HD
ENDBRANCH  10  23
BRANCH   5  25
ATOM     25  O   UNL     1      -3.972   7.550  13.340  1.00  0.00    -0.507 OA
ATOM     26  H   UNL     1      -3.684   8.457  12.994  1.00  0.00     0.293 HD
ENDBRANCH   5  25
BRANCH   7  27
ATOM     27  O   UNL     1      -7.478   6.492  16.520  1.00  0.00    -0.507 OA
ATOM     28  H   UNL     1      -7.601   7.246  17.185  1.00  0.00     0.293 HD
ENDBRANCH   7  27
TORSDOF 7
ENDMDL
MODEL 6
REMARK VINA RESULT:    -4.719      1.087      7.077
REMARK INTER + INTRA:          -5.917
REMARK INTER:                  -5.819
REMARK INTRA:                  -0.098
REMARK UNBOUND:                -0.095
REMARK SMILES Oc1cc(O)c2cc(O)c(-c3cc(O)c(O)c(O)c3)[o+]c2c1
REMARK SMILES IDX 10 1 20 2 21 3 22 4 2 5 3 6 4 7 6 8 7 9 8 10 11 11 12 12
REMARK SMILES IDX 13 13 19 14 15 15 17 16 14 17 16 19 18 21 9 23 1 25 5 27
REMARK H PARENT 14 18 16 20 18 22 9 24 1 26 5 28
REMARK Flexibility Score: inf
ROOT
ATOM      1  C   UNL     1      -9.429   6.595  10.691  1.00  0.00     0.402 A 
ATOM      2  O   UNL     1      -8.357   6.079  10.090  1.00  0.00    -0.202 OA
ATOM      3  C   UNL     1      -8.199   6.066   8.770  1.00  0.00     0.368 A 
ATOM      4  C   UNL     1      -7.041   5.509   8.217  1.00  0.00     0.162 A 
ATOM      5  C   UNL     1      -6.861   5.491   6.831  1.00  0.00     0.128 A 
ATOM      6  C   UNL     1      -7.843   6.033   5.991  1.00  0.00     0.093 A 
ATOM      7  C   UNL     1      -9.010   6.594   6.530  1.00  0.00     0.136 A 
ATOM      8  C   UNL     1      -9.191   6.612   7.927  1.00  0.00     0.125 A 
ATOM      9  C   UNL     1     -10.338   7.150   8.520  1.00  0.00     0.078 A 
ATOM     10  C   UNL     1     -10.472   7.136   9.912  1.00  0.00     0.223 A 
ENDROOT
BRANCH   1  11
ATOM     11  C   UNL     1      -9.488   6.560  12.170  1.00  0.00     0.091 A 
ATOM     12  C   UNL     1      -8.460   7.156  12.915  1.00  0.00     0.068 A 
ATOM     13  C   UNL     1      -8.492   7.159  14.314  1.00  0.00     0.162 A 
ATOM     14  C   UNL     1     -10.579   5.995  12.845  1.00  0.00     0.068 A 
ATOM     15  C   UNL     1      -9.585   6.567  14.990  1.00  0.00     0.200 A 
ATOM     16  C   UNL     1     -10.629   5.992  14.242  1.00  0.00     0.162 A 
BRANCH  13  17
ATOM     17  O   UNL     1      -7.425   7.760  14.985  1.00  0.00    -0.504 OA
ATOM     18  H   UNL     1      -7.480   8.128  15.923  1.00  0.00     0.293 HD
ENDBRANCH  13  17
BRANCH  15  19
ATOM     19  O   UNL     1      -9.670   6.534  16.384  1.00  0.00    -0.502 OA
ATOM     20  H   UNL     1      -9.296   7.248  16.992  1.00  0.00     0.293 HD
ENDBRANCH  15  19
BRANCH  16  21
ATOM     21  O   UNL     1     -11.732   5.412  14.871  1.00  0.00    -0.504 OA
ATOM     22  H   UNL     1     -12.167   4.564  14.528  1.00  0.00     0.293 HD
ENDBRANCH  16  21
ENDBRANCH   1  11
BRANCH  10  23
ATOM     23  O   UNL     1     -11.635   7.626  10.508  1.00  0.00    -0.500 OA
ATOM     24  H   UNL     1     -11.759   8.614  10.697  1.00  0.00     0.294 HD
ENDBRANCH  10  23
BRANCH   5  25
ATOM     25  O   UNL     1      -5.701   4.933   6.298  1.00  0.00    -0.507 OA
ATOM     26  H   UNL     1      -5.693   3.999   5.907  1.00  0.00     0.293 HD
ENDBRANCH   5  25
BRANCH   7  27
ATOM     27  O   UNL     1      -9.982   7.129   5.685  1.00  0.00    -0.507 OA
ATOM     28  H   UNL     1     -10.693   6.546   5.257  1.00  0.00     0.293 HD
ENDBRANCH   7  27
TORSDOF 7
ENDMDL
MODEL 7
REMARK VINA RESULT:    -4.657      5.501      8.547
REMARK INTER + INTRA:          -5.841
REMARK INTER:                  -5.770
REMARK INTRA:                  -0.071
REMARK UNBOUND:                -0.095
REMARK SMILES Oc1cc(O)c2cc(O)c(-c3cc(O)c(O)c(O)c3)[o+]c2c1
REMARK SMILES IDX 10 1 20 2 21 3 22 4 2 5 3 6 4 7 6 8 7 9 8 10 11 11 12 12
REMARK SMILES IDX 13 13 19 14 15 15 17 16 14 17 16 19 18 21 9 23 1 25 5 27
REMARK H PARENT 14 18 16 20 18 22 9 24 1 26 5 28
REMARK Flexibility Score: inf
ROOT
ATOM      1  C   UNL     1      -4.191   6.553  16.971  1.00  0.00     0.402 A 
ATOM      2  O   UNL     1      -3.046   7.229  17.060  1.00  0.00    -0.202 OA
ATOM      3  C   UNL     1      -2.155   7.027  18.025  1.00  0.00     0.368 A 
ATOM      4  C   UNL     1      -0.973   7.775  18.045  1.00  0.00     0.162 A 
ATOM      5  C   UNL     1      -0.026   7.571  19.053  1.00  0.00     0.128 A 
ATOM      6  C   UNL     1      -0.260   6.612  20.048  1.00  0.00     0.093 A 
ATOM      7  C   UNL     1      -1.441   5.854  20.043  1.00  0.00     0.136 A 
ATOM      8  C   UNL     1      -2.395   6.061  19.027  1.00  0.00     0.125 A 
ATOM      9  C   UNL     1      -3.593   5.340  18.975  1.00  0.00     0.078 A 
ATOM     10  C   UNL     1      -4.509   5.589  17.949  1.00  0.00     0.223 A 
ENDROOT
BRANCH   1  11
ATOM     11  C   UNL     1      -5.101   6.861  15.844  1.00  0.00     0.091 A 
ATOM     12  C   UNL     1      -6.432   7.211  16.108  1.00  0.00     0.068 A 
ATOM     13  C   UNL     1      -7.314   7.527  15.069  1.00  0.00     0.162 A 
ATOM     14  C   UNL     1      -4.645   6.866  14.518  1.00  0.00     0.068 A 
ATOM     15  C   UNL     1      -6.854   7.508  13.731  1.00  0.00     0.200 A 
ATOM     16  C   UNL     1      -5.511   7.181  13.467  1.00  0.00     0.162 A 
BRANCH  13  17
ATOM     17  O   UNL     1      -8.628   7.854  15.412  1.00  0.00    -0.504 OA
ATOM     18  H   UNL     1      -9.104   8.689  15.104  1.00  0.00     0.293 HD
ENDBRANCH  13  17
BRANCH  15  19
ATOM     19  O   UNL     1      -7.689   7.809  12.651  1.00  0.00    -0.502 OA
ATOM     20  H   UNL     1      -8.601   8.232  12.740  1.00  0.00     0.293 HD
ENDBRANCH  15  19
BRANCH  16  21
ATOM     21  O   UNL     1      -5.016   7.167  12.163  1.00  0.00    -0.504 OA
ATOM     22  H   UNL     1      -4.027   7.249  11.959  1.00  0.00     0.293 HD
ENDBRANCH  16  21
ENDBRANCH   1  11
BRANCH  10  23
ATOM     23  O   UNL     1      -5.728   4.910  17.920  1.00  0.00    -0.500 OA
ATOM     24  H   UNL     1      -6.582   5.363  17.617  1.00  0.00     0.294 HD
ENDBRANCH  10  23
BRANCH   5  25
ATOM     25  O   UNL     1       1.145   8.324  19.056  1.00  0.00    -0.507 OA
ATOM     26  H   UNL     1       1.165   9.274  18.705  1.00  0.00     0.293 HD
ENDBRANCH   5  25
BRANCH   7  27
ATOM     27  O   UNL     1      -1.664   4.904  21.039  1.00  0.00    -0.507 OA
ATOM     28  H   UNL     1      -2.281   4.114  20.891  1.00  0.00     0.293 HD
ENDBRANCH   7  27
TORSDOF 7
ENDMDL
MODEL 8
REMARK VINA RESULT:    -4.603      5.463      9.634
REMARK INTER + INTRA:          -5.774
REMARK INTER:                  -5.392
REMARK INTRA:                  -0.382
REMARK UNBOUND:                -0.095
REMARK SMILES Oc1cc(O)c2cc(O)c(-c3cc(O)c(O)c(O)c3)[o+]c2c1
REMARK SMILES IDX 10 1 20 2 21 3 22 4 2 5 3 6 4 7 6 8 7 9 8 10 11 11 12 12
REMARK SMILES IDX 13 13 19 14 15 15 17 16 14 17 16 19 18 21 9 23 1 25 5 27
REMARK H PARENT 14 18 16 20 18 22 9 24 1 26 5 28
REMARK Flexibility Score: inf
ROOT
ATOM      1  C   UNL     1      -3.901   6.444  17.161  1.00  0.00     0.402 A 
ATOM      2  O   UNL     1      -4.346   7.056  16.064  1.00  0.00    -0.202 OA
ATOM      3  C   UNL     1      -5.615   7.016  15.672  1.00  0.00     0.368 A 
ATOM      4  C   UNL     1      -6.003   7.690  14.510  1.00  0.00     0.162 A 
ATOM      5  C   UNL     1      -7.336   7.658  14.088  1.00  0.00     0.128 A 
ATOM      6  C   UNL     1      -8.288   6.948  14.831  1.00  0.00     0.093 A 
ATOM      7  C   UNL     1      -7.914   6.265  15.999  1.00  0.00     0.136 A 
ATOM      8  C   UNL     1      -6.571   6.298  16.423  1.00  0.00     0.125 A 
ATOM      9  C   UNL     1      -6.140   5.629  17.574  1.00  0.00     0.078 A 
ATOM     10  C   UNL     1      -4.794   5.688  17.948  1.00  0.00     0.223 A 
ENDROOT
BRANCH   1  11
ATOM     11  C   UNL     1      -2.465   6.569  17.500  1.00  0.00     0.091 A 
ATOM     12  C   UNL     1      -1.533   5.729  16.875  1.00  0.00     0.068 A 
ATOM     13  C   UNL     1      -0.166   5.833  17.157  1.00  0.00     0.162 A 
ATOM     14  C   UNL     1      -2.008   7.551  18.392  1.00  0.00     0.068 A 
ATOM     15  C   UNL     1       0.286   6.810  18.075  1.00  0.00     0.200 A 
ATOM     16  C   UNL     1      -0.647   7.670  18.683  1.00  0.00     0.162 A 
BRANCH  13  17
ATOM     17  O   UNL     1       0.698   4.952  16.504  1.00  0.00    -0.504 OA
ATOM     18  H   UNL     1       1.682   4.863  16.713  1.00  0.00     0.293 HD
ENDBRANCH  13  17
BRANCH  15  19
ATOM     19  O   UNL     1       1.637   6.958  18.401  1.00  0.00    -0.502 OA
ATOM     20  H   UNL     1       1.973   7.444  19.219  1.00  0.00     0.293 HD
ENDBRANCH  15  19
BRANCH  16  21
ATOM     21  O   UNL     1      -0.238   8.657  19.582  1.00  0.00    -0.504 OA
ATOM     22  H   UNL     1       0.582   9.230  19.421  1.00  0.00     0.293 HD
ENDBRANCH  16  21
ENDBRANCH   1  11
BRANCH  10  23
ATOM     23  O   UNL     1      -4.348   4.983  19.066  1.00  0.00    -0.500 OA
ATOM     24  H   UNL     1      -4.978   4.717  19.813  1.00  0.00     0.294 HD
ENDBRANCH  10  23
BRANCH   5  25
ATOM     25  O   UNL     1      -7.704   8.337  12.928  1.00  0.00    -0.507 OA
ATOM     26  H   UNL     1      -8.153   9.244  12.965  1.00  0.00     0.293 HD
ENDBRANCH   5  25
BRANCH   7  27
ATOM     27  O   UNL     1      -8.870   5.560  16.730  1.00  0.00    -0.507 OA
ATOM     28  H   UNL     1      -9.783   5.349  16.346  1.00  0.00     0.293 HD
ENDBRANCH   7  27
TORSDOF 7
ENDMDL
MODEL 9
REMARK VINA RESULT:    -2.625     15.855     18.280
REMARK INTER + INTRA:          -3.334
REMARK INTER:                  -3.216
REMARK INTRA:                  -0.119
REMARK UNBOUND:                -0.095
REMARK SMILES Oc1cc(O)c2cc(O)c(-c3cc(O)c(O)c(O)c3)[o+]c2c1
REMARK SMILES IDX 10 1 20 2 21 3 22 4 2 5 3 6 4 7 6 8 7 9 8 10 11 11 12 12
REMARK SMILES IDX 13 13 19 14 15 15 17 16 14 17 16 19 18 21 9 23 1 25 5 27
REMARK H PARENT 14 18 16 20 18 22 9 24 1 26 5 28
REMARK Flexibility Score: inf
ROOT
ATOM      1  C   UNL     1       5.226  12.175  19.216  1.00  0.00     0.402 A 
ATOM      2  O   UNL     1       4.815  12.091  17.952  1.00  0.00    -0.202 OA
ATOM      3  C   UNL     1       4.889  13.102  17.093  1.00  0.00     0.368 A 
ATOM      4  C   UNL     1       4.441  12.931  15.780  1.00  0.00     0.162 A 
ATOM      5  C   UNL     1       4.515  13.987  14.866  1.00  0.00     0.128 A 
ATOM      6  C   UNL     1       5.042  15.222  15.266  1.00  0.00     0.093 A 
ATOM      7  C   UNL     1       5.496  15.410  16.581  1.00  0.00     0.136 A 
ATOM      8  C   UNL     1       5.420  14.346  17.501  1.00  0.00     0.125 A 
ATOM      9  C   UNL     1       5.849  14.479  18.826  1.00  0.00     0.078 A 
ATOM     10  C   UNL     1       5.745  13.393  19.701  1.00  0.00     0.223 A 
ENDROOT
BRANCH   1  11
ATOM     11  C   UNL     1       5.101  10.976  20.076  1.00  0.00     0.091 A 
ATOM     12  C   UNL     1       4.346  11.048  21.254  1.00  0.00     0.068 A 
ATOM     13  C   UNL     1       4.190   9.929  22.080  1.00  0.00     0.162 A 
ATOM     14  C   UNL     1       5.674   9.750  19.707  1.00  0.00     0.068 A 
ATOM     15  C   UNL     1       4.790   8.701  21.715  1.00  0.00     0.200 A 
ATOM     16  C   UNL     1       5.527   8.622  20.519  1.00  0.00     0.162 A 
BRANCH  13  17
ATOM     17  O   UNL     1       3.433  10.084  23.244  1.00  0.00    -0.504 OA
ATOM     18  H   UNL     1       3.169   9.324  23.854  1.00  0.00     0.293 HD
ENDBRANCH  13  17
BRANCH  15  19
ATOM     19  O   UNL     1       4.674   7.551  22.501  1.00  0.00    -0.502 OA
ATOM     20  H   UNL     1       4.247   7.530  23.416  1.00  0.00     0.293 HD
ENDBRANCH  15  19
BRANCH  16  21
ATOM     21  O   UNL     1       6.120   7.425  20.116  1.00  0.00    -0.504 OA
ATOM     22  H   UNL     1       7.059   7.165  20.394  1.00  0.00     0.293 HD
ENDBRANCH  16  21
ENDBRANCH   1  11
BRANCH  10  23
ATOM     23  O   UNL     1       6.125  13.533  21.036  1.00  0.00    -0.500 OA
ATOM     24  H   UNL     1       5.535  14.006  21.710  1.00  0.00     0.294 HD
ENDBRANCH  10  23
BRANCH   5  25
ATOM     25  O   UNL     1       4.065  13.797  13.562  1.00  0.00    -0.507 OA
ATOM     26  H   UNL     1       3.433  14.453  13.119  1.00  0.00     0.293 HD
ENDBRANCH   5  25
BRANCH   7  27
ATOM     27  O   UNL     1       6.017  16.644  16.968  1.00  0.00    -0.507 OA
ATOM     28  H   UNL     1       6.164  16.876  17.944  1.00  0.00     0.293 HD
ENDBRANCH   7  27
TORSDOF 7
ENDMDL
