MODEL 1
REMARK VINA RESULT:    -6.110      0.000      0.000
REMARK INTER + INTRA:          -6.604
REMARK INTER:                  -6.467
REMARK INTRA:                  -0.137
REMARK UNBOUND:                -0.137
REMARK SMILES CC1=CC[C@@H](C(C)C)C=C1
REMARK SMILES IDX 1 1 2 2 3 3 4 4 5 5 9 6 10 7 6 8 7 9 8 10
REMARK H PARENT
REMARK Flexibility Score: inf
ROOT
ATOM      1  C   UNL     1      15.858  31.764  22.551  1.00  0.00     0.044 C 
ATOM      2  C   UNL     1      16.596  30.940  23.562  1.00  0.00    -0.055 C 
ATOM      3  C   UNL     1      17.785  31.346  24.032  1.00  0.00    -0.023 C 
ATOM      4  C   UNL     1      18.468  30.598  25.149  1.00  0.00     0.035 C 
ATOM      5  C   UNL     1      18.177  29.077  25.071  1.00  0.00     0.018 C 
ATOM      6  C   UNL     1      16.685  28.868  24.863  1.00  0.00    -0.023 C 
ATOM      7  C   UNL     1      15.975  29.714  24.109  1.00  0.00    -0.001 C 
ENDROOT
BRANCH   5   8
ATOM      8  C   UNL     1      18.695  28.291  26.316  1.00  0.00    -0.010 C 
ATOM      9  C   UNL     1      19.788  27.279  25.921  1.00  0.00     0.008 C 
ATOM     10  C   UNL     1      19.257  29.218  27.408  1.00  0.00     0.008 C 
ENDBRANCH   5   8
TORSDOF 1
ENDMDL
MODEL 2
REMARK VINA RESULT:    -6.100      1.009      4.533
REMARK INTER + INTRA:          -6.593
REMARK INTER:                  -6.394
REMARK INTRA:                  -0.199
REMARK UNBOUND:                -0.137
REMARK SMILES CC1=CC[C@@H](C(C)C)C=C1
REMARK SMILES IDX 1 1 2 2 3 3 4 4 5 5 9 6 10 7 6 8 7 9 8 10
REMARK H PARENT
REMARK Flexibility Score: inf
ROOT
ATOM      1  C   UNL     1      20.421  29.019  28.804  1.00  0.00     0.044 C 
ATOM      2  C   UNL     1      19.579  29.237  27.583  1.00  0.00    -0.055 C 
ATOM      3  C   UNL     1      19.163  28.193  26.850  1.00  0.00    -0.023 C 
ATOM      4  C   UNL     1      18.203  28.389  25.705  1.00  0.00     0.035 C 
ATOM      5  C   UNL     1      18.436  29.750  25.000  1.00  0.00     0.018 C 
ATOM      6  C   UNL     1      18.543  30.842  26.053  1.00  0.00    -0.023 C 
ATOM      7  C   UNL     1      19.132  30.601  27.229  1.00  0.00    -0.001 C 
ENDROOT
BRANCH   5   8
ATOM      8  C   UNL     1      17.339  30.086  23.941  1.00  0.00    -0.010 C 
ATOM      9  C   UNL     1      16.016  29.364  24.261  1.00  0.00     0.008 C 
ATOM     10  C   UNL     1      17.060  31.596  23.838  1.00  0.00     0.008 C 
ENDBRANCH   5   8
TORSDOF 1
ENDMDL
MODEL 3
REMARK VINA RESULT:    -5.810      0.680      2.003
REMARK INTER + INTRA:          -6.286
REMARK INTER:                  -6.153
REMARK INTRA:                  -0.133
REMARK UNBOUND:                -0.137
REMARK SMILES CC1=CC[C@@H](C(C)C)C=C1
REMARK SMILES IDX 1 1 2 2 3 3 4 4 5 5 9 6 10 7 6 8 7 9 8 10
REMARK H PARENT
REMARK Flexibility Score: inf
ROOT
ATOM      1  C   UNL     1      15.137  31.161  22.809  1.00  0.00     0.044 C 
ATOM      2  C   UNL     1      16.201  30.568  23.683  1.00  0.00    -0.055 C 
ATOM      3  C   UNL     1      16.025  29.364  24.246  1.00  0.00    -0.023 C 
ATOM      4  C   UNL     1      17.142  28.699  25.010  1.00  0.00     0.035 C 
ATOM      5  C   UNL     1      18.024  29.743  25.742  1.00  0.00     0.018 C 
ATOM      6  C   UNL     1      18.372  30.864  24.775  1.00  0.00    -0.023 C 
ATOM      7  C   UNL     1      17.488  31.276  23.860  1.00  0.00    -0.001 C 
ENDROOT
BRANCH   5   8
ATOM      8  C   UNL     1      19.307  29.121  26.379  1.00  0.00    -0.010 C 
ATOM      9  C   UNL     1      19.388  29.433  27.886  1.00  0.00     0.008 C 
ATOM     10  C   UNL     1      19.379  27.596  26.190  1.00  0.00     0.008 C 
ENDBRANCH   5   8
TORSDOF 1
ENDMDL
MODEL 4
REMARK VINA RESULT:    -5.243      8.969     10.602
REMARK INTER + INTRA:          -5.687
REMARK INTER:                  -5.487
REMARK INTRA:                  -0.200
REMARK UNBOUND:                -0.137
REMARK SMILES CC1=CC[C@@H](C(C)C)C=C1
REMARK SMILES IDX 1 1 2 2 3 3 4 4 5 5 9 6 10 7 6 8 7 9 8 10
REMARK H PARENT
REMARK Flexibility Score: inf
ROOT
ATOM      1  C   UNL     1       6.118  29.072  24.230  1.00  0.00     0.044 C 
ATOM      2  C   UNL     1       6.910  30.344  24.236  1.00  0.00    -0.055 C 
ATOM      3  C   UNL     1       7.304  30.894  25.394  1.00  0.00    -0.023 C 
ATOM      4  C   UNL     1       8.217  32.094  25.407  1.00  0.00     0.035 C 
ATOM      5  C   UNL     1       7.946  33.022  24.195  1.00  0.00     0.018 C 
ATOM      6  C   UNL     1       7.873  32.178  22.931  1.00  0.00    -0.023 C 
ATOM      7  C   UNL     1       7.333  30.955  22.957  1.00  0.00    -0.001 C 
ENDROOT
BRANCH   5   8
ATOM      8  C   UNL     1       8.998  34.167  24.055  1.00  0.00    -0.010 C 
ATOM      9  C   UNL     1      10.179  33.960  25.023  1.00  0.00     0.008 C 
ATOM     10  C   UNL     1       9.553  34.288  22.624  1.00  0.00     0.008 C 
ENDBRANCH   5   8
TORSDOF 1
ENDMDL
MODEL 5
REMARK VINA RESULT:    -5.193      8.995     10.334
REMARK INTER + INTRA:          -5.634
REMARK INTER:                  -5.435
REMARK INTRA:                  -0.198
REMARK UNBOUND:                -0.137
REMARK SMILES CC1=CC[C@@H](C(C)C)C=C1
REMARK SMILES IDX 1 1 2 2 3 3 4 4 5 5 9 6 10 7 6 8 7 9 8 10
REMARK H PARENT
REMARK Flexibility Score: inf
ROOT
ATOM      1  C   UNL     1       8.774  34.616  19.917  1.00  0.00     0.044 C 
ATOM      2  C   UNL     1       8.577  34.017  21.277  1.00  0.00    -0.055 C 
ATOM      3  C   UNL     1       7.526  33.221  21.522  1.00  0.00    -0.023 C 
ATOM      4  C   UNL     1       7.394  32.503  22.842  1.00  0.00     0.035 C 
ATOM      5  C   UNL     1       7.978  33.346  24.004  1.00  0.00     0.018 C 
ATOM      6  C   UNL     1       9.346  33.872  23.596  1.00  0.00    -0.023 C 
ATOM      7  C   UNL     1       9.589  34.235  22.333  1.00  0.00    -0.001 C 
ENDROOT
BRANCH   5   8
ATOM      8  C   UNL     1       8.048  32.563  25.353  1.00  0.00    -0.010 C 
ATOM      9  C   UNL     1       7.429  31.159  25.214  1.00  0.00     0.008 C 
ATOM     10  C   UNL     1       9.487  32.415  25.876  1.00  0.00     0.008 C 
ENDBRANCH   5   8
TORSDOF 1
ENDMDL
MODEL 6
REMARK VINA RESULT:    -5.187      7.613      9.121
REMARK INTER + INTRA:          -5.627
REMARK INTER:                  -5.427
REMARK INTRA:                  -0.200
REMARK UNBOUND:                -0.137
REMARK SMILES CC1=CC[C@@H](C(C)C)C=C1
REMARK SMILES IDX 1 1 2 2 3 3 4 4 5 5 9 6 10 7 6 8 7 9 8 10
REMARK H PARENT
REMARK Flexibility Score: inf
ROOT
ATOM      1  C   UNL     1      11.815  33.505  20.045  1.00  0.00     0.044 C 
ATOM      2  C   UNL     1      11.055  33.502  21.337  1.00  0.00    -0.055 C 
ATOM      3  C   UNL     1       9.776  33.904  21.373  1.00  0.00    -0.023 C 
ATOM      4  C   UNL     1       8.962  33.773  22.636  1.00  0.00     0.035 C 
ATOM      5  C   UNL     1       9.842  33.971  23.897  1.00  0.00     0.018 C 
ATOM      6  C   UNL     1      11.105  33.135  23.757  1.00  0.00    -0.023 C 
ATOM      7  C   UNL     1      11.689  32.976  22.565  1.00  0.00    -0.001 C 
ENDROOT
BRANCH   5   8
ATOM      8  C   UNL     1       9.088  33.647  25.226  1.00  0.00    -0.010 C 
ATOM      9  C   UNL     1       7.723  32.991  24.945  1.00  0.00     0.008 C 
ATOM     10  C   UNL     1       9.896  32.719  26.151  1.00  0.00     0.008 C 
ENDBRANCH   5   8
TORSDOF 1
ENDMDL
MODEL 7
REMARK VINA RESULT:    -5.094      9.309     10.524
REMARK INTER + INTRA:          -5.529
REMARK INTER:                  -5.330
REMARK INTRA:                  -0.199
REMARK UNBOUND:                -0.137
REMARK SMILES CC1=CC[C@@H](C(C)C)C=C1
REMARK SMILES IDX 1 1 2 2 3 3 4 4 5 5 9 6 10 7 6 8 7 9 8 10
REMARK H PARENT
REMARK Flexibility Score: inf
ROOT
ATOM      1  C   UNL     1       6.072  29.277  24.528  1.00  0.00     0.044 C 
ATOM      2  C   UNL     1       6.959  30.452  24.246  1.00  0.00    -0.055 C 
ATOM      3  C   UNL     1       7.348  30.724  22.992  1.00  0.00    -0.023 C 
ATOM      4  C   UNL     1       8.121  31.980  22.679  1.00  0.00     0.035 C 
ATOM      5  C   UNL     1       9.056  32.373  23.852  1.00  0.00     0.018 C 
ATOM      6  C   UNL     1       8.273  32.307  25.154  1.00  0.00    -0.023 C 
ATOM      7  C   UNL     1       7.339  31.368  25.343  1.00  0.00    -0.001 C 
ENDROOT
BRANCH   5   8
ATOM      8  C   UNL     1       9.724  33.771  23.659  1.00  0.00    -0.010 C 
ATOM      9  C   UNL     1       9.183  34.478  22.401  1.00  0.00     0.008 C 
ATOM     10  C   UNL     1       9.513  34.698  24.869  1.00  0.00     0.008 C 
ENDBRANCH   5   8
TORSDOF 1
ENDMDL
MODEL 8
REMARK VINA RESULT:    -5.087      8.171     10.299
REMARK INTER + INTRA:          -5.522
REMARK INTER:                  -5.324
REMARK INTRA:                  -0.198
REMARK UNBOUND:                -0.137
REMARK SMILES CC1=CC[C@@H](C(C)C)C=C1
REMARK SMILES IDX 1 1 2 2 3 3 4 4 5 5 9 6 10 7 6 8 7 9 8 10
REMARK H PARENT
REMARK Flexibility Score: inf
ROOT
ATOM      1  C   UNL     1      10.065  32.471  26.469  1.00  0.00     0.044 C 
ATOM      2  C   UNL     1       9.747  32.882  25.063  1.00  0.00    -0.055 C 
ATOM      3  C   UNL     1      10.730  33.208  24.212  1.00  0.00    -0.023 C 
ATOM      4  C   UNL     1      10.433  33.485  22.760  1.00  0.00     0.035 C 
ATOM      5  C   UNL     1       9.044  34.153  22.586  1.00  0.00     0.018 C 
ATOM      6  C   UNL     1       8.018  33.384  23.404  1.00  0.00    -0.023 C 
ATOM      7  C   UNL     1       8.348  32.848  24.584  1.00  0.00    -0.001 C 
ENDROOT
BRANCH   5   8
ATOM      8  C   UNL     1       8.607  34.275  21.092  1.00  0.00    -0.010 C 
ATOM      9  C   UNL     1       9.755  33.881  20.142  1.00  0.00     0.008 C 
ATOM     10  C   UNL     1       7.380  33.407  20.764  1.00  0.00     0.008 C 
ENDBRANCH   5   8
TORSDOF 1
ENDMDL
MODEL 9
REMARK VINA RESULT:    -4.824      6.712      9.034
REMARK INTER + INTRA:          -5.243
REMARK INTER:                  -5.107
REMARK INTRA:                  -0.136
REMARK UNBOUND:                -0.137
REMARK SMILES CC1=CC[C@@H](C(C)C)C=C1
REMARK SMILES IDX 1 1 2 2 3 3 4 4 5 5 9 6 10 7 6 8 7 9 8 10
REMARK H PARENT
REMARK Flexibility Score: inf
ROOT
ATOM      1  C   UNL     1       7.702  32.814  25.083  1.00  0.00     0.044 C 
ATOM      2  C   UNL     1       8.788  33.068  24.082  1.00  0.00    -0.055 C 
ATOM      3  C   UNL     1       8.504  33.638  22.901  1.00  0.00    -0.023 C 
ATOM      4  C   UNL     1       9.604  34.025  21.947  1.00  0.00     0.035 C 
ATOM      5  C   UNL     1      10.797  33.037  22.030  1.00  0.00     0.018 C 
ATOM      6  C   UNL     1      11.149  32.809  23.492  1.00  0.00    -0.023 C 
ATOM      7  C   UNL     1      10.194  32.767  24.427  1.00  0.00    -0.001 C 
ENDROOT
BRANCH   5   8
ATOM      8  C   UNL     1      12.040  33.509  21.211  1.00  0.00    -0.010 C 
ATOM      9  C   UNL     1      13.353  33.122  21.919  1.00  0.00     0.008 C 
ATOM     10  C   UNL     1      12.062  32.928  19.786  1.00  0.00     0.008 C 
ENDBRANCH   5   8
TORSDOF 1
ENDMDL
