MODEL 1
REMARK VINA RESULT:    -5.871      0.000      0.000
REMARK INTER + INTRA:          -6.383
REMARK INTER:                  -6.386
REMARK INTRA:                   0.003
REMARK UNBOUND:                 0.003
REMARK SMILES COc1cc2ccc(=O)oc2cc1O
REMARK SMILES IDX 3 1 13 2 12 3 11 4 5 5 4 6 6 7 7 8 8 9 9 10 10 11 2 12 1 13
REMARK SMILES IDX 14 14
REMARK H PARENT 14 15
REMARK Flexibility Score: inf
ROOT
ATOM      1  C   UNL     1      -3.580   8.982   0.472  1.00  0.00     0.161 A 
ATOM      2  C   UNL     1      -3.568   7.633   0.060  1.00  0.00     0.161 A 
ATOM      3  C   UNL     1      -2.364   6.921   0.014  1.00  0.00     0.098 A 
ATOM      4  C   UNL     1      -1.164   7.536   0.374  1.00  0.00     0.142 A 
ATOM      5  C   UNL     1      -1.165   8.884   0.786  1.00  0.00     0.022 A 
ATOM      6  C   UNL     1      -2.367   9.602   0.834  1.00  0.00     0.062 A 
ATOM      7  C   UNL     1       0.055   9.474   1.140  1.00  0.00     0.019 A 
ATOM      8  C   UNL     1       1.225   8.717   1.075  1.00  0.00     0.094 A 
ATOM      9  C   UNL     1       1.148   7.385   0.657  1.00  0.00     0.336 A 
ATOM     10  O   UNL     1       2.192   6.686   0.592  1.00  0.00    -0.246 OA
ATOM     11  O   UNL     1      -0.024   6.849   0.326  1.00  0.00    -0.423 OA
ENDROOT
BRANCH   1  12
ATOM     12  O   UNL     1      -4.805   9.667   0.506  1.00  0.00    -0.493 OA
ATOM     13  C   UNL     1      -5.763   9.558   1.554  1.00  0.00     0.278 C 
ENDBRANCH   1  12
BRANCH   2  14
ATOM     14  O   UNL     1      -4.747   6.984  -0.306  1.00  0.00    -0.504 OA
ATOM     15  H   UNL     1      -5.630   7.166   0.156  1.00  0.00     0.293 HD
ENDBRANCH   2  14
TORSDOF 2
ENDMDL
MODEL 2
REMARK VINA RESULT:    -5.745      1.283      5.417
REMARK INTER + INTRA:          -6.245
REMARK INTER:                  -6.181
REMARK INTRA:                  -0.065
REMARK UNBOUND:                 0.003
REMARK SMILES COc1cc2ccc(=O)oc2cc1O
REMARK SMILES IDX 3 1 13 2 12 3 11 4 5 5 4 6 6 7 7 8 8 9 9 10 10 11 2 12 1 13
REMARK SMILES IDX 14 14
REMARK H PARENT 14 15
REMARK Flexibility Score: inf
ROOT
ATOM      1  C   UNL     1       0.537   7.736   0.797  1.00  0.00     0.161 A 
ATOM      2  C   UNL     1       0.378   9.068   1.228  1.00  0.00     0.161 A 
ATOM      3  C   UNL     1      -0.883   9.674   1.195  1.00  0.00     0.098 A 
ATOM      4  C   UNL     1      -1.996   8.967   0.735  1.00  0.00     0.142 A 
ATOM      5  C   UNL     1      -1.847   7.634   0.302  1.00  0.00     0.022 A 
ATOM      6  C   UNL     1      -0.587   7.023   0.332  1.00  0.00     0.062 A 
ATOM      7  C   UNL     1      -2.981   6.951  -0.154  1.00  0.00     0.019 A 
ATOM      8  C   UNL     1      -4.214   7.604  -0.166  1.00  0.00     0.094 A 
ATOM      9  C   UNL     1      -4.285   8.928   0.279  1.00  0.00     0.336 A 
ATOM     10  O   UNL     1      -5.388   9.533   0.277  1.00  0.00    -0.246 OA
ATOM     11  O   UNL     1      -3.191   9.553   0.708  1.00  0.00    -0.423 OA
ENDROOT
BRANCH   1  12
ATOM     12  O   UNL     1       1.816   7.158   0.843  1.00  0.00    -0.493 OA
ATOM     13  C   UNL     1       2.705   7.075  -0.266  1.00  0.00     0.278 C 
ENDBRANCH   1  12
BRANCH   2  14
ATOM     14  O   UNL     1       1.465   9.807   1.695  1.00  0.00    -0.504 OA
ATOM     15  H   UNL     1       2.356   9.821   1.212  1.00  0.00     0.293 HD
ENDBRANCH   2  14
TORSDOF 2
ENDMDL
MODEL 3
REMARK VINA RESULT:    -5.189     12.455     14.097
REMARK INTER + INTRA:          -5.641
REMARK INTER:                  -5.593
REMARK INTRA:                  -0.048
REMARK UNBOUND:                 0.003
REMARK SMILES COc1cc2ccc(=O)oc2cc1O
REMARK SMILES IDX 3 1 13 2 12 3 11 4 5 5 4 6 6 7 7 8 8 9 9 10 10 11 2 12 1 13
REMARK SMILES IDX 14 14
REMARK H PARENT 14 15
REMARK Flexibility Score: inf
ROOT
ATOM      1  C   UNL     1      -0.782  -1.309  -9.295  1.00  0.00     0.161 A 
ATOM      2  C   UNL     1      -1.616  -2.445  -9.257  1.00  0.00     0.161 A 
ATOM      3  C   UNL     1      -3.005  -2.298  -9.174  1.00  0.00     0.098 A 
ATOM      4  C   UNL     1      -3.580  -1.027  -9.128  1.00  0.00     0.142 A 
ATOM      5  C   UNL     1      -2.755   0.116  -9.165  1.00  0.00     0.022 A 
ATOM      6  C   UNL     1      -1.364  -0.026  -9.248  1.00  0.00     0.062 A 
ATOM      7  C   UNL     1      -3.361   1.377  -9.116  1.00  0.00     0.019 A 
ATOM      8  C   UNL     1      -4.751   1.466  -9.033  1.00  0.00     0.094 A 
ATOM      9  C   UNL     1      -5.505   0.288  -9.001  1.00  0.00     0.336 A 
ATOM     10  O   UNL     1      -6.759   0.348  -8.927  1.00  0.00    -0.246 OA
ATOM     11  O   UNL     1      -4.903  -0.897  -9.049  1.00  0.00    -0.423 OA
ENDROOT
BRANCH   1  12
ATOM     12  O   UNL     1       0.607  -1.492  -9.378  1.00  0.00    -0.493 OA
ATOM     13  C   UNL     1       1.568  -0.722  -8.663  1.00  0.00     0.278 C 
ENDBRANCH   1  12
BRANCH   2  14
ATOM     14  O   UNL     1      -1.079  -3.732  -9.303  1.00  0.00    -0.504 OA
ATOM     15  H   UNL     1      -0.228  -3.980  -8.813  1.00  0.00     0.293 HD
ENDBRANCH   2  14
TORSDOF 2
ENDMDL
MODEL 4
REMARK VINA RESULT:    -4.965     12.202     13.663
REMARK INTER + INTRA:          -5.398
REMARK INTER:                  -5.356
REMARK INTRA:                  -0.041
REMARK UNBOUND:                 0.003
REMARK SMILES COc1cc2ccc(=O)oc2cc1O
REMARK SMILES IDX 3 1 13 2 12 3 11 4 5 5 4 6 6 7 7 8 8 9 9 10 10 11 2 12 1 13
REMARK SMILES IDX 14 14
REMARK H PARENT 14 15
REMARK Flexibility Score: inf
ROOT
ATOM      1  C   UNL     1      -1.638  -0.352  -9.436  1.00  0.00     0.161 A 
ATOM      2  C   UNL     1      -2.195  -1.605  -9.114  1.00  0.00     0.161 A 
ATOM      3  C   UNL     1      -3.540  -1.704  -8.739  1.00  0.00     0.098 A 
ATOM      4  C   UNL     1      -4.343  -0.563  -8.680  1.00  0.00     0.142 A 
ATOM      5  C   UNL     1      -3.795   0.696  -9.000  1.00  0.00     0.022 A 
ATOM      6  C   UNL     1      -2.449   0.800  -9.375  1.00  0.00     0.062 A 
ATOM      7  C   UNL     1      -4.625   1.821  -8.930  1.00  0.00     0.019 A 
ATOM      8  C   UNL     1      -5.958   1.666  -8.550  1.00  0.00     0.094 A 
ATOM      9  C   UNL     1      -6.431   0.385  -8.247  1.00  0.00     0.336 A 
ATOM     10  O   UNL     1      -7.631   0.225  -7.903  1.00  0.00    -0.246 OA
ATOM     11  O   UNL     1      -5.621  -0.667  -8.321  1.00  0.00    -0.423 OA
ENDROOT
BRANCH   1  12
ATOM     12  O   UNL     1      -0.285  -0.288  -9.808  1.00  0.00    -0.493 OA
ATOM     13  C   UNL     1       0.798  -0.149  -8.895  1.00  0.00     0.278 C 
ENDBRANCH   1  12
BRANCH   2  14
ATOM     14  O   UNL     1      -1.426  -2.768  -9.162  1.00  0.00    -0.504 OA
ATOM     15  H   UNL     1      -1.040  -3.125 -10.029  1.00  0.00     0.293 HD
ENDBRANCH   2  14
TORSDOF 2
ENDMDL
MODEL 5
REMARK VINA RESULT:    -4.965      1.988      5.446
REMARK INTER + INTRA:          -5.397
REMARK INTER:                  -5.353
REMARK INTRA:                  -0.044
REMARK UNBOUND:                 0.003
REMARK SMILES COc1cc2ccc(=O)oc2cc1O
REMARK SMILES IDX 3 1 13 2 12 3 11 4 5 5 4 6 6 7 7 8 8 9 9 10 10 11 2 12 1 13
REMARK SMILES IDX 14 14
REMARK H PARENT 14 15
REMARK Flexibility Score: inf
ROOT
ATOM      1  C   UNL     1      -1.402   8.494   0.965  1.00  0.00     0.161 A 
ATOM      2  C   UNL     1      -2.019   9.566   1.641  1.00  0.00     0.161 A 
ATOM      3  C   UNL     1      -3.231  10.090   1.176  1.00  0.00     0.098 A 
ATOM      4  C   UNL     1      -3.842   9.557   0.039  1.00  0.00     0.142 A 
ATOM      5  C   UNL     1      -3.233   8.485  -0.645  1.00  0.00     0.022 A 
ATOM      6  C   UNL     1      -2.020   7.957  -0.184  1.00  0.00     0.062 A 
ATOM      7  C   UNL     1      -3.870   7.973  -1.782  1.00  0.00     0.019 A 
ATOM      8  C   UNL     1      -5.076   8.533  -2.201  1.00  0.00     0.094 A 
ATOM      9  C   UNL     1      -5.620   9.595  -1.472  1.00  0.00     0.336 A 
ATOM     10  O   UNL     1      -6.708  10.114  -1.834  1.00  0.00    -0.246 OA
ATOM     11  O   UNL     1      -4.994  10.063  -0.395  1.00  0.00    -0.423 OA
ENDROOT
BRANCH   1  12
ATOM     12  O   UNL     1      -0.187   7.993   1.457  1.00  0.00    -0.493 OA
ATOM     13  C   UNL     1       0.655   7.082   0.757  1.00  0.00     0.278 C 
ENDBRANCH   1  12
BRANCH   2  14
ATOM     14  O   UNL     1      -1.440  10.125   2.780  1.00  0.00    -0.504 OA
ATOM     15  H   UNL     1      -0.571  10.645   2.745  1.00  0.00     0.293 HD
ENDBRANCH   2  14
TORSDOF 2
ENDMDL
MODEL 6
REMARK VINA RESULT:    -4.859      7.731      9.973
REMARK INTER + INTRA:          -5.282
REMARK INTER:                  -5.226
REMARK INTRA:                  -0.056
REMARK UNBOUND:                 0.003
REMARK SMILES COc1cc2ccc(=O)oc2cc1O
REMARK SMILES IDX 3 1 13 2 12 3 11 4 5 5 4 6 6 7 7 8 8 9 9 10 10 11 2 12 1 13
REMARK SMILES IDX 14 14
REMARK H PARENT 14 15
REMARK Flexibility Score: inf
ROOT
ATOM      1  C   UNL     1       1.850  -1.656  -1.045  1.00  0.00     0.161 A 
ATOM      2  C   UNL     1       2.236  -0.518  -1.782  1.00  0.00     0.161 A 
ATOM      3  C   UNL     1       1.863   0.761  -1.351  1.00  0.00     0.098 A 
ATOM      4  C   UNL     1       1.106   0.923  -0.190  1.00  0.00     0.142 A 
ATOM      5  C   UNL     1       0.713  -0.209   0.554  1.00  0.00     0.022 A 
ATOM      6  C   UNL     1       1.084  -1.491   0.127  1.00  0.00     0.062 A 
ATOM      7  C   UNL     1      -0.046  -0.014   1.713  1.00  0.00     0.019 A 
ATOM      8  C   UNL     1      -0.390   1.282   2.096  1.00  0.00     0.094 A 
ATOM      9  C   UNL     1       0.034   2.357   1.308  1.00  0.00     0.336 A 
ATOM     10  O   UNL     1      -0.266   3.534   1.637  1.00  0.00    -0.246 OA
ATOM     11  O   UNL     1       0.756   2.143   0.211  1.00  0.00    -0.423 OA
ENDROOT
BRANCH   1  12
ATOM     12  O   UNL     1       2.240  -2.924  -1.505  1.00  0.00    -0.493 OA
ATOM     13  C   UNL     1       3.013  -3.853  -0.753  1.00  0.00     0.278 C 
ENDBRANCH   1  12
BRANCH   2  14
ATOM     14  O   UNL     1       2.994  -0.639  -2.946  1.00  0.00    -0.504 OA
ATOM     15  H   UNL     1       2.817  -1.363  -3.633  1.00  0.00     0.293 HD
ENDBRANCH   2  14
TORSDOF 2
ENDMDL
MODEL 7
REMARK VINA RESULT:    -4.687     12.432     12.677
REMARK INTER + INTRA:          -5.095
REMARK INTER:                  -5.031
REMARK INTRA:                  -0.065
REMARK UNBOUND:                 0.003
REMARK SMILES COc1cc2ccc(=O)oc2cc1O
REMARK SMILES IDX 3 1 13 2 12 3 11 4 5 5 4 6 6 7 7 8 8 9 9 10 10 11 2 12 1 13
REMARK SMILES IDX 14 14
REMARK H PARENT 14 15
REMARK Flexibility Score: inf
ROOT
ATOM      1  C   UNL     1      -5.825   1.517  -8.916  1.00  0.00     0.161 A 
ATOM      2  C   UNL     1      -6.045   0.276  -8.285  1.00  0.00     0.161 A 
ATOM      3  C   UNL     1      -5.009  -0.661  -8.193  1.00  0.00     0.098 A 
ATOM      4  C   UNL     1      -3.749  -0.378  -8.724  1.00  0.00     0.142 A 
ATOM      5  C   UNL     1      -3.519   0.860  -9.357  1.00  0.00     0.022 A 
ATOM      6  C   UNL     1      -4.552   1.802  -9.453  1.00  0.00     0.062 A 
ATOM      7  C   UNL     1      -2.246   1.115  -9.880  1.00  0.00     0.019 A 
ATOM      8  C   UNL     1      -1.250   0.145  -9.760  1.00  0.00     0.094 A 
ATOM      9  C   UNL     1      -1.552  -1.061  -9.119  1.00  0.00     0.336 A 
ATOM     10  O   UNL     1      -0.668  -1.947  -9.001  1.00  0.00    -0.246 OA
ATOM     11  O   UNL     1      -2.771  -1.276  -8.631  1.00  0.00    -0.423 OA
ENDROOT
BRANCH   1  12
ATOM     12  O   UNL     1      -6.885   2.434  -8.992  1.00  0.00    -0.493 OA
ATOM     13  C   UNL     1      -7.732   2.598 -10.125  1.00  0.00     0.278 C 
ENDBRANCH   1  12
BRANCH   2  14
ATOM     14  O   UNL     1      -7.289  -0.044  -7.742  1.00  0.00    -0.504 OA
ATOM     15  H   UNL     1      -7.457  -0.915  -7.253  1.00  0.00     0.293 HD
ENDBRANCH   2  14
TORSDOF 2
ENDMDL
MODEL 8
REMARK VINA RESULT:    -4.554     12.295     12.714
REMARK INTER + INTRA:          -4.951
REMARK INTER:                  -4.966
REMARK INTRA:                   0.015
REMARK UNBOUND:                 0.003
REMARK SMILES COc1cc2ccc(=O)oc2cc1O
REMARK SMILES IDX 3 1 13 2 12 3 11 4 5 5 4 6 6 7 7 8 8 9 9 10 10 11 2 12 1 13
REMARK SMILES IDX 14 14
REMARK H PARENT 14 15
REMARK Flexibility Score: inf
ROOT
ATOM      1  C   UNL     1      -4.240   1.043  -9.039  1.00  0.00     0.161 A 
ATOM      2  C   UNL     1      -4.367  -0.308  -8.659  1.00  0.00     0.161 A 
ATOM      3  C   UNL     1      -3.240  -1.137  -8.612  1.00  0.00     0.098 A 
ATOM      4  C   UNL     1      -1.979  -0.635  -8.941  1.00  0.00     0.142 A 
ATOM      5  C   UNL     1      -1.841   0.715  -9.323  1.00  0.00     0.022 A 
ATOM      6  C   UNL     1      -2.966   1.549  -9.371  1.00  0.00     0.062 A 
ATOM      7  C   UNL     1      -0.564   1.189  -9.647  1.00  0.00     0.019 A 
ATOM      8  C   UNL     1       0.524   0.319  -9.584  1.00  0.00     0.094 A 
ATOM      9  C   UNL     1       0.311  -1.008  -9.197  1.00  0.00     0.336 A 
ATOM     10  O   UNL     1       1.280  -1.807  -9.133  1.00  0.00    -0.246 OA
ATOM     11  O   UNL     1      -0.913  -1.432  -8.894  1.00  0.00    -0.423 OA
ENDROOT
BRANCH   1  12
ATOM     12  O   UNL     1      -5.390   1.847  -9.075  1.00  0.00    -0.493 OA
ATOM     13  C   UNL     1      -6.354   1.830 -10.123  1.00  0.00     0.278 C 
ENDBRANCH   1  12
BRANCH   2  14
ATOM     14  O   UNL     1      -5.609  -0.846  -8.322  1.00  0.00    -0.504 OA
ATOM     15  H   UNL     1      -5.723  -1.511  -7.566  1.00  0.00     0.293 HD
ENDBRANCH   2  14
TORSDOF 2
ENDMDL
