MODEL 1
REMARK VINA RESULT:    -6.860      0.000      0.000
REMARK INTER + INTRA:         -12.895
REMARK INTER:                 -11.271
REMARK INTRA:                  -1.624
REMARK UNBOUND:                -1.624
REMARK SMILES C[C@H]1O[C@@H](OC[C@@H]2O[C@@H](Oc3c(-c4ccc(O)c(O)c4)oc4cc(O)cc(O)c4c3=O)[C@H](O)[C@@H](O)[C@H]2O)[C@@H](O)[C@@H](O)[C@H]1O
REMARK SMILES IDX 7 1 36 2 34 3 32 4 9 5 8 6 6 7 5 8 4 9 1 10 2 11 42 12 3 13
REMARK SMILES IDX 40 14 38 15 43 16 41 18 39 20 37 22 35 24 10 26 11 27 12 28
REMARK SMILES IDX 30 29 21 30 29 31 31 32 22 33 27 34 23 35 26 36 24 37 13 38
REMARK SMILES IDX 20 39 14 40 18 41 15 42 16 43 19 44 17 46 28 48 25 50 33 52
REMARK H PARENT 43 17 41 19 39 21 37 23 35 25 19 45 17 47 28 49 25 51 33 53
REMARK Flexibility Score: inf
ROOT
ATOM      1  C   UNL     1     -13.781   9.637   6.307  1.00  0.00     0.180 C 
ATOM      2  C   UNL     1     -15.304   9.475   6.356  1.00  0.00     0.177 C 
ATOM      3  C   UNL     1     -15.911  10.886   6.495  1.00  0.00     0.180 C 
ATOM      4  C   UNL     1     -15.192  11.744   7.578  1.00  0.00     0.214 C 
ATOM      5  C   UNL     1     -13.670  11.427   7.785  1.00  0.00     0.339 C 
ATOM      6  O   UNL     1     -13.388  10.046   7.604  1.00  0.00    -0.332 OA
ENDROOT
BRANCH   1   7
ATOM      7  C   UNL     1     -13.010   8.355   5.921  1.00  0.00     0.198 C 
BRANCH   7   8
ATOM      8  O   UNL     1     -13.823   7.198   6.007  1.00  0.00    -0.347 OA
BRANCH   8   9
ATOM      9  C   UNL     1     -13.187   5.966   5.681  1.00  0.00     0.281 C 
ATOM     10  C   UNL     1     -12.729   2.833   7.162  1.00  0.00     0.041 C 
ATOM     11  C   UNL     1     -13.167   3.594   5.907  1.00  0.00     0.150 C 
ATOM     12  C   UNL     1     -12.023   3.670   4.811  1.00  0.00     0.174 C 
ATOM     13  O   UNL     1     -13.772   4.836   6.309  1.00  0.00    -0.344 OA
ATOM     14  C   UNL     1     -11.042   4.875   4.950  1.00  0.00     0.179 C 
ATOM     15  C   UNL     1     -11.632   5.981   5.851  1.00  0.00     0.202 C 
BRANCH  12  16
ATOM     16  O   UNL     1     -11.365   2.436   4.649  1.00  0.00    -0.388 OA
ATOM     17  H   UNL     1     -10.894   2.205   5.498  1.00  0.00     0.211 HD
ENDBRANCH  12  16
BRANCH  14  18
ATOM     18  O   UNL     1      -9.774   4.500   5.435  1.00  0.00    -0.387 OA
ATOM     19  H   UNL     1      -9.090   5.043   4.955  1.00  0.00     0.211 HD
ENDBRANCH  14  18
BRANCH  15  20
ATOM     20  O   UNL     1     -11.182   5.765   7.177  1.00  0.00    -0.385 OA
ATOM     21  H   UNL     1     -10.742   4.886   7.257  1.00  0.00     0.211 HD
ENDBRANCH  15  20
ENDBRANCH   8   9
ENDBRANCH   7   8
ENDBRANCH   1   7
BRANCH   2  22
ATOM     22  O   UNL     1     -15.780   8.870   5.183  1.00  0.00    -0.387 OA
ATOM     23  H   UNL     1     -15.561   9.472   4.428  1.00  0.00     0.211 HD
ENDBRANCH   2  22
BRANCH   3  24
ATOM     24  O   UNL     1     -15.892  11.560   5.265  1.00  0.00    -0.387 OA
ATOM     25  H   UNL     1     -15.413  12.417   5.398  1.00  0.00     0.211 HD
ENDBRANCH   3  24
BRANCH   5  26
ATOM     26  O   UNL     1     -12.732  12.174   6.997  1.00  0.00    -0.454 OA
BRANCH  26  27
ATOM     27  C   UNL     1     -11.452  11.780   6.572  1.00  0.00     0.214 A 
ATOM     28  C   UNL     1     -11.114  11.486   5.222  1.00  0.00     0.180 A 
ATOM     29  C   UNL     1     -10.423  11.804   7.519  1.00  0.00     0.239 A 
ATOM     30  O   UNL     1      -9.843  11.177   4.925  1.00  0.00    -0.452 OA
ATOM     31  C   UNL     1      -9.111  11.451   7.160  1.00  0.00     0.111 A 
ATOM     32  O   UNL     1     -10.682  12.217   8.685  1.00  0.00    -0.285 OA
ATOM     33  C   UNL     1      -8.863  11.153   5.810  1.00  0.00     0.146 A 
ATOM     34  C   UNL     1      -8.049  11.374   8.088  1.00  0.00     0.134 A 
ATOM     35  C   UNL     1      -7.575  10.835   5.377  1.00  0.00     0.094 A 
ATOM     36  C   UNL     1      -6.756  11.064   7.656  1.00  0.00     0.093 A 
ATOM     37  C   UNL     1      -6.519  10.795   6.300  1.00  0.00     0.123 A 
BRANCH  28  38
ATOM     38  C   UNL     1     -12.062  11.469   4.049  1.00  0.00     0.025 A 
ATOM     39  C   UNL     1     -13.110  12.395   3.845  1.00  0.00     0.062 A 
ATOM     40  C   UNL     1     -11.884  10.455   3.077  1.00  0.00     0.016 A 
ATOM     41  C   UNL     1     -14.021  12.238   2.796  1.00  0.00     0.158 A 
ATOM     42  C   UNL     1     -12.743  10.351   1.993  1.00  0.00     0.051 A 
ATOM     43  C   UNL     1     -13.844  11.212   1.861  1.00  0.00     0.157 A 
BRANCH  41  44
ATOM     44  O   UNL     1     -15.099  13.124   2.695  1.00  0.00    -0.504 OA
ATOM     45  H   UNL     1     -15.905  13.060   3.308  1.00  0.00     0.293 HD
ENDBRANCH  41  44
BRANCH  43  46
ATOM     46  O   UNL     1     -14.755  11.041   0.800  1.00  0.00    -0.504 OA
ATOM     47  H   UNL     1     -15.592  10.482   0.916  1.00  0.00     0.293 HD
ENDBRANCH  43  46
ENDBRANCH  28  38
BRANCH  34  48
ATOM     48  O   UNL     1      -8.285  11.585   9.457  1.00  0.00    -0.507 OA
ATOM     49  H   UNL     1      -8.781  12.410   9.785  1.00  0.00     0.293 HD
ENDBRANCH  34  48
BRANCH  37  50
ATOM     50  O   UNL     1      -5.248  10.463   5.839  1.00  0.00    -0.508 OA
ATOM     51  H   UNL     1      -4.993  10.509   4.854  1.00  0.00     0.293 HD
ENDBRANCH  37  50
ENDBRANCH  26  27
ENDBRANCH   5  26
BRANCH   4  52
ATOM     52  O   UNL     1     -15.840  11.529   8.811  1.00  0.00    -0.384 OA
ATOM     53  H   UNL     1     -16.806  11.670   8.669  1.00  0.00     0.211 HD
ENDBRANCH   4  52
TORSDOF 16
ENDMDL
MODEL 2
REMARK VINA RESULT:    -5.148      1.657      4.056
REMARK INTER + INTRA:         -10.082
REMARK INTER:                 -10.199
REMARK INTRA:                   0.117
REMARK UNBOUND:                -1.624
REMARK SMILES C[C@H]1O[C@@H](OC[C@@H]2O[C@@H](Oc3c(-c4ccc(O)c(O)c4)oc4cc(O)cc(O)c4c3=O)[C@H](O)[C@@H](O)[C@H]2O)[C@@H](O)[C@@H](O)[C@H]1O
REMARK SMILES IDX 7 1 36 2 34 3 32 4 9 5 8 6 6 7 5 8 4 9 1 10 2 11 42 12 3 13
REMARK SMILES IDX 40 14 38 15 43 16 41 18 39 20 37 22 35 24 10 26 11 27 12 28
REMARK SMILES IDX 30 29 21 30 29 31 31 32 22 33 27 34 23 35 26 36 24 37 13 38
REMARK SMILES IDX 20 39 14 40 18 41 15 42 16 43 19 44 17 46 28 48 25 50 33 52
REMARK H PARENT 43 17 41 19 39 21 37 23 35 25 19 45 17 47 28 49 25 51 33 53
REMARK Flexibility Score: inf
ROOT
ATOM      1  C   UNL     1     -13.830   9.168   4.937  1.00  0.00     0.180 C 
ATOM      2  C   UNL     1     -14.600   9.606   3.686  1.00  0.00     0.177 C 
ATOM      3  C   UNL     1     -13.719  10.628   2.940  1.00  0.00     0.180 C 
ATOM      4  C   UNL     1     -13.116  11.705   3.890  1.00  0.00     0.214 C 
ATOM      5  C   UNL     1     -12.842  11.228   5.359  1.00  0.00     0.339 C 
ATOM      6  O   UNL     1     -13.813  10.290   5.800  1.00  0.00    -0.332 OA
ENDROOT
BRANCH   1   7
ATOM      7  C   UNL     1     -14.444   7.961   5.681  1.00  0.00     0.198 C 
BRANCH   7   8
ATOM      8  O   UNL     1     -14.173   6.736   5.025  1.00  0.00    -0.347 OA
BRANCH   8   9
ATOM      9  C   UNL     1     -13.461   5.766   5.788  1.00  0.00     0.281 C 
ATOM     10  C   UNL     1     -10.139   5.100   6.648  1.00  0.00     0.041 C 
ATOM     11  C   UNL     1     -11.572   5.279   7.157  1.00  0.00     0.150 C 
ATOM     12  C   UNL     1     -12.313   3.895   7.390  1.00  0.00     0.174 C 
ATOM     13  O   UNL     1     -12.239   6.247   6.326  1.00  0.00    -0.344 OA
ATOM     14  C   UNL     1     -13.047   3.312   6.144  1.00  0.00     0.179 C 
ATOM     15  C   UNL     1     -13.273   4.392   5.065  1.00  0.00     0.202 C 
BRANCH  12  16
ATOM     16  O   UNL     1     -11.486   2.958   8.036  1.00  0.00    -0.388 OA
ATOM     17  H   UNL     1     -11.933   2.066   8.023  1.00  0.00     0.211 HD
ENDBRANCH  12  16
BRANCH  14  18
ATOM     18  O   UNL     1     -12.375   2.212   5.575  1.00  0.00    -0.387 OA
ATOM     19  H   UNL     1     -13.063   1.574   5.239  1.00  0.00     0.211 HD
ENDBRANCH  14  18
BRANCH  15  20
ATOM     20  O   UNL     1     -12.189   4.349   4.154  1.00  0.00    -0.385 OA
ATOM     21  H   UNL     1     -12.451   4.724   3.281  1.00  0.00     0.211 HD
ENDBRANCH  15  20
ENDBRANCH   8   9
ENDBRANCH   7   8
ENDBRANCH   1   7
BRANCH   2  22
ATOM     22  O   UNL     1     -14.860   8.509   2.851  1.00  0.00    -0.387 OA
ATOM     23  H   UNL     1     -15.792   8.596   2.528  1.00  0.00     0.211 HD
ENDBRANCH   2  22
BRANCH   3  24
ATOM     24  O   UNL     1     -12.690   9.982   2.239  1.00  0.00    -0.387 OA
ATOM     25  H   UNL     1     -11.957   9.799   2.880  1.00  0.00     0.211 HD
ENDBRANCH   3  24
BRANCH   5  26
ATOM     26  O   UNL     1     -11.544  10.683   5.640  1.00  0.00    -0.454 OA
BRANCH  26  27
ATOM     27  C   UNL     1     -10.584  11.161   6.547  1.00  0.00     0.214 A 
ATOM     28  C   UNL     1     -10.887  11.654   7.846  1.00  0.00     0.180 A 
ATOM     29  C   UNL     1      -9.238  11.020   6.193  1.00  0.00     0.239 A 
ATOM     30  O   UNL     1      -9.880  12.028   8.649  1.00  0.00    -0.452 OA
ATOM     31  C   UNL     1      -8.220  11.447   7.063  1.00  0.00     0.111 A 
ATOM     32  O   UNL     1      -8.954  10.438   5.108  1.00  0.00    -0.285 OA
ATOM     33  C   UNL     1      -8.603  11.943   8.320  1.00  0.00     0.146 A 
ATOM     34  C   UNL     1      -6.849  11.410   6.727  1.00  0.00     0.134 A 
ATOM     35  C   UNL     1      -7.643  12.346   9.248  1.00  0.00     0.094 A 
ATOM     36  C   UNL     1      -5.884  11.806   7.658  1.00  0.00     0.093 A 
ATOM     37  C   UNL     1      -6.281  12.273   8.919  1.00  0.00     0.123 A 
BRANCH  28  38
ATOM     38  C   UNL     1     -12.264  11.821   8.437  1.00  0.00     0.025 A 
ATOM     39  C   UNL     1     -13.373  10.993   8.148  1.00  0.00     0.062 A 
ATOM     40  C   UNL     1     -12.460  12.882   9.354  1.00  0.00     0.016 A 
ATOM     41  C   UNL     1     -14.647  11.289   8.643  1.00  0.00     0.158 A 
ATOM     42  C   UNL     1     -13.710  13.123   9.906  1.00  0.00     0.051 A 
ATOM     43  C   UNL     1     -14.824  12.360   9.527  1.00  0.00     0.157 A 
BRANCH  41  44
ATOM     44  O   UNL     1     -15.730  10.496   8.247  1.00  0.00    -0.504 OA
ATOM     45  H   UNL     1     -15.781   9.509   8.473  1.00  0.00     0.293 HD
ENDBRANCH  41  44
BRANCH  43  46
ATOM     46  O   UNL     1     -16.102  12.670  10.032  1.00  0.00    -0.504 OA
ATOM     47  H   UNL     1     -16.251  13.491  10.606  1.00  0.00     0.293 HD
ENDBRANCH  43  46
ENDBRANCH  28  38
BRANCH  34  48
ATOM     48  O   UNL     1      -6.442  10.999   5.446  1.00  0.00    -0.507 OA
ATOM     49  H   UNL     1      -6.416  10.015   5.193  1.00  0.00     0.293 HD
ENDBRANCH  34  48
BRANCH  37  50
ATOM     50  O   UNL     1      -5.347  12.693   9.862  1.00  0.00    -0.508 OA
ATOM     51  H   UNL     1      -5.152  12.167  10.713  1.00  0.00     0.293 HD
ENDBRANCH  37  50
ENDBRANCH  26  27
ENDBRANCH   5  26
BRANCH   4  52
ATOM     52  O   UNL     1     -14.017  12.786   3.958  1.00  0.00    -0.384 OA
ATOM     53  H   UNL     1     -14.134  13.135   3.042  1.00  0.00     0.211 HD
ENDBRANCH   4  52
TORSDOF 16
ENDMDL
MODEL 3
REMARK VINA RESULT:    -4.717      1.492      5.103
REMARK INTER + INTRA:          -9.375
REMARK INTER:                  -8.348
REMARK INTRA:                  -1.027
REMARK UNBOUND:                -1.624
REMARK SMILES C[C@H]1O[C@@H](OC[C@@H]2O[C@@H](Oc3c(-c4ccc(O)c(O)c4)oc4cc(O)cc(O)c4c3=O)[C@H](O)[C@@H](O)[C@H]2O)[C@@H](O)[C@@H](O)[C@H]1O
REMARK SMILES IDX 7 1 36 2 34 3 32 4 9 5 8 6 6 7 5 8 4 9 1 10 2 11 42 12 3 13
REMARK SMILES IDX 40 14 38 15 43 16 41 18 39 20 37 22 35 24 10 26 11 27 12 28
REMARK SMILES IDX 30 29 21 30 29 31 31 32 22 33 27 34 23 35 26 36 24 37 13 38
REMARK SMILES IDX 20 39 14 40 18 41 15 42 16 43 19 44 17 46 28 48 25 50 33 52
REMARK H PARENT 43 17 41 19 39 21 37 23 35 25 19 45 17 47 28 49 25 51 33 53
REMARK Flexibility Score: inf
ROOT
ATOM      1  C   UNL     1     -13.544  10.621   7.447  1.00  0.00     0.180 C 
ATOM      2  C   UNL     1     -14.464  10.905   8.639  1.00  0.00     0.177 C 
ATOM      3  C   UNL     1     -14.478  12.432   8.853  1.00  0.00     0.180 C 
ATOM      4  C   UNL     1     -13.052  13.056   8.815  1.00  0.00     0.214 C 
ATOM      5  C   UNL     1     -12.019  12.316   7.896  1.00  0.00     0.339 C 
ATOM      6  O   UNL     1     -12.231  10.911   7.888  1.00  0.00    -0.332 OA
ENDROOT
BRANCH   1   7
ATOM      7  C   UNL     1     -13.598   9.167   6.926  1.00  0.00     0.198 C 
BRANCH   7   8
ATOM      8  O   UNL     1     -12.318   8.688   6.554  1.00  0.00    -0.347 OA
BRANCH   8   9
ATOM      9  C   UNL     1     -12.287   7.388   5.970  1.00  0.00     0.281 C 
ATOM     10  C   UNL     1     -13.502   4.199   6.721  1.00  0.00     0.041 C 
ATOM     11  C   UNL     1     -13.387   5.298   5.661  1.00  0.00     0.150 C 
ATOM     12  C   UNL     1     -12.215   5.027   4.627  1.00  0.00     0.174 C 
ATOM     13  O   UNL     1     -13.396   6.576   6.321  1.00  0.00    -0.344 OA
ATOM     14  C   UNL     1     -10.814   5.571   5.047  1.00  0.00     0.179 C 
ATOM     15  C   UNL     1     -10.932   6.631   6.163  1.00  0.00     0.202 C 
BRANCH  12  16
ATOM     16  O   UNL     1     -12.184   3.685   4.205  1.00  0.00    -0.388 OA
ATOM     17  H   UNL     1     -12.532   3.105   4.937  1.00  0.00     0.211 HD
ENDBRANCH  12  16
BRANCH  14  18
ATOM     18  O   UNL     1      -9.929   4.554   5.455  1.00  0.00    -0.387 OA
ATOM     19  H   UNL     1     -10.196   3.712   4.994  1.00  0.00     0.211 HD
ENDBRANCH  14  18
BRANCH  15  20
ATOM     20  O   UNL     1     -10.794   5.980   7.414  1.00  0.00    -0.385 OA
ATOM     21  H   UNL     1     -11.622   5.500   7.651  1.00  0.00     0.211 HD
ENDBRANCH  15  20
ENDBRANCH   8   9
ENDBRANCH   7   8
ENDBRANCH   1   7
BRANCH   2  22
ATOM     22  O   UNL     1     -15.768  10.453   8.384  1.00  0.00    -0.387 OA
ATOM     23  H   UNL     1     -16.039  10.811   7.502  1.00  0.00     0.211 HD
ENDBRANCH   2  22
BRANCH   3  24
ATOM     24  O   UNL     1     -15.298  13.062   7.904  1.00  0.00    -0.387 OA
ATOM     25  H   UNL     1     -14.708  13.499   7.239  1.00  0.00     0.211 HD
ENDBRANCH   3  24
BRANCH   5  26
ATOM     26  O   UNL     1     -11.923  12.754   6.532  1.00  0.00    -0.454 OA
BRANCH  26  27
ATOM     27  C   UNL     1     -12.184  12.015   5.366  1.00  0.00     0.214 A 
ATOM     28  C   UNL     1     -11.288  11.063   4.806  1.00  0.00     0.180 A 
ATOM     29  C   UNL     1     -13.458  12.135   4.800  1.00  0.00     0.239 A 
ATOM     30  O   UNL     1     -11.672  10.373   3.721  1.00  0.00    -0.452 OA
ATOM     31  C   UNL     1     -13.803  11.404   3.650  1.00  0.00     0.111 A 
ATOM     32  O   UNL     1     -14.314  12.859   5.383  1.00  0.00    -0.285 OA
ATOM     33  C   UNL     1     -12.854  10.500   3.145  1.00  0.00     0.146 A 
ATOM     34  C   UNL     1     -15.040  11.546   2.985  1.00  0.00     0.134 A 
ATOM     35  C   UNL     1     -13.146   9.712   2.031  1.00  0.00     0.094 A 
ATOM     36  C   UNL     1     -15.338  10.753   1.873  1.00  0.00     0.093 A 
ATOM     37  C   UNL     1     -14.391   9.835   1.397  1.00  0.00     0.123 A 
BRANCH  28  38
ATOM     38  C   UNL     1      -9.902  10.741   5.304  1.00  0.00     0.025 A 
ATOM     39  C   UNL     1      -9.167  11.536   6.213  1.00  0.00     0.062 A 
ATOM     40  C   UNL     1      -9.295   9.553   4.832  1.00  0.00     0.016 A 
ATOM     41  C   UNL     1      -7.839  11.232   6.531  1.00  0.00     0.158 A 
ATOM     42  C   UNL     1      -8.005   9.214   5.213  1.00  0.00     0.051 A 
ATOM     43  C   UNL     1      -7.248  10.066   6.031  1.00  0.00     0.157 A 
BRANCH  41  44
ATOM     44  O   UNL     1      -7.123  12.105   7.358  1.00  0.00    -0.504 OA
ATOM     45  H   UNL     1      -6.878  13.043   7.062  1.00  0.00     0.293 HD
ENDBRANCH  41  44
BRANCH  43  46
ATOM     46  O   UNL     1      -5.911   9.749   6.341  1.00  0.00    -0.504 OA
ATOM     47  H   UNL     1      -5.199  10.469   6.377  1.00  0.00     0.293 HD
ENDBRANCH  43  46
ENDBRANCH  28  38
BRANCH  34  48
ATOM     48  O   UNL     1     -15.974  12.503   3.418  1.00  0.00    -0.507 OA
ATOM     49  H   UNL     1     -15.732  13.490   3.467  1.00  0.00     0.293 HD
ENDBRANCH  34  48
BRANCH  37  50
ATOM     50  O   UNL     1     -14.648   9.043   0.281  1.00  0.00    -0.508 OA
ATOM     51  H   UNL     1     -15.085   9.411  -0.563  1.00  0.00     0.293 HD
ENDBRANCH  37  50
ENDBRANCH  26  27
ENDBRANCH   5  26
BRANCH   4  52
ATOM     52  O   UNL     1     -12.533  13.049  10.125  1.00  0.00    -0.384 OA
ATOM     53  H   UNL     1     -11.549  13.048  10.056  1.00  0.00     0.211 HD
ENDBRANCH   4  52
TORSDOF 16
ENDMDL
MODEL 4
REMARK VINA RESULT:    -4.589      1.633      6.646
REMARK INTER + INTRA:          -9.164
REMARK INTER:                  -8.299
REMARK INTRA:                  -0.864
REMARK UNBOUND:                -1.624
REMARK SMILES C[C@H]1O[C@@H](OC[C@@H]2O[C@@H](Oc3c(-c4ccc(O)c(O)c4)oc4cc(O)cc(O)c4c3=O)[C@H](O)[C@@H](O)[C@H]2O)[C@@H](O)[C@@H](O)[C@H]1O
REMARK SMILES IDX 7 1 36 2 34 3 32 4 9 5 8 6 6 7 5 8 4 9 1 10 2 11 42 12 3 13
REMARK SMILES IDX 40 14 38 15 43 16 41 18 39 20 37 22 35 24 10 26 11 27 12 28
REMARK SMILES IDX 30 29 21 30 29 31 31 32 22 33 27 34 23 35 26 36 24 37 13 38
REMARK SMILES IDX 20 39 14 40 18 41 15 42 16 43 19 44 17 46 28 48 25 50 33 52
REMARK H PARENT 43 17 41 19 39 21 37 23 35 25 19 45 17 47 28 49 25 51 33 53
REMARK Flexibility Score: inf
ROOT
ATOM      1  C   UNL     1     -13.837  11.055   6.568  1.00  0.00     0.180 C 
ATOM      2  C   UNL     1     -13.865  12.580   6.713  1.00  0.00     0.177 C 
ATOM      3  C   UNL     1     -12.568  13.124   6.079  1.00  0.00     0.180 C 
ATOM      4  C   UNL     1     -11.304  12.331   6.526  1.00  0.00     0.214 C 
ATOM      5  C   UNL     1     -11.543  10.816   6.855  1.00  0.00     0.339 C 
ATOM      6  O   UNL     1     -12.820  10.597   7.440  1.00  0.00    -0.332 OA
ENDROOT
BRANCH   1   7
ATOM      7  C   UNL     1     -15.166  10.351   6.923  1.00  0.00     0.198 C 
BRANCH   7   8
ATOM      8  O   UNL     1     -16.123  10.465   5.884  1.00  0.00    -0.347 OA
BRANCH   8   9
ATOM      9  C   UNL     1     -15.641  10.219   4.566  1.00  0.00     0.281 C 
ATOM     10  C   UNL     1     -12.665  10.659   2.787  1.00  0.00     0.041 C 
ATOM     11  C   UNL     1     -13.783   9.687   3.172  1.00  0.00     0.150 C 
ATOM     12  C   UNL     1     -14.888   9.550   2.042  1.00  0.00     0.174 C 
ATOM     13  O   UNL     1     -14.239  10.011   4.498  1.00  0.00    -0.344 OA
ATOM     14  C   UNL     1     -16.049  10.589   2.112  1.00  0.00     0.179 C 
ATOM     15  C   UNL     1     -16.124  11.258   3.502  1.00  0.00     0.202 C 
BRANCH  12  16
ATOM     16  O   UNL     1     -14.319   9.441   0.760  1.00  0.00    -0.388 OA
ATOM     17  H   UNL     1     -14.688  10.162   0.178  1.00  0.00     0.211 HD
ENDBRANCH  12  16
BRANCH  14  18
ATOM     18  O   UNL     1     -15.959  11.582   1.117  1.00  0.00    -0.387 OA
ATOM     19  H   UNL     1     -15.195  11.350   0.521  1.00  0.00     0.211 HD
ENDBRANCH  14  18
BRANCH  15  20
ATOM     20  O   UNL     1     -15.367  12.456   3.463  1.00  0.00    -0.385 OA
ATOM     21  H   UNL     1     -15.052  12.699   4.365  1.00  0.00     0.211 HD
ENDBRANCH  15  20
ENDBRANCH   8   9
ENDBRANCH   7   8
ENDBRANCH   1   7
BRANCH   2  22
ATOM     22  O   UNL     1     -14.977  13.125   6.052  1.00  0.00    -0.387 OA
ATOM     23  H   UNL     1     -15.146  12.570   5.250  1.00  0.00     0.211 HD
ENDBRANCH   2  22
BRANCH   3  24
ATOM     24  O   UNL     1     -12.659  13.125   4.679  1.00  0.00    -0.387 OA
ATOM     25  H   UNL     1     -12.677  12.182   4.377  1.00  0.00     0.211 HD
ENDBRANCH   3  24
BRANCH   5  26
ATOM     26  O   UNL     1     -11.386   9.879   5.779  1.00  0.00    -0.454 OA
BRANCH  26  27
ATOM     27  C   UNL     1     -11.018   8.525   5.859  1.00  0.00     0.214 A 
ATOM     28  C   UNL     1      -9.686   8.069   6.058  1.00  0.00     0.180 A 
ATOM     29  C   UNL     1     -12.048   7.578   5.869  1.00  0.00     0.239 A 
ATOM     30  O   UNL     1      -9.464   6.752   6.177  1.00  0.00    -0.452 OA
ATOM     31  C   UNL     1     -11.759   6.207   5.976  1.00  0.00     0.111 A 
ATOM     32  O   UNL     1     -13.244   7.985   5.851  1.00  0.00    -0.285 OA
ATOM     33  C   UNL     1     -10.416   5.836   6.149  1.00  0.00     0.146 A 
ATOM     34  C   UNL     1     -12.747   5.201   5.907  1.00  0.00     0.134 A 
ATOM     35  C   UNL     1     -10.062   4.496   6.303  1.00  0.00     0.094 A 
ATOM     36  C   UNL     1     -12.397   3.857   6.069  1.00  0.00     0.093 A 
ATOM     37  C   UNL     1     -11.055   3.504   6.268  1.00  0.00     0.123 A 
BRANCH  28  38
ATOM     38  C   UNL     1      -8.451   8.931   6.140  1.00  0.00     0.025 A 
ATOM     39  C   UNL     1      -8.039   9.643   7.289  1.00  0.00     0.062 A 
ATOM     40  C   UNL     1      -7.642   9.029   4.982  1.00  0.00     0.016 A 
ATOM     41  C   UNL     1      -6.949  10.518   7.247  1.00  0.00     0.158 A 
ATOM     42  C   UNL     1      -6.515   9.837   4.970  1.00  0.00     0.051 A 
ATOM     43  C   UNL     1      -6.178  10.621   6.084  1.00  0.00     0.157 A 
BRANCH  41  44
ATOM     44  O   UNL     1      -6.642  11.274   8.384  1.00  0.00    -0.504 OA
ATOM     45  H   UNL     1      -6.453  12.269   8.330  1.00  0.00     0.293 HD
ENDBRANCH  41  44
BRANCH  43  46
ATOM     46  O   UNL     1      -5.078  11.499   6.027  1.00  0.00    -0.504 OA
ATOM     47  H   UNL     1      -4.449  11.600   6.815  1.00  0.00     0.293 HD
ENDBRANCH  43  46
ENDBRANCH  28  38
BRANCH  34  48
ATOM     48  O   UNL     1     -14.087   5.537   5.650  1.00  0.00    -0.507 OA
ATOM     49  H   UNL     1     -14.383   6.508   5.586  1.00  0.00     0.293 HD
ENDBRANCH  34  48
BRANCH  37  50
ATOM     50  O   UNL     1     -10.669   2.174   6.414  1.00  0.00    -0.508 OA
ATOM     51  H   UNL     1      -9.732   1.847   6.185  1.00  0.00     0.293 HD
ENDBRANCH  37  50
ENDBRANCH  26  27
ENDBRANCH   5  26
BRANCH   4  52
ATOM     52  O   UNL     1     -10.790  12.940   7.688  1.00  0.00    -0.384 OA
ATOM     53  H   UNL     1     -10.358  13.784   7.416  1.00  0.00     0.211 HD
ENDBRANCH   4  52
TORSDOF 16
ENDMDL
