MODEL 1
REMARK VINA RESULT:    -7.693      0.000      0.000
REMARK INTER + INTRA:         -14.893
REMARK INTER:                 -13.990
REMARK INTRA:                  -0.904
REMARK UNBOUND:                -0.904
REMARK SMILES CCCCCCCCCCCCCCCC(=O)[O-]
REMARK SMILES IDX 9 1 10 2 11 3 12 4 13 5 14 6 15 7 16 8 17 9 18 10 8 11 7 12
REMARK SMILES IDX 6 13 5 14 4 15 3 16 2 17 1 18
REMARK H PARENT
REMARK Flexibility Score: inf
ROOT
ATOM      1  C   UNL     1       5.976  -1.991  21.765  1.00  0.00     0.000 C 
ENDROOT
BRANCH   1   2
ATOM      2  C   UNL     1       6.884  -2.748  20.780  1.00  0.00     0.000 C 
BRANCH   2   3
ATOM      3  C   UNL     1       6.186  -3.836  19.941  1.00  0.00     0.000 C 
BRANCH   3   4
ATOM      4  C   UNL     1       6.778  -5.239  20.164  1.00  0.00     0.000 C 
BRANCH   4   5
ATOM      5  C   UNL     1       7.916  -5.242  21.198  1.00  0.00     0.000 C 
BRANCH   5   6
ATOM      6  C   UNL     1       8.039  -6.580  21.943  1.00  0.00     0.006 C 
BRANCH   6   7
ATOM      7  C   UNL     1       6.857  -7.498  21.619  1.00  0.00     0.053 C 
BRANCH   7   8
ATOM      8  C   UNL     1       6.841  -8.676  22.542  1.00  0.00     0.041 C 
ATOM      9  O   UNL     1       6.498  -9.810  22.115  1.00  0.00    -0.550 OA
ATOM     10  O   UNL     1       7.256  -8.533  23.859  1.00  0.00    -0.550 OA
ENDBRANCH   7   8
ENDBRANCH   6   7
ENDBRANCH   5   6
ENDBRANCH   4   5
ENDBRANCH   3   4
ENDBRANCH   2   3
ENDBRANCH   1   2
BRANCH   1  11
ATOM     11  C   UNL     1       4.630  -2.695  22.007  1.00  0.00     0.000 C 
BRANCH  11  12
ATOM     12  C   UNL     1       3.430  -1.893  21.473  1.00  0.00    -0.000 C 
BRANCH  12  13
ATOM     13  C   UNL     1       3.131  -2.083  19.974  1.00  0.00    -0.000 C 
BRANCH  13  14
ATOM     14  C   UNL     1       2.121  -1.058  19.428  1.00  0.00    -0.000 C 
BRANCH  14  15
ATOM     15  C   UNL     1       2.807   0.232  18.933  1.00  0.00    -0.000 C 
BRANCH  15  16
ATOM     16  C   UNL     1       2.380   0.667  17.518  1.00  0.00    -0.000 C 
BRANCH  16  17
ATOM     17  C   UNL     1       1.029   1.408  17.465  1.00  0.00    -0.003 C 
ATOM     18  C   UNL     1       1.179   2.922  17.623  1.00  0.00     0.004 C 
ENDBRANCH  16  17
ENDBRANCH  15  16
ENDBRANCH  14  15
ENDBRANCH  13  14
ENDBRANCH  12  13
ENDBRANCH  11  12
ENDBRANCH   1  11
TORSDOF 14
ENDMDL
MODEL 2
REMARK VINA RESULT:    -7.385      1.101      1.433
REMARK INTER + INTRA:         -14.334
REMARK INTER:                 -13.371
REMARK INTRA:                  -0.962
REMARK UNBOUND:                -0.904
REMARK SMILES CCCCCCCCCCCCCCCC(=O)[O-]
REMARK SMILES IDX 9 1 10 2 11 3 12 4 13 5 14 6 15 7 16 8 17 9 18 10 8 11 7 12
REMARK SMILES IDX 6 13 5 14 4 15 3 16 2 17 1 18
REMARK H PARENT
REMARK Flexibility Score: inf
ROOT
ATOM      1  C   UNL     1       6.531  -1.616  20.701  1.00  0.00     0.000 C 
ENDROOT
BRANCH   1   2
ATOM      2  C   UNL     1       6.036  -2.551  21.819  1.00  0.00     0.000 C 
BRANCH   2   3
ATOM      3  C   UNL     1       5.840  -4.024  21.410  1.00  0.00     0.000 C 
BRANCH   3   4
ATOM      4  C   UNL     1       6.837  -4.485  20.332  1.00  0.00     0.000 C 
BRANCH   4   5
ATOM      5  C   UNL     1       7.632  -5.730  20.757  1.00  0.00     0.000 C 
BRANCH   5   6
ATOM      6  C   UNL     1       6.799  -6.711  21.595  1.00  0.00     0.006 C 
BRANCH   6   7
ATOM      7  C   UNL     1       7.274  -8.152  21.387  1.00  0.00     0.053 C 
BRANCH   7   8
ATOM      8  C   UNL     1       6.889  -9.005  22.554  1.00  0.00     0.041 C 
ATOM      9  O   UNL     1       6.313 -10.109  22.369  1.00  0.00    -0.550 OA
ATOM     10  O   UNL     1       7.215  -8.606  23.844  1.00  0.00    -0.550 OA
ENDBRANCH   7   8
ENDBRANCH   6   7
ENDBRANCH   5   6
ENDBRANCH   4   5
ENDBRANCH   3   4
ENDBRANCH   2   3
ENDBRANCH   1   2
BRANCH   1  11
ATOM     11  C   UNL     1       5.878  -0.224  20.747  1.00  0.00     0.000 C 
BRANCH  11  12
ATOM     12  C   UNL     1       4.890   0.013  19.591  1.00  0.00    -0.000 C 
BRANCH  12  13
ATOM     13  C   UNL     1       3.957  -1.171  19.274  1.00  0.00    -0.000 C 
BRANCH  13  14
ATOM     14  C   UNL     1       2.632  -1.117  20.056  1.00  0.00    -0.000 C 
BRANCH  14  15
ATOM     15  C   UNL     1       1.410  -0.967  19.127  1.00  0.00    -0.000 C 
BRANCH  15  16
ATOM     16  C   UNL     1       1.571   0.122  18.048  1.00  0.00    -0.000 C 
BRANCH  16  17
ATOM     17  C   UNL     1       1.438   1.563  18.580  1.00  0.00    -0.003 C 
ATOM     18  C   UNL     1       1.232   2.588  17.465  1.00  0.00     0.004 C 
ENDBRANCH  16  17
ENDBRANCH  15  16
ENDBRANCH  14  15
ENDBRANCH  13  14
ENDBRANCH  12  13
ENDBRANCH  11  12
ENDBRANCH   1  11
TORSDOF 14
ENDMDL
MODEL 3
REMARK VINA RESULT:    -7.380      4.371      8.681
REMARK INTER + INTRA:         -14.323
REMARK INTER:                 -13.036
REMARK INTRA:                  -1.287
REMARK UNBOUND:                -0.904
REMARK SMILES CCCCCCCCCCCCCCCC(=O)[O-]
REMARK SMILES IDX 9 1 10 2 11 3 12 4 13 5 14 6 15 7 16 8 17 9 18 10 8 11 7 12
REMARK SMILES IDX 6 13 5 14 4 15 3 16 2 17 1 18
REMARK H PARENT
REMARK Flexibility Score: inf
ROOT
ATOM      1  C   UNL     1       6.766  -2.051  20.723  1.00  0.00     0.000 C 
ENDROOT
BRANCH   1   2
ATOM      2  C   UNL     1       6.094  -0.666  20.776  1.00  0.00     0.000 C 
BRANCH   2   3
ATOM      3  C   UNL     1       5.050  -0.397  19.675  1.00  0.00     0.000 C 
BRANCH   3   4
ATOM      4  C   UNL     1       4.397  -1.683  19.140  1.00  0.00     0.000 C 
BRANCH   4   5
ATOM      5  C   UNL     1       3.129  -2.069  19.919  1.00  0.00     0.000 C 
BRANCH   5   6
ATOM      6  C   UNL     1       2.161  -0.890  20.102  1.00  0.00     0.006 C 
BRANCH   6   7
ATOM      7  C   UNL     1       1.211  -0.769  18.907  1.00  0.00     0.053 C 
BRANCH   7   8
ATOM      8  C   UNL     1       1.385   0.555  18.231  1.00  0.00     0.041 C 
ATOM      9  O   UNL     1       2.035   1.474  18.796  1.00  0.00    -0.550 OA
ATOM     10  O   UNL     1       0.875   0.757  16.956  1.00  0.00    -0.550 OA
ENDBRANCH   7   8
ENDBRANCH   6   7
ENDBRANCH   5   6
ENDBRANCH   4   5
ENDBRANCH   3   4
ENDBRANCH   2   3
ENDBRANCH   1   2
BRANCH   1  11
ATOM     11  C   UNL     1       6.360  -2.961  21.895  1.00  0.00     0.000 C 
BRANCH  11  12
ATOM     12  C   UNL     1       5.693  -4.269  21.434  1.00  0.00    -0.000 C 
BRANCH  12  13
ATOM     13  C   UNL     1       6.574  -5.182  20.561  1.00  0.00    -0.000 C 
BRANCH  13  14
ATOM     14  C   UNL     1       7.959  -5.447  21.177  1.00  0.00    -0.000 C 
BRANCH  14  15
ATOM     15  C   UNL     1       7.998  -6.761  21.985  1.00  0.00    -0.000 C 
BRANCH  15  16
ATOM     16  C   UNL     1       7.252  -7.932  21.316  1.00  0.00    -0.000 C 
BRANCH  16  17
ATOM     17  C   UNL     1       6.576  -8.899  22.307  1.00  0.00    -0.003 C 
ATOM     18  C   UNL     1       7.198  -8.845  23.703  1.00  0.00     0.004 C 
ENDBRANCH  16  17
ENDBRANCH  15  16
ENDBRANCH  14  15
ENDBRANCH  13  14
ENDBRANCH  12  13
ENDBRANCH  11  12
ENDBRANCH   1  11
TORSDOF 14
ENDMDL
MODEL 4
REMARK VINA RESULT:    -7.277      2.953      7.897
REMARK INTER + INTRA:         -14.136
REMARK INTER:                 -12.940
REMARK INTRA:                  -1.197
REMARK UNBOUND:                -0.904
REMARK SMILES CCCCCCCCCCCCCCCC(=O)[O-]
REMARK SMILES IDX 9 1 10 2 11 3 12 4 13 5 14 6 15 7 16 8 17 9 18 10 8 11 7 12
REMARK SMILES IDX 6 13 5 14 4 15 3 16 2 17 1 18
REMARK H PARENT
REMARK Flexibility Score: inf
ROOT
ATOM      1  C   UNL     1       6.707  -1.870  20.781  1.00  0.00     0.000 C 
ENDROOT
BRANCH   1   2
ATOM      2  C   UNL     1       5.976  -0.515  20.785  1.00  0.00     0.000 C 
BRANCH   2   3
ATOM      3  C   UNL     1       5.671   0.075  19.395  1.00  0.00     0.000 C 
BRANCH   3   4
ATOM      4  C   UNL     1       4.377   0.908  19.368  1.00  0.00     0.000 C 
BRANCH   4   5
ATOM      5  C   UNL     1       3.300   0.295  18.458  1.00  0.00     0.000 C 
BRANCH   5   6
ATOM      6  C   UNL     1       1.991  -0.003  19.205  1.00  0.00     0.006 C 
BRANCH   6   7
ATOM      7  C   UNL     1       1.708  -1.508  19.236  1.00  0.00     0.053 C 
BRANCH   7   8
ATOM      8  C   UNL     1       2.788  -2.229  19.979  1.00  0.00     0.041 C 
ATOM      9  O   UNL     1       3.557  -3.019  19.370  1.00  0.00    -0.550 OA
ATOM     10  O   UNL     1       2.981  -1.987  21.333  1.00  0.00    -0.550 OA
ENDBRANCH   7   8
ENDBRANCH   6   7
ENDBRANCH   5   6
ENDBRANCH   4   5
ENDBRANCH   3   4
ENDBRANCH   2   3
ENDBRANCH   1   2
BRANCH   1  11
ATOM     11  C   UNL     1       6.314  -2.770  21.965  1.00  0.00     0.000 C 
BRANCH  11  12
ATOM     12  C   UNL     1       5.798  -4.151  21.522  1.00  0.00    -0.000 C 
BRANCH  12  13
ATOM     13  C   UNL     1       6.698  -4.895  20.518  1.00  0.00    -0.000 C 
BRANCH  13  14
ATOM     14  C   UNL     1       8.067  -5.277  21.108  1.00  0.00    -0.000 C 
BRANCH  14  15
ATOM     15  C   UNL     1       8.031  -6.633  21.842  1.00  0.00    -0.000 C 
BRANCH  15  16
ATOM     16  C   UNL     1       7.125  -7.685  21.174  1.00  0.00    -0.000 C 
BRANCH  16  17
ATOM     17  C   UNL     1       6.948  -8.979  21.994  1.00  0.00    -0.003 C 
ATOM     18  C   UNL     1       6.951  -8.727  23.502  1.00  0.00     0.004 C 
ENDBRANCH  16  17
ENDBRANCH  15  16
ENDBRANCH  14  15
ENDBRANCH  13  14
ENDBRANCH  12  13
ENDBRANCH  11  12
ENDBRANCH   1  11
TORSDOF 14
ENDMDL
MODEL 5
REMARK VINA RESULT:    -7.263      1.401      2.483
REMARK INTER + INTRA:         -14.111
REMARK INTER:                 -12.690
REMARK INTRA:                  -1.421
REMARK UNBOUND:                -0.904
REMARK SMILES CCCCCCCCCCCCCCCC(=O)[O-]
REMARK SMILES IDX 9 1 10 2 11 3 12 4 13 5 14 6 15 7 16 8 17 9 18 10 8 11 7 12
REMARK SMILES IDX 6 13 5 14 4 15 3 16 2 17 1 18
REMARK H PARENT
REMARK Flexibility Score: inf
ROOT
ATOM      1  C   UNL     1       5.259  -3.618  19.707  1.00  0.00     0.000 C 
ENDROOT
BRANCH   1   2
ATOM      2  C   UNL     1       5.451  -3.453  21.225  1.00  0.00     0.000 C 
BRANCH   2   3
ATOM      3  C   UNL     1       6.908  -3.539  21.719  1.00  0.00     0.000 C 
BRANCH   3   4
ATOM      4  C   UNL     1       7.767  -4.508  20.888  1.00  0.00     0.000 C 
BRANCH   4   5
ATOM      5  C   UNL     1       7.994  -5.853  21.596  1.00  0.00     0.000 C 
BRANCH   5   6
ATOM      6  C   UNL     1       6.895  -6.881  21.287  1.00  0.00     0.006 C 
BRANCH   6   7
ATOM      7  C   UNL     1       7.452  -8.307  21.320  1.00  0.00     0.053 C 
BRANCH   7   8
ATOM      8  C   UNL     1       6.945  -9.040  22.522  1.00  0.00     0.041 C 
ATOM      9  O   UNL     1       6.320 -10.125  22.386  1.00  0.00    -0.550 OA
ATOM     10  O   UNL     1       7.208  -8.552  23.796  1.00  0.00    -0.550 OA
ENDBRANCH   7   8
ENDBRANCH   6   7
ENDBRANCH   5   6
ENDBRANCH   4   5
ENDBRANCH   3   4
ENDBRANCH   2   3
ENDBRANCH   1   2
BRANCH   1  11
ATOM     11  C   UNL     1       3.811  -3.364  19.252  1.00  0.00     0.000 C 
BRANCH  11  12
ATOM     12  C   UNL     1       3.073  -2.349  20.143  1.00  0.00    -0.000 C 
BRANCH  12  13
ATOM     13  C   UNL     1       1.812  -1.724  19.517  1.00  0.00    -0.000 C 
BRANCH  13  14
ATOM     14  C   UNL     1       1.942  -0.207  19.292  1.00  0.00    -0.000 C 
BRANCH  14  15
ATOM     15  C   UNL     1       3.199   0.158  18.477  1.00  0.00    -0.000 C 
BRANCH  15  16
ATOM     16  C   UNL     1       4.299   0.859  19.298  1.00  0.00    -0.000 C 
BRANCH  16  17
ATOM     17  C   UNL     1       5.633   0.089  19.353  1.00  0.00    -0.003 C 
ATOM     18  C   UNL     1       6.163  -0.074  20.778  1.00  0.00     0.004 C 
ENDBRANCH  16  17
ENDBRANCH  15  16
ENDBRANCH  14  15
ENDBRANCH  13  14
ENDBRANCH  12  13
ENDBRANCH  11  12
ENDBRANCH   1  11
TORSDOF 14
ENDMDL
MODEL 6
REMARK VINA RESULT:    -7.218      4.370      8.890
REMARK INTER + INTRA:         -14.028
REMARK INTER:                 -13.326
REMARK INTRA:                  -0.702
REMARK UNBOUND:                -0.904
REMARK SMILES CCCCCCCCCCCCCCCC(=O)[O-]
REMARK SMILES IDX 9 1 10 2 11 3 12 4 13 5 14 6 15 7 16 8 17 9 18 10 8 11 7 12
REMARK SMILES IDX 6 13 5 14 4 15 3 16 2 17 1 18
REMARK H PARENT
REMARK Flexibility Score: inf
ROOT
ATOM      1  C   UNL     1       6.359  -2.098  20.303  1.00  0.00     0.000 C 
ENDROOT
BRANCH   1   2
ATOM      2  C   UNL     1       5.486  -1.477  21.409  1.00  0.00     0.000 C 
BRANCH   2   3
ATOM      3  C   UNL     1       4.291  -2.334  21.867  1.00  0.00     0.000 C 
BRANCH   3   4
ATOM      4  C   UNL     1       2.953  -1.869  21.265  1.00  0.00     0.000 C 
BRANCH   4   5
ATOM      5  C   UNL     1       2.996  -1.780  19.731  1.00  0.00     0.000 C 
BRANCH   5   6
ATOM      6  C   UNL     1       1.745  -1.110  19.139  1.00  0.00     0.006 C 
BRANCH   6   7
ATOM      7  C   UNL     1       1.880   0.415  19.157  1.00  0.00     0.053 C 
BRANCH   7   8
ATOM      8  C   UNL     1       2.022   0.945  17.765  1.00  0.00     0.041 C 
ATOM      9  O   UNL     1       2.880   0.454  16.985  1.00  0.00    -0.550 OA
ATOM     10  O   UNL     1       1.171   1.944  17.312  1.00  0.00    -0.550 OA
ENDBRANCH   7   8
ENDBRANCH   6   7
ENDBRANCH   5   6
ENDBRANCH   4   5
ENDBRANCH   3   4
ENDBRANCH   2   3
ENDBRANCH   1   2
BRANCH   1  11
ATOM     11  C   UNL     1       5.868  -3.486  19.858  1.00  0.00     0.000 C 
BRANCH  11  12
ATOM     12  C   UNL     1       7.000  -4.526  19.782  1.00  0.00    -0.000 C 
BRANCH  12  13
ATOM     13  C   UNL     1       7.991  -4.502  20.961  1.00  0.00    -0.000 C 
BRANCH  13  14
ATOM     14  C   UNL     1       8.215  -5.890  21.586  1.00  0.00    -0.000 C 
BRANCH  14  15
ATOM     15  C   UNL     1       7.021  -6.837  21.351  1.00  0.00    -0.000 C 
BRANCH  15  16
ATOM     16  C   UNL     1       7.407  -8.327  21.271  1.00  0.00    -0.000 C 
BRANCH  16  17
ATOM     17  C   UNL     1       6.658  -9.228  22.272  1.00  0.00    -0.003 C 
ATOM     18  C   UNL     1       6.990  -8.897  23.728  1.00  0.00     0.004 C 
ENDBRANCH  16  17
ENDBRANCH  15  16
ENDBRANCH  14  15
ENDBRANCH  13  14
ENDBRANCH  12  13
ENDBRANCH  11  12
ENDBRANCH   1  11
TORSDOF 14
ENDMDL
MODEL 7
REMARK VINA RESULT:    -6.947      6.221     10.746
REMARK INTER + INTRA:         -13.536
REMARK INTER:                 -12.951
REMARK INTRA:                  -0.585
REMARK UNBOUND:                -0.904
REMARK SMILES CCCCCCCCCCCCCCCC(=O)[O-]
REMARK SMILES IDX 9 1 10 2 11 3 12 4 13 5 14 6 15 7 16 8 17 9 18 10 8 11 7 12
REMARK SMILES IDX 6 13 5 14 4 15 3 16 2 17 1 18
REMARK H PARENT
REMARK Flexibility Score: inf
ROOT
ATOM      1  C   UNL     1       2.012  -1.162  19.273  1.00  0.00     0.000 C 
ENDROOT
BRANCH   1   2
ATOM      2  C   UNL     1       2.159   0.344  18.989  1.00  0.00     0.000 C 
BRANCH   2   3
ATOM      3  C   UNL     1       2.000   0.756  17.513  1.00  0.00     0.000 C 
BRANCH   3   4
ATOM      4  C   UNL     1       0.971   1.882  17.312  1.00  0.00     0.000 C 
BRANCH   4   5
ATOM      5  C   UNL     1       1.363   3.178  18.040  1.00  0.00     0.000 C 
BRANCH   5   6
ATOM      6  C   UNL     1       1.215   4.426  17.156  1.00  0.00     0.006 C 
BRANCH   6   7
ATOM      7  C   UNL     1       1.966   5.617  17.758  1.00  0.00     0.053 C 
BRANCH   7   8
ATOM      8  C   UNL     1       2.106   6.712  16.748  1.00  0.00     0.041 C 
ATOM      9  O   UNL     1       1.620   7.851  16.977  1.00  0.00    -0.550 OA
ATOM     10  O   UNL     1       2.820   6.491  15.577  1.00  0.00    -0.550 OA
ENDBRANCH   7   8
ENDBRANCH   6   7
ENDBRANCH   5   6
ENDBRANCH   4   5
ENDBRANCH   3   4
ENDBRANCH   2   3
ENDBRANCH   1   2
BRANCH   1  11
ATOM     11  C   UNL     1       3.083  -1.700  20.238  1.00  0.00     0.000 C 
BRANCH  11  12
ATOM     12  C   UNL     1       4.512  -1.557  19.686  1.00  0.00    -0.000 C 
BRANCH  12  13
ATOM     13  C   UNL     1       5.592  -1.248  20.739  1.00  0.00    -0.000 C 
BRANCH  13  14
ATOM     14  C   UNL     1       5.677  -2.315  21.845  1.00  0.00    -0.000 C 
BRANCH  14  15
ATOM     15  C   UNL     1       6.829  -3.313  21.607  1.00  0.00    -0.000 C 
BRANCH  15  16
ATOM     16  C   UNL     1       6.364  -4.719  21.178  1.00  0.00    -0.000 C 
BRANCH  16  17
ATOM     17  C   UNL     1       7.488  -5.773  21.145  1.00  0.00    -0.003 C 
ATOM     18  C   UNL     1       6.982  -7.186  21.438  1.00  0.00     0.004 C 
ENDBRANCH  16  17
ENDBRANCH  15  16
ENDBRANCH  14  15
ENDBRANCH  13  14
ENDBRANCH  12  13
ENDBRANCH  11  12
ENDBRANCH   1  11
TORSDOF 14
ENDMDL
MODEL 8
REMARK VINA RESULT:    -6.730      1.206      3.156
REMARK INTER + INTRA:         -13.141
REMARK INTER:                 -11.959
REMARK INTRA:                  -1.182
REMARK UNBOUND:                -0.904
REMARK SMILES CCCCCCCCCCCCCCCC(=O)[O-]
REMARK SMILES IDX 9 1 10 2 11 3 12 4 13 5 14 6 15 7 16 8 17 9 18 10 8 11 7 12
REMARK SMILES IDX 6 13 5 14 4 15 3 16 2 17 1 18
REMARK H PARENT
REMARK Flexibility Score: inf
ROOT
ATOM      1  C   UNL     1       6.491  -0.288  20.091  1.00  0.00     0.000 C 
ENDROOT
BRANCH   1   2
ATOM      2  C   UNL     1       6.457  -1.500  21.040  1.00  0.00     0.000 C 
BRANCH   2   3
ATOM      3  C   UNL     1       6.828  -2.851  20.399  1.00  0.00     0.000 C 
BRANCH   3   4
ATOM      4  C   UNL     1       7.037  -3.969  21.435  1.00  0.00     0.000 C 
BRANCH   4   5
ATOM      5  C   UNL     1       6.849  -5.372  20.837  1.00  0.00     0.000 C 
BRANCH   5   6
ATOM      6  C   UNL     1       7.704  -6.438  21.539  1.00  0.00     0.006 C 
BRANCH   6   7
ATOM      7  C   UNL     1       7.244  -7.848  21.158  1.00  0.00     0.053 C 
BRANCH   7   8
ATOM      8  C   UNL     1       6.937  -8.649  22.384  1.00  0.00     0.041 C 
ATOM      9  O   UNL     1       6.269  -9.712  22.296  1.00  0.00    -0.550 OA
ATOM     10  O   UNL     1       7.435  -8.249  23.618  1.00  0.00    -0.550 OA
ENDBRANCH   7   8
ENDBRANCH   6   7
ENDBRANCH   5   6
ENDBRANCH   4   5
ENDBRANCH   3   4
ENDBRANCH   2   3
ENDBRANCH   1   2
BRANCH   1  11
ATOM     11  C   UNL     1       5.118   0.385  19.924  1.00  0.00     0.000 C 
BRANCH  11  12
ATOM     12  C   UNL     1       4.502   0.153  18.532  1.00  0.00    -0.000 C 
BRANCH  12  13
ATOM     13  C   UNL     1       2.978   0.354  18.450  1.00  0.00    -0.000 C 
BRANCH  13  14
ATOM     14  C   UNL     1       2.218  -0.339  19.595  1.00  0.00    -0.000 C 
BRANCH  14  15
ATOM     15  C   UNL     1       2.251  -1.876  19.473  1.00  0.00    -0.000 C 
BRANCH  15  16
ATOM     16  C   UNL     1       3.156  -2.569  20.511  1.00  0.00    -0.000 C 
BRANCH  16  17
ATOM     17  C   UNL     1       3.145  -1.905  21.902  1.00  0.00    -0.003 C 
ATOM     18  C   UNL     1       3.997  -2.660  22.923  1.00  0.00     0.004 C 
ENDBRANCH  16  17
ENDBRANCH  15  16
ENDBRANCH  14  15
ENDBRANCH  13  14
ENDBRANCH  12  13
ENDBRANCH  11  12
ENDBRANCH   1  11
TORSDOF 14
ENDMDL
MODEL 9
REMARK VINA RESULT:    -6.710      5.617     10.225
REMARK INTER + INTRA:         -13.106
REMARK INTER:                 -12.594
REMARK INTRA:                  -0.513
REMARK UNBOUND:                -0.904
REMARK SMILES CCCCCCCCCCCCCCCC(=O)[O-]
REMARK SMILES IDX 9 1 10 2 11 3 12 4 13 5 14 6 15 7 16 8 17 9 18 10 8 11 7 12
REMARK SMILES IDX 6 13 5 14 4 15 3 16 2 17 1 18
REMARK H PARENT
REMARK Flexibility Score: inf
ROOT
ATOM      1  C   UNL     1       5.252  -0.092  19.576  1.00  0.00     0.000 C 
ENDROOT
BRANCH   1   2
ATOM      2  C   UNL     1       3.920  -0.464  18.900  1.00  0.00     0.000 C 
BRANCH   2   3
ATOM      3  C   UNL     1       2.762   0.525  19.132  1.00  0.00     0.000 C 
BRANCH   3   4
ATOM      4  C   UNL     1       1.516   0.199  18.291  1.00  0.00     0.000 C 
BRANCH   4   5
ATOM      5  C   UNL     1       0.881   1.451  17.665  1.00  0.00     0.000 C 
BRANCH   5   6
ATOM      6  C   UNL     1       1.782   2.691  17.772  1.00  0.00     0.006 C 
BRANCH   6   7
ATOM      7  C   UNL     1       0.967   3.977  17.602  1.00  0.00     0.053 C 
BRANCH   7   8
ATOM      8  C   UNL     1       1.874   5.147  17.383  1.00  0.00     0.041 C 
ATOM      9  O   UNL     1       2.158   5.518  16.214  1.00  0.00    -0.550 OA
ATOM     10  O   UNL     1       2.362   5.860  18.470  1.00  0.00    -0.550 OA
ENDBRANCH   7   8
ENDBRANCH   6   7
ENDBRANCH   5   6
ENDBRANCH   4   5
ENDBRANCH   3   4
ENDBRANCH   2   3
ENDBRANCH   1   2
BRANCH   1  11
ATOM     11  C   UNL     1       5.430  -0.746  20.957  1.00  0.00     0.000 C 
BRANCH  11  12
ATOM     12  C   UNL     1       5.366  -2.283  20.904  1.00  0.00    -0.000 C 
BRANCH  12  13
ATOM     13  C   UNL     1       6.338  -3.012  21.849  1.00  0.00    -0.000 C 
BRANCH  13  14
ATOM     14  C   UNL     1       7.250  -4.013  21.118  1.00  0.00    -0.000 C 
BRANCH  14  15
ATOM     15  C   UNL     1       6.700  -5.453  21.171  1.00  0.00    -0.000 C 
BRANCH  15  16
ATOM     16  C   UNL     1       7.776  -6.529  21.417  1.00  0.00    -0.000 C 
BRANCH  16  17
ATOM     17  C   UNL     1       7.287  -7.973  21.194  1.00  0.00    -0.003 C 
ATOM     18  C   UNL     1       6.774  -8.629  22.476  1.00  0.00     0.004 C 
ENDBRANCH  16  17
ENDBRANCH  15  16
ENDBRANCH  14  15
ENDBRANCH  13  14
ENDBRANCH  12  13
ENDBRANCH  11  12
ENDBRANCH   1  11
TORSDOF 14
ENDMDL
