MODEL 1
REMARK VINA RESULT:    -5.419      0.000      0.000
REMARK INTER + INTRA:          -6.666
REMARK INTER:                  -6.369
REMARK INTRA:                  -0.297
REMARK UNBOUND:                -0.297
REMARK SMILES O=c1cc(-c2ccc(O)c(O)c2)oc2cc(O)cc(O)c12
REMARK SMILES IDX 4 1 3 2 2 3 1 4 21 5 19 6 18 7 16 8 15 9 14 10 13 11 5 12
REMARK SMILES IDX 6 13 7 14 8 15 12 16 10 17 9 18 11 20 20 22 17 24
REMARK H PARENT 9 19 11 21 20 23 17 25
REMARK Flexibility Score: inf
ROOT
ATOM      1  C   UNL     1     -59.412  26.151 -13.333  1.00  0.00     0.138 A 
ATOM      2  C   UNL     1     -60.608  26.867 -13.163  1.00  0.00     0.100 A 
ATOM      3  C   UNL     1     -61.409  26.613 -12.049  1.00  0.00     0.197 A 
ATOM      4  O   UNL     1     -62.480  27.263 -11.904  1.00  0.00    -0.289 OA
ATOM      5  C   UNL     1     -61.005  25.645 -11.108  1.00  0.00     0.107 A 
ATOM      6  C   UNL     1     -61.757  25.325  -9.953  1.00  0.00     0.134 A 
ATOM      7  C   UNL     1     -61.283  24.351  -9.062  1.00  0.00     0.093 A 
ATOM      8  C   UNL     1     -60.072  23.693  -9.305  1.00  0.00     0.123 A 
ATOM      9  C   UNL     1     -59.327  24.005 -10.443  1.00  0.00     0.094 A 
ATOM     10  C   UNL     1     -59.783  24.972 -11.344  1.00  0.00     0.146 A 
ATOM     11  O   UNL     1     -59.054  25.248 -12.422  1.00  0.00    -0.456 OA
ENDROOT
BRANCH   1  12
ATOM     12  C   UNL     1     -58.521  26.379 -14.498  1.00  0.00     0.021 A 
ATOM     13  C   UNL     1     -57.278  25.725 -14.555  1.00  0.00     0.016 A 
ATOM     14  C   UNL     1     -56.423  25.917 -15.644  1.00  0.00     0.051 A 
ATOM     15  C   UNL     1     -56.800  26.758 -16.698  1.00  0.00     0.157 A 
ATOM     16  C   UNL     1     -58.900  27.213 -15.569  1.00  0.00     0.062 A 
ATOM     17  C   UNL     1     -58.042  27.404 -16.662  1.00  0.00     0.158 A 
BRANCH  15  18
ATOM     18  O   UNL     1     -55.950  26.953 -17.785  1.00  0.00    -0.504 OA
ATOM     19  H   UNL     1     -56.163  27.631 -18.508  1.00  0.00     0.293 HD
ENDBRANCH  15  18
BRANCH  17  20
ATOM     20  O   UNL     1     -58.419  28.231 -17.718  1.00  0.00    -0.504 OA
ATOM     21  H   UNL     1     -57.843  29.012 -18.013  1.00  0.00     0.293 HD
ENDBRANCH  17  20
ENDBRANCH   1  12
BRANCH   6  22
ATOM     22  O   UNL     1     -62.967  25.966  -9.686  1.00  0.00    -0.507 OA
ATOM     23  H   UNL     1     -63.552  25.696  -8.904  1.00  0.00     0.293 HD
ENDBRANCH   6  22
BRANCH   8  24
ATOM     24  O   UNL     1     -59.601  22.726  -8.419  1.00  0.00    -0.508 OA
ATOM     25  H   UNL     1     -59.164  21.874  -8.748  1.00  0.00     0.293 HD
ENDBRANCH   8  24
TORSDOF 5
ENDMDL
MODEL 2
REMARK VINA RESULT:    -5.411      9.121     10.838
REMARK INTER + INTRA:          -6.656
REMARK INTER:                  -6.390
REMARK INTRA:                  -0.266
REMARK UNBOUND:                -0.297
REMARK SMILES O=c1cc(-c2ccc(O)c(O)c2)oc2cc(O)cc(O)c12
REMARK SMILES IDX 4 1 3 2 2 3 1 4 21 5 19 6 18 7 16 8 15 9 14 10 13 11 5 12
REMARK SMILES IDX 6 13 7 14 8 15 12 16 10 17 9 18 11 20 20 22 17 24
REMARK H PARENT 9 19 11 21 20 23 17 25
REMARK Flexibility Score: inf
ROOT
ATOM      1  C   UNL     1     -57.674  18.093 -17.435  1.00  0.00     0.138 A 
ATOM      2  C   UNL     1     -57.629  19.342 -16.794  1.00  0.00     0.100 A 
ATOM      3  C   UNL     1     -56.441  19.765 -16.197  1.00  0.00     0.197 A 
ATOM      4  O   UNL     1     -56.411  20.889 -15.625  1.00  0.00    -0.289 OA
ATOM      5  C   UNL     1     -55.303  18.936 -16.250  1.00  0.00     0.107 A 
ATOM      6  C   UNL     1     -54.061  19.288 -15.670  1.00  0.00     0.134 A 
ATOM      7  C   UNL     1     -52.972  18.409 -15.771  1.00  0.00     0.093 A 
ATOM      8  C   UNL     1     -53.104  17.186 -16.439  1.00  0.00     0.123 A 
ATOM      9  C   UNL     1     -54.327  16.835 -17.012  1.00  0.00     0.094 A 
ATOM     10  C   UNL     1     -55.424  17.698 -16.922  1.00  0.00     0.146 A 
ATOM     11  O   UNL     1     -56.579  17.337 -17.475  1.00  0.00    -0.456 OA
ENDROOT
BRANCH   1  12
ATOM     12  C   UNL     1     -58.910  17.591 -18.086  1.00  0.00     0.021 A 
ATOM     13  C   UNL     1     -58.952  17.469 -19.486  1.00  0.00     0.016 A 
ATOM     14  C   UNL     1     -60.100  16.993 -20.125  1.00  0.00     0.051 A 
ATOM     15  C   UNL     1     -61.222  16.622 -19.374  1.00  0.00     0.157 A 
ATOM     16  C   UNL     1     -60.038  17.203 -17.337  1.00  0.00     0.062 A 
ATOM     17  C   UNL     1     -61.191  16.724 -17.978  1.00  0.00     0.158 A 
BRANCH  15  18
ATOM     18  O   UNL     1     -62.371  16.148 -20.006  1.00  0.00    -0.504 OA
ATOM     19  H   UNL     1     -62.577  15.156 -20.055  1.00  0.00     0.293 HD
ENDBRANCH  15  18
BRANCH  17  20
ATOM     20  O   UNL     1     -62.305  16.343 -17.234  1.00  0.00    -0.504 OA
ATOM     21  H   UNL     1     -62.640  16.901 -16.456  1.00  0.00     0.293 HD
ENDBRANCH  17  20
ENDBRANCH   1  12
BRANCH   6  22
ATOM     22  O   UNL     1     -53.901  20.501 -14.998  1.00  0.00    -0.507 OA
ATOM     23  H   UNL     1     -54.647  21.184 -14.945  1.00  0.00     0.293 HD
ENDBRANCH   6  22
BRANCH   8  24
ATOM     24  O   UNL     1     -52.023  16.314 -16.539  1.00  0.00    -0.508 OA
ATOM     25  H   UNL     1     -52.131  15.317 -16.399  1.00  0.00     0.293 HD
ENDBRANCH   8  24
TORSDOF 5
ENDMDL
MODEL 3
REMARK VINA RESULT:    -5.398      1.799      2.468
REMARK INTER + INTRA:          -6.641
REMARK INTER:                  -6.356
REMARK INTRA:                  -0.285
REMARK UNBOUND:                -0.297
REMARK SMILES O=c1cc(-c2ccc(O)c(O)c2)oc2cc(O)cc(O)c12
REMARK SMILES IDX 4 1 3 2 2 3 1 4 21 5 19 6 18 7 16 8 15 9 14 10 13 11 5 12
REMARK SMILES IDX 6 13 7 14 8 15 12 16 10 17 9 18 11 20 20 22 17 24
REMARK H PARENT 9 19 11 21 20 23 17 25
REMARK Flexibility Score: inf
ROOT
ATOM      1  C   UNL     1     -57.992  24.696 -13.148  1.00  0.00     0.138 A 
ATOM      2  C   UNL     1     -58.736  25.529 -12.296  1.00  0.00     0.100 A 
ATOM      3  C   UNL     1     -59.286  25.001 -11.127  1.00  0.00     0.197 A 
ATOM      4  O   UNL     1     -59.951  25.757 -10.368  1.00  0.00    -0.289 OA
ATOM      5  C   UNL     1     -59.083  23.642 -10.816  1.00  0.00     0.107 A 
ATOM      6  C   UNL     1     -59.605  23.026  -9.653  1.00  0.00     0.134 A 
ATOM      7  C   UNL     1     -59.354  21.668  -9.413  1.00  0.00     0.093 A 
ATOM      8  C   UNL     1     -58.591  20.914 -10.312  1.00  0.00     0.123 A 
ATOM      9  C   UNL     1     -58.075  21.517 -11.460  1.00  0.00     0.094 A 
ATOM     10  C   UNL     1     -58.314  22.870 -11.718  1.00  0.00     0.146 A 
ATOM     11  O   UNL     1     -57.812  23.418 -12.821  1.00  0.00    -0.456 OA
ENDROOT
BRANCH   1  12
ATOM     12  C   UNL     1     -57.385  25.203 -14.404  1.00  0.00     0.021 A 
ATOM     13  C   UNL     1     -56.146  24.691 -14.828  1.00  0.00     0.016 A 
ATOM     14  C   UNL     1     -55.555  25.146 -16.010  1.00  0.00     0.051 A 
ATOM     15  C   UNL     1     -56.197  26.113 -16.792  1.00  0.00     0.157 A 
ATOM     16  C   UNL     1     -58.031  26.166 -15.204  1.00  0.00     0.062 A 
ATOM     17  C   UNL     1     -57.438  26.621 -16.391  1.00  0.00     0.158 A 
BRANCH  15  18
ATOM     18  O   UNL     1     -55.611  26.570 -17.971  1.00  0.00    -0.504 OA
ATOM     19  H   UNL     1     -55.375  27.548 -18.101  1.00  0.00     0.293 HD
ENDBRANCH  15  18
BRANCH  17  20
ATOM     20  O   UNL     1     -58.079  27.576 -17.179  1.00  0.00    -0.504 OA
ATOM     21  H   UNL     1     -58.353  28.477 -16.804  1.00  0.00     0.293 HD
ENDBRANCH  17  20
ENDBRANCH   1  12
BRANCH   6  22
ATOM     22  O   UNL     1     -60.369  23.753  -8.739  1.00  0.00    -0.507 OA
ATOM     23  H   UNL     1     -61.332  24.006  -8.930  1.00  0.00     0.293 HD
ENDBRANCH   6  22
BRANCH   8  24
ATOM     24  O   UNL     1     -58.341  19.565 -10.073  1.00  0.00    -0.508 OA
ATOM     25  H   UNL     1     -57.861  18.986 -10.751  1.00  0.00     0.293 HD
ENDBRANCH   8  24
TORSDOF 5
ENDMDL
MODEL 4
REMARK VINA RESULT:    -5.292      1.709      3.579
REMARK INTER + INTRA:          -6.517
REMARK INTER:                  -6.221
REMARK INTRA:                  -0.296
REMARK UNBOUND:                -0.297
REMARK SMILES O=c1cc(-c2ccc(O)c(O)c2)oc2cc(O)cc(O)c12
REMARK SMILES IDX 4 1 3 2 2 3 1 4 21 5 19 6 18 7 16 8 15 9 14 10 13 11 5 12
REMARK SMILES IDX 6 13 7 14 8 15 12 16 10 17 9 18 11 20 20 22 17 24
REMARK H PARENT 9 19 11 21 20 23 17 25
REMARK Flexibility Score: inf
ROOT
ATOM      1  C   UNL     1     -58.051  24.886 -13.367  1.00  0.00     0.138 A 
ATOM      2  C   UNL     1     -57.050  23.906 -13.258  1.00  0.00     0.100 A 
ATOM      3  C   UNL     1     -57.025  23.071 -12.140  1.00  0.00     0.197 A 
ATOM      4  O   UNL     1     -56.124  22.193 -12.053  1.00  0.00    -0.289 OA
ATOM      5  C   UNL     1     -58.006  23.219 -11.139  1.00  0.00     0.107 A 
ATOM      6  C   UNL     1     -58.052  22.417  -9.975  1.00  0.00     0.134 A 
ATOM      7  C   UNL     1     -59.065  22.625  -9.027  1.00  0.00     0.093 A 
ATOM      8  C   UNL     1     -60.030  23.619  -9.221  1.00  0.00     0.123 A 
ATOM      9  C   UNL     1     -59.987  24.413 -10.368  1.00  0.00     0.094 A 
ATOM     10  C   UNL     1     -58.986  24.222 -11.325  1.00  0.00     0.146 A 
ATOM     11  O   UNL     1     -58.968  24.995 -12.407  1.00  0.00    -0.456 OA
ENDROOT
BRANCH   1  12
ATOM     12  C   UNL     1     -58.127  25.802 -14.532  1.00  0.00     0.021 A 
ATOM     13  C   UNL     1     -59.273  26.594 -14.714  1.00  0.00     0.016 A 
ATOM     14  C   UNL     1     -59.368  27.470 -15.799  1.00  0.00     0.051 A 
ATOM     15  C   UNL     1     -58.315  27.575 -16.715  1.00  0.00     0.157 A 
ATOM     16  C   UNL     1     -57.065  25.922 -15.451  1.00  0.00     0.062 A 
ATOM     17  C   UNL     1     -57.160  26.802 -16.539  1.00  0.00     0.158 A 
BRANCH  15  18
ATOM     18  O   UNL     1     -58.405  28.445 -17.800  1.00  0.00    -0.504 OA
ATOM     19  H   UNL     1     -57.902  29.326 -17.816  1.00  0.00     0.293 HD
ENDBRANCH  15  18
BRANCH  17  20
ATOM     20  O   UNL     1     -56.109  26.917 -17.447  1.00  0.00    -0.504 OA
ATOM     21  H   UNL     1     -55.845  27.812 -17.843  1.00  0.00     0.293 HD
ENDBRANCH  17  20
ENDBRANCH   1  12
BRANCH   6  22
ATOM     22  O   UNL     1     -57.103  21.417  -9.754  1.00  0.00    -0.507 OA
ATOM     23  H   UNL     1     -56.181  21.628  -9.389  1.00  0.00     0.293 HD
ENDBRANCH   6  22
BRANCH   8  24
ATOM     24  O   UNL     1     -61.035  23.825  -8.280  1.00  0.00    -0.508 OA
ATOM     25  H   UNL     1     -61.143  23.217  -7.477  1.00  0.00     0.293 HD
ENDBRANCH   8  24
TORSDOF 5
ENDMDL
MODEL 5
REMARK VINA RESULT:    -5.282      2.577      3.839
REMARK INTER + INTRA:          -6.505
REMARK INTER:                  -6.193
REMARK INTRA:                  -0.312
REMARK UNBOUND:                -0.297
REMARK SMILES O=c1cc(-c2ccc(O)c(O)c2)oc2cc(O)cc(O)c12
REMARK SMILES IDX 4 1 3 2 2 3 1 4 21 5 19 6 18 7 16 8 15 9 14 10 13 11 5 12
REMARK SMILES IDX 6 13 7 14 8 15 12 16 10 17 9 18 11 20 20 22 17 24
REMARK H PARENT 9 19 11 21 20 23 17 25
REMARK Flexibility Score: inf
ROOT
ATOM      1  C   UNL     1     -58.050  24.845 -13.376  1.00  0.00     0.138 A 
ATOM      2  C   UNL     1     -58.840  25.020 -12.227  1.00  0.00     0.100 A 
ATOM      3  C   UNL     1     -58.728  24.116 -11.171  1.00  0.00     0.197 A 
ATOM      4  O   UNL     1     -59.440  24.283 -10.144  1.00  0.00    -0.289 OA
ATOM      5  C   UNL     1     -57.820  23.043 -11.268  1.00  0.00     0.107 A 
ATOM      6  C   UNL     1     -57.644  22.081 -10.245  1.00  0.00     0.134 A 
ATOM      7  C   UNL     1     -56.715  21.044 -10.417  1.00  0.00     0.093 A 
ATOM      8  C   UNL     1     -55.960  20.952 -11.591  1.00  0.00     0.123 A 
ATOM      9  C   UNL     1     -56.131  21.898 -12.603  1.00  0.00     0.094 A 
ATOM     10  C   UNL     1     -57.052  22.938 -12.451  1.00  0.00     0.146 A 
ATOM     11  O   UNL     1     -57.195  23.825 -13.432  1.00  0.00    -0.456 OA
ENDROOT
BRANCH   1  12
ATOM     12  C   UNL     1     -58.128  25.775 -14.530  1.00  0.00     0.021 A 
ATOM     13  C   UNL     1     -59.271  26.575 -14.695  1.00  0.00     0.016 A 
ATOM     14  C   UNL     1     -59.368  27.464 -15.769  1.00  0.00     0.051 A 
ATOM     15  C   UNL     1     -58.319  27.575 -16.690  1.00  0.00     0.157 A 
ATOM     16  C   UNL     1     -57.071  25.901 -15.452  1.00  0.00     0.062 A 
ATOM     17  C   UNL     1     -57.167  26.795 -16.530  1.00  0.00     0.158 A 
BRANCH  15  18
ATOM     18  O   UNL     1     -58.411  28.459 -17.763  1.00  0.00    -0.504 OA
ATOM     19  H   UNL     1     -57.905  28.298 -18.627  1.00  0.00     0.293 HD
ENDBRANCH  15  18
BRANCH  17  20
ATOM     20  O   UNL     1     -56.120  26.916 -17.442  1.00  0.00    -0.504 OA
ATOM     21  H   UNL     1     -56.125  26.417 -18.324  1.00  0.00     0.293 HD
ENDBRANCH  17  20
ENDBRANCH   1  12
BRANCH   6  22
ATOM     22  O   UNL     1     -58.383  22.149  -9.063  1.00  0.00    -0.507 OA
ATOM     23  H   UNL     1     -58.960  21.377  -8.750  1.00  0.00     0.293 HD
ENDBRANCH   6  22
BRANCH   8  24
ATOM     24  O   UNL     1     -55.037  19.922 -11.762  1.00  0.00    -0.508 OA
ATOM     25  H   UNL     1     -55.284  18.955 -11.588  1.00  0.00     0.293 HD
ENDBRANCH   8  24
TORSDOF 5
ENDMDL
MODEL 6
REMARK VINA RESULT:    -5.267      3.413      5.085
REMARK INTER + INTRA:          -6.487
REMARK INTER:                  -6.197
REMARK INTRA:                  -0.290
REMARK UNBOUND:                -0.297
REMARK SMILES O=c1cc(-c2ccc(O)c(O)c2)oc2cc(O)cc(O)c12
REMARK SMILES IDX 4 1 3 2 2 3 1 4 21 5 19 6 18 7 16 8 15 9 14 10 13 11 5 12
REMARK SMILES IDX 6 13 7 14 8 15 12 16 10 17 9 18 11 20 20 22 17 24
REMARK H PARENT 9 19 11 21 20 23 17 25
REMARK Flexibility Score: inf
ROOT
ATOM      1  C   UNL     1     -56.553  24.085 -13.775  1.00  0.00     0.138 A 
ATOM      2  C   UNL     1     -55.193  23.858 -13.505  1.00  0.00     0.100 A 
ATOM      3  C   UNL     1     -54.830  22.884 -12.575  1.00  0.00     0.197 A 
ATOM      4  O   UNL     1     -53.607  22.687 -12.341  1.00  0.00    -0.289 OA
ATOM      5  C   UNL     1     -55.832  22.139 -11.921  1.00  0.00     0.107 A 
ATOM      6  C   UNL     1     -55.552  21.135 -10.964  1.00  0.00     0.134 A 
ATOM      7  C   UNL     1     -56.607  20.434 -10.362  1.00  0.00     0.093 A 
ATOM      8  C   UNL     1     -57.935  20.718 -10.699  1.00  0.00     0.123 A 
ATOM      9  C   UNL     1     -58.216  21.708 -11.642  1.00  0.00     0.094 A 
ATOM     10  C   UNL     1     -57.179  22.418 -12.253  1.00  0.00     0.146 A 
ATOM     11  O   UNL     1     -57.475  23.358 -13.147  1.00  0.00    -0.456 OA
ENDROOT
BRANCH   1  12
ATOM     12  C   UNL     1     -56.997  25.108 -14.754  1.00  0.00     0.021 A 
ATOM     13  C   UNL     1     -58.265  25.697 -14.610  1.00  0.00     0.016 A 
ATOM     14  C   UNL     1     -58.705  26.668 -15.514  1.00  0.00     0.051 A 
ATOM     15  C   UNL     1     -57.882  27.072 -16.572  1.00  0.00     0.157 A 
ATOM     16  C   UNL     1     -56.169  25.529 -15.813  1.00  0.00     0.062 A 
ATOM     17  C   UNL     1     -56.610  26.505 -16.720  1.00  0.00     0.158 A 
BRANCH  15  18
ATOM     18  O   UNL     1     -58.317  28.038 -17.477  1.00  0.00    -0.504 OA
ATOM     19  H   UNL     1     -59.266  28.042 -17.833  1.00  0.00     0.293 HD
ENDBRANCH  15  18
BRANCH  17  20
ATOM     20  O   UNL     1     -55.789  26.917 -17.767  1.00  0.00    -0.504 OA
ATOM     21  H   UNL     1     -55.328  26.250 -18.375  1.00  0.00     0.293 HD
ENDBRANCH  17  20
ENDBRANCH   1  12
BRANCH   6  22
ATOM     22  O   UNL     1     -54.237  20.829 -10.610  1.00  0.00    -0.507 OA
ATOM     23  H   UNL     1     -53.644  20.258 -11.200  1.00  0.00     0.293 HD
ENDBRANCH   6  22
BRANCH   8  24
ATOM     24  O   UNL     1     -58.983  20.021 -10.102  1.00  0.00    -0.508 OA
ATOM     25  H   UNL     1     -59.398  19.209 -10.541  1.00  0.00     0.293 HD
ENDBRANCH   8  24
TORSDOF 5
ENDMDL
MODEL 7
REMARK VINA RESULT:    -5.143      1.128      2.715
REMARK INTER + INTRA:          -6.342
REMARK INTER:                  -6.028
REMARK INTRA:                  -0.314
REMARK UNBOUND:                -0.297
REMARK SMILES O=c1cc(-c2ccc(O)c(O)c2)oc2cc(O)cc(O)c12
REMARK SMILES IDX 4 1 3 2 2 3 1 4 21 5 19 6 18 7 16 8 15 9 14 10 13 11 5 12
REMARK SMILES IDX 6 13 7 14 8 15 12 16 10 17 9 18 11 20 20 22 17 24
REMARK H PARENT 9 19 11 21 20 23 17 25
REMARK Flexibility Score: inf
ROOT
ATOM      1  C   UNL     1     -58.350  25.177 -13.248  1.00  0.00     0.138 A 
ATOM      2  C   UNL     1     -57.971  24.001 -12.579  1.00  0.00     0.100 A 
ATOM      3  C   UNL     1     -58.641  23.628 -11.413  1.00  0.00     0.197 A 
ATOM      4  O   UNL     1     -58.294  22.570 -10.821  1.00  0.00    -0.289 OA
ATOM      5  C   UNL     1     -59.690  24.432 -10.926  1.00  0.00     0.107 A 
ATOM      6  C   UNL     1     -60.420  24.127  -9.753  1.00  0.00     0.134 A 
ATOM      7  C   UNL     1     -61.455  24.977  -9.337  1.00  0.00     0.093 A 
ATOM      8  C   UNL     1     -61.773  26.125 -10.072  1.00  0.00     0.123 A 
ATOM      9  C   UNL     1     -61.056  26.429 -11.230  1.00  0.00     0.094 A 
ATOM     10  C   UNL     1     -60.020  25.595 -11.661  1.00  0.00     0.146 A 
ATOM     11  O   UNL     1     -59.351  25.910 -12.767  1.00  0.00    -0.456 OA
ENDROOT
BRANCH   1  12
ATOM     12  C   UNL     1     -57.673  25.623 -14.491  1.00  0.00     0.021 A 
ATOM     13  C   UNL     1     -56.413  25.093 -14.820  1.00  0.00     0.016 A 
ATOM     14  C   UNL     1     -55.757  25.491 -15.988  1.00  0.00     0.051 A 
ATOM     15  C   UNL     1     -56.353  26.417 -16.852  1.00  0.00     0.157 A 
ATOM     16  C   UNL     1     -58.273  26.545 -15.372  1.00  0.00     0.062 A 
ATOM     17  C   UNL     1     -57.614  26.943 -16.545  1.00  0.00     0.158 A 
BRANCH  15  18
ATOM     18  O   UNL     1     -55.702  26.818 -18.017  1.00  0.00    -0.504 OA
ATOM     19  H   UNL     1     -54.812  27.303 -17.987  1.00  0.00     0.293 HD
ENDBRANCH  15  18
BRANCH  17  20
ATOM     20  O   UNL     1     -58.210  27.856 -17.413  1.00  0.00    -0.504 OA
ATOM     21  H   UNL     1     -59.068  27.638 -17.907  1.00  0.00     0.293 HD
ENDBRANCH  17  20
ENDBRANCH   1  12
BRANCH   6  22
ATOM     22  O   UNL     1     -60.125  22.989  -9.000  1.00  0.00    -0.507 OA
ATOM     23  H   UNL     1     -60.626  22.119  -9.130  1.00  0.00     0.293 HD
ENDBRANCH   6  22
BRANCH   8  24
ATOM     24  O   UNL     1     -62.802  26.968  -9.659  1.00  0.00    -0.508 OA
ATOM     25  H   UNL     1     -63.537  27.257 -10.293  1.00  0.00     0.293 HD
ENDBRANCH   8  24
TORSDOF 5
ENDMDL
MODEL 8
REMARK VINA RESULT:    -5.073      2.439      7.731
REMARK INTER + INTRA:          -6.260
REMARK INTER:                  -5.975
REMARK INTRA:                  -0.284
REMARK UNBOUND:                -0.297
REMARK SMILES O=c1cc(-c2ccc(O)c(O)c2)oc2cc(O)cc(O)c12
REMARK SMILES IDX 4 1 3 2 2 3 1 4 21 5 19 6 18 7 16 8 15 9 14 10 13 11 5 12
REMARK SMILES IDX 6 13 7 14 8 15 12 16 10 17 9 18 11 20 20 22 17 24
REMARK H PARENT 9 19 11 21 20 23 17 25
REMARK Flexibility Score: inf
ROOT
ATOM      1  C   UNL     1     -57.607  23.695 -12.861  1.00  0.00     0.138 A 
ATOM      2  C   UNL     1     -56.349  23.309 -13.353  1.00  0.00     0.100 A 
ATOM      3  C   UNL     1     -55.805  23.978 -14.450  1.00  0.00     0.197 A 
ATOM      4  O   UNL     1     -54.675  23.625 -14.883  1.00  0.00    -0.289 OA
ATOM      5  C   UNL     1     -56.523  25.035 -15.046  1.00  0.00     0.107 A 
ATOM      6  C   UNL     1     -56.045  25.764 -16.160  1.00  0.00     0.134 A 
ATOM      7  C   UNL     1     -56.819  26.806 -16.692  1.00  0.00     0.093 A 
ATOM      8  C   UNL     1     -58.059  27.131 -16.131  1.00  0.00     0.123 A 
ATOM      9  C   UNL     1     -58.534  26.414 -15.032  1.00  0.00     0.094 A 
ATOM     10  C   UNL     1     -57.778  25.371 -14.488  1.00  0.00     0.146 A 
ATOM     11  O   UNL     1     -58.255  24.703 -13.441  1.00  0.00    -0.456 OA
ENDROOT
BRANCH   1  12
ATOM     12  C   UNL     1     -58.234  23.019 -11.698  1.00  0.00     0.021 A 
ATOM     13  C   UNL     1     -59.004  23.772 -10.794  1.00  0.00     0.016 A 
ATOM     14  C   UNL     1     -59.611  23.160  -9.694  1.00  0.00     0.051 A 
ATOM     15  C   UNL     1     -59.467  21.783  -9.485  1.00  0.00     0.157 A 
ATOM     16  C   UNL     1     -58.105  21.632 -11.489  1.00  0.00     0.062 A 
ATOM     17  C   UNL     1     -58.716  21.017 -10.385  1.00  0.00     0.158 A 
BRANCH  15  18
ATOM     18  O   UNL     1     -60.070  21.168  -8.389  1.00  0.00    -0.504 OA
ATOM     19  H   UNL     1     -59.991  21.555  -7.455  1.00  0.00     0.293 HD
ENDBRANCH  15  18
BRANCH  17  20
ATOM     20  O   UNL     1     -58.585  19.645 -10.180  1.00  0.00    -0.504 OA
ATOM     21  H   UNL     1     -57.697  19.230  -9.923  1.00  0.00     0.293 HD
ENDBRANCH  17  20
ENDBRANCH   1  12
BRANCH   6  22
ATOM     22  O   UNL     1     -54.812  25.462 -16.740  1.00  0.00    -0.507 OA
ATOM     23  H   UNL     1     -54.315  26.132 -17.316  1.00  0.00     0.293 HD
ENDBRANCH   6  22
BRANCH   8  24
ATOM     24  O   UNL     1     -58.827  28.167 -16.659  1.00  0.00    -0.508 OA
ATOM     25  H   UNL     1     -59.796  28.296 -16.395  1.00  0.00     0.293 HD
ENDBRANCH   8  24
TORSDOF 5
ENDMDL
MODEL 9
REMARK VINA RESULT:    -5.071      3.602      6.626
REMARK INTER + INTRA:          -6.258
REMARK INTER:                  -5.955
REMARK INTRA:                  -0.303
REMARK UNBOUND:                -0.297
REMARK SMILES O=c1cc(-c2ccc(O)c(O)c2)oc2cc(O)cc(O)c12
REMARK SMILES IDX 4 1 3 2 2 3 1 4 21 5 19 6 18 7 16 8 15 9 14 10 13 11 5 12
REMARK SMILES IDX 6 13 7 14 8 15 12 16 10 17 9 18 11 20 20 22 17 24
REMARK H PARENT 9 19 11 21 20 23 17 25
REMARK Flexibility Score: inf
ROOT
ATOM      1  C   UNL     1     -55.032  24.805 -14.641  1.00  0.00     0.138 A 
ATOM      2  C   UNL     1     -55.927  24.432 -13.624  1.00  0.00     0.100 A 
ATOM      3  C   UNL     1     -57.225  24.941 -13.630  1.00  0.00     0.197 A 
ATOM      4  O   UNL     1     -58.021  24.599 -12.713  1.00  0.00    -0.289 OA
ATOM      5  C   UNL     1     -57.623  25.819 -14.658  1.00  0.00     0.107 A 
ATOM      6  C   UNL     1     -58.920  26.381 -14.738  1.00  0.00     0.134 A 
ATOM      7  C   UNL     1     -59.239  27.243 -15.798  1.00  0.00     0.093 A 
ATOM      8  C   UNL     1     -58.288  27.553 -16.776  1.00  0.00     0.123 A 
ATOM      9  C   UNL     1     -57.008  27.001 -16.700  1.00  0.00     0.094 A 
ATOM     10  C   UNL     1     -56.670  26.140 -15.652  1.00  0.00     0.146 A 
ATOM     11  O   UNL     1     -55.442  25.629 -15.603  1.00  0.00    -0.456 OA
ENDROOT
BRANCH   1  12
ATOM     12  C   UNL     1     -53.639  24.295 -14.686  1.00  0.00     0.021 A 
ATOM     13  C   UNL     1     -53.369  22.987 -14.247  1.00  0.00     0.016 A 
ATOM     14  C   UNL     1     -52.067  22.479 -14.284  1.00  0.00     0.051 A 
ATOM     15  C   UNL     1     -51.017  23.267 -14.769  1.00  0.00     0.157 A 
ATOM     16  C   UNL     1     -52.579  25.077 -15.185  1.00  0.00     0.062 A 
ATOM     17  C   UNL     1     -51.273  24.566 -15.224  1.00  0.00     0.158 A 
BRANCH  15  18
ATOM     18  O   UNL     1     -49.717  22.765 -14.807  1.00  0.00    -0.504 OA
ATOM     19  H   UNL     1     -49.336  22.343 -15.647  1.00  0.00     0.293 HD
ENDBRANCH  15  18
BRANCH  17  20
ATOM     20  O   UNL     1     -50.226  25.343 -15.717  1.00  0.00    -0.504 OA
ATOM     21  H   UNL     1     -49.618  25.008 -16.455  1.00  0.00     0.293 HD
ENDBRANCH  17  20
ENDBRANCH   1  12
BRANCH   6  22
ATOM     22  O   UNL     1     -59.888  26.090 -13.777  1.00  0.00    -0.507 OA
ATOM     23  H   UNL     1     -60.786  26.560 -13.765  1.00  0.00     0.293 HD
ENDBRANCH   6  22
BRANCH   8  24
ATOM     24  O   UNL     1     -58.605  28.409 -17.828  1.00  0.00    -0.508 OA
ATOM     25  H   UNL     1     -57.974  28.548 -18.608  1.00  0.00     0.293 HD
ENDBRANCH   8  24
TORSDOF 5
ENDMDL
