MODEL 1
REMARK VINA RESULT:    -6.098      0.000      0.000
REMARK INTER + INTRA:          -7.389
REMARK INTER:                  -7.345
REMARK INTRA:                  -0.044
REMARK UNBOUND:                -0.044
REMARK SMILES O=c1c(O)c(-c2ccc(O)c(O)c2)oc2cc(O)cc(O)c12
REMARK SMILES IDX 5 1 3 2 2 3 1 4 22 5 20 6 19 7 17 8 16 9 15 10 14 11 6 12
REMARK SMILES IDX 7 13 8 14 9 15 13 16 11 17 10 18 12 20 4 22 21 24 18 26
REMARK H PARENT 10 19 12 21 4 23 21 25 18 27
REMARK Flexibility Score: inf
ROOT
ATOM      1  C   UNL     1      12.505 -36.475 -19.021  1.00  0.00     0.180 A 
ATOM      2  C   UNL     1      12.401 -37.578 -18.156  1.00  0.00     0.208 A 
ATOM      3  C   UNL     1      11.167 -37.852 -17.546  1.00  0.00     0.238 A 
ATOM      4  O   UNL     1      11.093 -38.808 -16.730  1.00  0.00    -0.285 OA
ATOM      5  C   UNL     1      10.047 -37.028 -17.819  1.00  0.00     0.111 A 
ATOM      6  C   UNL     1       8.739 -37.237 -17.289  1.00  0.00     0.134 A 
ATOM      7  C   UNL     1       7.739 -36.285 -17.524  1.00  0.00     0.093 A 
ATOM      8  C   UNL     1       7.983 -35.167 -18.325  1.00  0.00     0.123 A 
ATOM      9  C   UNL     1       9.239 -34.986 -18.896  1.00  0.00     0.094 A 
ATOM     10  C   UNL     1      10.268 -35.900 -18.650  1.00  0.00     0.146 A 
ATOM     11  O   UNL     1      11.454 -35.684 -19.206  1.00  0.00    -0.452 OA
ENDROOT
BRANCH   1  12
ATOM     12  C   UNL     1      13.766 -36.138 -19.720  1.00  0.00     0.025 A 
ATOM     13  C   UNL     1      13.781 -36.074 -21.123  1.00  0.00     0.016 A 
ATOM     14  C   UNL     1      14.963 -35.778 -21.805  1.00  0.00     0.051 A 
ATOM     15  C   UNL     1      16.150 -35.559 -21.100  1.00  0.00     0.157 A 
ATOM     16  C   UNL     1      14.965 -35.937 -19.014  1.00  0.00     0.062 A 
ATOM     17  C   UNL     1      16.154 -35.643 -19.698  1.00  0.00     0.158 A 
BRANCH  15  18
ATOM     18  O   UNL     1      17.315 -35.263 -21.808  1.00  0.00    -0.504 OA
ATOM     19  H   UNL     1      17.739 -34.343 -21.787  1.00  0.00     0.293 HD
ENDBRANCH  15  18
BRANCH  17  20
ATOM     20  O   UNL     1      17.336 -35.438 -18.989  1.00  0.00    -0.504 OA
ATOM     21  H   UNL     1      18.039 -34.779 -19.304  1.00  0.00     0.293 HD
ENDBRANCH  17  20
ENDBRANCH   1  12
BRANCH   2  22
ATOM     22  O   UNL     1      13.523 -38.364 -17.882  1.00  0.00    -0.502 OA
ATOM     23  H   UNL     1      13.924 -38.997 -18.564  1.00  0.00     0.293 HD
ENDBRANCH   2  22
BRANCH   6  24
ATOM     24  O   UNL     1       8.366 -38.366 -16.553  1.00  0.00    -0.507 OA
ATOM     25  H   UNL     1       8.579 -38.513 -15.579  1.00  0.00     0.293 HD
ENDBRANCH   6  24
BRANCH   8  26
ATOM     26  O   UNL     1       6.977 -34.233 -18.566  1.00  0.00    -0.508 OA
ATOM     27  H   UNL     1       6.168 -34.460 -19.132  1.00  0.00     0.293 HD
ENDBRANCH   8  26
TORSDOF 6
ENDMDL
MODEL 2
REMARK VINA RESULT:    -5.984      3.104      8.214
REMARK INTER + INTRA:          -7.252
REMARK INTER:                  -7.218
REMARK INTRA:                  -0.034
REMARK UNBOUND:                -0.044
REMARK SMILES O=c1c(O)c(-c2ccc(O)c(O)c2)oc2cc(O)cc(O)c12
REMARK SMILES IDX 5 1 3 2 2 3 1 4 22 5 20 6 19 7 17 8 16 9 15 10 14 11 6 12
REMARK SMILES IDX 7 13 8 14 9 15 13 16 11 17 10 18 12 20 4 22 21 24 18 26
REMARK H PARENT 10 19 12 21 4 23 21 25 18 27
REMARK Flexibility Score: inf
ROOT
ATOM      1  C   UNL     1       8.065 -35.837 -15.947  1.00  0.00     0.180 A 
ATOM      2  C   UNL     1       8.364 -37.195 -16.151  1.00  0.00     0.208 A 
ATOM      3  C   UNL     1       9.661 -37.554 -16.550  1.00  0.00     0.238 A 
ATOM      4  O   UNL     1       9.908 -38.767 -16.784  1.00  0.00    -0.285 OA
ATOM      5  C   UNL     1      10.647 -36.554 -16.724  1.00  0.00     0.111 A 
ATOM      6  C   UNL     1      12.004 -36.808 -17.087  1.00  0.00     0.134 A 
ATOM      7  C   UNL     1      12.859 -35.732 -17.358  1.00  0.00     0.093 A 
ATOM      8  C   UNL     1      12.424 -34.413 -17.215  1.00  0.00     0.123 A 
ATOM      9  C   UNL     1      11.120 -34.155 -16.804  1.00  0.00     0.094 A 
ATOM     10  C   UNL     1      10.232 -35.207 -16.562  1.00  0.00     0.146 A 
ATOM     11  O   UNL     1       8.994 -34.917 -16.181  1.00  0.00    -0.452 OA
ENDROOT
BRANCH   1  12
ATOM     12  C   UNL     1       6.728 -35.383 -15.501  1.00  0.00     0.025 A 
ATOM     13  C   UNL     1       6.612 -34.625 -14.324  1.00  0.00     0.016 A 
ATOM     14  C   UNL     1       5.359 -34.203 -13.874  1.00  0.00     0.051 A 
ATOM     15  C   UNL     1       4.203 -34.545 -14.581  1.00  0.00     0.157 A 
ATOM     16  C   UNL     1       5.561 -35.742 -16.200  1.00  0.00     0.062 A 
ATOM     17  C   UNL     1       4.302 -35.321 -15.747  1.00  0.00     0.158 A 
BRANCH  15  18
ATOM     18  O   UNL     1       2.965 -34.108 -14.109  1.00  0.00    -0.504 OA
ATOM     19  H   UNL     1       2.110 -34.623 -14.282  1.00  0.00     0.293 HD
ENDBRANCH  15  18
BRANCH  17  20
ATOM     20  O   UNL     1       3.152 -35.677 -16.450  1.00  0.00    -0.504 OA
ATOM     21  H   UNL     1       2.256 -35.782 -15.986  1.00  0.00     0.293 HD
ENDBRANCH  17  20
ENDBRANCH   1  12
BRANCH   2  22
ATOM     22  O   UNL     1       7.369 -38.164 -15.995  1.00  0.00    -0.502 OA
ATOM     23  H   UNL     1       6.865 -38.558 -16.781  1.00  0.00     0.293 HD
ENDBRANCH   2  22
BRANCH   6  24
ATOM     24  O   UNL     1      12.564 -38.086 -17.167  1.00  0.00    -0.507 OA
ATOM     25  H   UNL     1      12.865 -38.529 -18.022  1.00  0.00     0.293 HD
ENDBRANCH   6  24
BRANCH   8  26
ATOM     26  O   UNL     1      13.287 -33.349 -17.472  1.00  0.00    -0.508 OA
ATOM     27  H   UNL     1      13.377 -32.573 -16.828  1.00  0.00     0.293 HD
ENDBRANCH   8  26
TORSDOF 6
ENDMDL
MODEL 3
REMARK VINA RESULT:    -5.957      3.181      4.782
REMARK INTER + INTRA:          -7.220
REMARK INTER:                  -6.898
REMARK INTRA:                  -0.322
REMARK UNBOUND:                -0.044
REMARK SMILES O=c1c(O)c(-c2ccc(O)c(O)c2)oc2cc(O)cc(O)c12
REMARK SMILES IDX 5 1 3 2 2 3 1 4 22 5 20 6 19 7 17 8 16 9 15 10 14 11 6 12
REMARK SMILES IDX 7 13 8 14 9 15 13 16 11 17 10 18 12 20 4 22 21 24 18 26
REMARK H PARENT 10 19 12 21 4 23 21 25 18 27
REMARK Flexibility Score: inf
ROOT
ATOM      1  C   UNL     1       9.271 -35.629 -16.858  1.00  0.00     0.180 A 
ATOM      2  C   UNL     1       8.038 -36.272 -17.062  1.00  0.00     0.208 A 
ATOM      3  C   UNL     1       6.949 -35.933 -16.244  1.00  0.00     0.238 A 
ATOM      4  O   UNL     1       5.862 -36.550 -16.396  1.00  0.00    -0.285 OA
ATOM      5  C   UNL     1       7.101 -34.945 -15.241  1.00  0.00     0.111 A 
ATOM      6  C   UNL     1       6.055 -34.494 -14.381  1.00  0.00     0.134 A 
ATOM      7  C   UNL     1       6.352 -33.606 -13.340  1.00  0.00     0.093 A 
ATOM      8  C   UNL     1       7.643 -33.102 -13.169  1.00  0.00     0.123 A 
ATOM      9  C   UNL     1       8.658 -33.490 -14.039  1.00  0.00     0.094 A 
ATOM     10  C   UNL     1       8.401 -34.403 -15.066  1.00  0.00     0.146 A 
ATOM     11  O   UNL     1       9.399 -34.754 -15.867  1.00  0.00    -0.452 OA
ENDROOT
BRANCH   1  12
ATOM     12  C   UNL     1      10.457 -35.915 -17.697  1.00  0.00     0.025 A 
ATOM     13  C   UNL     1      10.671 -35.167 -18.866  1.00  0.00     0.016 A 
ATOM     14  C   UNL     1      11.772 -35.433 -19.684  1.00  0.00     0.051 A 
ATOM     15  C   UNL     1      12.665 -36.457 -19.357  1.00  0.00     0.157 A 
ATOM     16  C   UNL     1      11.345 -36.958 -17.380  1.00  0.00     0.062 A 
ATOM     17  C   UNL     1      12.450 -37.227 -18.202  1.00  0.00     0.158 A 
BRANCH  15  18
ATOM     18  O   UNL     1      13.756 -36.698 -20.191  1.00  0.00    -0.504 OA
ATOM     19  H   UNL     1      14.705 -36.741 -19.838  1.00  0.00     0.293 HD
ENDBRANCH  15  18
BRANCH  17  20
ATOM     20  O   UNL     1      13.328 -38.259 -17.877  1.00  0.00    -0.504 OA
ATOM     21  H   UNL     1      13.375 -39.111 -18.425  1.00  0.00     0.293 HD
ENDBRANCH  17  20
ENDBRANCH   1  12
BRANCH   2  22
ATOM     22  O   UNL     1       7.914 -37.260 -18.043  1.00  0.00    -0.502 OA
ATOM     23  H   UNL     1       8.105 -38.237 -17.857  1.00  0.00     0.293 HD
ENDBRANCH   2  22
BRANCH   6  24
ATOM     24  O   UNL     1       4.715 -34.864 -14.524  1.00  0.00    -0.507 OA
ATOM     25  H   UNL     1       4.249 -35.562 -13.966  1.00  0.00     0.293 HD
ENDBRANCH   6  24
BRANCH   8  26
ATOM     26  O   UNL     1       7.926 -32.207 -12.140  1.00  0.00    -0.508 OA
ATOM     27  H   UNL     1       7.243 -31.990 -11.423  1.00  0.00     0.293 HD
ENDBRANCH   8  26
TORSDOF 6
ENDMDL
MODEL 4
REMARK VINA RESULT:    -5.920      1.785      6.678
REMARK INTER + INTRA:          -7.175
REMARK INTER:                  -6.880
REMARK INTRA:                  -0.296
REMARK UNBOUND:                -0.044
REMARK SMILES O=c1c(O)c(-c2ccc(O)c(O)c2)oc2cc(O)cc(O)c12
REMARK SMILES IDX 5 1 3 2 2 3 1 4 22 5 20 6 19 7 17 8 16 9 15 10 14 11 6 12
REMARK SMILES IDX 7 13 8 14 9 15 13 16 11 17 10 18 12 20 4 22 21 24 18 26
REMARK H PARENT 10 19 12 21 4 23 21 25 18 27
REMARK Flexibility Score: inf
ROOT
ATOM      1  C   UNL     1      12.663 -36.357 -19.146  1.00  0.00     0.180 A 
ATOM      2  C   UNL     1      14.015 -36.380 -18.762  1.00  0.00     0.208 A 
ATOM      3  C   UNL     1      14.997 -36.028 -19.701  1.00  0.00     0.238 A 
ATOM      4  O   UNL     1      16.209 -36.102 -19.367  1.00  0.00    -0.285 OA
ATOM      5  C   UNL     1      14.614 -35.644 -21.009  1.00  0.00     0.111 A 
ATOM      6  C   UNL     1      15.522 -35.229 -22.030  1.00  0.00     0.134 A 
ATOM      7  C   UNL     1      15.044 -34.996 -23.325  1.00  0.00     0.093 A 
ATOM      8  C   UNL     1      13.683 -35.099 -23.620  1.00  0.00     0.123 A 
ATOM      9  C   UNL     1      12.782 -35.445 -22.617  1.00  0.00     0.094 A 
ATOM     10  C   UNL     1      13.233 -35.719 -21.323  1.00  0.00     0.146 A 
ATOM     11  O   UNL     1      12.342 -36.055 -20.399  1.00  0.00    -0.452 OA
ENDROOT
BRANCH   1  12
ATOM     12  C   UNL     1      11.570 -36.690 -18.204  1.00  0.00     0.025 A 
ATOM     13  C   UNL     1      11.251 -38.036 -17.964  1.00  0.00     0.016 A 
ATOM     14  C   UNL     1      10.211 -38.374 -17.095  1.00  0.00     0.051 A 
ATOM     15  C   UNL     1       9.464 -37.374 -16.466  1.00  0.00     0.157 A 
ATOM     16  C   UNL     1      10.805 -35.686 -17.585  1.00  0.00     0.062 A 
ATOM     17  C   UNL     1       9.758 -36.023 -16.714  1.00  0.00     0.158 A 
BRANCH  15  18
ATOM     18  O   UNL     1       8.433 -37.741 -15.601  1.00  0.00    -0.504 OA
ATOM     19  H   UNL     1       7.498 -37.943 -15.935  1.00  0.00     0.293 HD
ENDBRANCH  15  18
BRANCH  17  20
ATOM     20  O   UNL     1       9.009 -35.021 -16.100  1.00  0.00    -0.504 OA
ATOM     21  H   UNL     1       8.172 -35.232 -15.568  1.00  0.00     0.293 HD
ENDBRANCH  17  20
ENDBRANCH   1  12
BRANCH   2  22
ATOM     22  O   UNL     1      14.372 -36.784 -17.472  1.00  0.00    -0.502 OA
ATOM     23  H   UNL     1      15.335 -36.926 -17.193  1.00  0.00     0.293 HD
ENDBRANCH   2  22
BRANCH   6  24
ATOM     24  O   UNL     1      16.886 -35.006 -21.818  1.00  0.00    -0.507 OA
ATOM     25  H   UNL     1      17.618 -35.655 -22.061  1.00  0.00     0.293 HD
ENDBRANCH   6  24
BRANCH   8  26
ATOM     26  O   UNL     1      13.214 -34.850 -24.908  1.00  0.00    -0.508 OA
ATOM     27  H   UNL     1      12.513 -34.142 -25.090  1.00  0.00     0.293 HD
ENDBRANCH   8  26
TORSDOF 6
ENDMDL
MODEL 5
REMARK VINA RESULT:    -5.860      1.937      6.701
REMARK INTER + INTRA:          -7.103
REMARK INTER:                  -6.782
REMARK INTRA:                  -0.321
REMARK UNBOUND:                -0.044
REMARK SMILES O=c1c(O)c(-c2ccc(O)c(O)c2)oc2cc(O)cc(O)c12
REMARK SMILES IDX 5 1 3 2 2 3 1 4 22 5 20 6 19 7 17 8 16 9 15 10 14 11 6 12
REMARK SMILES IDX 7 13 8 14 9 15 13 16 11 17 10 18 12 20 4 22 21 24 18 26
REMARK H PARENT 10 19 12 21 4 23 21 25 18 27
REMARK Flexibility Score: inf
ROOT
ATOM      1  C   UNL     1      11.675 -35.899 -18.550  1.00  0.00     0.180 A 
ATOM      2  C   UNL     1      12.975 -36.171 -18.089  1.00  0.00     0.208 A 
ATOM      3  C   UNL     1      14.044 -36.124 -18.997  1.00  0.00     0.238 A 
ATOM      4  O   UNL     1      15.198 -36.421 -18.590  1.00  0.00    -0.285 OA
ATOM      5  C   UNL     1      13.803 -35.791 -20.352  1.00  0.00     0.111 A 
ATOM      6  C   UNL     1      14.816 -35.675 -21.351  1.00  0.00     0.134 A 
ATOM      7  C   UNL     1      14.449 -35.469 -22.686  1.00  0.00     0.093 A 
ATOM      8  C   UNL     1      13.109 -35.309 -23.048  1.00  0.00     0.123 A 
ATOM      9  C   UNL     1      12.118 -35.361 -22.072  1.00  0.00     0.094 A 
ATOM     10  C   UNL     1      12.450 -35.602 -20.736  1.00  0.00     0.146 A 
ATOM     11  O   UNL     1      11.474 -35.655 -19.839  1.00  0.00    -0.452 OA
ENDROOT
BRANCH   1  12
ATOM     12  C   UNL     1      10.502 -35.904 -17.646  1.00  0.00     0.025 A 
ATOM     13  C   UNL     1      10.185 -34.745 -16.920  1.00  0.00     0.016 A 
ATOM     14  C   UNL     1       9.095 -34.733 -16.046  1.00  0.00     0.051 A 
ATOM     15  C   UNL     1       8.316 -35.880 -15.873  1.00  0.00     0.157 A 
ATOM     16  C   UNL     1       9.729 -37.063 -17.456  1.00  0.00     0.062 A 
ATOM     17  C   UNL     1       8.635 -37.053 -16.577  1.00  0.00     0.158 A 
BRANCH  15  18
ATOM     18  O   UNL     1       7.232 -35.837 -14.996  1.00  0.00    -0.504 OA
ATOM     19  H   UNL     1       6.743 -36.675 -14.703  1.00  0.00     0.293 HD
ENDBRANCH  15  18
BRANCH  17  20
ATOM     20  O   UNL     1       7.870 -38.205 -16.399  1.00  0.00    -0.504 OA
ATOM     21  H   UNL     1       6.858 -38.186 -16.460  1.00  0.00     0.293 HD
ENDBRANCH  17  20
ENDBRANCH   1  12
BRANCH   2  22
ATOM     22  O   UNL     1      13.188 -36.518 -16.752  1.00  0.00    -0.502 OA
ATOM     23  H   UNL     1      13.444 -35.838 -16.046  1.00  0.00     0.293 HD
ENDBRANCH   2  22
BRANCH   6  24
ATOM     24  O   UNL     1      16.187 -35.727 -21.081  1.00  0.00    -0.507 OA
ATOM     25  H   UNL     1      16.742 -36.569 -21.085  1.00  0.00     0.293 HD
ENDBRANCH   6  24
BRANCH   8  26
ATOM     26  O   UNL     1      12.754 -35.088 -24.377  1.00  0.00    -0.508 OA
ATOM     27  H   UNL     1      11.971 -35.569 -24.803  1.00  0.00     0.293 HD
ENDBRANCH   8  26
TORSDOF 6
ENDMDL
MODEL 6
REMARK VINA RESULT:    -5.830      2.684      8.086
REMARK INTER + INTRA:          -7.067
REMARK INTER:                  -6.779
REMARK INTRA:                  -0.288
REMARK UNBOUND:                -0.044
REMARK SMILES O=c1c(O)c(-c2ccc(O)c(O)c2)oc2cc(O)cc(O)c12
REMARK SMILES IDX 5 1 3 2 2 3 1 4 22 5 20 6 19 7 17 8 16 9 15 10 14 11 6 12
REMARK SMILES IDX 7 13 8 14 9 15 13 16 11 17 10 18 12 20 4 22 21 24 18 26
REMARK H PARENT 10 19 12 21 4 23 21 25 18 27
REMARK Flexibility Score: inf
ROOT
ATOM      1  C   UNL     1      15.184 -35.723 -20.147  1.00  0.00     0.180 A 
ATOM      2  C   UNL     1      14.865 -35.539 -21.503  1.00  0.00     0.208 A 
ATOM      3  C   UNL     1      15.892 -35.598 -22.459  1.00  0.00     0.238 A 
ATOM      4  O   UNL     1      15.609 -35.378 -23.666  1.00  0.00    -0.285 OA
ATOM      5  C   UNL     1      17.223 -35.854 -22.048  1.00  0.00     0.111 A 
ATOM      6  C   UNL     1      18.335 -35.975 -22.934  1.00  0.00     0.134 A 
ATOM      7  C   UNL     1      19.626 -36.101 -22.407  1.00  0.00     0.093 A 
ATOM      8  C   UNL     1      19.838 -36.176 -21.029  1.00  0.00     0.123 A 
ATOM      9  C   UNL     1      18.753 -36.119 -20.159  1.00  0.00     0.094 A 
ATOM     10  C   UNL     1      17.456 -35.957 -20.652  1.00  0.00     0.146 A 
ATOM     11  O   UNL     1      16.451 -35.897 -19.788  1.00  0.00    -0.452 OA
ENDROOT
BRANCH   1  12
ATOM     12  C   UNL     1      14.152 -35.700 -19.085  1.00  0.00     0.025 A 
ATOM     13  C   UNL     1      13.683 -34.468 -18.604  1.00  0.00     0.016 A 
ATOM     14  C   UNL     1      12.725 -34.422 -17.588  1.00  0.00     0.051 A 
ATOM     15  C   UNL     1      12.233 -35.605 -17.028  1.00  0.00     0.157 A 
ATOM     16  C   UNL     1      13.671 -36.888 -18.506  1.00  0.00     0.062 A 
ATOM     17  C   UNL     1      12.711 -36.844 -17.484  1.00  0.00     0.158 A 
BRANCH  15  18
ATOM     18  O   UNL     1      11.276 -35.528 -16.017  1.00  0.00    -0.504 OA
ATOM     19  H   UNL     1      10.494 -34.885 -16.063  1.00  0.00     0.293 HD
ENDBRANCH  15  18
BRANCH  17  20
ATOM     20  O   UNL     1      12.235 -38.027 -16.920  1.00  0.00    -0.504 OA
ATOM     21  H   UNL     1      12.606 -38.388 -16.049  1.00  0.00     0.293 HD
ENDBRANCH  17  20
ENDBRANCH   1  12
BRANCH   2  22
ATOM     22  O   UNL     1      13.549 -35.264 -21.885  1.00  0.00    -0.502 OA
ATOM     23  H   UNL     1      12.814 -35.085 -21.212  1.00  0.00     0.293 HD
ENDBRANCH   2  22
BRANCH   6  24
ATOM     24  O   UNL     1      18.223 -36.005 -24.327  1.00  0.00    -0.507 OA
ATOM     25  H   UNL     1      17.352 -36.034 -24.833  1.00  0.00     0.293 HD
ENDBRANCH   6  24
BRANCH   8  26
ATOM     26  O   UNL     1      21.125 -36.317 -20.514  1.00  0.00    -0.508 OA
ATOM     27  H   UNL     1      21.620 -35.535 -20.102  1.00  0.00     0.293 HD
ENDBRANCH   8  26
TORSDOF 6
ENDMDL
MODEL 7
REMARK VINA RESULT:    -5.821      3.427      5.831
REMARK INTER + INTRA:          -7.056
REMARK INTER:                  -6.724
REMARK INTRA:                  -0.333
REMARK UNBOUND:                -0.044
REMARK SMILES O=c1c(O)c(-c2ccc(O)c(O)c2)oc2cc(O)cc(O)c12
REMARK SMILES IDX 5 1 3 2 2 3 1 4 22 5 20 6 19 7 17 8 16 9 15 10 14 11 6 12
REMARK SMILES IDX 7 13 8 14 9 15 13 16 11 17 10 18 12 20 4 22 21 24 18 26
REMARK H PARENT 10 19 12 21 4 23 21 25 18 27
REMARK Flexibility Score: inf
ROOT
ATOM      1  C   UNL     1      16.893 -34.980 -20.591  1.00  0.00     0.180 A 
ATOM      2  C   UNL     1      17.119 -33.740 -19.969  1.00  0.00     0.208 A 
ATOM      3  C   UNL     1      16.407 -33.424 -18.801  1.00  0.00     0.238 A 
ATOM      4  O   UNL     1      16.573 -32.290 -18.279  1.00  0.00    -0.285 OA
ATOM      5  C   UNL     1      15.490 -34.358 -18.260  1.00  0.00     0.111 A 
ATOM      6  C   UNL     1      14.745 -34.159 -17.059  1.00  0.00     0.134 A 
ATOM      7  C   UNL     1      13.771 -35.095 -16.688  1.00  0.00     0.093 A 
ATOM      8  C   UNL     1      13.562 -36.253 -17.440  1.00  0.00     0.123 A 
ATOM      9  C   UNL     1      14.326 -36.485 -18.581  1.00  0.00     0.094 A 
ATOM     10  C   UNL     1      15.280 -35.552 -18.996  1.00  0.00     0.146 A 
ATOM     11  O   UNL     1      15.979 -35.807 -20.095  1.00  0.00    -0.452 OA
ENDROOT
BRANCH   1  12
ATOM     12  C   UNL     1      17.624 -35.395 -21.810  1.00  0.00     0.025 A 
ATOM     13  C   UNL     1      17.037 -35.193 -23.069  1.00  0.00     0.016 A 
ATOM     14  C   UNL     1      17.699 -35.594 -24.232  1.00  0.00     0.051 A 
ATOM     15  C   UNL     1      18.948 -36.217 -24.154  1.00  0.00     0.157 A 
ATOM     16  C   UNL     1      18.871 -36.040 -21.733  1.00  0.00     0.062 A 
ATOM     17  C   UNL     1      19.537 -36.446 -22.900  1.00  0.00     0.158 A 
BRANCH  15  18
ATOM     18  O   UNL     1      19.586 -36.605 -25.332  1.00  0.00    -0.504 OA
ATOM     19  H   UNL     1      20.595 -36.673 -25.400  1.00  0.00     0.293 HD
ENDBRANCH  15  18
BRANCH  17  20
ATOM     20  O   UNL     1      20.776 -37.079 -22.814  1.00  0.00    -0.504 OA
ATOM     21  H   UNL     1      20.927 -37.870 -22.198  1.00  0.00     0.293 HD
ENDBRANCH  17  20
ENDBRANCH   1  12
BRANCH   2  22
ATOM     22  O   UNL     1      18.012 -32.824 -20.532  1.00  0.00    -0.502 OA
ATOM     23  H   UNL     1      18.989 -33.041 -20.685  1.00  0.00     0.293 HD
ENDBRANCH   2  22
BRANCH   6  24
ATOM     24  O   UNL     1      14.941 -33.083 -16.188  1.00  0.00    -0.507 OA
ATOM     25  H   UNL     1      14.352 -32.868 -15.399  1.00  0.00     0.293 HD
ENDBRANCH   6  24
BRANCH   8  26
ATOM     26  O   UNL     1      12.602 -37.186 -17.055  1.00  0.00    -0.508 OA
ATOM     27  H   UNL     1      11.616 -37.039 -17.239  1.00  0.00     0.293 HD
ENDBRANCH   8  26
TORSDOF 6
ENDMDL
MODEL 8
REMARK VINA RESULT:    -5.819      2.299      3.729
REMARK INTER + INTRA:          -7.054
REMARK INTER:                  -6.815
REMARK INTRA:                  -0.239
REMARK UNBOUND:                -0.044
REMARK SMILES O=c1c(O)c(-c2ccc(O)c(O)c2)oc2cc(O)cc(O)c12
REMARK SMILES IDX 5 1 3 2 2 3 1 4 22 5 20 6 19 7 17 8 16 9 15 10 14 11 6 12
REMARK SMILES IDX 7 13 8 14 9 15 13 16 11 17 10 18 12 20 4 22 21 24 18 26
REMARK H PARENT 10 19 12 21 4 23 21 25 18 27
REMARK Flexibility Score: inf
ROOT
ATOM      1  C   UNL     1      15.130 -35.600 -19.333  1.00  0.00     0.180 A 
ATOM      2  C   UNL     1      14.927 -34.438 -18.568  1.00  0.00     0.208 A 
ATOM      3  C   UNL     1      13.806 -34.363 -17.727  1.00  0.00     0.238 A 
ATOM      4  O   UNL     1      13.601 -33.298 -17.086  1.00  0.00    -0.285 OA
ATOM      5  C   UNL     1      12.910 -35.456 -17.648  1.00  0.00     0.111 A 
ATOM      6  C   UNL     1      11.764 -35.505 -16.799  1.00  0.00     0.134 A 
ATOM      7  C   UNL     1      10.876 -36.583 -16.898  1.00  0.00     0.093 A 
ATOM      8  C   UNL     1      11.128 -37.645 -17.769  1.00  0.00     0.123 A 
ATOM      9  C   UNL     1      12.275 -37.635 -18.559  1.00  0.00     0.094 A 
ATOM     10  C   UNL     1      13.161 -36.555 -18.508  1.00  0.00     0.146 A 
ATOM     11  O   UNL     1      14.236 -36.581 -19.286  1.00  0.00    -0.452 OA
ENDROOT
BRANCH   1  12
ATOM     12  C   UNL     1      16.302 -35.763 -20.223  1.00  0.00     0.025 A 
ATOM     13  C   UNL     1      16.111 -35.818 -21.613  1.00  0.00     0.016 A 
ATOM     14  C   UNL     1      17.200 -35.992 -22.471  1.00  0.00     0.051 A 
ATOM     15  C   UNL     1      18.491 -36.129 -21.954  1.00  0.00     0.157 A 
ATOM     16  C   UNL     1      17.600 -35.921 -19.704  1.00  0.00     0.062 A 
ATOM     17  C   UNL     1      18.694 -36.098 -20.564  1.00  0.00     0.158 A 
BRANCH  15  18
ATOM     18  O   UNL     1      19.559 -36.299 -22.835  1.00  0.00    -0.504 OA
ATOM     19  H   UNL     1      19.807 -37.206 -23.212  1.00  0.00     0.293 HD
ENDBRANCH  15  18
BRANCH  17  20
ATOM     20  O   UNL     1      19.977 -36.248 -20.042  1.00  0.00    -0.504 OA
ATOM     21  H   UNL     1      20.717 -36.699 -20.569  1.00  0.00     0.293 HD
ENDBRANCH  17  20
ENDBRANCH   1  12
BRANCH   2  22
ATOM     22  O   UNL     1      15.812 -33.361 -18.678  1.00  0.00    -0.502 OA
ATOM     23  H   UNL     1      16.251 -32.933 -17.872  1.00  0.00     0.293 HD
ENDBRANCH   2  22
BRANCH   6  24
ATOM     24  O   UNL     1      11.470 -34.541 -15.829  1.00  0.00    -0.507 OA
ATOM     25  H   UNL     1      10.803 -34.662 -15.082  1.00  0.00     0.293 HD
ENDBRANCH   6  24
BRANCH   8  26
ATOM     26  O   UNL     1      10.247 -38.721 -17.851  1.00  0.00    -0.508 OA
ATOM     27  H   UNL     1      10.236 -39.451 -17.148  1.00  0.00     0.293 HD
ENDBRANCH   8  26
TORSDOF 6
ENDMDL
MODEL 9
REMARK VINA RESULT:    -5.790      1.919      7.103
REMARK INTER + INTRA:          -7.018
REMARK INTER:                  -6.710
REMARK INTRA:                  -0.308
REMARK UNBOUND:                -0.044
REMARK SMILES O=c1c(O)c(-c2ccc(O)c(O)c2)oc2cc(O)cc(O)c12
REMARK SMILES IDX 5 1 3 2 2 3 1 4 22 5 20 6 19 7 17 8 16 9 15 10 14 11 6 12
REMARK SMILES IDX 7 13 8 14 9 15 13 16 11 17 10 18 12 20 4 22 21 24 18 26
REMARK H PARENT 10 19 12 21 4 23 21 25 18 27
REMARK Flexibility Score: inf
ROOT
ATOM      1  C   UNL     1      12.495 -35.831 -17.596  1.00  0.00     0.180 A 
ATOM      2  C   UNL     1      13.224 -34.961 -16.767  1.00  0.00     0.208 A 
ATOM      3  C   UNL     1      14.419 -34.403 -17.247  1.00  0.00     0.238 A 
ATOM      4  O   UNL     1      15.095 -33.668 -16.480  1.00  0.00    -0.285 OA
ATOM      5  C   UNL     1      14.864 -34.711 -18.555  1.00  0.00     0.111 A 
ATOM      6  C   UNL     1      16.040 -34.172 -19.159  1.00  0.00     0.134 A 
ATOM      7  C   UNL     1      16.453 -34.647 -20.410  1.00  0.00     0.093 A 
ATOM      8  C   UNL     1      15.698 -35.592 -21.107  1.00  0.00     0.123 A 
ATOM      9  C   UNL     1      14.518 -36.080 -20.552  1.00  0.00     0.094 A 
ATOM     10  C   UNL     1      14.098 -35.653 -19.289  1.00  0.00     0.146 A 
ATOM     11  O   UNL     1      12.973 -36.151 -18.793  1.00  0.00    -0.452 OA
ENDROOT
BRANCH   1  12
ATOM     12  C   UNL     1      11.213 -36.437 -17.169  1.00  0.00     0.025 A 
ATOM     13  C   UNL     1      11.186 -37.780 -16.761  1.00  0.00     0.016 A 
ATOM     14  C   UNL     1       9.985 -38.378 -16.373  1.00  0.00     0.051 A 
ATOM     15  C   UNL     1       8.792 -37.651 -16.403  1.00  0.00     0.157 A 
ATOM     16  C   UNL     1      10.009 -35.713 -17.217  1.00  0.00     0.062 A 
ATOM     17  C   UNL     1       8.801 -36.313 -16.831  1.00  0.00     0.158 A 
BRANCH  15  18
ATOM     18  O   UNL     1       7.608 -38.274 -16.009  1.00  0.00    -0.504 OA
ATOM     19  H   UNL     1       6.778 -38.271 -16.591  1.00  0.00     0.293 HD
ENDBRANCH  15  18
BRANCH  17  20
ATOM     20  O   UNL     1       7.612 -35.586 -16.876  1.00  0.00    -0.504 OA
ATOM     21  H   UNL     1       7.502 -34.715 -16.368  1.00  0.00     0.293 HD
ENDBRANCH  17  20
ENDBRANCH   1  12
BRANCH   2  22
ATOM     22  O   UNL     1      12.778 -34.688 -15.470  1.00  0.00    -0.502 OA
ATOM     23  H   UNL     1      11.969 -35.143 -15.066  1.00  0.00     0.293 HD
ENDBRANCH   2  22
BRANCH   6  24
ATOM     24  O   UNL     1      16.815 -33.158 -18.589  1.00  0.00    -0.507 OA
ATOM     25  H   UNL     1      17.813 -33.067 -18.697  1.00  0.00     0.293 HD
ENDBRANCH   6  24
BRANCH   8  26
ATOM     26  O   UNL     1      16.108 -36.048 -22.358  1.00  0.00    -0.508 OA
ATOM     27  H   UNL     1      17.080 -36.012 -22.643  1.00  0.00     0.293 HD
ENDBRANCH   8  26
TORSDOF 6
ENDMDL
