MODEL 1
REMARK VINA RESULT:    -2.727      0.000      0.000
REMARK INTER + INTRA:          -5.510
REMARK INTER:                  -6.235
REMARK INTRA:                   0.725
REMARK UNBOUND:                 0.725
REMARK SMILES CCCCCCCCCCCCCCCCCCCCCCCC(=O)[O-]
REMARK SMILES IDX 13 1 14 2 15 3 16 4 17 5 18 6 19 7 20 8 21 9 22 10 23 11
REMARK SMILES IDX 24 12 25 13 26 14 12 15 11 16 10 17 9 18 8 19 7 20 6 21 5 22
REMARK SMILES IDX 4 23 3 24 2 25 1 26
REMARK H PARENT
REMARK Flexibility Score: inf
ROOT
ATOM      1  C   UNL     1     -15.883 -10.854   3.855  1.00  0.00     0.000 C 
ENDROOT
BRANCH   1   2
ATOM      2  C   UNL     1     -16.218 -12.208   3.203  1.00  0.00     0.000 C 
BRANCH   2   3
ATOM      3  C   UNL     1     -16.599 -12.076   1.718  1.00  0.00     0.000 C 
BRANCH   3   4
ATOM      4  C   UNL     1     -17.751 -12.987   1.254  1.00  0.00     0.000 C 
BRANCH   4   5
ATOM      5  C   UNL     1     -18.688 -12.301   0.244  1.00  0.00     0.000 C 
BRANCH   5   6
ATOM      6  C   UNL     1     -19.956 -13.125  -0.040  1.00  0.00     0.000 C 
BRANCH   6   7
ATOM      7  C   UNL     1     -20.997 -13.019   1.089  1.00  0.00     0.000 C 
BRANCH   7   8
ATOM      8  C   UNL     1     -22.245 -12.225   0.671  1.00  0.00     0.000 C 
BRANCH   8   9
ATOM      9  C   UNL     1     -22.836 -11.402   1.829  1.00  0.00     0.000 C 
BRANCH   9  10
ATOM     10  C   UNL     1     -23.311 -12.282   2.997  1.00  0.00     0.006 C 
BRANCH  10  11
ATOM     11  C   UNL     1     -24.838 -12.429   3.048  1.00  0.00     0.053 C 
BRANCH  11  12
ATOM     12  C   UNL     1     -25.454 -11.244   3.719  1.00  0.00     0.041 C 
ATOM     13  O   UNL     1     -25.908 -10.290   3.032  1.00  0.00    -0.550 OA
ATOM     14  O   UNL     1     -25.476 -11.163   5.106  1.00  0.00    -0.550 OA
ENDBRANCH  11  12
ENDBRANCH  10  11
ENDBRANCH   9  10
ENDBRANCH   8   9
ENDBRANCH   7   8
ENDBRANCH   6   7
ENDBRANCH   5   6
ENDBRANCH   4   5
ENDBRANCH   3   4
ENDBRANCH   2   3
ENDBRANCH   1   2
BRANCH   1  15
ATOM     15  C   UNL     1     -15.169  -9.900   2.881  1.00  0.00     0.000 C 
BRANCH  15  16
ATOM     16  C   UNL     1     -13.893 -10.504   2.252  1.00  0.00     0.000 C 
BRANCH  16  17
ATOM     17  C   UNL     1     -14.172 -11.428   1.050  1.00  0.00     0.000 C 
BRANCH  17  18
ATOM     18  C   UNL     1     -12.951 -11.719   0.160  1.00  0.00    -0.000 C 
BRANCH  18  19
ATOM     19  C   UNL     1     -11.806 -12.402   0.928  1.00  0.00    -0.000 C 
BRANCH  19  20
ATOM     20  C   UNL     1     -10.669 -12.864   0.003  1.00  0.00    -0.000 C 
BRANCH  20  21
ATOM     21  C   UNL     1      -9.357 -13.125   0.759  1.00  0.00    -0.000 C 
BRANCH  21  22
ATOM     22  C   UNL     1      -8.143 -12.776  -0.110  1.00  0.00    -0.000 C 
BRANCH  22  23
ATOM     23  C   UNL     1      -6.835 -12.950   0.672  1.00  0.00    -0.000 C 
BRANCH  23  24
ATOM     24  C   UNL     1      -5.919 -11.730   0.490  1.00  0.00    -0.000 C 
BRANCH  24  25
ATOM     25  C   UNL     1      -6.684 -10.481   0.026  1.00  0.00    -0.003 C 
ATOM     26  C   UNL     1      -5.981  -9.180   0.410  1.00  0.00     0.004 C 
ENDBRANCH  24  25
ENDBRANCH  23  24
ENDBRANCH  22  23
ENDBRANCH  21  22
ENDBRANCH  20  21
ENDBRANCH  19  20
ENDBRANCH  18  19
ENDBRANCH  17  18
ENDBRANCH  16  17
ENDBRANCH  15  16
ENDBRANCH   1  15
TORSDOF 22
ENDMDL
MODEL 2
REMARK VINA RESULT:    -2.358     10.682     14.831
REMARK INTER + INTRA:          -4.665
REMARK INTER:                  -3.461
REMARK INTRA:                  -1.204
REMARK UNBOUND:                 0.725
REMARK SMILES CCCCCCCCCCCCCCCCCCCCCCCC(=O)[O-]
REMARK SMILES IDX 13 1 14 2 15 3 16 4 17 5 18 6 19 7 20 8 21 9 22 10 23 11
REMARK SMILES IDX 24 12 25 13 26 14 12 15 11 16 10 17 9 18 8 19 7 20 6 21 5 22
REMARK SMILES IDX 4 23 3 24 2 25 1 26
REMARK H PARENT
REMARK Flexibility Score: inf
ROOT
ATOM      1  C   UNL     1     -22.800  -1.740   0.764  1.00  0.00     0.000 C 
ENDROOT
BRANCH   1   2
ATOM      2  C   UNL     1     -22.021  -2.991   0.319  1.00  0.00     0.000 C 
BRANCH   2   3
ATOM      3  C   UNL     1     -22.582  -4.290   0.927  1.00  0.00     0.000 C 
BRANCH   3   4
ATOM      4  C   UNL     1     -23.215  -5.264  -0.084  1.00  0.00     0.000 C 
BRANCH   4   5
ATOM      5  C   UNL     1     -24.751  -5.171  -0.124  1.00  0.00     0.000 C 
BRANCH   5   6
ATOM      6  C   UNL     1     -25.432  -6.536   0.076  1.00  0.00     0.000 C 
BRANCH   6   7
ATOM      7  C   UNL     1     -24.423  -7.696   0.149  1.00  0.00     0.000 C 
BRANCH   7   8
ATOM      8  C   UNL     1     -25.105  -9.067   0.289  1.00  0.00     0.000 C 
BRANCH   8   9
ATOM      9  C   UNL     1     -24.182 -10.123   0.921  1.00  0.00     0.000 C 
BRANCH   9  10
ATOM     10  C   UNL     1     -24.949 -11.142   1.778  1.00  0.00     0.006 C 
BRANCH  10  11
ATOM     11  C   UNL     1     -24.060 -12.288   2.279  1.00  0.00     0.053 C 
BRANCH  11  12
ATOM     12  C   UNL     1     -23.050 -11.777   3.256  1.00  0.00     0.041 C 
ATOM     13  O   UNL     1     -23.368 -10.886   4.089  1.00  0.00    -0.550 OA
ATOM     14  O   UNL     1     -21.741 -12.239   3.209  1.00  0.00    -0.550 OA
ENDBRANCH  11  12
ENDBRANCH  10  11
ENDBRANCH   9  10
ENDBRANCH   8   9
ENDBRANCH   7   8
ENDBRANCH   6   7
ENDBRANCH   5   6
ENDBRANCH   4   5
ENDBRANCH   3   4
ENDBRANCH   2   3
ENDBRANCH   1   2
BRANCH   1  15
ATOM     15  C   UNL     1     -21.868  -0.621   1.263  1.00  0.00     0.000 C 
BRANCH  15  16
ATOM     16  C   UNL     1     -21.833   0.612   0.332  1.00  0.00     0.000 C 
BRANCH  16  17
ATOM     17  C   UNL     1     -23.047   1.547   0.497  1.00  0.00     0.000 C 
BRANCH  17  18
ATOM     18  C   UNL     1     -24.403   0.830   0.622  1.00  0.00    -0.000 C 
BRANCH  18  19
ATOM     19  C   UNL     1     -25.438   1.650   1.414  1.00  0.00    -0.000 C 
BRANCH  19  20
ATOM     20  C   UNL     1     -24.900   2.122   2.774  1.00  0.00    -0.000 C 
BRANCH  20  21
ATOM     21  C   UNL     1     -24.992   3.644   2.953  1.00  0.00    -0.000 C 
BRANCH  21  22
ATOM     22  C   UNL     1     -23.630   4.235   3.338  1.00  0.00    -0.000 C 
BRANCH  22  23
ATOM     23  C   UNL     1     -23.421   5.610   2.690  1.00  0.00    -0.000 C 
BRANCH  23  24
ATOM     24  C   UNL     1     -24.137   5.693   1.334  1.00  0.00    -0.000 C 
BRANCH  24  25
ATOM     25  C   UNL     1     -23.185   5.472   0.149  1.00  0.00    -0.003 C 
ATOM     26  C   UNL     1     -21.714   5.471   0.564  1.00  0.00     0.004 C 
ENDBRANCH  24  25
ENDBRANCH  23  24
ENDBRANCH  22  23
ENDBRANCH  21  22
ENDBRANCH  20  21
ENDBRANCH  19  20
ENDBRANCH  18  19
ENDBRANCH  17  18
ENDBRANCH  16  17
ENDBRANCH  15  16
ENDBRANCH   1  15
TORSDOF 22
ENDMDL
MODEL 3
REMARK VINA RESULT:    -2.233      4.703     12.105
REMARK INTER + INTRA:          -4.380
REMARK INTER:                  -3.595
REMARK INTRA:                  -0.785
REMARK UNBOUND:                 0.725
REMARK SMILES CCCCCCCCCCCCCCCCCCCCCCCC(=O)[O-]
REMARK SMILES IDX 13 1 14 2 15 3 16 4 17 5 18 6 19 7 20 8 21 9 22 10 23 11
REMARK SMILES IDX 24 12 25 13 26 14 12 15 11 16 10 17 9 18 8 19 7 20 6 21 5 22
REMARK SMILES IDX 4 23 3 24 2 25 1 26
REMARK H PARENT
REMARK Flexibility Score: inf
ROOT
ATOM      1  C   UNL     1     -19.864 -11.636   3.996  1.00  0.00     0.000 C 
ENDROOT
BRANCH   1   2
ATOM      2  C   UNL     1     -19.393 -12.907   3.267  1.00  0.00     0.000 C 
BRANCH   2   3
ATOM      3  C   UNL     1     -18.086 -12.694   2.482  1.00  0.00     0.000 C 
BRANCH   3   4
ATOM      4  C   UNL     1     -16.800 -13.094   3.229  1.00  0.00     0.000 C 
BRANCH   4   5
ATOM      5  C   UNL     1     -15.727 -11.992   3.207  1.00  0.00     0.000 C 
BRANCH   5   6
ATOM      6  C   UNL     1     -14.953 -11.947   1.878  1.00  0.00     0.000 C 
BRANCH   6   7
ATOM      7  C   UNL     1     -13.731 -11.013   1.934  1.00  0.00     0.000 C 
BRANCH   7   8
ATOM      8  C   UNL     1     -12.471 -11.717   2.466  1.00  0.00     0.000 C 
BRANCH   8   9
ATOM      9  C   UNL     1     -12.489 -11.882   3.995  1.00  0.00     0.000 C 
BRANCH   9  10
ATOM     10  C   UNL     1     -11.552 -12.999   4.480  1.00  0.00     0.006 C 
BRANCH  10  11
ATOM     11  C   UNL     1     -11.517 -13.125   6.009  1.00  0.00     0.053 C 
BRANCH  11  12
ATOM     12  C   UNL     1     -12.860 -12.814   6.589  1.00  0.00     0.041 C 
ATOM     13  O   UNL     1     -13.904 -13.009   5.911  1.00  0.00    -0.550 OA
ATOM     14  O   UNL     1     -12.958 -12.255   7.857  1.00  0.00    -0.550 OA
ENDBRANCH  11  12
ENDBRANCH  10  11
ENDBRANCH   9  10
ENDBRANCH   8   9
ENDBRANCH   7   8
ENDBRANCH   6   7
ENDBRANCH   5   6
ENDBRANCH   4   5
ENDBRANCH   3   4
ENDBRANCH   2   3
ENDBRANCH   1   2
BRANCH   1  15
ATOM     15  C   UNL     1     -21.215 -11.839   4.705  1.00  0.00     0.000 C 
BRANCH  15  16
ATOM     16  C   UNL     1     -22.254 -10.743   4.376  1.00  0.00     0.000 C 
BRANCH  16  17
ATOM     17  C   UNL     1     -23.658 -11.296   4.058  1.00  0.00     0.000 C 
BRANCH  17  18
ATOM     18  C   UNL     1     -23.700 -12.796   3.715  1.00  0.00    -0.000 C 
BRANCH  18  19
ATOM     19  C   UNL     1     -23.954 -13.056   2.220  1.00  0.00    -0.000 C 
BRANCH  19  20
ATOM     20  C   UNL     1     -23.088 -12.168   1.311  1.00  0.00    -0.000 C 
BRANCH  20  21
ATOM     21  C   UNL     1     -23.904 -11.462   0.218  1.00  0.00    -0.000 C 
BRANCH  21  22
ATOM     22  C   UNL     1     -25.291 -11.067   0.737  1.00  0.00    -0.000 C 
BRANCH  22  23
ATOM     23  C   UNL     1     -25.749  -9.734   0.130  1.00  0.00    -0.000 C 
BRANCH  23  24
ATOM     24  C   UNL     1     -24.552  -8.806  -0.125  1.00  0.00    -0.000 C 
BRANCH  24  25
ATOM     25  C   UNL     1     -24.742  -7.413   0.493  1.00  0.00    -0.003 C 
ATOM     26  C   UNL     1     -26.125  -6.826   0.214  1.00  0.00     0.004 C 
ENDBRANCH  24  25
ENDBRANCH  23  24
ENDBRANCH  22  23
ENDBRANCH  21  22
ENDBRANCH  20  21
ENDBRANCH  19  20
ENDBRANCH  18  19
ENDBRANCH  17  18
ENDBRANCH  16  17
ENDBRANCH  15  16
ENDBRANCH   1  15
TORSDOF 22
ENDMDL
MODEL 4
REMARK VINA RESULT:    -2.224     12.146     16.493
REMARK INTER + INTRA:          -4.359
REMARK INTER:                  -3.869
REMARK INTRA:                  -0.490
REMARK UNBOUND:                 0.725
REMARK SMILES CCCCCCCCCCCCCCCCCCCCCCCC(=O)[O-]
REMARK SMILES IDX 13 1 14 2 15 3 16 4 17 5 18 6 19 7 20 8 21 9 22 10 23 11
REMARK SMILES IDX 24 12 25 13 26 14 12 15 11 16 10 17 9 18 8 19 7 20 6 21 5 22
REMARK SMILES IDX 4 23 3 24 2 25 1 26
REMARK H PARENT
REMARK Flexibility Score: inf
ROOT
ATOM      1  C   UNL     1     -21.407  -0.072   2.554  1.00  0.00     0.000 C 
ENDROOT
BRANCH   1   2
ATOM      2  C   UNL     1     -22.600   0.887   2.713  1.00  0.00     0.000 C 
BRANCH   2   3
ATOM      3  C   UNL     1     -23.030   1.529   1.381  1.00  0.00     0.000 C 
BRANCH   3   4
ATOM      4  C   UNL     1     -24.538   1.458   1.077  1.00  0.00     0.000 C 
BRANCH   4   5
ATOM      5  C   UNL     1     -25.359   2.487   1.873  1.00  0.00     0.000 C 
BRANCH   5   6
ATOM      6  C   UNL     1     -24.495   3.308   2.846  1.00  0.00     0.000 C 
BRANCH   6   7
ATOM      7  C   UNL     1     -25.327   4.278   3.703  1.00  0.00     0.000 C 
BRANCH   7   8
ATOM      8  C   UNL     1     -25.725   5.552   2.941  1.00  0.00     0.000 C 
BRANCH   8   9
ATOM      9  C   UNL     1     -24.598   6.599   2.913  1.00  0.00     0.000 C 
BRANCH   9  10
ATOM     10  C   UNL     1     -24.045   6.834   1.498  1.00  0.00     0.006 C 
BRANCH  10  11
ATOM     11  C   UNL     1     -22.525   6.638   1.414  1.00  0.00     0.053 C 
BRANCH  11  12
ATOM     12  C   UNL     1     -22.197   5.482   0.525  1.00  0.00     0.041 C 
ATOM     13  O   UNL     1     -23.117   4.851  -0.061  1.00  0.00    -0.550 OA
ATOM     14  O   UNL     1     -20.879   5.061   0.388  1.00  0.00    -0.550 OA
ENDBRANCH  11  12
ENDBRANCH  10  11
ENDBRANCH   9  10
ENDBRANCH   8   9
ENDBRANCH   7   8
ENDBRANCH   6   7
ENDBRANCH   5   6
ENDBRANCH   4   5
ENDBRANCH   3   4
ENDBRANCH   2   3
ENDBRANCH   1   2
BRANCH   1  15
ATOM     15  C   UNL     1     -21.258  -0.582   1.109  1.00  0.00     0.000 C 
BRANCH  15  16
ATOM     16  C   UNL     1     -22.520  -1.295   0.575  1.00  0.00     0.000 C 
BRANCH  16  17
ATOM     17  C   UNL     1     -22.270  -2.753   0.139  1.00  0.00     0.000 C 
BRANCH  17  18
ATOM     18  C   UNL     1     -23.543  -3.585  -0.095  1.00  0.00    -0.000 C 
BRANCH  18  19
ATOM     19  C   UNL     1     -23.273  -5.100  -0.082  1.00  0.00    -0.000 C 
BRANCH  19  20
ATOM     20  C   UNL     1     -24.566  -5.929  -0.015  1.00  0.00    -0.000 C 
BRANCH  20  21
ATOM     21  C   UNL     1     -24.309  -7.440  -0.125  1.00  0.00    -0.000 C 
BRANCH  21  22
ATOM     22  C   UNL     1     -24.737  -8.165   1.157  1.00  0.00    -0.000 C 
BRANCH  22  23
ATOM     23  C   UNL     1     -26.091  -8.861   0.972  1.00  0.00    -0.000 C 
BRANCH  23  24
ATOM     24  C   UNL     1     -26.064 -10.281   1.558  1.00  0.00    -0.000 C 
BRANCH  24  25
ATOM     25  C   UNL     1     -24.698 -10.646   2.158  1.00  0.00    -0.003 C 
ATOM     26  C   UNL     1     -24.804 -11.193   3.581  1.00  0.00     0.004 C 
ENDBRANCH  24  25
ENDBRANCH  23  24
ENDBRANCH  22  23
ENDBRANCH  21  22
ENDBRANCH  20  21
ENDBRANCH  19  20
ENDBRANCH  18  19
ENDBRANCH  17  18
ENDBRANCH  16  17
ENDBRANCH  15  16
ENDBRANCH   1  15
TORSDOF 22
ENDMDL
MODEL 5
REMARK VINA RESULT:    -2.129     12.143     16.353
REMARK INTER + INTRA:          -4.141
REMARK INTER:                  -3.196
REMARK INTRA:                  -0.946
REMARK UNBOUND:                 0.725
REMARK SMILES CCCCCCCCCCCCCCCCCCCCCCCC(=O)[O-]
REMARK SMILES IDX 13 1 14 2 15 3 16 4 17 5 18 6 19 7 20 8 21 9 22 10 23 11
REMARK SMILES IDX 24 12 25 13 26 14 12 15 11 16 10 17 9 18 8 19 7 20 6 21 5 22
REMARK SMILES IDX 4 23 3 24 2 25 1 26
REMARK H PARENT
REMARK Flexibility Score: inf
ROOT
ATOM      1  C   UNL     1     -22.041  -0.247   2.533  1.00  0.00     0.000 C 
ENDROOT
BRANCH   1   2
ATOM      2  C   UNL     1     -23.318   0.588   2.331  1.00  0.00     0.000 C 
BRANCH   2   3
ATOM      3  C   UNL     1     -23.285   1.426   1.040  1.00  0.00     0.000 C 
BRANCH   3   4
ATOM      4  C   UNL     1     -24.402   1.112   0.027  1.00  0.00     0.000 C 
BRANCH   4   5
ATOM      5  C   UNL     1     -25.507   2.183   0.002  1.00  0.00     0.000 C 
BRANCH   5   6
ATOM      6  C   UNL     1     -25.350   3.220   1.126  1.00  0.00     0.000 C 
BRANCH   6   7
ATOM      7  C   UNL     1     -25.250   4.662   0.594  1.00  0.00     0.000 C 
BRANCH   7   8
ATOM      8  C   UNL     1     -23.867   4.983   0.006  1.00  0.00     0.000 C 
BRANCH   8   9
ATOM      9  C   UNL     1     -23.354   6.370   0.427  1.00  0.00     0.000 C 
BRANCH   9  10
ATOM     10  C   UNL     1     -22.316   6.298   1.559  1.00  0.00     0.006 C 
BRANCH  10  11
ATOM     11  C   UNL     1     -22.718   7.125   2.788  1.00  0.00     0.053 C 
BRANCH  11  12
ATOM     12  C   UNL     1     -23.769   6.411   3.576  1.00  0.00     0.041 C 
ATOM     13  O   UNL     1     -24.792   7.029   3.975  1.00  0.00    -0.550 OA
ATOM     14  O   UNL     1     -23.594   5.077   3.922  1.00  0.00    -0.550 OA
ENDBRANCH  11  12
ENDBRANCH  10  11
ENDBRANCH   9  10
ENDBRANCH   8   9
ENDBRANCH   7   8
ENDBRANCH   6   7
ENDBRANCH   5   6
ENDBRANCH   4   5
ENDBRANCH   3   4
ENDBRANCH   2   3
ENDBRANCH   1   2
BRANCH   1  15
ATOM     15  C   UNL     1     -21.581  -0.930   1.232  1.00  0.00     0.000 C 
BRANCH  15  16
ATOM     16  C   UNL     1     -22.726  -1.626   0.464  1.00  0.00     0.000 C 
BRANCH  16  17
ATOM     17  C   UNL     1     -22.413  -3.085   0.075  1.00  0.00     0.000 C 
BRANCH  17  18
ATOM     18  C   UNL     1     -23.395  -4.129   0.636  1.00  0.00    -0.000 C 
BRANCH  18  19
ATOM     19  C   UNL     1     -23.171  -5.532   0.046  1.00  0.00    -0.000 C 
BRANCH  19  20
ATOM     20  C   UNL     1     -24.482  -6.317  -0.124  1.00  0.00    -0.000 C 
BRANCH  20  21
ATOM     21  C   UNL     1     -24.351  -7.789   0.294  1.00  0.00    -0.000 C 
BRANCH  21  22
ATOM     22  C   UNL     1     -25.715  -8.373   0.682  1.00  0.00    -0.000 C 
BRANCH  22  23
ATOM     23  C   UNL     1     -25.595  -9.289   1.907  1.00  0.00    -0.000 C 
BRANCH  23  24
ATOM     24  C   UNL     1     -24.179  -9.873   2.019  1.00  0.00    -0.000 C 
BRANCH  24  25
ATOM     25  C   UNL     1     -24.069 -10.951   3.108  1.00  0.00    -0.003 C 
ATOM     26  C   UNL     1     -25.362 -11.745   3.287  1.00  0.00     0.004 C 
ENDBRANCH  24  25
ENDBRANCH  23  24
ENDBRANCH  22  23
ENDBRANCH  21  22
ENDBRANCH  20  21
ENDBRANCH  19  20
ENDBRANCH  18  19
ENDBRANCH  17  18
ENDBRANCH  16  17
ENDBRANCH  15  16
ENDBRANCH   1  15
TORSDOF 22
ENDMDL
MODEL 6
REMARK VINA RESULT:    -2.050      4.939     11.822
REMARK INTER + INTRA:          -3.962
REMARK INTER:                  -2.278
REMARK INTRA:                  -1.684
REMARK UNBOUND:                 0.725
REMARK SMILES CCCCCCCCCCCCCCCCCCCCCCCC(=O)[O-]
REMARK SMILES IDX 13 1 14 2 15 3 16 4 17 5 18 6 19 7 20 8 21 9 22 10 23 11
REMARK SMILES IDX 24 12 25 13 26 14 12 15 11 16 10 17 9 18 8 19 7 20 6 21 5 22
REMARK SMILES IDX 4 23 3 24 2 25 1 26
REMARK H PARENT
REMARK Flexibility Score: inf
ROOT
ATOM      1  C   UNL     1     -17.531 -12.098   3.746  1.00  0.00     0.000 C 
ENDROOT
BRANCH   1   2
ATOM      2  C   UNL     1     -16.479 -12.891   2.950  1.00  0.00     0.000 C 
BRANCH   2   3
ATOM      3  C   UNL     1     -15.921 -12.103   1.751  1.00  0.00     0.000 C 
BRANCH   3   4
ATOM      4  C   UNL     1     -15.446 -10.673   2.070  1.00  0.00     0.000 C 
BRANCH   4   5
ATOM      5  C   UNL     1     -14.027 -10.383   1.550  1.00  0.00     0.000 C 
BRANCH   5   6
ATOM      6  C   UNL     1     -13.113 -11.619   1.604  1.00  0.00     0.000 C 
BRANCH   6   7
ATOM      7  C   UNL     1     -12.378 -11.754   2.950  1.00  0.00     0.000 C 
BRANCH   7   8
ATOM      8  C   UNL     1     -12.643 -13.102   3.639  1.00  0.00     0.000 C 
BRANCH   8   9
ATOM      9  C   UNL     1     -13.812 -13.034   4.638  1.00  0.00     0.000 C 
BRANCH   9  10
ATOM     10  C   UNL     1     -13.345 -13.125   6.100  1.00  0.00     0.006 C 
BRANCH  10  11
ATOM     11  C   UNL     1     -13.737 -11.892   6.926  1.00  0.00     0.053 C 
BRANCH  11  12
ATOM     12  C   UNL     1     -12.825 -11.741   8.101  1.00  0.00     0.041 C 
ATOM     13  O   UNL     1     -11.888 -12.563   8.287  1.00  0.00    -0.550 OA
ATOM     14  O   UNL     1     -13.043 -10.728   9.026  1.00  0.00    -0.550 OA
ENDBRANCH  11  12
ENDBRANCH  10  11
ENDBRANCH   9  10
ENDBRANCH   8   9
ENDBRANCH   7   8
ENDBRANCH   6   7
ENDBRANCH   5   6
ENDBRANCH   4   5
ENDBRANCH   3   4
ENDBRANCH   2   3
ENDBRANCH   1   2
BRANCH   1  15
ATOM     15  C   UNL     1     -18.788 -11.796   2.910  1.00  0.00     0.000 C 
BRANCH  15  16
ATOM     16  C   UNL     1     -19.389 -13.046   2.228  1.00  0.00     0.000 C 
BRANCH  16  17
ATOM     17  C   UNL     1     -19.812 -12.809   0.765  1.00  0.00     0.000 C 
BRANCH  17  18
ATOM     18  C   UNL     1     -21.290 -12.427   0.572  1.00  0.00    -0.000 C 
BRANCH  18  19
ATOM     19  C   UNL     1     -22.168 -12.829   1.769  1.00  0.00    -0.000 C 
BRANCH  19  20
ATOM     20  C   UNL     1     -23.646 -13.004   1.384  1.00  0.00    -0.000 C 
BRANCH  20  21
ATOM     21  C   UNL     1     -24.568 -13.125   2.606  1.00  0.00    -0.000 C 
BRANCH  21  22
ATOM     22  C   UNL     1     -25.027 -11.743   3.087  1.00  0.00    -0.000 C 
BRANCH  22  23
ATOM     23  C   UNL     1     -25.564 -10.903   1.921  1.00  0.00    -0.000 C 
BRANCH  23  24
ATOM     24  C   UNL     1     -25.363  -9.403   2.186  1.00  0.00    -0.000 C 
BRANCH  24  25
ATOM     25  C   UNL     1     -24.789  -8.661   0.971  1.00  0.00    -0.003 C 
ATOM     26  C   UNL     1     -25.841  -7.839   0.227  1.00  0.00     0.004 C 
ENDBRANCH  24  25
ENDBRANCH  23  24
ENDBRANCH  22  23
ENDBRANCH  21  22
ENDBRANCH  20  21
ENDBRANCH  19  20
ENDBRANCH  18  19
ENDBRANCH  17  18
ENDBRANCH  16  17
ENDBRANCH  15  16
ENDBRANCH   1  15
TORSDOF 22
ENDMDL
MODEL 7
REMARK VINA RESULT:    -1.696     14.889     18.139
REMARK INTER + INTRA:          -3.153
REMARK INTER:                  -1.765
REMARK INTRA:                  -1.387
REMARK UNBOUND:                 0.725
REMARK SMILES CCCCCCCCCCCCCCCCCCCCCCCC(=O)[O-]
REMARK SMILES IDX 13 1 14 2 15 3 16 4 17 5 18 6 19 7 20 8 21 9 22 10 23 11
REMARK SMILES IDX 24 12 25 13 26 14 12 15 11 16 10 17 9 18 8 19 7 20 6 21 5 22
REMARK SMILES IDX 4 23 3 24 2 25 1 26
REMARK H PARENT
REMARK Flexibility Score: inf
ROOT
ATOM      1  C   UNL     1     -25.984   3.117   4.200  1.00  0.00     0.000 C 
ENDROOT
BRANCH   1   2
ATOM      2  C   UNL     1     -25.696   1.830   3.406  1.00  0.00     0.000 C 
BRANCH   2   3
ATOM      3  C   UNL     1     -26.091   1.944   1.922  1.00  0.00     0.000 C 
BRANCH   3   4
ATOM      4  C   UNL     1     -25.545   3.186   1.193  1.00  0.00     0.000 C 
BRANCH   4   5
ATOM      5  C   UNL     1     -24.128   2.977   0.631  1.00  0.00     0.000 C 
BRANCH   5   6
ATOM      6  C   UNL     1     -23.042   3.069   1.716  1.00  0.00     0.000 C 
BRANCH   6   7
ATOM      7  C   UNL     1     -21.620   2.915   1.146  1.00  0.00     0.000 C 
BRANCH   7   8
ATOM      8  C   UNL     1     -21.548   1.894  -0.001  1.00  0.00     0.000 C 
BRANCH   8   9
ATOM      9  C   UNL     1     -20.752   0.634   0.381  1.00  0.00     0.000 C 
BRANCH   9  10
ATOM     10  C   UNL     1     -21.319  -0.069   1.625  1.00  0.00     0.006 C 
BRANCH  10  11
ATOM     11  C   UNL     1     -21.577  -1.564   1.398  1.00  0.00     0.053 C 
BRANCH  11  12
ATOM     12  C   UNL     1     -22.700  -1.759   0.430  1.00  0.00     0.041 C 
ATOM     13  O   UNL     1     -23.472  -0.802   0.155  1.00  0.00    -0.550 OA
ATOM     14  O   UNL     1     -22.932  -3.011  -0.124  1.00  0.00    -0.550 OA
ENDBRANCH  11  12
ENDBRANCH  10  11
ENDBRANCH   9  10
ENDBRANCH   8   9
ENDBRANCH   7   8
ENDBRANCH   6   7
ENDBRANCH   5   6
ENDBRANCH   4   5
ENDBRANCH   3   4
ENDBRANCH   2   3
ENDBRANCH   1   2
BRANCH   1  15
ATOM     15  C   UNL     1     -26.121   4.347   3.285  1.00  0.00     0.000 C 
BRANCH  15  16
ATOM     16  C   UNL     1     -25.754   5.677   3.981  1.00  0.00     0.000 C 
BRANCH  16  17
ATOM     17  C   UNL     1     -24.288   5.745   4.452  1.00  0.00     0.000 C 
BRANCH  17  18
ATOM     18  C   UNL     1     -23.310   6.364   3.438  1.00  0.00    -0.000 C 
BRANCH  18  19
ATOM     19  C   UNL     1     -24.029   7.125   2.309  1.00  0.00    -0.000 C 
BRANCH  19  20
ATOM     20  C   UNL     1     -23.914   6.412   0.952  1.00  0.00    -0.000 C 
BRANCH  20  21
ATOM     21  C   UNL     1     -22.822   7.015   0.055  1.00  0.00    -0.000 C 
BRANCH  21  22
ATOM     22  C   UNL     1     -21.504   6.247   0.202  1.00  0.00    -0.000 C 
BRANCH  22  23
ATOM     23  C   UNL     1     -20.516   7.009   1.094  1.00  0.00    -0.000 C 
BRANCH  23  24
ATOM     24  C   UNL     1     -19.065   6.681   0.713  1.00  0.00    -0.000 C 
BRANCH  24  25
ATOM     25  C   UNL     1     -18.949   5.400  -0.125  1.00  0.00    -0.003 C 
ATOM     26  C   UNL     1     -17.823   4.481   0.350  1.00  0.00     0.004 C 
ENDBRANCH  24  25
ENDBRANCH  23  24
ENDBRANCH  22  23
ENDBRANCH  21  22
ENDBRANCH  20  21
ENDBRANCH  19  20
ENDBRANCH  18  19
ENDBRANCH  17  18
ENDBRANCH  16  17
ENDBRANCH  15  16
ENDBRANCH   1  15
TORSDOF 22
ENDMDL
