MODEL 1
REMARK VINA RESULT:     6.890      0.000      0.000
REMARK INTER + INTRA:          12.147
REMARK INTER:                  12.932
REMARK INTRA:                  -0.785
REMARK UNBOUND:                -0.785
REMARK SMILES CCCCCCCCC=CCCCCCCCC(=O)[O-]
REMARK SMILES IDX 10 1 9 2 11 3 12 4 13 5 14 6 15 7 16 8 17 9 18 10 19 11
REMARK SMILES IDX 20 12 8 13 7 14 6 15 5 16 4 17 3 18 2 19 1 20
REMARK H PARENT
REMARK Flexibility Score: inf
ROOT
ATOM      1  C   UNL     1     -37.583  24.884   7.017  1.00  0.00    -0.031 C 
ATOM      2  C   UNL     1     -37.860  26.049   7.620  1.00  0.00    -0.031 C 
ENDROOT
BRANCH   1   3
ATOM      3  C   UNL     1     -38.615  23.792   6.947  1.00  0.00     0.027 C 
BRANCH   3   4
ATOM      4  C   UNL     1     -39.049  23.350   8.352  1.00  0.00     0.004 C 
BRANCH   4   5
ATOM      5  C   UNL     1     -39.725  21.969   8.354  1.00  0.00     0.000 C 
BRANCH   5   6
ATOM      6  C   UNL     1     -41.163  22.016   8.899  1.00  0.00     0.000 C 
BRANCH   6   7
ATOM      7  C   UNL     1     -41.957  23.220   8.371  1.00  0.00     0.000 C 
BRANCH   7   8
ATOM      8  C   UNL     1     -42.125  23.192   6.842  1.00  0.00     0.006 C 
BRANCH   8   9
ATOM      9  C   UNL     1     -42.112  24.599   6.230  1.00  0.00     0.053 C 
BRANCH   9  10
ATOM     10  C   UNL     1     -41.615  24.589   4.817  1.00  0.00     0.041 C 
ATOM     11  O   UNL     1     -40.810  23.699   4.436  1.00  0.00    -0.550 OA
ATOM     12  O   UNL     1     -42.065  25.543   3.913  1.00  0.00    -0.550 OA
ENDBRANCH   9  10
ENDBRANCH   8   9
ENDBRANCH   7   8
ENDBRANCH   6   7
ENDBRANCH   5   6
ENDBRANCH   4   5
ENDBRANCH   3   4
ENDBRANCH   1   3
BRANCH   2  13
ATOM     13  C   UNL     1     -36.847  27.159   7.702  1.00  0.00     0.027 C 
BRANCH  13  14
ATOM     14  C   UNL     1     -35.742  27.029   6.639  1.00  0.00     0.004 C 
BRANCH  14  15
ATOM     15  C   UNL     1     -34.708  25.923   6.930  1.00  0.00     0.000 C 
BRANCH  15  16
ATOM     16  C   UNL     1     -34.116  25.937   8.355  1.00  0.00     0.000 C 
BRANCH  16  17
ATOM     17  C   UNL     1     -33.133  24.795   8.666  1.00  0.00    -0.000 C 
BRANCH  17  18
ATOM     18  C   UNL     1     -32.212  24.460   7.480  1.00  0.00    -0.000 C 
BRANCH  18  19
ATOM     19  C   UNL     1     -30.797  25.032   7.654  1.00  0.00    -0.003 C 
ATOM     20  C   UNL     1     -30.557  26.287   6.814  1.00  0.00     0.004 C 
ENDBRANCH  18  19
ENDBRANCH  17  18
ENDBRANCH  16  17
ENDBRANCH  15  16
ENDBRANCH  14  15
ENDBRANCH  13  14
ENDBRANCH   2  13
TORSDOF 15
ENDMDL
MODEL 2
REMARK VINA RESULT:     7.657      3.703      8.348
REMARK INTER + INTRA:          13.587
REMARK INTER:                  12.429
REMARK INTRA:                   1.158
REMARK UNBOUND:                -0.785
REMARK SMILES CCCCCCCCC=CCCCCCCCC(=O)[O-]
REMARK SMILES IDX 10 1 9 2 11 3 12 4 13 5 14 6 15 7 16 8 17 9 18 10 19 11
REMARK SMILES IDX 20 12 8 13 7 14 6 15 5 16 4 17 3 18 2 19 1 20
REMARK H PARENT
REMARK Flexibility Score: inf
ROOT
ATOM      1  C   UNL     1     -38.728  23.580   7.385  1.00  0.00    -0.031 C 
ATOM      2  C   UNL     1     -39.541  23.421   8.439  1.00  0.00    -0.031 C 
ENDROOT
BRANCH   1   3
ATOM      3  C   UNL     1     -38.138  24.928   7.070  1.00  0.00     0.027 C 
BRANCH   3   4
ATOM      4  C   UNL     1     -36.625  24.826   6.828  1.00  0.00     0.004 C 
BRANCH   4   5
ATOM      5  C   UNL     1     -35.999  26.172   6.429  1.00  0.00     0.000 C 
BRANCH   5   6
ATOM      6  C   UNL     1     -35.023  26.707   7.492  1.00  0.00     0.000 C 
BRANCH   6   7
ATOM      7  C   UNL     1     -34.900  25.774   8.706  1.00  0.00     0.000 C 
BRANCH   7   8
ATOM      8  C   UNL     1     -33.538  25.059   8.765  1.00  0.00     0.006 C 
BRANCH   8   9
ATOM      9  C   UNL     1     -32.782  25.139   7.432  1.00  0.00     0.053 C 
BRANCH   9  10
ATOM     10  C   UNL     1     -31.341  25.494   7.629  1.00  0.00     0.041 C 
ATOM     11  O   UNL     1     -30.455  24.971   6.904  1.00  0.00    -0.550 OA
ATOM     12  O   UNL     1     -30.978  26.427   8.593  1.00  0.00    -0.550 OA
ENDBRANCH   9  10
ENDBRANCH   8   9
ENDBRANCH   7   8
ENDBRANCH   6   7
ENDBRANCH   5   6
ENDBRANCH   4   5
ENDBRANCH   3   4
ENDBRANCH   1   3
BRANCH   2  13
ATOM     13  C   UNL     1     -40.144  22.084   8.779  1.00  0.00     0.027 C 
BRANCH  13  14
ATOM     14  C   UNL     1     -41.631  21.992   8.394  1.00  0.00     0.004 C 
BRANCH  14  15
ATOM     15  C   UNL     1     -42.125  23.139   7.490  1.00  0.00     0.000 C 
BRANCH  15  16
ATOM     16  C   UNL     1     -41.910  24.558   8.056  1.00  0.00     0.000 C 
BRANCH  16  17
ATOM     17  C   UNL     1     -41.762  25.667   6.999  1.00  0.00    -0.000 C 
BRANCH  17  18
ATOM     18  C   UNL     1     -42.125  25.193   5.581  1.00  0.00    -0.000 C 
BRANCH  18  19
ATOM     19  C   UNL     1     -41.204  24.068   5.084  1.00  0.00    -0.003 C 
ATOM     20  C   UNL     1     -41.977  22.872   4.527  1.00  0.00     0.004 C 
ENDBRANCH  18  19
ENDBRANCH  17  18
ENDBRANCH  16  17
ENDBRANCH  15  16
ENDBRANCH  14  15
ENDBRANCH  13  14
ENDBRANCH   2  13
TORSDOF 15
ENDMDL
MODEL 3
REMARK VINA RESULT:     8.082      1.081      1.533
REMARK INTER + INTRA:          14.384
REMARK INTER:                  15.301
REMARK INTRA:                  -0.917
REMARK UNBOUND:                -0.785
REMARK SMILES CCCCCCCCC=CCCCCCCCC(=O)[O-]
REMARK SMILES IDX 10 1 9 2 11 3 12 4 13 5 14 6 15 7 16 8 17 9 18 10 19 11
REMARK SMILES IDX 20 12 8 13 7 14 6 15 5 16 4 17 3 18 2 19 1 20
REMARK H PARENT
REMARK Flexibility Score: inf
ROOT
ATOM      1  C   UNL     1     -37.283  24.431   6.224  1.00  0.00    -0.031 C 
ATOM      2  C   UNL     1     -36.947  25.453   7.024  1.00  0.00    -0.031 C 
ENDROOT
BRANCH   1   3
ATOM      3  C   UNL     1     -38.627  23.767   6.353  1.00  0.00     0.027 C 
BRANCH   3   4
ATOM      4  C   UNL     1     -38.764  23.050   7.704  1.00  0.00     0.004 C 
BRANCH   4   5
ATOM      5  C   UNL     1     -39.868  23.656   8.585  1.00  0.00     0.000 C 
BRANCH   5   6
ATOM      6  C   UNL     1     -41.281  23.322   8.074  1.00  0.00     0.000 C 
BRANCH   6   7
ATOM      7  C   UNL     1     -42.124  24.578   7.804  1.00  0.00     0.000 C 
BRANCH   7   8
ATOM      8  C   UNL     1     -41.441  25.548   6.825  1.00  0.00     0.006 C 
BRANCH   8   9
ATOM      9  C   UNL     1     -42.124  25.561   5.450  1.00  0.00     0.053 C 
BRANCH   9  10
ATOM     10  C   UNL     1     -41.666  24.425   4.589  1.00  0.00     0.041 C 
ATOM     11  O   UNL     1     -41.019  24.652   3.533  1.00  0.00    -0.550 OA
ATOM     12  O   UNL     1     -41.926  23.114   4.969  1.00  0.00    -0.550 OA
ENDBRANCH   9  10
ENDBRANCH   8   9
ENDBRANCH   7   8
ENDBRANCH   6   7
ENDBRANCH   5   6
ENDBRANCH   4   5
ENDBRANCH   3   4
ENDBRANCH   1   3
BRANCH   2  13
ATOM     13  C   UNL     1     -35.610  26.137   6.915  1.00  0.00     0.027 C 
BRANCH  13  14
ATOM     14  C   UNL     1     -35.077  26.613   8.278  1.00  0.00     0.004 C 
BRANCH  14  15
ATOM     15  C   UNL     1     -34.420  25.504   9.125  1.00  0.00     0.000 C 
BRANCH  15  16
ATOM     16  C   UNL     1     -32.893  25.367   8.952  1.00  0.00     0.000 C 
BRANCH  16  17
ATOM     17  C   UNL     1     -32.443  24.585   7.705  1.00  0.00    -0.000 C 
BRANCH  17  18
ATOM     18  C   UNL     1     -30.965  24.826   7.350  1.00  0.00    -0.000 C 
BRANCH  18  19
ATOM     19  C   UNL     1     -30.560  26.301   7.490  1.00  0.00    -0.003 C 
ATOM     20  C   UNL     1     -30.638  27.065   6.168  1.00  0.00     0.004 C 
ENDBRANCH  18  19
ENDBRANCH  17  18
ENDBRANCH  16  17
ENDBRANCH  15  16
ENDBRANCH  14  15
ENDBRANCH  13  14
ENDBRANCH   2  13
TORSDOF 15
ENDMDL
MODEL 4
REMARK VINA RESULT:     8.206      3.675      8.295
REMARK INTER + INTRA:          14.617
REMARK INTER:                  15.852
REMARK INTRA:                  -1.234
REMARK UNBOUND:                -0.785
REMARK SMILES CCCCCCCCC=CCCCCCCCC(=O)[O-]
REMARK SMILES IDX 10 1 9 2 11 3 12 4 13 5 14 6 15 7 16 8 17 9 18 10 19 11
REMARK SMILES IDX 20 12 8 13 7 14 6 15 5 16 4 17 3 18 2 19 1 20
REMARK H PARENT
REMARK Flexibility Score: inf
ROOT
ATOM      1  C   UNL     1     -37.978  24.777   7.228  1.00  0.00    -0.031 C 
ATOM      2  C   UNL     1     -38.306  23.546   7.647  1.00  0.00    -0.031 C 
ENDROOT
BRANCH   1   3
ATOM      3  C   UNL     1     -36.804  24.987   6.311  1.00  0.00     0.027 C 
BRANCH   3   4
ATOM      4  C   UNL     1     -36.053  26.279   6.660  1.00  0.00     0.004 C 
BRANCH   4   5
ATOM      5  C   UNL     1     -36.469  26.854   8.024  1.00  0.00     0.000 C 
BRANCH   5   6
ATOM      6  C   UNL     1     -35.391  26.651   9.104  1.00  0.00     0.000 C 
BRANCH   6   7
ATOM      7  C   UNL     1     -34.597  25.351   8.909  1.00  0.00     0.000 C 
BRANCH   7   8
ATOM      8  C   UNL     1     -33.078  25.591   8.842  1.00  0.00     0.006 C 
BRANCH   8   9
ATOM      9  C   UNL     1     -32.393  24.687   7.808  1.00  0.00     0.053 C 
BRANCH   9  10
ATOM     10  C   UNL     1     -31.093  25.264   7.338  1.00  0.00     0.041 C 
ATOM     11  O   UNL     1     -30.142  24.503   7.016  1.00  0.00    -0.550 OA
ATOM     12  O   UNL     1     -30.941  26.640   7.226  1.00  0.00    -0.550 OA
ENDBRANCH   9  10
ENDBRANCH   8   9
ENDBRANCH   7   8
ENDBRANCH   6   7
ENDBRANCH   5   6
ENDBRANCH   4   5
ENDBRANCH   3   4
ENDBRANCH   1   3
BRANCH   2  13
ATOM     13  C   UNL     1     -39.476  23.308   8.563  1.00  0.00     0.027 C 
BRANCH  13  14
ATOM     14  C   UNL     1     -40.688  24.192   8.216  1.00  0.00     0.004 C 
BRANCH  14  15
ATOM     15  C   UNL     1     -41.838  23.444   7.513  1.00  0.00     0.000 C 
BRANCH  15  16
ATOM     16  C   UNL     1     -41.432  22.652   6.254  1.00  0.00     0.000 C 
BRANCH  16  17
ATOM     17  C   UNL     1     -40.739  23.479   5.156  1.00  0.00    -0.000 C 
BRANCH  17  18
ATOM     18  C   UNL     1     -41.731  24.296   4.309  1.00  0.00    -0.000 C 
BRANCH  18  19
ATOM     19  C   UNL     1     -42.046  25.665   4.931  1.00  0.00    -0.003 C 
ATOM     20  C   UNL     1     -42.102  26.789   3.895  1.00  0.00     0.004 C 
ENDBRANCH  18  19
ENDBRANCH  17  18
ENDBRANCH  16  17
ENDBRANCH  15  16
ENDBRANCH  14  15
ENDBRANCH  13  14
ENDBRANCH   2  13
TORSDOF 15
ENDMDL
MODEL 5
REMARK VINA RESULT:     9.749      3.553      8.083
REMARK INTER + INTRA:          17.513
REMARK INTER:                  17.588
REMARK INTRA:                  -0.075
REMARK UNBOUND:                -0.785
REMARK SMILES CCCCCCCCC=CCCCCCCCC(=O)[O-]
REMARK SMILES IDX 10 1 9 2 11 3 12 4 13 5 14 6 15 7 16 8 17 9 18 10 19 11
REMARK SMILES IDX 20 12 8 13 7 14 6 15 5 16 4 17 3 18 2 19 1 20
REMARK H PARENT
REMARK Flexibility Score: inf
ROOT
ATOM      1  C   UNL     1     -39.612  25.465   6.967  1.00  0.00    -0.031 C 
ATOM      2  C   UNL     1     -40.768  25.666   7.614  1.00  0.00    -0.031 C 
ENDROOT
BRANCH   1   3
ATOM      3  C   UNL     1     -38.384  25.018   7.712  1.00  0.00     0.027 C 
BRANCH   3   4
ATOM      4  C   UNL     1     -37.333  24.441   6.753  1.00  0.00     0.004 C 
BRANCH   4   5
ATOM      5  C   UNL     1     -36.089  25.334   6.634  1.00  0.00     0.000 C 
BRANCH   5   6
ATOM      6  C   UNL     1     -35.832  26.164   7.904  1.00  0.00     0.000 C 
BRANCH   6   7
ATOM      7  C   UNL     1     -35.195  25.336   9.032  1.00  0.00     0.000 C 
BRANCH   7   8
ATOM      8  C   UNL     1     -33.662  25.460   9.061  1.00  0.00     0.006 C 
BRANCH   8   9
ATOM      9  C   UNL     1     -33.063  25.585   7.653  1.00  0.00     0.053 C 
BRANCH   9  10
ATOM     10  C   UNL     1     -31.758  24.858   7.536  1.00  0.00     0.041 C 
ATOM     11  O   UNL     1     -31.672  23.651   7.883  1.00  0.00    -0.550 OA
ATOM     12  O   UNL     1     -30.644  25.506   7.016  1.00  0.00    -0.550 OA
ENDBRANCH   9  10
ENDBRANCH   8   9
ENDBRANCH   7   8
ENDBRANCH   6   7
ENDBRANCH   5   6
ENDBRANCH   4   5
ENDBRANCH   3   4
ENDBRANCH   1   3
BRANCH   2  13
ATOM     13  C   UNL     1     -42.012  26.111   6.892  1.00  0.00     0.027 C 
BRANCH  13  14
ATOM     14  C   UNL     1     -42.037  25.657   5.422  1.00  0.00     0.004 C 
BRANCH  14  15
ATOM     15  C   UNL     1     -41.202  24.393   5.135  1.00  0.00     0.000 C 
BRANCH  15  16
ATOM     16  C   UNL     1     -42.020  23.133   4.784  1.00  0.00     0.000 C 
BRANCH  16  17
ATOM     17  C   UNL     1     -42.114  22.081   5.904  1.00  0.00    -0.000 C 
BRANCH  17  18
ATOM     18  C   UNL     1     -40.897  22.100   6.844  1.00  0.00    -0.000 C 
BRANCH  18  19
ATOM     19  C   UNL     1     -41.263  22.538   8.270  1.00  0.00    -0.003 C 
ATOM     20  C   UNL     1     -41.929  21.426   9.080  1.00  0.00     0.004 C 
ENDBRANCH  18  19
ENDBRANCH  17  18
ENDBRANCH  16  17
ENDBRANCH  15  16
ENDBRANCH  14  15
ENDBRANCH  13  14
ENDBRANCH   2  13
TORSDOF 15
ENDMDL
