MODEL 1
REMARK VINA RESULT:    -4.482      0.000      0.000
REMARK INTER + INTRA:         -12.712
REMARK INTER:                  -9.723
REMARK INTRA:                  -2.989
REMARK UNBOUND:                -2.989
REMARK SMILES CCCCCCCCCCCCCCCCCCCCCC(=O)[O-]
REMARK SMILES IDX 12 1 11 2 10 3 9 4 8 5 7 6 6 7 5 8 4 9 3 10 2 11 1 12 13 13
REMARK SMILES IDX 14 14 15 15 16 16 17 17 18 18 19 19 20 20 21 21 22 22 23 23
REMARK SMILES IDX 24 24
REMARK H PARENT
REMARK Flexibility Score: inf
ROOT
ATOM      1  C   UNL     1      98.420  83.241  81.921  1.00  0.00     0.000 C 
ENDROOT
BRANCH   1   2
ATOM      2  C   UNL     1      97.386  84.353  81.677  1.00  0.00     0.000 C 
BRANCH   2   3
ATOM      3  C   UNL     1      97.954  85.515  80.847  1.00  0.00     0.000 C 
BRANCH   3   4
ATOM      4  C   UNL     1      96.895  86.580  80.521  1.00  0.00    -0.000 C 
BRANCH   4   5
ATOM      5  C   UNL     1      96.062  86.231  79.276  1.00  0.00    -0.000 C 
BRANCH   5   6
ATOM      6  C   UNL     1      94.646  85.707  79.605  1.00  0.00    -0.000 C 
BRANCH   6   7
ATOM      7  C   UNL     1      94.523  84.171  79.582  1.00  0.00    -0.000 C 
BRANCH   7   8
ATOM      8  C   UNL     1      93.158  83.616  80.036  1.00  0.00    -0.000 C 
BRANCH   8   9
ATOM      9  C   UNL     1      92.132  84.703  80.415  1.00  0.00    -0.000 C 
BRANCH   9  10
ATOM     10  C   UNL     1      90.791  84.096  80.868  1.00  0.00    -0.000 C 
BRANCH  10  11
ATOM     11  C   UNL     1      89.609  84.559  80.002  1.00  0.00    -0.003 C 
ATOM     12  C   UNL     1      88.395  83.637  80.116  1.00  0.00     0.004 C 
ENDBRANCH  10  11
ENDBRANCH   9  10
ENDBRANCH   8   9
ENDBRANCH   7   8
ENDBRANCH   6   7
ENDBRANCH   5   6
ENDBRANCH   4   5
ENDBRANCH   3   4
ENDBRANCH   2   3
ENDBRANCH   1   2
BRANCH   1  13
ATOM     13  C   UNL     1      99.872  83.743  81.820  1.00  0.00     0.000 C 
BRANCH  13  14
ATOM     14  C   UNL     1     100.554  84.059  83.166  1.00  0.00     0.000 C 
BRANCH  14  15
ATOM     15  C   UNL     1     100.736  85.557  83.466  1.00  0.00     0.000 C 
BRANCH  15  16
ATOM     16  C   UNL     1      99.534  86.165  84.201  1.00  0.00     0.000 C 
BRANCH  16  17
ATOM     17  C   UNL     1      98.888  85.133  85.139  1.00  0.00     0.000 C 
BRANCH  17  18
ATOM     18  C   UNL     1      97.398  85.412  85.392  1.00  0.00     0.000 C 
BRANCH  18  19
ATOM     19  C   UNL     1      96.849  86.541  84.501  1.00  0.00     0.000 C 
BRANCH  19  20
ATOM     20  C   UNL     1      95.325  86.696  84.613  1.00  0.00     0.006 C 
BRANCH  20  21
ATOM     21  C   UNL     1      94.584  86.162  83.382  1.00  0.00     0.053 C 
BRANCH  21  22
ATOM     22  C   UNL     1      93.111  86.376  83.529  1.00  0.00     0.041 C 
ATOM     23  O   UNL     1      92.366  85.429  83.897  1.00  0.00    -0.550 OA
ATOM     24  O   UNL     1      92.567  87.635  83.316  1.00  0.00    -0.550 OA
ENDBRANCH  21  22
ENDBRANCH  20  21
ENDBRANCH  19  20
ENDBRANCH  18  19
ENDBRANCH  17  18
ENDBRANCH  16  17
ENDBRANCH  15  16
ENDBRANCH  14  15
ENDBRANCH  13  14
ENDBRANCH   1  13
TORSDOF 20
ENDMDL
MODEL 2
REMARK VINA RESULT:    -4.482      1.774      4.402
REMARK INTER + INTRA:         -12.712
REMARK INTER:                  -9.646
REMARK INTRA:                  -3.065
REMARK UNBOUND:                -2.989
REMARK SMILES CCCCCCCCCCCCCCCCCCCCCC(=O)[O-]
REMARK SMILES IDX 12 1 11 2 10 3 9 4 8 5 7 6 6 7 5 8 4 9 3 10 2 11 1 12 13 13
REMARK SMILES IDX 14 14 15 15 16 16 17 17 18 18 19 19 20 20 21 21 22 22 23 23
REMARK SMILES IDX 24 24
REMARK H PARENT
REMARK Flexibility Score: inf
ROOT
ATOM      1  C   UNL     1      96.635  87.295  79.959  1.00  0.00     0.000 C 
ENDROOT
BRANCH   1   2
ATOM      2  C   UNL     1      95.708  86.452  79.066  1.00  0.00     0.000 C 
BRANCH   2   3
ATOM      3  C   UNL     1      94.574  85.783  79.858  1.00  0.00     0.000 C 
BRANCH   3   4
ATOM      4  C   UNL     1      94.610  84.250  79.760  1.00  0.00    -0.000 C 
BRANCH   4   5
ATOM      5  C   UNL     1      93.256  83.600  80.091  1.00  0.00    -0.000 C 
BRANCH   5   6
ATOM      6  C   UNL     1      92.075  84.597  80.101  1.00  0.00    -0.000 C 
BRANCH   6   7
ATOM      7  C   UNL     1      90.920  84.194  81.039  1.00  0.00    -0.000 C 
BRANCH   7   8
ATOM      8  C   UNL     1      90.602  85.205  82.158  1.00  0.00    -0.000 C 
BRANCH   8   9
ATOM      9  C   UNL     1      91.193  84.829  83.532  1.00  0.00    -0.000 C 
BRANCH   9  10
ATOM     10  C   UNL     1      92.111  85.935  84.086  1.00  0.00    -0.000 C 
BRANCH  10  11
ATOM     11  C   UNL     1      93.442  86.036  83.326  1.00  0.00    -0.003 C 
ATOM     12  C   UNL     1      93.904  87.481  83.132  1.00  0.00     0.004 C 
ENDBRANCH  10  11
ENDBRANCH   9  10
ENDBRANCH   8   9
ENDBRANCH   7   8
ENDBRANCH   6   7
ENDBRANCH   5   6
ENDBRANCH   4   5
ENDBRANCH   3   4
ENDBRANCH   2   3
ENDBRANCH   1   2
BRANCH   1  13
ATOM     13  C   UNL     1      97.036  86.570  81.256  1.00  0.00     0.000 C 
BRANCH  13  14
ATOM     14  C   UNL     1      98.009  85.388  81.075  1.00  0.00     0.000 C 
BRANCH  14  15
ATOM     15  C   UNL     1      97.606  84.096  81.808  1.00  0.00     0.000 C 
BRANCH  15  16
ATOM     16  C   UNL     1      98.815  83.237  82.203  1.00  0.00     0.000 C 
BRANCH  16  17
ATOM     17  C   UNL     1     100.126  83.894  81.744  1.00  0.00     0.000 C 
BRANCH  17  18
ATOM     18  C   UNL     1     101.026  84.308  82.919  1.00  0.00     0.000 C 
BRANCH  18  19
ATOM     19  C   UNL     1     100.366  84.052  84.286  1.00  0.00     0.000 C 
BRANCH  19  20
ATOM     20  C   UNL     1     100.148  85.343  85.090  1.00  0.00     0.006 C 
BRANCH  20  21
ATOM     21  C   UNL     1      99.237  86.342  84.368  1.00  0.00     0.053 C 
BRANCH  21  22
ATOM     22  C   UNL     1      97.852  86.282  84.931  1.00  0.00     0.041 C 
ATOM     23  O   UNL     1      97.216  87.344  85.163  1.00  0.00    -0.550 OA
ATOM     24  O   UNL     1      97.240  85.054  85.143  1.00  0.00    -0.550 OA
ENDBRANCH  21  22
ENDBRANCH  20  21
ENDBRANCH  19  20
ENDBRANCH  18  19
ENDBRANCH  17  18
ENDBRANCH  16  17
ENDBRANCH  15  16
ENDBRANCH  14  15
ENDBRANCH  13  14
ENDBRANCH   1  13
TORSDOF 20
ENDMDL
MODEL 3
REMARK VINA RESULT:    -4.401      2.762      4.109
REMARK INTER + INTRA:         -12.536
REMARK INTER:                  -9.342
REMARK INTRA:                  -3.195
REMARK UNBOUND:                -2.989
REMARK SMILES CCCCCCCCCCCCCCCCCCCCCC(=O)[O-]
REMARK SMILES IDX 12 1 11 2 10 3 9 4 8 5 7 6 6 7 5 8 4 9 3 10 2 11 1 12 13 13
REMARK SMILES IDX 14 14 15 15 16 16 17 17 18 18 19 19 20 20 21 21 22 22 23 23
REMARK SMILES IDX 24 24
REMARK H PARENT
REMARK Flexibility Score: inf
ROOT
ATOM      1  C   UNL     1     102.207  87.050  83.201  1.00  0.00     0.000 C 
ENDROOT
BRANCH   1   2
ATOM      2  C   UNL     1     101.316  88.146  82.593  1.00  0.00     0.000 C 
BRANCH   2   3
ATOM      3  C   UNL     1      99.820  87.891  82.832  1.00  0.00     0.000 C 
BRANCH   3   4
ATOM      4  C   UNL     1      98.930  88.563  81.775  1.00  0.00    -0.000 C 
BRANCH   4   5
ATOM      5  C   UNL     1      98.409  87.574  80.718  1.00  0.00    -0.000 C 
BRANCH   5   6
ATOM      6  C   UNL     1      96.881  87.650  80.499  1.00  0.00    -0.000 C 
BRANCH   6   7
ATOM      7  C   UNL     1      96.318  86.528  79.604  1.00  0.00    -0.000 C 
BRANCH   7   8
ATOM      8  C   UNL     1      94.975  85.931  80.068  1.00  0.00    -0.000 C 
BRANCH   8   9
ATOM      9  C   UNL     1      94.964  84.390  80.145  1.00  0.00    -0.000 C 
BRANCH   9  10
ATOM     10  C   UNL     1      93.873  83.776  79.249  1.00  0.00    -0.000 C 
BRANCH  10  11
ATOM     11  C   UNL     1      92.533  84.521  79.354  1.00  0.00    -0.003 C 
ATOM     12  C   UNL     1      91.733  84.127  80.596  1.00  0.00     0.004 C 
ENDBRANCH  10  11
ENDBRANCH   9  10
ENDBRANCH   8   9
ENDBRANCH   7   8
ENDBRANCH   6   7
ENDBRANCH   5   6
ENDBRANCH   4   5
ENDBRANCH   3   4
ENDBRANCH   2   3
ENDBRANCH   1   2
BRANCH   1  13
ATOM     13  C   UNL     1     101.396  85.885  83.799  1.00  0.00     0.000 C 
BRANCH  13  14
ATOM     14  C   UNL     1     101.633  84.512  83.139  1.00  0.00     0.000 C 
BRANCH  14  15
ATOM     15  C   UNL     1     100.369  83.654  82.953  1.00  0.00     0.000 C 
BRANCH  15  16
ATOM     16  C   UNL     1      99.702  83.870  81.588  1.00  0.00     0.000 C 
BRANCH  16  17
ATOM     17  C   UNL     1      98.240  84.312  81.757  1.00  0.00     0.000 C 
BRANCH  17  18
ATOM     18  C   UNL     1      97.775  84.276  83.222  1.00  0.00     0.000 C 
BRANCH  18  19
ATOM     19  C   UNL     1      97.002  85.544  83.627  1.00  0.00     0.000 C 
BRANCH  19  20
ATOM     20  C   UNL     1      97.513  86.155  84.941  1.00  0.00     0.006 C 
BRANCH  20  21
ATOM     21  C   UNL     1      97.386  85.193  86.128  1.00  0.00     0.053 C 
BRANCH  21  22
ATOM     22  C   UNL     1      98.663  85.159  86.907  1.00  0.00     0.041 C 
ATOM     23  O   UNL     1      98.793  85.868  87.941  1.00  0.00    -0.550 OA
ATOM     24  O   UNL     1      99.686  84.303  86.527  1.00  0.00    -0.550 OA
ENDBRANCH  21  22
ENDBRANCH  20  21
ENDBRANCH  19  20
ENDBRANCH  18  19
ENDBRANCH  17  18
ENDBRANCH  16  17
ENDBRANCH  15  16
ENDBRANCH  14  15
ENDBRANCH  13  14
ENDBRANCH   1  13
TORSDOF 20
ENDMDL
MODEL 4
REMARK VINA RESULT:    -4.367      2.168      6.489
REMARK INTER + INTRA:         -12.461
REMARK INTER:                  -8.850
REMARK INTRA:                  -3.611
REMARK UNBOUND:                -2.989
REMARK SMILES CCCCCCCCCCCCCCCCCCCCCC(=O)[O-]
REMARK SMILES IDX 12 1 11 2 10 3 9 4 8 5 7 6 6 7 5 8 4 9 3 10 2 11 1 12 13 13
REMARK SMILES IDX 14 14 15 15 16 16 17 17 18 18 19 19 20 20 21 21 22 22 23 23
REMARK SMILES IDX 24 24
REMARK H PARENT
REMARK Flexibility Score: inf
ROOT
ATOM      1  C   UNL     1      97.482  88.101  80.934  1.00  0.00     0.000 C 
ENDROOT
BRANCH   1   2
ATOM      2  C   UNL     1      96.513  87.446  79.936  1.00  0.00     0.000 C 
BRANCH   2   3
ATOM      3  C   UNL     1      96.707  85.925  79.838  1.00  0.00     0.000 C 
BRANCH   3   4
ATOM      4  C   UNL     1      97.655  85.379  80.917  1.00  0.00    -0.000 C 
BRANCH   4   5
ATOM      5  C   UNL     1      97.179  84.041  81.507  1.00  0.00    -0.000 C 
BRANCH   5   6
ATOM      6  C   UNL     1      98.310  83.215  82.162  1.00  0.00    -0.000 C 
BRANCH   6   7
ATOM      7  C   UNL     1      99.728  83.652  81.745  1.00  0.00    -0.000 C 
BRANCH   7   8
ATOM      8  C   UNL     1     100.682  83.978  82.912  1.00  0.00    -0.000 C 
BRANCH   8   9
ATOM      9  C   UNL     1     100.032  84.798  84.045  1.00  0.00    -0.000 C 
BRANCH   9  10
ATOM     10  C   UNL     1      99.734  86.245  83.609  1.00  0.00    -0.000 C 
BRANCH  10  11
ATOM     11  C   UNL     1     101.004  87.024  83.232  1.00  0.00    -0.003 C 
ATOM     12  C   UNL     1     100.713  88.470  82.829  1.00  0.00     0.004 C 
ENDBRANCH  10  11
ENDBRANCH   9  10
ENDBRANCH   8   9
ENDBRANCH   7   8
ENDBRANCH   6   7
ENDBRANCH   5   6
ENDBRANCH   4   5
ENDBRANCH   3   4
ENDBRANCH   2   3
ENDBRANCH   1   2
BRANCH   1  13
ATOM     13  C   UNL     1      96.795  89.139  81.841  1.00  0.00     0.000 C 
BRANCH  13  14
ATOM     14  C   UNL     1      95.733  88.570  82.803  1.00  0.00     0.000 C 
BRANCH  14  15
ATOM     15  C   UNL     1      96.216  87.411  83.692  1.00  0.00     0.000 C 
BRANCH  15  16
ATOM     16  C   UNL     1      95.247  86.221  83.693  1.00  0.00     0.000 C 
BRANCH  16  17
ATOM     17  C   UNL     1      93.789  86.703  83.649  1.00  0.00     0.000 C 
BRANCH  17  18
ATOM     18  C   UNL     1      92.914  85.861  82.706  1.00  0.00     0.000 C 
BRANCH  18  19
ATOM     19  C   UNL     1      93.501  85.763  81.286  1.00  0.00     0.000 C 
BRANCH  19  20
ATOM     20  C   UNL     1      93.273  84.386  80.645  1.00  0.00     0.006 C 
BRANCH  20  21
ATOM     21  C   UNL     1      93.151  84.457  79.119  1.00  0.00     0.053 C 
BRANCH  21  22
ATOM     22  C   UNL     1      91.888  85.158  78.732  1.00  0.00     0.041 C 
ATOM     23  O   UNL     1      90.772  84.710  79.108  1.00  0.00    -0.550 OA
ATOM     24  O   UNL     1      91.944  86.339  78.005  1.00  0.00    -0.550 OA
ENDBRANCH  21  22
ENDBRANCH  20  21
ENDBRANCH  19  20
ENDBRANCH  18  19
ENDBRANCH  17  18
ENDBRANCH  16  17
ENDBRANCH  15  16
ENDBRANCH  14  15
ENDBRANCH  13  14
ENDBRANCH   1  13
TORSDOF 20
ENDMDL
MODEL 5
REMARK VINA RESULT:    -4.345      2.099      5.912
REMARK INTER + INTRA:         -12.415
REMARK INTER:                  -8.919
REMARK INTRA:                  -3.496
REMARK UNBOUND:                -2.989
REMARK SMILES CCCCCCCCCCCCCCCCCCCCCC(=O)[O-]
REMARK SMILES IDX 12 1 11 2 10 3 9 4 8 5 7 6 6 7 5 8 4 9 3 10 2 11 1 12 13 13
REMARK SMILES IDX 14 14 15 15 16 16 17 17 18 18 19 19 20 20 21 21 22 22 23 23
REMARK SMILES IDX 24 24
REMARK H PARENT
REMARK Flexibility Score: inf
ROOT
ATOM      1  C   UNL     1     101.063  87.497  83.428  1.00  0.00     0.000 C 
ENDROOT
BRANCH   1   2
ATOM      2  C   UNL     1     102.472  86.881  83.450  1.00  0.00     0.000 C 
BRANCH   2   3
ATOM      3  C   UNL     1     102.446  85.346  83.375  1.00  0.00     0.000 C 
BRANCH   3   4
ATOM      4  C   UNL     1     101.166  84.747  83.979  1.00  0.00    -0.000 C 
BRANCH   4   5
ATOM      5  C   UNL     1     100.492  83.722  83.051  1.00  0.00    -0.000 C 
BRANCH   5   6
ATOM      6  C   UNL     1      99.960  84.334  81.736  1.00  0.00    -0.000 C 
BRANCH   6   7
ATOM      7  C   UNL     1      98.422  84.411  81.656  1.00  0.00    -0.000 C 
BRANCH   7   8
ATOM      8  C   UNL     1      97.685  84.179  82.990  1.00  0.00    -0.000 C 
BRANCH   8   9
ATOM      9  C   UNL     1      96.912  85.411  83.504  1.00  0.00    -0.000 C 
BRANCH   9  10
ATOM     10  C   UNL     1      97.816  86.359  84.316  1.00  0.00    -0.000 C 
BRANCH  10  11
ATOM     11  C   UNL     1      97.730  86.107  85.829  1.00  0.00    -0.003 C 
ATOM     12  C   UNL     1      96.641  85.099  86.199  1.00  0.00     0.004 C 
ENDBRANCH  10  11
ENDBRANCH   9  10
ENDBRANCH   8   9
ENDBRANCH   7   8
ENDBRANCH   6   7
ENDBRANCH   5   6
ENDBRANCH   4   5
ENDBRANCH   3   4
ENDBRANCH   2   3
ENDBRANCH   1   2
BRANCH   1  13
ATOM     13  C   UNL     1     100.791  88.319  82.155  1.00  0.00     0.000 C 
BRANCH  13  14
ATOM     14  C   UNL     1      99.415  88.083  81.501  1.00  0.00     0.000 C 
BRANCH  14  15
ATOM     15  C   UNL     1      98.354  89.153  81.817  1.00  0.00     0.000 C 
BRANCH  15  16
ATOM     16  C   UNL     1      96.983  88.824  81.212  1.00  0.00     0.000 C 
BRANCH  16  17
ATOM     17  C   UNL     1      97.037  87.513  80.414  1.00  0.00     0.000 C 
BRANCH  17  18
ATOM     18  C   UNL     1      95.706  86.745  80.441  1.00  0.00     0.000 C 
BRANCH  18  19
ATOM     19  C   UNL     1      95.695  85.549  79.472  1.00  0.00     0.000 C 
BRANCH  19  20
ATOM     20  C   UNL     1      95.074  84.289  80.094  1.00  0.00     0.006 C 
BRANCH  20  21
ATOM     21  C   UNL     1      93.901  83.741  79.275  1.00  0.00     0.053 C 
BRANCH  21  22
ATOM     22  C   UNL     1      92.656  84.518  79.566  1.00  0.00     0.041 C 
ATOM     23  O   UNL     1      92.284  84.696  80.757  1.00  0.00    -0.550 OA
ATOM     24  O   UNL     1      91.939  85.096  78.528  1.00  0.00    -0.550 OA
ENDBRANCH  21  22
ENDBRANCH  20  21
ENDBRANCH  19  20
ENDBRANCH  18  19
ENDBRANCH  17  18
ENDBRANCH  16  17
ENDBRANCH  15  16
ENDBRANCH  14  15
ENDBRANCH  13  14
ENDBRANCH   1  13
TORSDOF 20
ENDMDL
MODEL 6
REMARK VINA RESULT:    -4.327      2.601      3.568
REMARK INTER + INTRA:         -12.375
REMARK INTER:                  -9.545
REMARK INTRA:                  -2.830
REMARK UNBOUND:                -2.989
REMARK SMILES CCCCCCCCCCCCCCCCCCCCCC(=O)[O-]
REMARK SMILES IDX 12 1 11 2 10 3 9 4 8 5 7 6 6 7 5 8 4 9 3 10 2 11 1 12 13 13
REMARK SMILES IDX 14 14 15 15 16 16 17 17 18 18 19 19 20 20 21 21 22 22 23 23
REMARK SMILES IDX 24 24
REMARK H PARENT
REMARK Flexibility Score: inf
ROOT
ATOM      1  C   UNL     1      97.687  83.746  81.950  1.00  0.00     0.000 C 
ENDROOT
BRANCH   1   2
ATOM      2  C   UNL     1      97.443  85.040  82.745  1.00  0.00     0.000 C 
BRANCH   2   3
ATOM      3  C   UNL     1      97.480  86.294  81.856  1.00  0.00     0.000 C 
BRANCH   3   4
ATOM      4  C   UNL     1      97.259  85.971  80.370  1.00  0.00    -0.000 C 
BRANCH   4   5
ATOM      5  C   UNL     1      96.140  86.816  79.736  1.00  0.00    -0.000 C 
BRANCH   5   6
ATOM      6  C   UNL     1      94.956  85.977  79.206  1.00  0.00    -0.000 C 
BRANCH   6   7
ATOM      7  C   UNL     1      94.991  84.497  79.637  1.00  0.00    -0.000 C 
BRANCH   7   8
ATOM      8  C   UNL     1      93.743  83.674  79.258  1.00  0.00    -0.000 C 
BRANCH   8   9
ATOM      9  C   UNL     1      92.417  84.453  79.378  1.00  0.00    -0.000 C 
BRANCH   9  10
ATOM     10  C   UNL     1      91.636  84.068  80.648  1.00  0.00    -0.000 C 
BRANCH  10  11
ATOM     11  C   UNL     1      91.427  85.257  81.598  1.00  0.00    -0.003 C 
ATOM     12  C   UNL     1      92.711  85.671  82.319  1.00  0.00     0.004 C 
ENDBRANCH  10  11
ENDBRANCH   9  10
ENDBRANCH   8   9
ENDBRANCH   7   8
ENDBRANCH   6   7
ENDBRANCH   5   6
ENDBRANCH   4   5
ENDBRANCH   3   4
ENDBRANCH   2   3
ENDBRANCH   1   2
BRANCH   1  13
ATOM     13  C   UNL     1      99.148  83.267  82.023  1.00  0.00     0.000 C 
BRANCH  13  14
ATOM     14  C   UNL     1      99.944  83.766  83.245  1.00  0.00     0.000 C 
BRANCH  14  15
ATOM     15  C   UNL     1     101.317  84.381  82.920  1.00  0.00     0.000 C 
BRANCH  15  16
ATOM     16  C   UNL     1     101.385  85.881  83.238  1.00  0.00     0.000 C 
BRANCH  16  17
ATOM     17  C   UNL     1     101.728  86.111  84.717  1.00  0.00     0.000 C 
BRANCH  17  18
ATOM     18  C   UNL     1     100.931  87.270  85.338  1.00  0.00     0.000 C 
BRANCH  18  19
ATOM     19  C   UNL     1      99.486  87.341  84.812  1.00  0.00     0.000 C 
BRANCH  19  20
ATOM     20  C   UNL     1      98.450  86.926  85.868  1.00  0.00     0.006 C 
BRANCH  20  21
ATOM     21  C   UNL     1      98.546  85.443  86.240  1.00  0.00     0.053 C 
BRANCH  21  22
ATOM     22  C   UNL     1      98.712  85.287  87.718  1.00  0.00     0.041 C 
ATOM     23  O   UNL     1      97.748  85.529  88.493  1.00  0.00    -0.550 OA
ATOM     24  O   UNL     1      99.911  84.820  88.238  1.00  0.00    -0.550 OA
ENDBRANCH  21  22
ENDBRANCH  20  21
ENDBRANCH  19  20
ENDBRANCH  18  19
ENDBRANCH  17  18
ENDBRANCH  16  17
ENDBRANCH  15  16
ENDBRANCH  14  15
ENDBRANCH  13  14
ENDBRANCH   1  13
TORSDOF 20
ENDMDL
MODEL 7
REMARK VINA RESULT:    -4.320      1.668      5.795
REMARK INTER + INTRA:         -12.359
REMARK INTER:                  -9.523
REMARK INTRA:                  -2.837
REMARK UNBOUND:                -2.989
REMARK SMILES CCCCCCCCCCCCCCCCCCCCCC(=O)[O-]
REMARK SMILES IDX 12 1 11 2 10 3 9 4 8 5 7 6 6 7 5 8 4 9 3 10 2 11 1 12 13 13
REMARK SMILES IDX 14 14 15 15 16 16 17 17 18 18 19 19 20 20 21 21 22 22 23 23
REMARK SMILES IDX 24 24
REMARK H PARENT
REMARK Flexibility Score: inf
ROOT
ATOM      1  C   UNL     1     100.125  83.628  83.084  1.00  0.00     0.000 C 
ENDROOT
BRANCH   1   2
ATOM      2  C   UNL     1     101.544  84.032  82.650  1.00  0.00     0.000 C 
BRANCH   2   3
ATOM      3  C   UNL     1     102.064  85.265  83.407  1.00  0.00     0.000 C 
BRANCH   3   4
ATOM      4  C   UNL     1     101.086  86.449  83.347  1.00  0.00    -0.000 C 
BRANCH   4   5
ATOM      5  C   UNL     1     100.863  87.107  84.719  1.00  0.00    -0.000 C 
BRANCH   5   6
ATOM      6  C   UNL     1      99.434  86.911  85.275  1.00  0.00    -0.000 C 
BRANCH   6   7
ATOM      7  C   UNL     1      99.201  85.538  85.937  1.00  0.00    -0.000 C 
BRANCH   7   8
ATOM      8  C   UNL     1      97.774  85.303  86.472  1.00  0.00    -0.000 C 
BRANCH   8   9
ATOM      9  C   UNL     1      96.788  84.762  85.416  1.00  0.00    -0.000 C 
BRANCH   9  10
ATOM     10  C   UNL     1      95.538  85.652  85.287  1.00  0.00    -0.000 C 
BRANCH  10  11
ATOM     11  C   UNL     1      95.411  86.296  83.898  1.00  0.00    -0.003 C 
ATOM     12  C   UNL     1      95.978  87.715  83.851  1.00  0.00     0.004 C 
ENDBRANCH  10  11
ENDBRANCH   9  10
ENDBRANCH   8   9
ENDBRANCH   7   8
ENDBRANCH   6   7
ENDBRANCH   5   6
ENDBRANCH   4   5
ENDBRANCH   3   4
ENDBRANCH   2   3
ENDBRANCH   1   2
BRANCH   1  13
ATOM     13  C   UNL     1      99.121  83.627  81.917  1.00  0.00     0.000 C 
BRANCH  13  14
ATOM     14  C   UNL     1      98.167  84.837  81.869  1.00  0.00     0.000 C 
BRANCH  14  15
ATOM     15  C   UNL     1      98.421  85.818  80.710  1.00  0.00     0.000 C 
BRANCH  15  16
ATOM     16  C   UNL     1      97.230  86.751  80.452  1.00  0.00     0.000 C 
BRANCH  16  17
ATOM     17  C   UNL     1      96.208  86.087  79.518  1.00  0.00     0.000 C 
BRANCH  17  18
ATOM     18  C   UNL     1      95.070  85.391  80.281  1.00  0.00     0.000 C 
BRANCH  18  19
ATOM     19  C   UNL     1      94.583  84.111  79.577  1.00  0.00     0.000 C 
BRANCH  19  20
ATOM     20  C   UNL     1      93.088  84.160  79.227  1.00  0.00     0.006 C 
BRANCH  20  21
ATOM     21  C   UNL     1      92.187  84.015  80.458  1.00  0.00     0.053 C 
BRANCH  21  22
ATOM     22  C   UNL     1      90.886  84.718  80.234  1.00  0.00     0.041 C 
ATOM     23  O   UNL     1      89.802  84.164  80.558  1.00  0.00    -0.550 OA
ATOM     24  O   UNL     1      90.872  86.009  79.724  1.00  0.00    -0.550 OA
ENDBRANCH  21  22
ENDBRANCH  20  21
ENDBRANCH  19  20
ENDBRANCH  18  19
ENDBRANCH  17  18
ENDBRANCH  16  17
ENDBRANCH  15  16
ENDBRANCH  14  15
ENDBRANCH  13  14
ENDBRANCH   1  13
TORSDOF 20
ENDMDL
MODEL 8
REMARK VINA RESULT:    -4.317      2.883      4.392
REMARK INTER + INTRA:         -12.353
REMARK INTER:                 -10.172
REMARK INTRA:                  -2.182
REMARK UNBOUND:                -2.989
REMARK SMILES CCCCCCCCCCCCCCCCCCCCCC(=O)[O-]
REMARK SMILES IDX 12 1 11 2 10 3 9 4 8 5 7 6 6 7 5 8 4 9 3 10 2 11 1 12 13 13
REMARK SMILES IDX 14 14 15 15 16 16 17 17 18 18 19 19 20 20 21 21 22 22 23 23
REMARK SMILES IDX 24 24
REMARK H PARENT
REMARK Flexibility Score: inf
ROOT
ATOM      1  C   UNL     1      97.554  85.513  81.309  1.00  0.00     0.000 C 
ENDROOT
BRANCH   1   2
ATOM      2  C   UNL     1      96.691  85.805  80.070  1.00  0.00     0.000 C 
BRANCH   2   3
ATOM      3  C   UNL     1      95.216  85.423  80.274  1.00  0.00     0.000 C 
BRANCH   3   4
ATOM      4  C   UNL     1      94.760  84.302  79.327  1.00  0.00    -0.000 C 
BRANCH   4   5
ATOM      5  C   UNL     1      93.297  83.885  79.557  1.00  0.00    -0.000 C 
BRANCH   5   6
ATOM      6  C   UNL     1      92.276  84.992  79.209  1.00  0.00    -0.000 C 
BRANCH   6   7
ATOM      7  C   UNL     1      90.805  84.573  79.406  1.00  0.00    -0.000 C 
BRANCH   7   8
ATOM      8  C   UNL     1      90.467  84.002  80.798  1.00  0.00    -0.000 C 
BRANCH   8   9
ATOM      9  C   UNL     1      90.321  85.073  81.898  1.00  0.00    -0.000 C 
BRANCH   9  10
ATOM     10  C   UNL     1      91.542  85.104  82.836  1.00  0.00    -0.000 C 
BRANCH  10  11
ATOM     11  C   UNL     1      91.146  85.141  84.321  1.00  0.00    -0.003 C 
ATOM     12  C   UNL     1      92.290  85.600  85.226  1.00  0.00     0.004 C 
ENDBRANCH  10  11
ENDBRANCH   9  10
ENDBRANCH   8   9
ENDBRANCH   7   8
ENDBRANCH   6   7
ENDBRANCH   5   6
ENDBRANCH   4   5
ENDBRANCH   3   4
ENDBRANCH   2   3
ENDBRANCH   1   2
BRANCH   1  13
ATOM     13  C   UNL     1      97.331  84.097  81.872  1.00  0.00     0.000 C 
BRANCH  13  14
ATOM     14  C   UNL     1      98.616  83.295  82.162  1.00  0.00     0.000 C 
BRANCH  14  15
ATOM     15  C   UNL     1      99.903  83.891  81.564  1.00  0.00     0.000 C 
BRANCH  15  16
ATOM     16  C   UNL     1     101.072  83.894  82.558  1.00  0.00     0.000 C 
BRANCH  16  17
ATOM     17  C   UNL     1     100.684  84.618  83.856  1.00  0.00     0.000 C 
BRANCH  17  18
ATOM     18  C   UNL     1     100.460  86.125  83.652  1.00  0.00     0.000 C 
BRANCH  18  19
ATOM     19  C   UNL     1      99.242  86.651  84.433  1.00  0.00     0.000 C 
BRANCH  19  20
ATOM     20  C   UNL     1      98.444  85.528  85.114  1.00  0.00     0.006 C 
BRANCH  20  21
ATOM     21  C   UNL     1      98.357  85.703  86.634  1.00  0.00     0.053 C 
BRANCH  21  22
ATOM     22  C   UNL     1      99.685  85.427  87.266  1.00  0.00     0.041 C 
ATOM     23  O   UNL     1     100.372  86.372  87.737  1.00  0.00    -0.550 OA
ATOM     24  O   UNL     1     100.138  84.121  87.387  1.00  0.00    -0.550 OA
ENDBRANCH  21  22
ENDBRANCH  20  21
ENDBRANCH  19  20
ENDBRANCH  18  19
ENDBRANCH  17  18
ENDBRANCH  16  17
ENDBRANCH  15  16
ENDBRANCH  14  15
ENDBRANCH  13  14
ENDBRANCH   1  13
TORSDOF 20
ENDMDL
MODEL 9
REMARK VINA RESULT:    -4.285      2.754      4.442
REMARK INTER + INTRA:         -12.285
REMARK INTER:                 -10.032
REMARK INTRA:                  -2.253
REMARK UNBOUND:                -2.989
REMARK SMILES CCCCCCCCCCCCCCCCCCCCCC(=O)[O-]
REMARK SMILES IDX 12 1 11 2 10 3 9 4 8 5 7 6 6 7 5 8 4 9 3 10 2 11 1 12 13 13
REMARK SMILES IDX 14 14 15 15 16 16 17 17 18 18 19 19 20 20 21 21 22 22 23 23
REMARK SMILES IDX 24 24
REMARK H PARENT
REMARK Flexibility Score: inf
ROOT
ATOM      1  C   UNL     1      96.539  87.293  81.852  1.00  0.00     0.000 C 
ENDROOT
BRANCH   1   2
ATOM      2  C   UNL     1      95.346  86.454  81.362  1.00  0.00     0.000 C 
BRANCH   2   3
ATOM      3  C   UNL     1      95.576  85.862  79.963  1.00  0.00     0.000 C 
BRANCH   3   4
ATOM      4  C   UNL     1      95.260  84.360  79.898  1.00  0.00    -0.000 C 
BRANCH   4   5
ATOM      5  C   UNL     1      93.767  84.055  80.112  1.00  0.00    -0.000 C 
BRANCH   5   6
ATOM      6  C   UNL     1      92.888  84.364  78.879  1.00  0.00    -0.000 C 
BRANCH   6   7
ATOM      7  C   UNL     1      91.508  84.958  79.224  1.00  0.00    -0.000 C 
BRANCH   7   8
ATOM      8  C   UNL     1      91.155  84.964  80.725  1.00  0.00    -0.000 C 
BRANCH   8   9
ATOM      9  C   UNL     1      90.008  84.005  81.104  1.00  0.00    -0.000 C 
BRANCH   9  10
ATOM     10  C   UNL     1      88.646  84.503  80.586  1.00  0.00    -0.000 C 
BRANCH  10  11
ATOM     11  C   UNL     1      88.087  83.626  79.454  1.00  0.00    -0.003 C 
ATOM     12  C   UNL     1      87.276  82.438  79.972  1.00  0.00     0.004 C 
ENDBRANCH  10  11
ENDBRANCH   9  10
ENDBRANCH   8   9
ENDBRANCH   7   8
ENDBRANCH   6   7
ENDBRANCH   5   6
ENDBRANCH   4   5
ENDBRANCH   3   4
ENDBRANCH   2   3
ENDBRANCH   1   2
BRANCH   1  13
ATOM     13  C   UNL     1      97.780  86.438  82.168  1.00  0.00     0.000 C 
BRANCH  13  14
ATOM     14  C   UNL     1      97.511  85.171  83.003  1.00  0.00     0.000 C 
BRANCH  14  15
ATOM     15  C   UNL     1      98.005  83.858  82.369  1.00  0.00     0.000 C 
BRANCH  15  16
ATOM     16  C   UNL     1      99.446  83.955  81.852  1.00  0.00     0.000 C 
BRANCH  16  17
ATOM     17  C   UNL     1     100.451  83.619  82.964  1.00  0.00     0.000 C 
BRANCH  17  18
ATOM     18  C   UNL     1     101.665  84.562  82.973  1.00  0.00     0.000 C 
BRANCH  18  19
ATOM     19  C   UNL     1     101.335  85.942  83.571  1.00  0.00     0.000 C 
BRANCH  19  20
ATOM     20  C   UNL     1     101.393  85.951  85.107  1.00  0.00     0.006 C 
BRANCH  20  21
ATOM     21  C   UNL     1     100.003  85.940  85.751  1.00  0.00     0.053 C 
BRANCH  21  22
ATOM     22  C   UNL     1      99.884  84.798  86.710  1.00  0.00     0.041 C 
ATOM     23  O   UNL     1      99.065  84.856  87.665  1.00  0.00    -0.550 OA
ATOM     24  O   UNL     1     100.634  83.646  86.516  1.00  0.00    -0.550 OA
ENDBRANCH  21  22
ENDBRANCH  20  21
ENDBRANCH  19  20
ENDBRANCH  18  19
ENDBRANCH  17  18
ENDBRANCH  16  17
ENDBRANCH  15  16
ENDBRANCH  14  15
ENDBRANCH  13  14
ENDBRANCH   1  13
TORSDOF 20
ENDMDL
