MODEL 1
REMARK VINA RESULT:     7.235      0.000      0.000
REMARK INTER + INTRA:           8.154
REMARK INTER:                   8.292
REMARK INTRA:                  -0.138
REMARK UNBOUND:                -0.138
REMARK SMILES O=C([O-])C=Cc1ccc(O)cc1
REMARK SMILES IDX 6 1 7 2 12 3 8 4 11 5 9 6 5 7 4 8 2 9 1 10 3 11 10 12
REMARK H PARENT 10 13
REMARK Flexibility Score: inf
ROOT
ATOM      1  C   UNL     1       9.884  10.799  31.367  1.00  0.00    -0.025 A 
ATOM      2  C   UNL     1       9.477  11.931  30.640  1.00  0.00     0.012 A 
ATOM      3  C   UNL     1      11.247  10.433  31.346  1.00  0.00     0.012 A 
ATOM      4  C   UNL     1      10.408  12.697  29.932  1.00  0.00     0.047 A 
ATOM      5  C   UNL     1      12.175  11.201  30.636  1.00  0.00     0.047 A 
ATOM      6  C   UNL     1      11.760  12.334  29.929  1.00  0.00     0.115 A 
ENDROOT
BRANCH   1   7
ATOM      7  C   UNL     1       8.857  10.014  32.094  1.00  0.00     0.010 C 
ATOM      8  C   UNL     1       8.181   8.990  31.552  1.00  0.00     0.025 C 
BRANCH   8   9
ATOM      9  C   UNL     1       7.176   8.225  32.309  1.00  0.00     0.064 C 
ATOM     10  O   UNL     1       7.055   8.361  33.555  1.00  0.00    -0.545 OA
ATOM     11  O   UNL     1       6.346   7.337  31.636  1.00  0.00    -0.545 OA
ENDBRANCH   8   9
ENDBRANCH   1   7
BRANCH   6  12
ATOM     12  O   UNL     1      12.697  13.089  29.227  1.00  0.00    -0.508 OA
ATOM     13  H   UNL     1      13.615  13.284  29.611  1.00  0.00     0.293 HD
ENDBRANCH   6  12
TORSDOF 3
ENDMDL
