MODEL 1
REMARK VINA RESULT:    -3.578      0.000      0.000
REMARK INTER + INTRA:          -8.973
REMARK INTER:                  -6.506
REMARK INTRA:                  -2.467
REMARK UNBOUND:                -2.467
REMARK SMILES CCCCCCCCCCCCCCCC(=O)[O-]
REMARK SMILES IDX 9 1 10 2 11 3 12 4 13 5 14 6 15 7 16 8 17 9 18 10 8 11 7 12
REMARK SMILES IDX 6 13 5 14 4 15 3 16 2 17 1 18
REMARK H PARENT
REMARK Flexibility Score: inf
ROOT
ATOM      1  C   UNL     1      27.373   1.017   5.345  1.00  0.00     0.000 C 
ENDROOT
BRANCH   1   2
ATOM      2  C   UNL     1      27.930   1.919   6.454  1.00  0.00     0.000 C 
BRANCH   2   3
ATOM      3  C   UNL     1      26.800   2.634   7.203  1.00  0.00     0.000 C 
BRANCH   3   4
ATOM      4  C   UNL     1      26.232   1.750   8.320  1.00  0.00     0.000 C 
BRANCH   4   5
ATOM      5  C   UNL     1      24.697   1.761   8.303  1.00  0.00     0.000 C 
BRANCH   5   6
ATOM      6  C   UNL     1      24.097   0.460   7.735  1.00  0.00     0.006 C 
BRANCH   6   7
ATOM      7  C   UNL     1      23.733   0.530   6.243  1.00  0.00     0.053 C 
BRANCH   7   8
ATOM      8  C   UNL     1      22.455  -0.191   5.942  1.00  0.00     0.041 C 
ATOM      9  O   UNL     1      21.928  -0.099   4.802  1.00  0.00    -0.550 OA
ATOM     10  O   UNL     1      21.865  -0.993   6.910  1.00  0.00    -0.550 OA
ENDBRANCH   7   8
ENDBRANCH   6   7
ENDBRANCH   5   6
ENDBRANCH   4   5
ENDBRANCH   3   4
ENDBRANCH   2   3
ENDBRANCH   1   2
BRANCH   1  11
ATOM     11  C   UNL     1      27.858  -0.430   5.518  1.00  0.00     0.000 C 
BRANCH  11  12
ATOM     12  C   UNL     1      26.811  -1.330   6.191  1.00  0.00    -0.000 C 
BRANCH  12  13
ATOM     13  C   UNL     1      27.283  -1.871   7.550  1.00  0.00    -0.000 C 
BRANCH  13  14
ATOM     14  C   UNL     1      28.755  -1.537   7.845  1.00  0.00    -0.000 C 
BRANCH  14  15
ATOM     15  C   UNL     1      28.952  -0.662   9.102  1.00  0.00    -0.000 C 
BRANCH  15  16
ATOM     16  C   UNL     1      28.254  -1.259  10.337  1.00  0.00    -0.000 C 
BRANCH  16  17
ATOM     17  C   UNL     1      27.110  -0.374  10.853  1.00  0.00    -0.003 C 
ATOM     18  C   UNL     1      25.748  -1.067  10.787  1.00  0.00     0.004 C 
ENDBRANCH  16  17
ENDBRANCH  15  16
ENDBRANCH  14  15
ENDBRANCH  13  14
ENDBRANCH  12  13
ENDBRANCH  11  12
ENDBRANCH   1  11
TORSDOF 14
ENDMDL
MODEL 2
REMARK VINA RESULT:    -3.574     11.166     13.140
REMARK INTER + INTRA:          -8.966
REMARK INTER:                  -7.013
REMARK INTRA:                  -1.952
REMARK UNBOUND:                -2.467
REMARK SMILES CCCCCCCCCCCCCCCC(=O)[O-]
REMARK SMILES IDX 9 1 10 2 11 3 12 4 13 5 14 6 15 7 16 8 17 9 18 10 8 11 7 12
REMARK SMILES IDX 6 13 5 14 4 15 3 16 2 17 1 18
REMARK H PARENT
REMARK Flexibility Score: inf
ROOT
ATOM      1  C   UNL     1      25.009  -6.324  16.023  1.00  0.00     0.000 C 
ENDROOT
BRANCH   1   2
ATOM      2  C   UNL     1      23.790  -7.156  15.606  1.00  0.00     0.000 C 
BRANCH   2   3
ATOM      3  C   UNL     1      22.902  -7.476  16.813  1.00  0.00     0.000 C 
BRANCH   3   4
ATOM      4  C   UNL     1      22.511  -8.959  16.833  1.00  0.00     0.000 C 
BRANCH   4   5
ATOM      5  C   UNL     1      23.757  -9.855  16.897  1.00  0.00     0.000 C 
BRANCH   5   6
ATOM      6  C   UNL     1      23.863 -10.816  15.698  1.00  0.00     0.006 C 
BRANCH   6   7
ATOM      7  C   UNL     1      25.286 -10.971  15.135  1.00  0.00     0.053 C 
BRANCH   7   8
ATOM      8  C   UNL     1      26.021 -12.111  15.771  1.00  0.00     0.041 C 
ATOM      9  O   UNL     1      27.252 -12.015  16.014  1.00  0.00    -0.550 OA
ATOM     10  O   UNL     1      25.337 -13.267  16.125  1.00  0.00    -0.550 OA
ENDBRANCH   7   8
ENDBRANCH   6   7
ENDBRANCH   5   6
ENDBRANCH   4   5
ENDBRANCH   3   4
ENDBRANCH   2   3
ENDBRANCH   1   2
BRANCH   1  11
ATOM     11  C   UNL     1      25.332  -6.531  17.511  1.00  0.00     0.000 C 
BRANCH  11  12
ATOM     12  C   UNL     1      25.804  -5.240  18.200  1.00  0.00    -0.000 C 
BRANCH  12  13
ATOM     13  C   UNL     1      25.820  -4.034  17.247  1.00  0.00    -0.000 C 
BRANCH  13  14
ATOM     14  C   UNL     1      25.099  -2.806  17.828  1.00  0.00    -0.000 C 
BRANCH  14  15
ATOM     15  C   UNL     1      23.811  -2.427  17.067  1.00  0.00    -0.000 C 
BRANCH  15  16
ATOM     16  C   UNL     1      22.745  -3.535  17.145  1.00  0.00    -0.000 C 
BRANCH  16  17
ATOM     17  C   UNL     1      22.014  -3.555  18.496  1.00  0.00    -0.003 C 
ATOM     18  C   UNL     1      22.300  -4.821  19.304  1.00  0.00     0.004 C 
ENDBRANCH  16  17
ENDBRANCH  15  16
ENDBRANCH  14  15
ENDBRANCH  13  14
ENDBRANCH  12  13
ENDBRANCH  11  12
ENDBRANCH   1  11
TORSDOF 14
ENDMDL
MODEL 3
REMARK VINA RESULT:    -3.568     10.932     12.774
REMARK INTER + INTRA:          -8.956
REMARK INTER:                  -6.562
REMARK INTRA:                  -2.394
REMARK UNBOUND:                -2.467
REMARK SMILES CCCCCCCCCCCCCCCC(=O)[O-]
REMARK SMILES IDX 9 1 10 2 11 3 12 4 13 5 14 6 15 7 16 8 17 9 18 10 8 11 7 12
REMARK SMILES IDX 6 13 5 14 4 15 3 16 2 17 1 18
REMARK H PARENT
REMARK Flexibility Score: inf
ROOT
ATOM      1  C   UNL     1      24.774  -2.930  17.264  1.00  0.00     0.000 C 
ENDROOT
BRANCH   1   2
ATOM      2  C   UNL     1      25.740  -4.113  17.119  1.00  0.00     0.000 C 
BRANCH   2   3
ATOM      3  C   UNL     1      25.570  -5.108  18.272  1.00  0.00     0.000 C 
BRANCH   3   4
ATOM      4  C   UNL     1      25.330  -6.528  17.744  1.00  0.00     0.000 C 
BRANCH   4   5
ATOM      5  C   UNL     1      25.077  -6.515  16.229  1.00  0.00     0.000 C 
BRANCH   5   6
ATOM      6  C   UNL     1      24.331  -7.771  15.738  1.00  0.00     0.006 C 
BRANCH   6   7
ATOM      7  C   UNL     1      23.300  -8.325  16.736  1.00  0.00     0.053 C 
BRANCH   7   8
ATOM      8  C   UNL     1      23.467  -9.797  16.956  1.00  0.00     0.041 C 
ATOM      9  O   UNL     1      22.467 -10.561  16.912  1.00  0.00    -0.550 OA
ATOM     10  O   UNL     1      24.731 -10.328  17.178  1.00  0.00    -0.550 OA
ENDBRANCH   7   8
ENDBRANCH   6   7
ENDBRANCH   5   6
ENDBRANCH   4   5
ENDBRANCH   3   4
ENDBRANCH   2   3
ENDBRANCH   1   2
BRANCH   1  11
ATOM     11  C   UNL     1      24.136  -2.910  18.661  1.00  0.00     0.000 C 
BRANCH  11  12
ATOM     12  C   UNL     1      22.789  -2.171  18.688  1.00  0.00    -0.000 C 
BRANCH  12  13
ATOM     13  C   UNL     1      21.640  -3.056  19.197  1.00  0.00    -0.000 C 
BRANCH  13  14
ATOM     14  C   UNL     1      22.120  -4.433  19.686  1.00  0.00    -0.000 C 
BRANCH  14  15
ATOM     15  C   UNL     1      21.852  -5.575  18.682  1.00  0.00    -0.000 C 
BRANCH  15  16
ATOM     16  C   UNL     1      20.928  -5.129  17.533  1.00  0.00    -0.000 C 
BRANCH  16  17
ATOM     17  C   UNL     1      21.668  -5.017  16.192  1.00  0.00    -0.003 C 
ATOM     18  C   UNL     1      20.719  -4.984  14.993  1.00  0.00     0.004 C 
ENDBRANCH  16  17
ENDBRANCH  15  16
ENDBRANCH  14  15
ENDBRANCH  13  14
ENDBRANCH  12  13
ENDBRANCH  11  12
ENDBRANCH   1  11
TORSDOF 14
ENDMDL
MODEL 4
REMARK VINA RESULT:    -3.557      3.447      5.408
REMARK INTER + INTRA:          -8.935
REMARK INTER:                  -6.990
REMARK INTRA:                  -1.945
REMARK UNBOUND:                -2.467
REMARK SMILES CCCCCCCCCCCCCCCC(=O)[O-]
REMARK SMILES IDX 9 1 10 2 11 3 12 4 13 5 14 6 15 7 16 8 17 9 18 10 8 11 7 12
REMARK SMILES IDX 6 13 5 14 4 15 3 16 2 17 1 18
REMARK H PARENT
REMARK Flexibility Score: inf
ROOT
ATOM      1  C   UNL     1      27.625  -0.112   5.914  1.00  0.00     0.000 C 
ENDROOT
BRANCH   1   2
ATOM      2  C   UNL     1      26.124  -0.425   5.878  1.00  0.00     0.000 C 
BRANCH   2   3
ATOM      3  C   UNL     1      25.764  -1.515   6.894  1.00  0.00     0.000 C 
BRANCH   3   4
ATOM      4  C   UNL     1      26.559  -2.800   6.630  1.00  0.00     0.000 C 
BRANCH   4   5
ATOM      5  C   UNL     1      27.372  -3.207   7.868  1.00  0.00     0.000 C 
BRANCH   5   6
ATOM      6  C   UNL     1      28.778  -3.728   7.513  1.00  0.00     0.006 C 
BRANCH   6   7
ATOM      7  C   UNL     1      29.124  -5.090   8.137  1.00  0.00     0.053 C 
BRANCH   7   8
ATOM      8  C   UNL     1      28.719  -6.231   7.257  1.00  0.00     0.041 C 
ATOM      9  O   UNL     1      28.369  -6.020   6.066  1.00  0.00    -0.550 OA
ATOM     10  O   UNL     1      28.760  -7.532   7.742  1.00  0.00    -0.550 OA
ENDBRANCH   7   8
ENDBRANCH   6   7
ENDBRANCH   5   6
ENDBRANCH   4   5
ENDBRANCH   3   4
ENDBRANCH   2   3
ENDBRANCH   1   2
BRANCH   1  11
ATOM     11  C   UNL     1      27.880   1.382   5.664  1.00  0.00     0.000 C 
BRANCH  11  12
ATOM     12  C   UNL     1      26.703   2.266   6.107  1.00  0.00    -0.000 C 
BRANCH  12  13
ATOM     13  C   UNL     1      26.762   2.624   7.600  1.00  0.00    -0.000 C 
BRANCH  13  14
ATOM     14  C   UNL     1      25.472   2.254   8.353  1.00  0.00    -0.000 C 
BRANCH  14  15
ATOM     15  C   UNL     1      25.679   1.186   9.448  1.00  0.00    -0.000 C 
BRANCH  15  16
ATOM     16  C   UNL     1      27.119   0.643   9.461  1.00  0.00    -0.000 C 
BRANCH  16  17
ATOM     17  C   UNL     1      27.350  -0.389  10.575  1.00  0.00    -0.003 C 
ATOM     18  C   UNL     1      28.761  -0.978  10.554  1.00  0.00     0.004 C 
ENDBRANCH  16  17
ENDBRANCH  15  16
ENDBRANCH  14  15
ENDBRANCH  13  14
ENDBRANCH  12  13
ENDBRANCH  11  12
ENDBRANCH   1  11
TORSDOF 14
ENDMDL
MODEL 5
REMARK VINA RESULT:    -3.537      2.975      5.422
REMARK INTER + INTRA:          -8.898
REMARK INTER:                  -6.599
REMARK INTRA:                  -2.299
REMARK UNBOUND:                -2.467
REMARK SMILES CCCCCCCCCCCCCCCC(=O)[O-]
REMARK SMILES IDX 9 1 10 2 11 3 12 4 13 5 14 6 15 7 16 8 17 9 18 10 8 11 7 12
REMARK SMILES IDX 6 13 5 14 4 15 3 16 2 17 1 18
REMARK H PARENT
REMARK Flexibility Score: inf
ROOT
ATOM      1  C   UNL     1      27.538  -0.078  10.180  1.00  0.00     0.000 C 
ENDROOT
BRANCH   1   2
ATOM      2  C   UNL     1      28.649  -0.313   9.149  1.00  0.00     0.000 C 
BRANCH   2   3
ATOM      3  C   UNL     1      28.969  -1.807   9.016  1.00  0.00     0.000 C 
BRANCH   3   4
ATOM      4  C   UNL     1      28.626  -2.321   7.612  1.00  0.00     0.000 C 
BRANCH   4   5
ATOM      5  C   UNL     1      28.318  -3.825   7.639  1.00  0.00     0.000 C 
BRANCH   5   6
ATOM      6  C   UNL     1      26.980  -4.172   6.959  1.00  0.00     0.006 C 
BRANCH   6   7
ATOM      7  C   UNL     1      26.828  -3.609   5.536  1.00  0.00     0.053 C 
BRANCH   7   8
ATOM      8  C   UNL     1      27.459  -4.498   4.509  1.00  0.00     0.041 C 
ATOM      9  O   UNL     1      27.742  -4.048   3.368  1.00  0.00    -0.550 OA
ATOM     10  O   UNL     1      27.766  -5.816   4.825  1.00  0.00    -0.550 OA
ENDBRANCH   7   8
ENDBRANCH   6   7
ENDBRANCH   5   6
ENDBRANCH   4   5
ENDBRANCH   3   4
ENDBRANCH   2   3
ENDBRANCH   1   2
BRANCH   1  11
ATOM     11  C   UNL     1      26.652  -1.324  10.327  1.00  0.00     0.000 C 
BRANCH  11  12
ATOM     12  C   UNL     1      25.237  -1.116   9.763  1.00  0.00    -0.000 C 
BRANCH  12  13
ATOM     13  C   UNL     1      24.964   0.347   9.380  1.00  0.00    -0.000 C 
BRANCH  13  14
ATOM     14  C   UNL     1      24.577   0.513   7.900  1.00  0.00    -0.000 C 
BRANCH  14  15
ATOM     15  C   UNL     1      25.196  -0.556   6.975  1.00  0.00    -0.000 C 
BRANCH  15  16
ATOM     16  C   UNL     1      26.304   0.027   6.077  1.00  0.00    -0.000 C 
BRANCH  16  17
ATOM     17  C   UNL     1      26.635   1.486   6.423  1.00  0.00    -0.003 C 
ATOM     18  C   UNL     1      28.010   1.918   5.912  1.00  0.00     0.004 C 
ENDBRANCH  16  17
ENDBRANCH  15  16
ENDBRANCH  14  15
ENDBRANCH  13  14
ENDBRANCH  12  13
ENDBRANCH  11  12
ENDBRANCH   1  11
TORSDOF 14
ENDMDL
MODEL 6
REMARK VINA RESULT:    -3.499      3.093      4.722
REMARK INTER + INTRA:          -8.830
REMARK INTER:                  -6.637
REMARK INTRA:                  -2.194
REMARK UNBOUND:                -2.467
REMARK SMILES CCCCCCCCCCCCCCCC(=O)[O-]
REMARK SMILES IDX 9 1 10 2 11 3 12 4 13 5 14 6 15 7 16 8 17 9 18 10 8 11 7 12
REMARK SMILES IDX 6 13 5 14 4 15 3 16 2 17 1 18
REMARK H PARENT
REMARK Flexibility Score: inf
ROOT
ATOM      1  C   UNL     1      27.084  -0.351   5.914  1.00  0.00     0.000 C 
ENDROOT
BRANCH   1   2
ATOM      2  C   UNL     1      28.037  -1.035   6.903  1.00  0.00     0.000 C 
BRANCH   2   3
ATOM      3  C   UNL     1      27.468  -2.376   7.379  1.00  0.00     0.000 C 
BRANCH   3   4
ATOM      4  C   UNL     1      26.045  -2.592   6.848  1.00  0.00     0.000 C 
BRANCH   4   5
ATOM      5  C   UNL     1      25.563  -4.022   7.133  1.00  0.00     0.000 C 
BRANCH   5   6
ATOM      6  C   UNL     1      26.021  -5.030   6.061  1.00  0.00     0.006 C 
BRANCH   6   7
ATOM      7  C   UNL     1      25.892  -4.520   4.616  1.00  0.00     0.053 C 
BRANCH   7   8
ATOM      8  C   UNL     1      27.212  -4.497   3.909  1.00  0.00     0.041 C 
ATOM      9  O   UNL     1      27.542  -5.447   3.152  1.00  0.00    -0.550 OA
ATOM     10  O   UNL     1      28.063  -3.410   4.060  1.00  0.00    -0.550 OA
ENDBRANCH   7   8
ENDBRANCH   6   7
ENDBRANCH   5   6
ENDBRANCH   4   5
ENDBRANCH   3   4
ENDBRANCH   2   3
ENDBRANCH   1   2
BRANCH   1  11
ATOM     11  C   UNL     1      27.638   1.012   5.473  1.00  0.00     0.000 C 
BRANCH  11  12
ATOM     12  C   UNL     1      27.839   1.979   6.650  1.00  0.00    -0.000 C 
BRANCH  12  13
ATOM     13  C   UNL     1      26.517   2.357   7.337  1.00  0.00    -0.000 C 
BRANCH  13  14
ATOM     14  C   UNL     1      26.449   1.887   8.800  1.00  0.00    -0.000 C 
BRANCH  14  15
ATOM     15  C   UNL     1      25.480   0.707   9.027  1.00  0.00    -0.000 C 
BRANCH  15  16
ATOM     16  C   UNL     1      26.022  -0.295  10.063  1.00  0.00    -0.000 C 
BRANCH  16  17
ATOM     17  C   UNL     1      27.420   0.083  10.574  1.00  0.00    -0.003 C 
ATOM     18  C   UNL     1      28.351  -1.124  10.700  1.00  0.00     0.004 C 
ENDBRANCH  16  17
ENDBRANCH  15  16
ENDBRANCH  14  15
ENDBRANCH  13  14
ENDBRANCH  12  13
ENDBRANCH  11  12
ENDBRANCH   1  11
TORSDOF 14
ENDMDL
MODEL 7
REMARK VINA RESULT:    -3.489      3.053      4.322
REMARK INTER + INTRA:          -8.812
REMARK INTER:                  -6.813
REMARK INTRA:                  -1.999
REMARK UNBOUND:                -2.467
REMARK SMILES CCCCCCCCCCCCCCCC(=O)[O-]
REMARK SMILES IDX 9 1 10 2 11 3 12 4 13 5 14 6 15 7 16 8 17 9 18 10 8 11 7 12
REMARK SMILES IDX 6 13 5 14 4 15 3 16 2 17 1 18
REMARK H PARENT
REMARK Flexibility Score: inf
ROOT
ATOM      1  C   UNL     1      27.998   0.158   7.333  1.00  0.00     0.000 C 
ENDROOT
BRANCH   1   2
ATOM      2  C   UNL     1      28.817  -0.586   8.396  1.00  0.00     0.000 C 
BRANCH   2   3
ATOM      3  C   UNL     1      28.336  -0.234   9.808  1.00  0.00     0.000 C 
BRANCH   3   4
ATOM      4  C   UNL     1      27.611  -1.421  10.456  1.00  0.00     0.000 C 
BRANCH   4   5
ATOM      5  C   UNL     1      26.099  -1.348  10.197  1.00  0.00     0.000 C 
BRANCH   5   6
ATOM      6  C   UNL     1      25.520   0.059  10.439  1.00  0.00     0.006 C 
BRANCH   6   7
ATOM      7  C   UNL     1      24.652   0.593   9.288  1.00  0.00     0.053 C 
BRANCH   7   8
ATOM      8  C   UNL     1      24.888   2.050   9.035  1.00  0.00     0.041 C 
ATOM      9  O   UNL     1      26.058   2.484   8.872  1.00  0.00    -0.550 OA
ATOM     10  O   UNL     1      23.811   2.924   8.946  1.00  0.00    -0.550 OA
ENDBRANCH   7   8
ENDBRANCH   6   7
ENDBRANCH   5   6
ENDBRANCH   4   5
ENDBRANCH   3   4
ENDBRANCH   2   3
ENDBRANCH   1   2
BRANCH   1  11
ATOM     11  C   UNL     1      27.611  -0.783   6.182  1.00  0.00     0.000 C 
BRANCH  11  12
ATOM     12  C   UNL     1      26.394  -1.660   6.516  1.00  0.00    -0.000 C 
BRANCH  12  13
ATOM     13  C   UNL     1      26.669  -3.157   6.304  1.00  0.00    -0.000 C 
BRANCH  13  14
ATOM     14  C   UNL     1      27.007  -3.892   7.612  1.00  0.00    -0.000 C 
BRANCH  14  15
ATOM     15  C   UNL     1      28.499  -4.265   7.744  1.00  0.00    -0.000 C 
BRANCH  15  16
ATOM     16  C   UNL     1      28.756  -5.749   7.422  1.00  0.00    -0.000 C 
BRANCH  16  17
ATOM     17  C   UNL     1      28.678  -6.644   8.668  1.00  0.00    -0.003 C 
ATOM     18  C   UNL     1      28.552  -8.128   8.323  1.00  0.00     0.004 C 
ENDBRANCH  16  17
ENDBRANCH  15  16
ENDBRANCH  14  15
ENDBRANCH  13  14
ENDBRANCH  12  13
ENDBRANCH  11  12
ENDBRANCH   1  11
TORSDOF 14
ENDMDL
MODEL 8
REMARK VINA RESULT:    -3.488      2.664      4.631
REMARK INTER + INTRA:          -8.809
REMARK INTER:                  -6.709
REMARK INTRA:                  -2.100
REMARK UNBOUND:                -2.467
REMARK SMILES CCCCCCCCCCCCCCCC(=O)[O-]
REMARK SMILES IDX 9 1 10 2 11 3 12 4 13 5 14 6 15 7 16 8 17 9 18 10 8 11 7 12
REMARK SMILES IDX 6 13 5 14 4 15 3 16 2 17 1 18
REMARK H PARENT
REMARK Flexibility Score: inf
ROOT
ATOM      1  C   UNL     1      26.357   0.735   9.644  1.00  0.00     0.000 C 
ENDROOT
BRANCH   1   2
ATOM      2  C   UNL     1      24.856   0.621   9.939  1.00  0.00     0.000 C 
BRANCH   2   3
ATOM      3  C   UNL     1      24.067   0.292   8.667  1.00  0.00     0.000 C 
BRANCH   3   4
ATOM      4  C   UNL     1      24.259  -1.176   8.264  1.00  0.00     0.000 C 
BRANCH   4   5
ATOM      5  C   UNL     1      24.818  -1.285   6.837  1.00  0.00     0.000 C 
BRANCH   5   6
ATOM      6  C   UNL     1      25.240   0.078   6.256  1.00  0.00     0.006 C 
BRANCH   6   7
ATOM      7  C   UNL     1      26.743   0.201   5.957  1.00  0.00     0.053 C 
BRANCH   7   8
ATOM      8  C   UNL     1      27.211   1.623   6.004  1.00  0.00     0.041 C 
ATOM      9  O   UNL     1      28.302   1.950   5.467  1.00  0.00    -0.550 OA
ATOM     10  O   UNL     1      26.426   2.593   6.613  1.00  0.00    -0.550 OA
ENDBRANCH   7   8
ENDBRANCH   6   7
ENDBRANCH   5   6
ENDBRANCH   4   5
ENDBRANCH   3   4
ENDBRANCH   2   3
ENDBRANCH   1   2
BRANCH   1  11
ATOM     11  C   UNL     1      27.134  -0.416  10.300  1.00  0.00     0.000 C 
BRANCH  11  12
ATOM     12  C   UNL     1      28.637  -0.373   9.982  1.00  0.00    -0.000 C 
BRANCH  12  13
ATOM     13  C   UNL     1      28.982  -1.081   8.661  1.00  0.00    -0.000 C 
BRANCH  13  14
ATOM     14  C   UNL     1      28.233  -2.413   8.486  1.00  0.00    -0.000 C 
BRANCH  14  15
ATOM     15  C   UNL     1      28.720  -3.243   7.278  1.00  0.00    -0.000 C 
BRANCH  15  16
ATOM     16  C   UNL     1      27.573  -3.575   6.306  1.00  0.00    -0.000 C 
BRANCH  16  17
ATOM     17  C   UNL     1      27.903  -3.197   4.854  1.00  0.00    -0.003 C 
ATOM     18  C   UNL     1      27.501  -4.281   3.854  1.00  0.00     0.004 C 
ENDBRANCH  16  17
ENDBRANCH  15  16
ENDBRANCH  14  15
ENDBRANCH  13  14
ENDBRANCH  12  13
ENDBRANCH  11  12
ENDBRANCH   1  11
TORSDOF 14
ENDMDL
MODEL 9
REMARK VINA RESULT:    -3.451      2.912      5.137
REMARK INTER + INTRA:          -8.742
REMARK INTER:                  -6.367
REMARK INTRA:                  -2.375
REMARK UNBOUND:                -2.467
REMARK SMILES CCCCCCCCCCCCCCCC(=O)[O-]
REMARK SMILES IDX 9 1 10 2 11 3 12 4 13 5 14 6 15 7 16 8 17 9 18 10 8 11 7 12
REMARK SMILES IDX 6 13 5 14 4 15 3 16 2 17 1 18
REMARK H PARENT
REMARK Flexibility Score: inf
ROOT
ATOM      1  C   UNL     1      28.899  -0.383   8.711  1.00  0.00     0.000 C 
ENDROOT
BRANCH   1   2
ATOM      2  C   UNL     1      28.383  -1.475   7.765  1.00  0.00     0.000 C 
BRANCH   2   3
ATOM      3  C   UNL     1      27.660  -0.863   6.559  1.00  0.00     0.000 C 
BRANCH   3   4
ATOM      4  C   UNL     1      26.850  -1.924   5.805  1.00  0.00     0.000 C 
BRANCH   4   5
ATOM      5  C   UNL     1      26.682  -3.193   6.653  1.00  0.00     0.000 C 
BRANCH   5   6
ATOM      6  C   UNL     1      27.110  -4.471   5.907  1.00  0.00     0.006 C 
BRANCH   6   7
ATOM      7  C   UNL     1      27.689  -4.221   4.504  1.00  0.00     0.053 C 
BRANCH   7   8
ATOM      8  C   UNL     1      26.831  -4.814   3.429  1.00  0.00     0.041 C 
ATOM      9  O   UNL     1      27.356  -5.271   2.379  1.00  0.00    -0.550 OA
ATOM     10  O   UNL     1      25.456  -4.893   3.601  1.00  0.00    -0.550 OA
ENDBRANCH   7   8
ENDBRANCH   6   7
ENDBRANCH   5   6
ENDBRANCH   4   5
ENDBRANCH   3   4
ENDBRANCH   2   3
ENDBRANCH   1   2
BRANCH   1  11
ATOM     11  C   UNL     1      28.085  -0.356  10.013  1.00  0.00     0.000 C 
BRANCH  11  12
ATOM     12  C   UNL     1      27.045  -1.485  10.086  1.00  0.00    -0.000 C 
BRANCH  12  13
ATOM     13  C   UNL     1      25.734  -1.038  10.754  1.00  0.00    -0.000 C 
BRANCH  13  14
ATOM     14  C   UNL     1      25.101   0.183  10.066  1.00  0.00    -0.000 C 
BRANCH  14  15
ATOM     15  C   UNL     1      24.617  -0.099   8.627  1.00  0.00    -0.000 C 
BRANCH  15  16
ATOM     16  C   UNL     1      24.845   1.105   7.694  1.00  0.00    -0.000 C 
BRANCH  16  17
ATOM     17  C   UNL     1      25.809   2.140   8.292  1.00  0.00    -0.003 C 
ATOM     18  C   UNL     1      26.858   2.621   7.289  1.00  0.00     0.004 C 
ENDBRANCH  16  17
ENDBRANCH  15  16
ENDBRANCH  14  15
ENDBRANCH  13  14
ENDBRANCH  12  13
ENDBRANCH  11  12
ENDBRANCH   1  11
TORSDOF 14
ENDMDL
