MODEL 1
REMARK VINA RESULT:    -4.256      0.000      0.000
REMARK INTER + INTRA:         -10.414
REMARK INTER:                  -8.237
REMARK INTRA:                  -2.178
REMARK UNBOUND:                -2.178
REMARK SMILES CCCCCCCCCCCCCCCCCC(=O)[O-]
REMARK SMILES IDX 10 1 11 2 12 3 13 4 14 5 15 6 16 7 17 8 18 9 19 10 20 11
REMARK SMILES IDX 9 12 8 13 7 14 6 15 5 16 4 17 3 18 2 19 1 20
REMARK H PARENT
REMARK Flexibility Score: inf
ROOT
ATOM      1  C   UNL     1      24.768   3.794  16.191  1.00  0.00     0.000 C 
ENDROOT
BRANCH   1   2
ATOM      2  C   UNL     1      26.216   3.380  16.515  1.00  0.00     0.000 C 
BRANCH   2   3
ATOM      3  C   UNL     1      26.713   3.774  17.919  1.00  0.00     0.000 C 
BRANCH   3   4
ATOM      4  C   UNL     1      28.231   4.000  17.978  1.00  0.00     0.000 C 
BRANCH   4   5
ATOM      5  C   UNL     1      28.777   4.428  16.607  1.00  0.00     0.000 C 
BRANCH   5   6
ATOM      6  C   UNL     1      29.349   5.855  16.618  1.00  0.00     0.000 C 
BRANCH   6   7
ATOM      7  C   UNL     1      29.000   6.643  15.344  1.00  0.00     0.006 C 
BRANCH   7   8
ATOM      8  C   UNL     1      27.916   5.945  14.511  1.00  0.00     0.053 C 
BRANCH   8   9
ATOM      9  C   UNL     1      27.257   6.891  13.554  1.00  0.00     0.041 C 
ATOM     10  O   UNL     1      26.024   7.130  13.647  1.00  0.00    -0.550 OA
ATOM     11  O   UNL     1      27.997   7.481  12.537  1.00  0.00    -0.550 OA
ENDBRANCH   8   9
ENDBRANCH   7   8
ENDBRANCH   6   7
ENDBRANCH   5   6
ENDBRANCH   4   5
ENDBRANCH   3   4
ENDBRANCH   2   3
ENDBRANCH   1   2
BRANCH   1  12
ATOM     12  C   UNL     1      24.528   5.306  16.337  1.00  0.00     0.000 C 
BRANCH  12  13
ATOM     13  C   UNL     1      23.347   5.641  17.268  1.00  0.00    -0.000 C 
BRANCH  13  14
ATOM     14  C   UNL     1      22.897   4.506  18.206  1.00  0.00    -0.000 C 
BRANCH  14  15
ATOM     15  C   UNL     1      22.996   4.880  19.694  1.00  0.00    -0.000 C 
BRANCH  15  16
ATOM     16  C   UNL     1      22.674   3.704  20.633  1.00  0.00    -0.000 C 
BRANCH  16  17
ATOM     17  C   UNL     1      23.755   2.610  20.713  1.00  0.00    -0.000 C 
BRANCH  17  18
ATOM     18  C   UNL     1      23.394   1.348  19.917  1.00  0.00    -0.000 C 
BRANCH  18  19
ATOM     19  C   UNL     1      24.504   0.991  18.921  1.00  0.00    -0.003 C 
ATOM     20  C   UNL     1      25.846   0.822  19.627  1.00  0.00     0.004 C 
ENDBRANCH  18  19
ENDBRANCH  17  18
ENDBRANCH  16  17
ENDBRANCH  15  16
ENDBRANCH  14  15
ENDBRANCH  13  14
ENDBRANCH  12  13
ENDBRANCH   1  12
TORSDOF 16
ENDMDL
MODEL 2
REMARK VINA RESULT:    -4.241      8.316     10.501
REMARK INTER + INTRA:         -10.385
REMARK INTER:                  -8.031
REMARK INTRA:                  -2.355
REMARK UNBOUND:                -2.178
REMARK SMILES CCCCCCCCCCCCCCCCCC(=O)[O-]
REMARK SMILES IDX 10 1 11 2 12 3 13 4 14 5 15 6 16 7 17 8 18 9 19 10 20 11
REMARK SMILES IDX 9 12 8 13 7 14 6 15 5 16 4 17 3 18 2 19 1 20
REMARK H PARENT
REMARK Flexibility Score: inf
ROOT
ATOM      1  C   UNL     1      21.276   4.055   9.020  1.00  0.00     0.000 C 
ENDROOT
BRANCH   1   2
ATOM      2  C   UNL     1      22.433   4.155   8.008  1.00  0.00     0.000 C 
BRANCH   2   3
ATOM      3  C   UNL     1      23.689   4.888   8.517  1.00  0.00     0.000 C 
BRANCH   3   4
ATOM      4  C   UNL     1      23.547   5.397   9.958  1.00  0.00     0.000 C 
BRANCH   4   5
ATOM      5  C   UNL     1      23.582   6.933  10.004  1.00  0.00     0.000 C 
BRANCH   5   6
ATOM      6  C   UNL     1      22.607   7.515  11.039  1.00  0.00     0.000 C 
BRANCH   6   7
ATOM      7  C   UNL     1      22.028   6.443  11.977  1.00  0.00     0.006 C 
BRANCH   7   8
ATOM      8  C   UNL     1      22.608   6.539  13.394  1.00  0.00     0.053 C 
BRANCH   8   9
ATOM      9  C   UNL     1      21.534   6.733  14.421  1.00  0.00     0.041 C 
ATOM     10  O   UNL     1      21.690   6.296  15.592  1.00  0.00    -0.550 OA
ATOM     11  O   UNL     1      20.346   7.365  14.076  1.00  0.00    -0.550 OA
ENDBRANCH   8   9
ENDBRANCH   7   8
ENDBRANCH   6   7
ENDBRANCH   5   6
ENDBRANCH   4   5
ENDBRANCH   3   4
ENDBRANCH   2   3
ENDBRANCH   1   2
BRANCH   1  12
ATOM     12  C   UNL     1      20.033   4.853   8.592  1.00  0.00     0.000 C 
BRANCH  12  13
ATOM     13  C   UNL     1      19.386   5.631   9.753  1.00  0.00    -0.000 C 
BRANCH  13  14
ATOM     14  C   UNL     1      19.216   7.145   9.526  1.00  0.00    -0.000 C 
BRANCH  14  15
ATOM     15  C   UNL     1      17.785   7.535   9.120  1.00  0.00    -0.000 C 
BRANCH  15  16
ATOM     16  C   UNL     1      17.546   7.448   7.602  1.00  0.00    -0.000 C 
BRANCH  16  17
ATOM     17  C   UNL     1      16.508   6.399   7.158  1.00  0.00    -0.000 C 
BRANCH  17  18
ATOM     18  C   UNL     1      15.888   5.631   8.335  1.00  0.00    -0.000 C 
BRANCH  18  19
ATOM     19  C   UNL     1      16.310   4.157   8.311  1.00  0.00    -0.003 C 
ATOM     20  C   UNL     1      16.869   3.765   6.948  1.00  0.00     0.004 C 
ENDBRANCH  18  19
ENDBRANCH  17  18
ENDBRANCH  16  17
ENDBRANCH  15  16
ENDBRANCH  14  15
ENDBRANCH  13  14
ENDBRANCH  12  13
ENDBRANCH   1  12
TORSDOF 16
ENDMDL
MODEL 3
REMARK VINA RESULT:    -4.162      1.311      4.540
REMARK INTER + INTRA:         -10.232
REMARK INTER:                  -8.195
REMARK INTRA:                  -2.037
REMARK UNBOUND:                -2.178
REMARK SMILES CCCCCCCCCCCCCCCCCC(=O)[O-]
REMARK SMILES IDX 10 1 11 2 12 3 13 4 14 5 15 6 16 7 17 8 18 9 19 10 20 11
REMARK SMILES IDX 9 12 8 13 7 14 6 15 5 16 4 17 3 18 2 19 1 20
REMARK H PARENT
REMARK Flexibility Score: inf
ROOT
ATOM      1  C   UNL     1      22.410   3.218  20.883  1.00  0.00     0.000 C 
ENDROOT
BRANCH   1   2
ATOM      2  C   UNL     1      22.644   4.741  20.876  1.00  0.00     0.000 C 
BRANCH   2   3
ATOM      3  C   UNL     1      23.138   5.323  19.539  1.00  0.00     0.000 C 
BRANCH   3   4
ATOM      4  C   UNL     1      23.114   4.302  18.392  1.00  0.00     0.000 C 
BRANCH   4   5
ATOM      5  C   UNL     1      24.473   4.250  17.676  1.00  0.00     0.000 C 
BRANCH   5   6
ATOM      6  C   UNL     1      24.410   4.816  16.248  1.00  0.00     0.000 C 
BRANCH   6   7
ATOM      7  C   UNL     1      25.801   4.972  15.611  1.00  0.00     0.006 C 
BRANCH   7   8
ATOM      8  C   UNL     1      25.965   6.324  14.904  1.00  0.00     0.053 C 
BRANCH   8   9
ATOM      9  C   UNL     1      26.831   6.213  13.686  1.00  0.00     0.041 C 
ATOM     10  O   UNL     1      27.064   5.087  13.174  1.00  0.00    -0.550 OA
ATOM     11  O   UNL     1      27.411   7.351  13.138  1.00  0.00    -0.550 OA
ENDBRANCH   8   9
ENDBRANCH   7   8
ENDBRANCH   6   7
ENDBRANCH   5   6
ENDBRANCH   4   5
ENDBRANCH   3   4
ENDBRANCH   2   3
ENDBRANCH   1   2
BRANCH   1  12
ATOM     12  C   UNL     1      23.219   2.490  21.970  1.00  0.00     0.000 C 
BRANCH  12  13
ATOM     13  C   UNL     1      23.890   1.201  21.460  1.00  0.00    -0.000 C 
BRANCH  13  14
ATOM     14  C   UNL     1      24.231   1.178  19.958  1.00  0.00    -0.000 C 
BRANCH  14  15
ATOM     15  C   UNL     1      25.744   1.171  19.686  1.00  0.00    -0.000 C 
BRANCH  15  16
ATOM     16  C   UNL     1      26.089   0.887  18.212  1.00  0.00    -0.000 C 
BRANCH  16  17
ATOM     17  C   UNL     1      27.333   1.618  17.674  1.00  0.00    -0.000 C 
BRANCH  17  18
ATOM     18  C   UNL     1      28.109   2.368  18.766  1.00  0.00    -0.000 C 
BRANCH  18  19
ATOM     19  C   UNL     1      28.033   3.884  18.551  1.00  0.00    -0.003 C 
ATOM     20  C   UNL     1      28.952   4.328  17.418  1.00  0.00     0.004 C 
ENDBRANCH  18  19
ENDBRANCH  17  18
ENDBRANCH  16  17
ENDBRANCH  15  16
ENDBRANCH  14  15
ENDBRANCH  13  14
ENDBRANCH  12  13
ENDBRANCH   1  12
TORSDOF 16
ENDMDL
MODEL 4
REMARK VINA RESULT:    -4.143      2.199      5.019
REMARK INTER + INTRA:         -10.196
REMARK INTER:                  -7.825
REMARK INTRA:                  -2.371
REMARK UNBOUND:                -2.178
REMARK SMILES CCCCCCCCCCCCCCCCCC(=O)[O-]
REMARK SMILES IDX 10 1 11 2 12 3 13 4 14 5 15 6 16 7 17 8 18 9 19 10 20 11
REMARK SMILES IDX 9 12 8 13 7 14 6 15 5 16 4 17 3 18 2 19 1 20
REMARK H PARENT
REMARK Flexibility Score: inf
ROOT
ATOM      1  C   UNL     1      29.693   5.930  16.145  1.00  0.00     0.000 C 
ENDROOT
BRANCH   1   2
ATOM      2  C   UNL     1      28.277   6.365  15.723  1.00  0.00     0.000 C 
BRANCH   2   3
ATOM      3  C   UNL     1      27.696   5.620  14.506  1.00  0.00     0.000 C 
BRANCH   3   4
ATOM      4  C   UNL     1      26.170   5.744  14.397  1.00  0.00     0.000 C 
BRANCH   4   5
ATOM      5  C   UNL     1      25.674   7.036  15.065  1.00  0.00     0.000 C 
BRANCH   5   6
ATOM      6  C   UNL     1      24.411   6.817  15.913  1.00  0.00     0.000 C 
BRANCH   6   7
ATOM      7  C   UNL     1      23.537   5.667  15.385  1.00  0.00     0.006 C 
BRANCH   7   8
ATOM      8  C   UNL     1      22.039   5.988  15.481  1.00  0.00     0.053 C 
BRANCH   8   9
ATOM      9  C   UNL     1      21.554   6.742  14.280  1.00  0.00     0.041 C 
ATOM     10  O   UNL     1      22.224   6.733  13.213  1.00  0.00    -0.550 OA
ATOM     11  O   UNL     1      20.381   7.483  14.349  1.00  0.00    -0.550 OA
ENDBRANCH   8   9
ENDBRANCH   7   8
ENDBRANCH   6   7
ENDBRANCH   5   6
ENDBRANCH   4   5
ENDBRANCH   3   4
ENDBRANCH   2   3
ENDBRANCH   1   2
BRANCH   1  12
ATOM     12  C   UNL     1      29.730   4.520  16.760  1.00  0.00     0.000 C 
BRANCH  12  13
ATOM     13  C   UNL     1      29.558   4.525  18.291  1.00  0.00    -0.000 C 
BRANCH  13  14
ATOM     14  C   UNL     1      28.246   3.912  18.814  1.00  0.00    -0.000 C 
BRANCH  14  15
ATOM     15  C   UNL     1      27.422   3.226  17.713  1.00  0.00    -0.000 C 
BRANCH  15  16
ATOM     16  C   UNL     1      25.995   3.792  17.588  1.00  0.00    -0.000 C 
BRANCH  16  17
ATOM     17  C   UNL     1      25.018   3.364  18.699  1.00  0.00    -0.000 C 
BRANCH  17  18
ATOM     18  C   UNL     1      23.545   3.558  18.311  1.00  0.00    -0.000 C 
BRANCH  18  19
ATOM     19  C   UNL     1      22.795   4.355  19.385  1.00  0.00    -0.003 C 
ATOM     20  C   UNL     1      23.191   5.827  19.357  1.00  0.00     0.004 C 
ENDBRANCH  18  19
ENDBRANCH  17  18
ENDBRANCH  16  17
ENDBRANCH  15  16
ENDBRANCH  14  15
ENDBRANCH  13  14
ENDBRANCH  12  13
ENDBRANCH   1  12
TORSDOF 16
ENDMDL
MODEL 5
REMARK VINA RESULT:    -4.141      1.587      3.325
REMARK INTER + INTRA:         -10.193
REMARK INTER:                  -8.964
REMARK INTRA:                  -1.229
REMARK UNBOUND:                -2.178
REMARK SMILES CCCCCCCCCCCCCCCCCC(=O)[O-]
REMARK SMILES IDX 10 1 11 2 12 3 13 4 14 5 15 6 16 7 17 8 18 9 19 10 20 11
REMARK SMILES IDX 9 12 8 13 7 14 6 15 5 16 4 17 3 18 2 19 1 20
REMARK H PARENT
REMARK Flexibility Score: inf
ROOT
ATOM      1  C   UNL     1      29.365   2.360  17.911  1.00  0.00     0.000 C 
ENDROOT
BRANCH   1   2
ATOM      2  C   UNL     1      29.702   3.524  18.863  1.00  0.00     0.000 C 
BRANCH   2   3
ATOM      3  C   UNL     1      29.196   4.907  18.414  1.00  0.00     0.000 C 
BRANCH   3   4
ATOM      4  C   UNL     1      30.299   5.976  18.398  1.00  0.00     0.000 C 
BRANCH   4   5
ATOM      5  C   UNL     1      30.884   6.140  16.987  1.00  0.00     0.000 C 
BRANCH   5   6
ATOM      6  C   UNL     1      30.027   5.458  15.909  1.00  0.00     0.000 C 
BRANCH   6   7
ATOM      7  C   UNL     1      29.313   6.467  14.993  1.00  0.00     0.006 C 
BRANCH   7   8
ATOM      8  C   UNL     1      27.924   5.976  14.564  1.00  0.00     0.053 C 
BRANCH   8   9
ATOM      9  C   UNL     1      27.305   6.883  13.544  1.00  0.00     0.041 C 
ATOM     10  O   UNL     1      28.023   7.442  12.674  1.00  0.00    -0.550 OA
ATOM     11  O   UNL     1      25.940   7.140  13.577  1.00  0.00    -0.550 OA
ENDBRANCH   8   9
ENDBRANCH   7   8
ENDBRANCH   6   7
ENDBRANCH   5   6
ENDBRANCH   4   5
ENDBRANCH   3   4
ENDBRANCH   2   3
ENDBRANCH   1   2
BRANCH   1  12
ATOM     12  C   UNL     1      27.851   2.155  17.725  1.00  0.00     0.000 C 
BRANCH  12  13
ATOM     13  C   UNL     1      27.084   2.085  19.059  1.00  0.00    -0.000 C 
BRANCH  13  14
ATOM     14  C   UNL     1      25.559   1.906  18.940  1.00  0.00    -0.000 C 
BRANCH  14  15
ATOM     15  C   UNL     1      24.946   1.163  20.139  1.00  0.00    -0.000 C 
BRANCH  15  16
ATOM     16  C   UNL     1      23.492   1.579  20.425  1.00  0.00    -0.000 C 
BRANCH  16  17
ATOM     17  C   UNL     1      23.310   2.590  21.573  1.00  0.00    -0.000 C 
BRANCH  17  18
ATOM     18  C   UNL     1      22.505   3.830  21.159  1.00  0.00    -0.000 C 
BRANCH  18  19
ATOM     19  C   UNL     1      22.606   4.073  19.649  1.00  0.00    -0.003 C 
ATOM     20  C   UNL     1      23.172   5.456  19.348  1.00  0.00     0.004 C 
ENDBRANCH  18  19
ENDBRANCH  17  18
ENDBRANCH  16  17
ENDBRANCH  15  16
ENDBRANCH  14  15
ENDBRANCH  13  14
ENDBRANCH  12  13
ENDBRANCH   1  12
TORSDOF 16
ENDMDL
MODEL 6
REMARK VINA RESULT:    -4.121      3.155      5.105
REMARK INTER + INTRA:         -10.153
REMARK INTER:                  -8.541
REMARK INTRA:                  -1.612
REMARK UNBOUND:                -2.178
REMARK SMILES CCCCCCCCCCCCCCCCCC(=O)[O-]
REMARK SMILES IDX 10 1 11 2 12 3 13 4 14 5 15 6 16 7 17 8 18 9 19 10 20 11
REMARK SMILES IDX 9 12 8 13 7 14 6 15 5 16 4 17 3 18 2 19 1 20
REMARK H PARENT
REMARK Flexibility Score: inf
ROOT
ATOM      1  C   UNL     1      21.076   7.206  12.911  1.00  0.00     0.000 C 
ENDROOT
BRANCH   1   2
ATOM      2  C   UNL     1      21.408   6.501  11.583  1.00  0.00     0.000 C 
BRANCH   2   3
ATOM      3  C   UNL     1      22.181   7.355  10.561  1.00  0.00     0.000 C 
BRANCH   3   4
ATOM      4  C   UNL     1      23.646   6.924  10.401  1.00  0.00     0.000 C 
BRANCH   4   5
ATOM      5  C   UNL     1      23.773   5.393  10.417  1.00  0.00     0.000 C 
BRANCH   5   6
ATOM      6  C   UNL     1      24.848   4.899  11.398  1.00  0.00     0.000 C 
BRANCH   6   7
ATOM      7  C   UNL     1      25.803   6.020  11.844  1.00  0.00     0.006 C 
BRANCH   7   8
ATOM      8  C   UNL     1      26.453   5.720  13.201  1.00  0.00     0.053 C 
BRANCH   8   9
ATOM      9  C   UNL     1      27.551   6.689  13.517  1.00  0.00     0.041 C 
ATOM     10  O   UNL     1      28.036   6.742  14.678  1.00  0.00    -0.550 OA
ATOM     11  O   UNL     1      28.015   7.559  12.539  1.00  0.00    -0.550 OA
ENDBRANCH   8   9
ENDBRANCH   7   8
ENDBRANCH   6   7
ENDBRANCH   5   6
ENDBRANCH   4   5
ENDBRANCH   3   4
ENDBRANCH   2   3
ENDBRANCH   1   2
BRANCH   1  12
ATOM     12  C   UNL     1      21.587   6.440  14.143  1.00  0.00     0.000 C 
BRANCH  12  13
ATOM     13  C   UNL     1      23.120   6.484  14.287  1.00  0.00    -0.000 C 
BRANCH  13  14
ATOM     14  C   UNL     1      23.668   6.127  15.681  1.00  0.00    -0.000 C 
BRANCH  14  15
ATOM     15  C   UNL     1      22.920   6.839  16.821  1.00  0.00    -0.000 C 
BRANCH  15  16
ATOM     16  C   UNL     1      23.061   6.120  18.175  1.00  0.00    -0.000 C 
BRANCH  16  17
ATOM     17  C   UNL     1      22.935   4.586  18.121  1.00  0.00    -0.000 C 
BRANCH  17  18
ATOM     18  C   UNL     1      23.664   3.882  19.275  1.00  0.00    -0.000 C 
BRANCH  18  19
ATOM     19  C   UNL     1      22.690   3.037  20.105  1.00  0.00    -0.003 C 
ATOM     20  C   UNL     1      22.402   3.691  21.452  1.00  0.00     0.004 C 
ENDBRANCH  18  19
ENDBRANCH  17  18
ENDBRANCH  16  17
ENDBRANCH  15  16
ENDBRANCH  14  15
ENDBRANCH  13  14
ENDBRANCH  12  13
ENDBRANCH   1  12
TORSDOF 16
ENDMDL
MODEL 7
REMARK VINA RESULT:    -4.103      3.843      7.032
REMARK INTER + INTRA:         -10.118
REMARK INTER:                  -7.956
REMARK INTRA:                  -2.162
REMARK UNBOUND:                -2.178
REMARK SMILES CCCCCCCCCCCCCCCCCC(=O)[O-]
REMARK SMILES IDX 10 1 11 2 12 3 13 4 14 5 15 6 16 7 17 8 18 9 19 10 20 11
REMARK SMILES IDX 9 12 8 13 7 14 6 15 5 16 4 17 3 18 2 19 1 20
REMARK H PARENT
REMARK Flexibility Score: inf
ROOT
ATOM      1  C   UNL     1      24.668   6.634  15.683  1.00  0.00     0.000 C 
ENDROOT
BRANCH   1   2
ATOM      2  C   UNL     1      23.358   7.008  16.403  1.00  0.00     0.000 C 
BRANCH   2   3
ATOM      3  C   UNL     1      22.785   5.919  17.330  1.00  0.00     0.000 C 
BRANCH   3   4
ATOM      4  C   UNL     1      23.105   6.160  18.812  1.00  0.00     0.000 C 
BRANCH   4   5
ATOM      5  C   UNL     1      23.176   4.832  19.582  1.00  0.00     0.000 C 
BRANCH   5   6
ATOM      6  C   UNL     1      22.695   3.637  18.743  1.00  0.00     0.000 C 
BRANCH   6   7
ATOM      7  C   UNL     1      22.991   2.285  19.414  1.00  0.00     0.006 C 
BRANCH   7   8
ATOM      8  C   UNL     1      22.022   1.987  20.566  1.00  0.00     0.053 C 
BRANCH   8   9
ATOM      9  C   UNL     1      22.751   1.666  21.835  1.00  0.00     0.041 C 
ATOM     10  O   UNL     1      22.680   0.511  22.333  1.00  0.00    -0.550 OA
ATOM     11  O   UNL     1      23.480   2.652  22.489  1.00  0.00    -0.550 OA
ENDBRANCH   8   9
ENDBRANCH   7   8
ENDBRANCH   6   7
ENDBRANCH   5   6
ENDBRANCH   4   5
ENDBRANCH   3   4
ENDBRANCH   2   3
ENDBRANCH   1   2
BRANCH   1  12
ATOM     12  C   UNL     1      24.832   5.118  15.482  1.00  0.00     0.000 C 
BRANCH  12  13
ATOM     13  C   UNL     1      26.144   4.571  16.075  1.00  0.00    -0.000 C 
BRANCH  13  14
ATOM     14  C   UNL     1      25.994   3.365  17.022  1.00  0.00    -0.000 C 
BRANCH  14  15
ATOM     15  C   UNL     1      26.481   3.658  18.450  1.00  0.00    -0.000 C 
BRANCH  15  16
ATOM     16  C   UNL     1      27.821   2.975  18.781  1.00  0.00    -0.000 C 
BRANCH  16  17
ATOM     17  C   UNL     1      29.058   3.586  18.095  1.00  0.00    -0.000 C 
BRANCH  17  18
ATOM     18  C   UNL     1      29.418   4.978  18.635  1.00  0.00    -0.000 C 
BRANCH  18  19
ATOM     19  C   UNL     1      30.273   5.753  17.626  1.00  0.00    -0.003 C 
ATOM     20  C   UNL     1      29.508   6.003  16.331  1.00  0.00     0.004 C 
ENDBRANCH  18  19
ENDBRANCH  17  18
ENDBRANCH  16  17
ENDBRANCH  15  16
ENDBRANCH  14  15
ENDBRANCH  13  14
ENDBRANCH  12  13
ENDBRANCH   1  12
TORSDOF 16
ENDMDL
MODEL 8
REMARK VINA RESULT:    -4.077      8.039     10.148
REMARK INTER + INTRA:         -10.068
REMARK INTER:                  -7.631
REMARK INTRA:                  -2.437
REMARK UNBOUND:                -2.178
REMARK SMILES CCCCCCCCCCCCCCCCCC(=O)[O-]
REMARK SMILES IDX 10 1 11 2 12 3 13 4 14 5 15 6 16 7 17 8 18 9 19 10 20 11
REMARK SMILES IDX 9 12 8 13 7 14 6 15 5 16 4 17 3 18 2 19 1 20
REMARK H PARENT
REMARK Flexibility Score: inf
ROOT
ATOM      1  C   UNL     1      17.710   5.747  11.339  1.00  0.00     0.000 C 
ENDROOT
BRANCH   1   2
ATOM      2  C   UNL     1      19.203   5.850  11.702  1.00  0.00     0.000 C 
BRANCH   2   3
ATOM      3  C   UNL     1      20.120   4.823  11.010  1.00  0.00     0.000 C 
BRANCH   3   4
ATOM      4  C   UNL     1      21.301   5.471  10.274  1.00  0.00     0.000 C 
BRANCH   4   5
ATOM      5  C   UNL     1      21.308   6.994  10.480  1.00  0.00     0.000 C 
BRANCH   5   6
ATOM      6  C   UNL     1      22.663   7.516  10.985  1.00  0.00     0.000 C 
BRANCH   6   7
ATOM      7  C   UNL     1      23.716   6.402  11.113  1.00  0.00     0.006 C 
BRANCH   7   8
ATOM      8  C   UNL     1      24.106   6.141  12.574  1.00  0.00     0.053 C 
BRANCH   8   9
ATOM      9  C   UNL     1      25.580   6.304  12.793  1.00  0.00     0.041 C 
ATOM     10  O   UNL     1      26.391   5.488  12.281  1.00  0.00    -0.550 OA
ATOM     11  O   UNL     1      26.055   7.336  13.592  1.00  0.00    -0.550 OA
ENDBRANCH   8   9
ENDBRANCH   7   8
ENDBRANCH   6   7
ENDBRANCH   5   6
ENDBRANCH   4   5
ENDBRANCH   3   4
ENDBRANCH   2   3
ENDBRANCH   1   2
BRANCH   1  12
ATOM     12  C   UNL     1      16.990   7.106  11.368  1.00  0.00     0.000 C 
BRANCH  12  13
ATOM     13  C   UNL     1      17.916   8.287  11.021  1.00  0.00    -0.000 C 
BRANCH  13  14
ATOM     14  C   UNL     1      18.136   8.540   9.518  1.00  0.00    -0.000 C 
BRANCH  14  15
ATOM     15  C   UNL     1      16.889   8.242   8.669  1.00  0.00    -0.000 C 
BRANCH  15  16
ATOM     16  C   UNL     1      17.214   7.480   7.372  1.00  0.00    -0.000 C 
BRANCH  16  17
ATOM     17  C   UNL     1      17.215   5.944   7.493  1.00  0.00    -0.000 C 
BRANCH  17  18
ATOM     18  C   UNL     1      18.614   5.363   7.747  1.00  0.00    -0.000 C 
BRANCH  18  19
ATOM     19  C   UNL     1      18.587   3.830   7.704  1.00  0.00    -0.003 C 
ATOM     20  C   UNL     1      17.513   3.270   8.630  1.00  0.00     0.004 C 
ENDBRANCH  18  19
ENDBRANCH  17  18
ENDBRANCH  16  17
ENDBRANCH  15  16
ENDBRANCH  14  15
ENDBRANCH  13  14
ENDBRANCH  12  13
ENDBRANCH   1  12
TORSDOF 16
ENDMDL
MODEL 9
REMARK VINA RESULT:    -4.007      5.436      8.002
REMARK INTER + INTRA:          -9.932
REMARK INTER:                  -7.429
REMARK INTRA:                  -2.503
REMARK UNBOUND:                -2.178
REMARK SMILES CCCCCCCCCCCCCCCCCC(=O)[O-]
REMARK SMILES IDX 10 1 11 2 12 3 13 4 14 5 15 6 16 7 17 8 18 9 19 10 20 11
REMARK SMILES IDX 9 12 8 13 7 14 6 15 5 16 4 17 3 18 2 19 1 20
REMARK H PARENT
REMARK Flexibility Score: inf
ROOT
ATOM      1  C   UNL     1      23.552   3.563  10.479  1.00  0.00     0.000 C 
ENDROOT
BRANCH   1   2
ATOM      2  C   UNL     1      22.555   3.741  11.640  1.00  0.00     0.000 C 
BRANCH   2   3
ATOM      3  C   UNL     1      23.184   4.115  12.995  1.00  0.00     0.000 C 
BRANCH   3   4
ATOM      4  C   UNL     1      22.314   5.076  13.818  1.00  0.00     0.000 C 
BRANCH   4   5
ATOM      5  C   UNL     1      23.084   6.363  14.154  1.00  0.00     0.000 C 
BRANCH   5   6
ATOM      6  C   UNL     1      24.028   6.191  15.354  1.00  0.00     0.000 C 
BRANCH   6   7
ATOM      7  C   UNL     1      25.267   7.098  15.268  1.00  0.00     0.006 C 
BRANCH   7   8
ATOM      8  C   UNL     1      26.545   6.304  14.968  1.00  0.00     0.053 C 
BRANCH   8   9
ATOM      9  C   UNL     1      26.900   6.350  13.513  1.00  0.00     0.041 C 
ATOM     10  O   UNL     1      27.403   7.392  13.016  1.00  0.00    -0.550 OA
ATOM     11  O   UNL     1      26.640   5.256  12.698  1.00  0.00    -0.550 OA
ENDBRANCH   8   9
ENDBRANCH   7   8
ENDBRANCH   6   7
ENDBRANCH   5   6
ENDBRANCH   4   5
ENDBRANCH   3   4
ENDBRANCH   2   3
ENDBRANCH   1   2
BRANCH   1  12
ATOM     12  C   UNL     1      23.558   4.752   9.504  1.00  0.00     0.000 C 
BRANCH  12  13
ATOM     13  C   UNL     1      24.348   5.963  10.035  1.00  0.00    -0.000 C 
BRANCH  13  14
ATOM     14  C   UNL     1      23.497   7.124  10.581  1.00  0.00    -0.000 C 
BRANCH  14  15
ATOM     15  C   UNL     1      22.074   7.154   9.998  1.00  0.00    -0.000 C 
BRANCH  15  16
ATOM     16  C   UNL     1      20.980   7.121  11.080  1.00  0.00    -0.000 C 
BRANCH  16  17
ATOM     17  C   UNL     1      19.672   6.416  10.673  1.00  0.00    -0.000 C 
BRANCH  17  18
ATOM     18  C   UNL     1      19.878   5.346   9.591  1.00  0.00    -0.000 C 
BRANCH  18  19
ATOM     19  C   UNL     1      18.992   5.623   8.370  1.00  0.00    -0.003 C 
ATOM     20  C   UNL     1      18.154   6.881   8.570  1.00  0.00     0.004 C 
ENDBRANCH  18  19
ENDBRANCH  17  18
ENDBRANCH  16  17
ENDBRANCH  15  16
ENDBRANCH  14  15
ENDBRANCH  13  14
ENDBRANCH  12  13
ENDBRANCH   1  12
TORSDOF 16
ENDMDL
