MODEL 1
REMARK VINA RESULT:    80.229      0.000      0.000
REMARK INTER + INTRA:          88.434
REMARK INTER:                  87.264
REMARK INTRA:                   1.170
REMARK UNBOUND:                 1.170
REMARK SMILES C[C@H]1[C@@H](C)CC[C@]2(C(=O)[O-])CC[C@@]3(C)C(=CC[C@H]4[C@]5(C)CC[C@@H](O)C(C)(C)[C@H]5CC[C@@]43C)[C@@H]12
REMARK SMILES IDX 7 1 6 2 11 3 33 4 5 5 12 6 15 7 2 8 3 9 13 10 16 11 1 12
REMARK SMILES IDX 4 13 14 14 31 15 17 16 18 17 30 18 32 19 19 20 29 21 28 22
REMARK SMILES IDX 21 23 20 24 25 25 22 26 23 27 26 28 27 29 8 30 9 31 10 32
REMARK SMILES IDX 24 33
REMARK H PARENT 24 34
REMARK Flexibility Score: inf
ROOT
ATOM      1  C   UNL     1      17.441 -13.865  13.142  1.00  0.00     0.017 C 
ATOM      2  C   UNL     1      18.299 -15.103  12.763  1.00  0.00     0.014 C 
ATOM      3  C   UNL     1      17.255 -13.014  11.875  1.00  0.00     0.014 C 
ATOM      4  C   UNL     1      18.231 -12.984  14.164  1.00  0.00     0.030 C 
ATOM      5  C   UNL     1      18.695 -15.926  13.992  1.00  0.00     0.004 C 
ATOM      6  C   UNL     1      16.358 -11.791  12.104  1.00  0.00     0.013 C 
ATOM      7  C   UNL     1      17.580 -11.607  14.431  1.00  0.00    -0.063 C 
ATOM      8  C   UNL     1      18.784 -13.785  15.406  1.00  0.00    -0.003 C 
ATOM      9  C   UNL     1      19.534 -15.074  14.955  1.00  0.00    -0.011 C 
ATOM     10  C   UNL     1      16.599 -10.937  13.422  1.00  0.00    -0.006 C 
ATOM     11  C   UNL     1      18.101 -10.834  15.421  1.00  0.00    -0.027 C 
ATOM     12  C   UNL     1      17.752 -14.038  16.522  1.00  0.00     0.008 C 
ATOM     13  C   UNL     1      20.042 -15.921  16.133  1.00  0.00     0.008 C 
ATOM     14  C   UNL     1      15.213 -10.867  14.152  1.00  0.00     0.017 C 
ATOM     15  C   UNL     1      17.175  -9.464  13.086  1.00  0.00    -0.020 C 
ATOM     16  C   UNL     1      17.798  -9.374  15.637  1.00  0.00     0.032 C 
ATOM     17  C   UNL     1      17.165  -8.622  14.426  1.00  0.00     0.006 C 
ATOM     18  C   UNL     1      16.315  -8.682  12.029  1.00  0.00     0.008 C 
ATOM     19  C   UNL     1      18.618  -9.628  12.507  1.00  0.00     0.012 C 
ATOM     20  C   UNL     1      17.549  -7.084  14.325  1.00  0.00    -0.025 C 
ATOM     21  C   UNL     1      16.671  -7.190  11.889  1.00  0.00     0.005 C 
ATOM     22  C   UNL     1      16.612  -6.434  13.239  1.00  0.00     0.003 C 
ATOM     23  C   UNL     1      17.265  -6.404  15.722  1.00  0.00     0.010 C 
ATOM     24  C   UNL     1      19.063  -6.899  13.981  1.00  0.00     0.012 C 
ATOM     25  C   UNL     1      16.698  -4.850  13.107  1.00  0.00    -0.006 C 
ATOM     26  C   UNL     1      16.557  -5.038  15.667  1.00  0.00     0.033 C 
ATOM     27  C   UNL     1      17.020  -4.171  14.492  1.00  0.00     0.120 C 
ATOM     28  C   UNL     1      17.726  -4.387  12.040  1.00  0.00     0.014 C 
ATOM     29  C   UNL     1      15.312  -4.321  12.639  1.00  0.00     0.014 C 
ENDROOT
BRANCH   1  30
ATOM     30  C   UNL     1      16.075 -14.358  13.608  1.00  0.00     0.048 C 
ATOM     31  O   UNL     1      15.888 -14.799  14.770  1.00  0.00    -0.550 OA
ATOM     32  O   UNL     1      14.988 -14.288  12.743  1.00  0.00    -0.550 OA
ENDBRANCH   1  30
BRANCH  27  33
ATOM     33  O   UNL     1      18.389  -3.878  14.629  1.00  0.00    -0.393 OA
ATOM     34  H   UNL     1      18.831  -4.122  13.775  1.00  0.00     0.210 HD
ENDBRANCH  27  33
TORSDOF 2
ENDMDL
