MODEL 1
REMARK VINA RESULT:    -3.775      0.000      0.000
REMARK INTER + INTRA:         -12.384
REMARK INTER:                  -8.188
REMARK INTRA:                  -4.195
REMARK UNBOUND:                -4.195
REMARK SMILES CCCCCCCCCCCCCCCCCCCCCC(=O)[O-]
REMARK SMILES IDX 12 1 11 2 10 3 9 4 8 5 7 6 6 7 5 8 4 9 3 10 2 11 1 12 13 13
REMARK SMILES IDX 14 14 15 15 16 16 17 17 18 18 19 19 20 20 21 21 22 22 23 23
REMARK SMILES IDX 24 24
REMARK H PARENT
REMARK Flexibility Score: inf
ROOT
ATOM      1  C   UNL     1      20.295  49.373  37.322  1.00  0.00     0.000 C 
ENDROOT
BRANCH   1   2
ATOM      2  C   UNL     1      20.492  50.666  36.522  1.00  0.00     0.000 C 
BRANCH   2   3
ATOM      3  C   UNL     1      19.818  51.855  37.219  1.00  0.00     0.000 C 
BRANCH   3   4
ATOM      4  C   UNL     1      20.850  52.936  37.576  1.00  0.00    -0.000 C 
BRANCH   4   5
ATOM      5  C   UNL     1      20.647  53.509  38.988  1.00  0.00    -0.000 C 
BRANCH   5   6
ATOM      6  C   UNL     1      21.750  53.075  39.965  1.00  0.00    -0.000 C 
BRANCH   6   7
ATOM      7  C   UNL     1      22.661  52.015  39.336  1.00  0.00    -0.000 C 
BRANCH   7   8
ATOM      8  C   UNL     1      22.470  50.650  40.018  1.00  0.00    -0.000 C 
BRANCH   8   9
ATOM      9  C   UNL     1      21.418  50.699  41.146  1.00  0.00    -0.000 C 
BRANCH   9  10
ATOM     10  C   UNL     1      20.189  49.814  40.882  1.00  0.00    -0.000 C 
BRANCH  10  11
ATOM     11  C   UNL     1      18.906  50.625  40.657  1.00  0.00    -0.003 C 
ATOM     12  C   UNL     1      18.598  51.512  41.860  1.00  0.00     0.004 C 
ENDBRANCH  10  11
ENDBRANCH   9  10
ENDBRANCH   8   9
ENDBRANCH   7   8
ENDBRANCH   6   7
ENDBRANCH   5   6
ENDBRANCH   4   5
ENDBRANCH   3   4
ENDBRANCH   2   3
ENDBRANCH   1   2
BRANCH   1  13
ATOM     13  C   UNL     1      19.083  48.586  36.801  1.00  0.00     0.000 C 
BRANCH  13  14
ATOM     14  C   UNL     1      18.026  48.334  37.888  1.00  0.00     0.000 C 
BRANCH  14  15
ATOM     15  C   UNL     1      16.640  48.923  37.540  1.00  0.00     0.000 C 
BRANCH  15  16
ATOM     16  C   UNL     1      16.581  50.450  37.715  1.00  0.00     0.000 C 
BRANCH  16  17
ATOM     17  C   UNL     1      16.038  51.151  36.457  1.00  0.00     0.000 C 
BRANCH  17  18
ATOM     18  C   UNL     1      16.865  50.833  35.199  1.00  0.00     0.000 C 
BRANCH  18  19
ATOM     19  C   UNL     1      17.402  52.081  34.475  1.00  0.00     0.000 C 
BRANCH  19  20
ATOM     20  C   UNL     1      18.536  51.746  33.492  1.00  0.00     0.006 C 
BRANCH  20  21
ATOM     21  C   UNL     1      18.643  50.234  33.272  1.00  0.00     0.053 C 
BRANCH  21  22
ATOM     22  C   UNL     1      19.990  49.880  32.726  1.00  0.00     0.041 C 
ATOM     23  O   UNL     1      20.307  50.215  31.554  1.00  0.00    -0.550 OA
ATOM     24  O   UNL     1      20.876  49.131  33.491  1.00  0.00    -0.550 OA
ENDBRANCH  21  22
ENDBRANCH  20  21
ENDBRANCH  19  20
ENDBRANCH  18  19
ENDBRANCH  17  18
ENDBRANCH  16  17
ENDBRANCH  15  16
ENDBRANCH  14  15
ENDBRANCH  13  14
ENDBRANCH   1  13
TORSDOF 20
ENDMDL
MODEL 2
REMARK VINA RESULT:    -3.760      5.506      9.948
REMARK INTER + INTRA:         -12.353
REMARK INTER:                  -8.908
REMARK INTRA:                  -3.444
REMARK UNBOUND:                -4.195
REMARK SMILES CCCCCCCCCCCCCCCCCCCCCC(=O)[O-]
REMARK SMILES IDX 12 1 11 2 10 3 9 4 8 5 7 6 6 7 5 8 4 9 3 10 2 11 1 12 13 13
REMARK SMILES IDX 14 14 15 15 16 16 17 17 18 18 19 19 20 20 21 21 22 22 23 23
REMARK SMILES IDX 24 24
REMARK H PARENT
REMARK Flexibility Score: inf
ROOT
ATOM      1  C   UNL     1      15.794  51.550  25.775  1.00  0.00     0.000 C 
ENDROOT
BRANCH   1   2
ATOM      2  C   UNL     1      14.303  51.627  26.125  1.00  0.00     0.000 C 
BRANCH   2   3
ATOM      3  C   UNL     1      13.775  53.060  25.983  1.00  0.00     0.000 C 
BRANCH   3   4
ATOM      4  C   UNL     1      12.597  53.306  26.938  1.00  0.00    -0.000 C 
BRANCH   4   5
ATOM      5  C   UNL     1      13.041  53.474  28.400  1.00  0.00    -0.000 C 
BRANCH   5   6
ATOM      6  C   UNL     1      14.328  54.303  28.534  1.00  0.00    -0.000 C 
BRANCH   6   7
ATOM      7  C   UNL     1      15.186  53.808  29.703  1.00  0.00    -0.000 C 
BRANCH   7   8
ATOM      8  C   UNL     1      14.740  52.410  30.160  1.00  0.00    -0.000 C 
BRANCH   8   9
ATOM      9  C   UNL     1      15.769  51.740  31.094  1.00  0.00    -0.000 C 
BRANCH   9  10
ATOM     10  C   UNL     1      16.009  50.254  30.784  1.00  0.00    -0.000 C 
BRANCH  10  11
ATOM     11  C   UNL     1      16.054  49.380  32.045  1.00  0.00    -0.003 C 
ATOM     12  C   UNL     1      14.648  49.021  32.515  1.00  0.00     0.004 C 
ENDBRANCH  10  11
ENDBRANCH   9  10
ENDBRANCH   8   9
ENDBRANCH   7   8
ENDBRANCH   6   7
ENDBRANCH   5   6
ENDBRANCH   4   5
ENDBRANCH   3   4
ENDBRANCH   2   3
ENDBRANCH   1   2
BRANCH   1  13
ATOM     13  C   UNL     1      16.385  50.196  26.191  1.00  0.00     0.000 C 
BRANCH  13  14
ATOM     14  C   UNL     1      17.365  50.310  27.371  1.00  0.00     0.000 C 
BRANCH  14  15
ATOM     15  C   UNL     1      17.711  51.771  27.738  1.00  0.00     0.000 C 
BRANCH  15  16
ATOM     16  C   UNL     1      18.915  51.876  28.689  1.00  0.00     0.000 C 
BRANCH  16  17
ATOM     17  C   UNL     1      19.519  50.496  29.006  1.00  0.00     0.000 C 
BRANCH  17  18
ATOM     18  C   UNL     1      19.864  50.331  30.497  1.00  0.00     0.000 C 
BRANCH  18  19
ATOM     19  C   UNL     1      19.500  51.553  31.359  1.00  0.00     0.000 C 
BRANCH  19  20
ATOM     20  C   UNL     1      19.209  51.174  32.820  1.00  0.00     0.006 C 
BRANCH  20  21
ATOM     21  C   UNL     1      18.397  52.269  33.520  1.00  0.00     0.053 C 
BRANCH  21  22
ATOM     22  C   UNL     1      17.973  51.816  34.881  1.00  0.00     0.041 C 
ATOM     23  O   UNL     1      16.905  51.165  35.028  1.00  0.00    -0.550 OA
ATOM     24  O   UNL     1      18.728  52.159  35.996  1.00  0.00    -0.550 OA
ENDBRANCH  21  22
ENDBRANCH  20  21
ENDBRANCH  19  20
ENDBRANCH  18  19
ENDBRANCH  17  18
ENDBRANCH  16  17
ENDBRANCH  15  16
ENDBRANCH  14  15
ENDBRANCH  13  14
ENDBRANCH   1  13
TORSDOF 20
ENDMDL
MODEL 3
REMARK VINA RESULT:    -3.748      1.756      4.972
REMARK INTER + INTRA:         -12.325
REMARK INTER:                  -8.663
REMARK INTRA:                  -3.662
REMARK UNBOUND:                -4.195
REMARK SMILES CCCCCCCCCCCCCCCCCCCCCC(=O)[O-]
REMARK SMILES IDX 12 1 11 2 10 3 9 4 8 5 7 6 6 7 5 8 4 9 3 10 2 11 1 12 13 13
REMARK SMILES IDX 14 14 15 15 16 16 17 17 18 18 19 19 20 20 21 21 22 22 23 23
REMARK SMILES IDX 24 24
REMARK H PARENT
REMARK Flexibility Score: inf
ROOT
ATOM      1  C   UNL     1      22.755  51.293  40.117  1.00  0.00     0.000 C 
ENDROOT
BRANCH   1   2
ATOM      2  C   UNL     1      22.138  51.793  41.428  1.00  0.00     0.000 C 
BRANCH   2   3
ATOM      3  C   UNL     1      20.753  51.176  41.659  1.00  0.00     0.000 C 
BRANCH   3   4
ATOM      4  C   UNL     1      20.493  50.030  40.670  1.00  0.00    -0.000 C 
BRANCH   4   5
ATOM      5  C   UNL     1      19.103  49.396  40.844  1.00  0.00    -0.000 C 
BRANCH   5   6
ATOM      6  C   UNL     1      18.157  49.721  39.678  1.00  0.00    -0.000 C 
BRANCH   6   7
ATOM      7  C   UNL     1      17.510  51.099  39.857  1.00  0.00    -0.000 C 
BRANCH   7   8
ATOM      8  C   UNL     1      16.533  51.402  38.710  1.00  0.00    -0.000 C 
BRANCH   8   9
ATOM      9  C   UNL     1      16.424  50.234  37.707  1.00  0.00    -0.000 C 
BRANCH   9  10
ATOM     10  C   UNL     1      16.409  50.682  36.237  1.00  0.00    -0.000 C 
BRANCH  10  11
ATOM     11  C   UNL     1      16.190  49.519  35.260  1.00  0.00    -0.003 C 
ATOM     12  C   UNL     1      16.461  48.177  35.933  1.00  0.00     0.004 C 
ENDBRANCH  10  11
ENDBRANCH   9  10
ENDBRANCH   8   9
ENDBRANCH   7   8
ENDBRANCH   6   7
ENDBRANCH   5   6
ENDBRANCH   4   5
ENDBRANCH   3   4
ENDBRANCH   2   3
ENDBRANCH   1   2
BRANCH   1  13
ATOM     13  C   UNL     1      23.055  52.464  39.170  1.00  0.00     0.000 C 
BRANCH  13  14
ATOM     14  C   UNL     1      22.307  52.356  37.832  1.00  0.00     0.000 C 
BRANCH  14  15
ATOM     15  C   UNL     1      20.791  52.629  37.955  1.00  0.00     0.000 C 
BRANCH  15  16
ATOM     16  C   UNL     1      19.941  51.660  37.114  1.00  0.00     0.000 C 
BRANCH  16  17
ATOM     17  C   UNL     1      20.624  50.290  36.952  1.00  0.00     0.000 C 
BRANCH  17  18
ATOM     18  C   UNL     1      19.897  49.385  35.942  1.00  0.00     0.000 C 
BRANCH  18  19
ATOM     19  C   UNL     1      19.987  49.878  34.486  1.00  0.00     0.000 C 
BRANCH  19  20
ATOM     20  C   UNL     1      20.377  48.756  33.510  1.00  0.00     0.006 C 
BRANCH  20  21
ATOM     21  C   UNL     1      20.685  47.457  34.261  1.00  0.00     0.053 C 
BRANCH  21  22
ATOM     22  C   UNL     1      22.145  47.143  34.184  1.00  0.00     0.041 C 
ATOM     23  O   UNL     1      22.536  46.072  33.647  1.00  0.00    -0.550 OA
ATOM     24  O   UNL     1      23.074  48.004  34.755  1.00  0.00    -0.550 OA
ENDBRANCH  21  22
ENDBRANCH  20  21
ENDBRANCH  19  20
ENDBRANCH  18  19
ENDBRANCH  17  18
ENDBRANCH  16  17
ENDBRANCH  15  16
ENDBRANCH  14  15
ENDBRANCH  13  14
ENDBRANCH   1  13
TORSDOF 20
ENDMDL
MODEL 4
REMARK VINA RESULT:    -3.730      6.537     11.118
REMARK INTER + INTRA:         -12.287
REMARK INTER:                  -8.763
REMARK INTRA:                  -3.523
REMARK UNBOUND:                -4.195
REMARK SMILES CCCCCCCCCCCCCCCCCCCCCC(=O)[O-]
REMARK SMILES IDX 12 1 11 2 10 3 9 4 8 5 7 6 6 7 5 8 4 9 3 10 2 11 1 12 13 13
REMARK SMILES IDX 14 14 15 15 16 16 17 17 18 18 19 19 20 20 21 21 22 22 23 23
REMARK SMILES IDX 24 24
REMARK H PARENT
REMARK Flexibility Score: inf
ROOT
ATOM      1  C   UNL     1      17.260  52.505  28.315  1.00  0.00     0.000 C 
ENDROOT
BRANCH   1   2
ATOM      2  C   UNL     1      16.130  51.669  28.928  1.00  0.00     0.000 C 
BRANCH   2   3
ATOM      3  C   UNL     1      15.185  52.543  29.761  1.00  0.00     0.000 C 
BRANCH   3   4
ATOM      4  C   UNL     1      15.330  54.024  29.379  1.00  0.00    -0.000 C 
BRANCH   4   5
ATOM      5  C   UNL     1      14.240  54.498  28.405  1.00  0.00    -0.000 C 
BRANCH   5   6
ATOM      6  C   UNL     1      13.000  53.591  28.421  1.00  0.00    -0.000 C 
BRANCH   6   7
ATOM      7  C   UNL     1      12.600  53.175  27.002  1.00  0.00    -0.000 C 
BRANCH   7   8
ATOM      8  C   UNL     1      13.362  53.998  25.951  1.00  0.00    -0.000 C 
BRANCH   8   9
ATOM      9  C   UNL     1      13.989  53.115  24.853  1.00  0.00    -0.000 C 
BRANCH   9  10
ATOM     10  C   UNL     1      15.276  52.401  25.295  1.00  0.00    -0.000 C 
BRANCH  10  11
ATOM     11  C   UNL     1      15.032  50.954  25.746  1.00  0.00    -0.003 C 
ATOM     12  C   UNL     1      16.194  50.050  25.344  1.00  0.00     0.004 C 
ENDBRANCH  10  11
ENDBRANCH   9  10
ENDBRANCH   8   9
ENDBRANCH   7   8
ENDBRANCH   6   7
ENDBRANCH   5   6
ENDBRANCH   4   5
ENDBRANCH   3   4
ENDBRANCH   2   3
ENDBRANCH   1   2
BRANCH   1  13
ATOM     13  C   UNL     1      18.418  51.607  27.856  1.00  0.00     0.000 C 
BRANCH  13  14
ATOM     14  C   UNL     1      18.370  50.205  28.484  1.00  0.00     0.000 C 
BRANCH  14  15
ATOM     15  C   UNL     1      19.689  49.801  29.180  1.00  0.00     0.000 C 
BRANCH  15  16
ATOM     16  C   UNL     1      19.786  50.327  30.623  1.00  0.00     0.000 C 
BRANCH  16  17
ATOM     17  C   UNL     1      18.659  49.773  31.513  1.00  0.00     0.000 C 
BRANCH  17  18
ATOM     18  C   UNL     1      17.785  50.886  32.118  1.00  0.00     0.000 C 
BRANCH  18  19
ATOM     19  C   UNL     1      16.443  50.385  32.682  1.00  0.00     0.000 C 
BRANCH  19  20
ATOM     20  C   UNL     1      15.768  49.354  31.763  1.00  0.00     0.006 C 
BRANCH  20  21
ATOM     21  C   UNL     1      14.254  49.576  31.707  1.00  0.00     0.053 C 
BRANCH  21  22
ATOM     22  C   UNL     1      13.528  48.304  32.009  1.00  0.00     0.041 C 
ATOM     23  O   UNL     1      14.134  47.341  32.549  1.00  0.00    -0.550 OA
ATOM     24  O   UNL     1      12.194  48.160  31.645  1.00  0.00    -0.550 OA
ENDBRANCH  21  22
ENDBRANCH  20  21
ENDBRANCH  19  20
ENDBRANCH  18  19
ENDBRANCH  17  18
ENDBRANCH  16  17
ENDBRANCH  15  16
ENDBRANCH  14  15
ENDBRANCH  13  14
ENDBRANCH   1  13
TORSDOF 20
ENDMDL
MODEL 5
REMARK VINA RESULT:    -3.727      1.337      2.281
REMARK INTER + INTRA:         -12.280
REMARK INTER:                  -8.121
REMARK INTRA:                  -4.160
REMARK UNBOUND:                -4.195
REMARK SMILES CCCCCCCCCCCCCCCCCCCCCC(=O)[O-]
REMARK SMILES IDX 12 1 11 2 10 3 9 4 8 5 7 6 6 7 5 8 4 9 3 10 2 11 1 12 13 13
REMARK SMILES IDX 14 14 15 15 16 16 17 17 18 18 19 19 20 20 21 21 22 22 23 23
REMARK SMILES IDX 24 24
REMARK H PARENT
REMARK Flexibility Score: inf
ROOT
ATOM      1  C   UNL     1      19.185  49.157  38.636  1.00  0.00     0.000 C 
ENDROOT
BRANCH   1   2
ATOM      2  C   UNL     1      19.530  49.040  37.147  1.00  0.00     0.000 C 
BRANCH   2   3
ATOM      3  C   UNL     1      20.956  49.531  36.869  1.00  0.00     0.000 C 
BRANCH   3   4
ATOM      4  C   UNL     1      21.483  50.372  38.042  1.00  0.00    -0.000 C 
BRANCH   4   5
ATOM      5  C   UNL     1      21.755  51.834  37.652  1.00  0.00    -0.000 C 
BRANCH   5   6
ATOM      6  C   UNL     1      20.463  52.643  37.459  1.00  0.00    -0.000 C 
BRANCH   6   7
ATOM      7  C   UNL     1      20.056  53.354  38.754  1.00  0.00    -0.000 C 
BRANCH   7   8
ATOM      8  C   UNL     1      21.249  53.469  39.717  1.00  0.00    -0.000 C 
BRANCH   8   9
ATOM      9  C   UNL     1      20.846  53.215  41.185  1.00  0.00    -0.000 C 
BRANCH   9  10
ATOM     10  C   UNL     1      19.869  52.041  41.362  1.00  0.00    -0.000 C 
BRANCH  10  11
ATOM     11  C   UNL     1      20.582  50.696  41.555  1.00  0.00    -0.003 C 
ATOM     12  C   UNL     1      19.746  49.748  42.410  1.00  0.00     0.004 C 
ENDBRANCH  10  11
ENDBRANCH   9  10
ENDBRANCH   8   9
ENDBRANCH   7   8
ENDBRANCH   6   7
ENDBRANCH   5   6
ENDBRANCH   4   5
ENDBRANCH   3   4
ENDBRANCH   2   3
ENDBRANCH   1   2
BRANCH   1  13
ATOM     13  C   UNL     1      17.682  49.407  38.831  1.00  0.00     0.000 C 
BRANCH  13  14
ATOM     14  C   UNL     1      17.329  50.902  38.888  1.00  0.00     0.000 C 
BRANCH  14  15
ATOM     15  C   UNL     1      16.604  51.407  37.621  1.00  0.00     0.000 C 
BRANCH  15  16
ATOM     16  C   UNL     1      16.070  50.261  36.743  1.00  0.00     0.000 C 
BRANCH  16  17
ATOM     17  C   UNL     1      16.636  50.320  35.314  1.00  0.00     0.000 C 
BRANCH  17  18
ATOM     18  C   UNL     1      17.401  51.626  35.035  1.00  0.00     0.000 C 
BRANCH  18  19
ATOM     19  C   UNL     1      18.799  51.410  34.427  1.00  0.00     0.000 C 
BRANCH  19  20
ATOM     20  C   UNL     1      18.793  50.366  33.298  1.00  0.00     0.006 C 
BRANCH  20  21
ATOM     21  C   UNL     1      20.201  49.816  33.050  1.00  0.00     0.053 C 
BRANCH  21  22
ATOM     22  C   UNL     1      20.265  48.365  33.404  1.00  0.00     0.041 C 
ATOM     23  O   UNL     1      21.359  47.744  33.338  1.00  0.00    -0.550 OA
ATOM     24  O   UNL     1      19.107  47.681  33.753  1.00  0.00    -0.550 OA
ENDBRANCH  21  22
ENDBRANCH  20  21
ENDBRANCH  19  20
ENDBRANCH  18  19
ENDBRANCH  17  18
ENDBRANCH  16  17
ENDBRANCH  15  16
ENDBRANCH  14  15
ENDBRANCH  13  14
ENDBRANCH   1  13
TORSDOF 20
ENDMDL
MODEL 6
REMARK VINA RESULT:    -3.714      6.785     11.385
REMARK INTER + INTRA:         -12.251
REMARK INTER:                  -8.843
REMARK INTRA:                  -3.408
REMARK UNBOUND:                -4.195
REMARK SMILES CCCCCCCCCCCCCCCCCCCCCC(=O)[O-]
REMARK SMILES IDX 12 1 11 2 10 3 9 4 8 5 7 6 6 7 5 8 4 9 3 10 2 11 1 12 13 13
REMARK SMILES IDX 14 14 15 15 16 16 17 17 18 18 19 19 20 20 21 21 22 22 23 23
REMARK SMILES IDX 24 24
REMARK H PARENT
REMARK Flexibility Score: inf
ROOT
ATOM      1  C   UNL     1      16.130  50.738  24.563  1.00  0.00     0.000 C 
ENDROOT
BRANCH   1   2
ATOM      2  C   UNL     1      16.923  52.046  24.466  1.00  0.00     0.000 C 
BRANCH   2   3
ATOM      3  C   UNL     1      16.297  52.997  23.438  1.00  0.00     0.000 C 
BRANCH   3   4
ATOM      4  C   UNL     1      14.890  53.431  23.878  1.00  0.00    -0.000 C 
BRANCH   4   5
ATOM      5  C   UNL     1      14.901  54.702  24.741  1.00  0.00    -0.000 C 
BRANCH   5   6
ATOM      6  C   UNL     1      14.260  54.485  26.120  1.00  0.00    -0.000 C 
BRANCH   6   7
ATOM      7  C   UNL     1      13.057  53.539  26.028  1.00  0.00    -0.000 C 
BRANCH   7   8
ATOM      8  C   UNL     1      12.918  52.700  27.309  1.00  0.00    -0.000 C 
BRANCH   8   9
ATOM      9  C   UNL     1      13.234  53.513  28.582  1.00  0.00    -0.000 C 
BRANCH   9  10
ATOM     10  C   UNL     1      13.807  52.666  29.729  1.00  0.00    -0.000 C 
BRANCH  10  11
ATOM     11  C   UNL     1      14.993  53.339  30.434  1.00  0.00    -0.003 C 
ATOM     12  C   UNL     1      15.715  54.302  29.496  1.00  0.00     0.004 C 
ENDBRANCH  10  11
ENDBRANCH   9  10
ENDBRANCH   8   9
ENDBRANCH   7   8
ENDBRANCH   6   7
ENDBRANCH   5   6
ENDBRANCH   4   5
ENDBRANCH   3   4
ENDBRANCH   2   3
ENDBRANCH   1   2
BRANCH   1  13
ATOM     13  C   UNL     1      16.103  50.219  26.008  1.00  0.00     0.000 C 
BRANCH  13  14
ATOM     14  C   UNL     1      16.281  51.339  27.046  1.00  0.00     0.000 C 
BRANCH  14  15
ATOM     15  C   UNL     1      17.289  50.983  28.161  1.00  0.00     0.000 C 
BRANCH  15  16
ATOM     16  C   UNL     1      18.683  51.587  27.919  1.00  0.00     0.000 C 
BRANCH  16  17
ATOM     17  C   UNL     1      19.370  51.996  29.234  1.00  0.00     0.000 C 
BRANCH  17  18
ATOM     18  C   UNL     1      19.524  50.816  30.211  1.00  0.00     0.000 C 
BRANCH  18  19
ATOM     19  C   UNL     1      19.300  51.197  31.686  1.00  0.00     0.000 C 
BRANCH  19  20
ATOM     20  C   UNL     1      17.869  51.692  31.953  1.00  0.00     0.006 C 
BRANCH  20  21
ATOM     21  C   UNL     1      17.090  50.685  32.805  1.00  0.00     0.053 C 
BRANCH  21  22
ATOM     22  C   UNL     1      16.387  49.696  31.932  1.00  0.00     0.041 C 
ATOM     23  O   UNL     1      15.251  49.964  31.456  1.00  0.00    -0.550 OA
ATOM     24  O   UNL     1      16.958  48.453  31.687  1.00  0.00    -0.550 OA
ENDBRANCH  21  22
ENDBRANCH  20  21
ENDBRANCH  19  20
ENDBRANCH  18  19
ENDBRANCH  17  18
ENDBRANCH  16  17
ENDBRANCH  15  16
ENDBRANCH  14  15
ENDBRANCH  13  14
ENDBRANCH   1  13
TORSDOF 20
ENDMDL
MODEL 7
REMARK VINA RESULT:    -3.707      5.598      9.179
REMARK INTER + INTRA:         -12.237
REMARK INTER:                  -8.618
REMARK INTRA:                  -3.619
REMARK UNBOUND:                -4.195
REMARK SMILES CCCCCCCCCCCCCCCCCCCCCC(=O)[O-]
REMARK SMILES IDX 12 1 11 2 10 3 9 4 8 5 7 6 6 7 5 8 4 9 3 10 2 11 1 12 13 13
REMARK SMILES IDX 14 14 15 15 16 16 17 17 18 18 19 19 20 20 21 21 22 22 23 23
REMARK SMILES IDX 24 24
REMARK H PARENT
REMARK Flexibility Score: inf
ROOT
ATOM      1  C   UNL     1      20.133  50.963  31.472  1.00  0.00     0.000 C 
ENDROOT
BRANCH   1   2
ATOM      2  C   UNL     1      19.152  51.599  32.464  1.00  0.00     0.000 C 
BRANCH   2   3
ATOM      3  C   UNL     1      18.820  50.634  33.609  1.00  0.00     0.000 C 
BRANCH   3   4
ATOM      4  C   UNL     1      17.509  51.037  34.301  1.00  0.00    -0.000 C 
BRANCH   4   5
ATOM      5  C   UNL     1      16.426  49.950  34.205  1.00  0.00    -0.000 C 
BRANCH   5   6
ATOM      6  C   UNL     1      16.403  49.260  32.832  1.00  0.00    -0.000 C 
BRANCH   6   7
ATOM      7  C   UNL     1      15.311  49.850  31.934  1.00  0.00    -0.000 C 
BRANCH   7   8
ATOM      8  C   UNL     1      15.925  50.610  30.747  1.00  0.00    -0.000 C 
BRANCH   8   9
ATOM      9  C   UNL     1      14.916  51.565  30.076  1.00  0.00    -0.000 C 
BRANCH   9  10
ATOM     10  C   UNL     1      14.906  52.977  30.684  1.00  0.00    -0.000 C 
BRANCH  10  11
ATOM     11  C   UNL     1      16.278  53.407  31.220  1.00  0.00    -0.003 C 
ATOM     12  C   UNL     1      16.153  54.054  32.596  1.00  0.00     0.004 C 
ENDBRANCH  10  11
ENDBRANCH   9  10
ENDBRANCH   8   9
ENDBRANCH   7   8
ENDBRANCH   6   7
ENDBRANCH   5   6
ENDBRANCH   4   5
ENDBRANCH   3   4
ENDBRANCH   2   3
ENDBRANCH   1   2
BRANCH   1  13
ATOM     13  C   UNL     1      19.447  49.859  30.655  1.00  0.00     0.000 C 
BRANCH  13  14
ATOM     14  C   UNL     1      19.472  50.134  29.143  1.00  0.00     0.000 C 
BRANCH  14  15
ATOM     15  C   UNL     1      19.216  51.615  28.787  1.00  0.00     0.000 C 
BRANCH  15  16
ATOM     16  C   UNL     1      17.987  51.806  27.881  1.00  0.00     0.000 C 
BRANCH  16  17
ATOM     17  C   UNL     1      17.411  50.462  27.403  1.00  0.00     0.000 C 
BRANCH  17  18
ATOM     18  C   UNL     1      16.306  50.635  26.347  1.00  0.00     0.000 C 
BRANCH  18  19
ATOM     19  C   UNL     1      16.162  52.076  25.827  1.00  0.00     0.000 C 
BRANCH  19  20
ATOM     20  C   UNL     1      14.700  52.452  25.534  1.00  0.00     0.006 C 
BRANCH  20  21
ATOM     21  C   UNL     1      13.769  51.933  26.634  1.00  0.00     0.053 C 
BRANCH  21  22
ATOM     22  C   UNL     1      12.670  52.914  26.894  1.00  0.00     0.041 C 
ATOM     23  O   UNL     1      11.899  53.264  25.961  1.00  0.00    -0.550 OA
ATOM     24  O   UNL     1      12.529  53.484  28.153  1.00  0.00    -0.550 OA
ENDBRANCH  21  22
ENDBRANCH  20  21
ENDBRANCH  19  20
ENDBRANCH  18  19
ENDBRANCH  17  18
ENDBRANCH  16  17
ENDBRANCH  15  16
ENDBRANCH  14  15
ENDBRANCH  13  14
ENDBRANCH   1  13
TORSDOF 20
ENDMDL
MODEL 8
REMARK VINA RESULT:    -3.640      1.890      3.716
REMARK INTER + INTRA:         -12.090
REMARK INTER:                  -8.131
REMARK INTRA:                  -3.960
REMARK UNBOUND:                -4.195
REMARK SMILES CCCCCCCCCCCCCCCCCCCCCC(=O)[O-]
REMARK SMILES IDX 12 1 11 2 10 3 9 4 8 5 7 6 6 7 5 8 4 9 3 10 2 11 1 12 13 13
REMARK SMILES IDX 14 14 15 15 16 16 17 17 18 18 19 19 20 20 21 21 22 22 23 23
REMARK SMILES IDX 24 24
REMARK H PARENT
REMARK Flexibility Score: inf
ROOT
ATOM      1  C   UNL     1      17.725  49.940  38.892  1.00  0.00     0.000 C 
ENDROOT
BRANCH   1   2
ATOM      2  C   UNL     1      18.544  49.951  40.188  1.00  0.00     0.000 C 
BRANCH   2   3
ATOM      3  C   UNL     1      18.512  51.333  40.851  1.00  0.00     0.000 C 
BRANCH   3   4
ATOM      4  C   UNL     1      19.081  51.269  42.277  1.00  0.00    -0.000 C 
BRANCH   4   5
ATOM      5  C   UNL     1      20.591  50.982  42.304  1.00  0.00    -0.000 C 
BRANCH   5   6
ATOM      6  C   UNL     1      21.435  52.248  42.084  1.00  0.00    -0.000 C 
BRANCH   6   7
ATOM      7  C   UNL     1      22.418  52.063  40.923  1.00  0.00    -0.000 C 
BRANCH   7   8
ATOM      8  C   UNL     1      22.184  50.721  40.212  1.00  0.00    -0.000 C 
BRANCH   8   9
ATOM      9  C   UNL     1      22.327  50.834  38.680  1.00  0.00    -0.000 C 
BRANCH   9  10
ATOM     10  C   UNL     1      21.043  51.296  37.973  1.00  0.00    -0.000 C 
BRANCH  10  11
ATOM     11  C   UNL     1      21.079  52.779  37.578  1.00  0.00    -0.003 C 
ATOM     12  C   UNL     1      19.962  53.559  38.265  1.00  0.00     0.004 C 
ENDBRANCH  10  11
ENDBRANCH   9  10
ENDBRANCH   8   9
ENDBRANCH   7   8
ENDBRANCH   6   7
ENDBRANCH   5   6
ENDBRANCH   4   5
ENDBRANCH   3   4
ENDBRANCH   2   3
ENDBRANCH   1   2
BRANCH   1  13
ATOM     13  C   UNL     1      16.900  51.229  38.755  1.00  0.00     0.000 C 
BRANCH  13  14
ATOM     14  C   UNL     1      16.575  51.576  37.294  1.00  0.00     0.000 C 
BRANCH  14  15
ATOM     15  C   UNL     1      17.662  51.110  36.299  1.00  0.00     0.000 C 
BRANCH  15  16
ATOM     16  C   UNL     1      17.099  50.226  35.173  1.00  0.00     0.000 C 
BRANCH  16  17
ATOM     17  C   UNL     1      18.015  50.217  33.936  1.00  0.00     0.000 C 
BRANCH  17  18
ATOM     18  C   UNL     1      19.484  50.513  34.288  1.00  0.00     0.000 C 
BRANCH  18  19
ATOM     19  C   UNL     1      20.441  49.343  33.996  1.00  0.00     0.000 C 
BRANCH  19  20
ATOM     20  C   UNL     1      21.207  48.886  35.249  1.00  0.00     0.006 C 
BRANCH  20  21
ATOM     21  C   UNL     1      20.258  48.257  36.274  1.00  0.00     0.053 C 
BRANCH  21  22
ATOM     22  C   UNL     1      19.717  46.961  35.758  1.00  0.00     0.041 C 
ATOM     23  O   UNL     1      20.490  45.985  35.562  1.00  0.00    -0.550 OA
ATOM     24  O   UNL     1      18.370  46.846  35.440  1.00  0.00    -0.550 OA
ENDBRANCH  21  22
ENDBRANCH  20  21
ENDBRANCH  19  20
ENDBRANCH  18  19
ENDBRANCH  17  18
ENDBRANCH  16  17
ENDBRANCH  15  16
ENDBRANCH  14  15
ENDBRANCH  13  14
ENDBRANCH   1  13
TORSDOF 20
ENDMDL
MODEL 9
REMARK VINA RESULT:    -3.589      2.049      3.873
REMARK INTER + INTRA:         -11.981
REMARK INTER:                  -8.394
REMARK INTRA:                  -3.587
REMARK UNBOUND:                -4.195
REMARK SMILES CCCCCCCCCCCCCCCCCCCCCC(=O)[O-]
REMARK SMILES IDX 12 1 11 2 10 3 9 4 8 5 7 6 6 7 5 8 4 9 3 10 2 11 1 12 13 13
REMARK SMILES IDX 14 14 15 15 16 16 17 17 18 18 19 19 20 20 21 21 22 22 23 23
REMARK SMILES IDX 24 24
REMARK H PARENT
REMARK Flexibility Score: inf
ROOT
ATOM      1  C   UNL     1      17.041  49.049  38.232  1.00  0.00     0.000 C 
ENDROOT
BRANCH   1   2
ATOM      2  C   UNL     1      18.165  49.304  39.243  1.00  0.00     0.000 C 
BRANCH   2   3
ATOM      3  C   UNL     1      18.045  50.701  39.863  1.00  0.00     0.000 C 
BRANCH   3   4
ATOM      4  C   UNL     1      18.898  50.811  41.135  1.00  0.00    -0.000 C 
BRANCH   4   5
ATOM      5  C   UNL     1      20.297  50.197  40.969  1.00  0.00    -0.000 C 
BRANCH   5   6
ATOM      6  C   UNL     1      21.410  51.112  41.504  1.00  0.00    -0.000 C 
BRANCH   6   7
ATOM      7  C   UNL     1      22.324  51.594  40.373  1.00  0.00    -0.000 C 
BRANCH   7   8
ATOM      8  C   UNL     1      22.189  50.692  39.135  1.00  0.00    -0.000 C 
BRANCH   8   9
ATOM      9  C   UNL     1      21.981  51.501  37.838  1.00  0.00    -0.000 C 
BRANCH   9  10
ATOM     10  C   UNL     1      20.539  51.455  37.307  1.00  0.00    -0.000 C 
BRANCH  10  11
ATOM     11  C   UNL     1      19.919  52.849  37.140  1.00  0.00    -0.003 C 
ATOM     12  C   UNL     1      19.903  53.605  38.466  1.00  0.00     0.004 C 
ENDBRANCH  10  11
ENDBRANCH   9  10
ENDBRANCH   8   9
ENDBRANCH   7   8
ENDBRANCH   6   7
ENDBRANCH   5   6
ENDBRANCH   4   5
ENDBRANCH   3   4
ENDBRANCH   2   3
ENDBRANCH   1   2
BRANCH   1  13
ATOM     13  C   UNL     1      16.386  50.368  37.797  1.00  0.00     0.000 C 
BRANCH  13  14
ATOM     14  C   UNL     1      16.891  50.862  36.432  1.00  0.00     0.000 C 
BRANCH  14  15
ATOM     15  C   UNL     1      16.658  49.847  35.290  1.00  0.00     0.000 C 
BRANCH  15  16
ATOM     16  C   UNL     1      17.970  49.280  34.721  1.00  0.00     0.000 C 
BRANCH  16  17
ATOM     17  C   UNL     1      18.032  47.747  34.837  1.00  0.00     0.000 C 
BRANCH  17  18
ATOM     18  C   UNL     1      19.456  47.232  35.112  1.00  0.00     0.000 C 
BRANCH  18  19
ATOM     19  C   UNL     1      20.377  48.275  35.771  1.00  0.00     0.000 C 
BRANCH  19  20
ATOM     20  C   UNL     1      21.748  48.365  35.081  1.00  0.00     0.006 C 
BRANCH  20  21
ATOM     21  C   UNL     1      21.734  47.635  33.734  1.00  0.00     0.053 C 
BRANCH  21  22
ATOM     22  C   UNL     1      22.811  46.598  33.690  1.00  0.00     0.041 C 
ATOM     23  O   UNL     1      23.317  46.164  34.760  1.00  0.00    -0.550 OA
ATOM     24  O   UNL     1      23.297  46.149  32.469  1.00  0.00    -0.550 OA
ENDBRANCH  21  22
ENDBRANCH  20  21
ENDBRANCH  19  20
ENDBRANCH  18  19
ENDBRANCH  17  18
ENDBRANCH  16  17
ENDBRANCH  15  16
ENDBRANCH  14  15
ENDBRANCH  13  14
ENDBRANCH   1  13
TORSDOF 20
ENDMDL
