MODEL 1
REMARK VINA RESULT:    -8.087      0.000      0.000
REMARK INTER + INTRA:          -9.365
REMARK INTER:                  -9.742
REMARK INTRA:                   0.377
REMARK UNBOUND:                 0.377
REMARK SMILES O=c1c(O)c(-c2ccc(O)c(O)c2)oc2cc(O)cc(O)c12
REMARK SMILES IDX 5 1 3 2 2 3 1 4 22 5 20 6 19 7 17 8 16 9 15 10 14 11 6 12
REMARK SMILES IDX 7 13 8 14 9 15 13 16 11 17 10 18 12 20 4 22 21 24 18 26
REMARK H PARENT 10 19 12 21 4 23 21 25 18 27
REMARK Flexibility Score: inf
ROOT
ATOM      1  C   UNL     1      17.811  22.723  40.228  1.00  0.00     0.180 A 
ATOM      2  C   UNL     1      17.538  23.812  39.378  1.00  0.00     0.208 A 
ATOM      3  C   UNL     1      16.390  24.585  39.613  1.00  0.00     0.238 A 
ATOM      4  O   UNL     1      16.129  25.555  38.851  1.00  0.00    -0.285 OA
ATOM      5  C   UNL     1      15.550  24.271  40.701  1.00  0.00     0.111 A 
ATOM      6  C   UNL     1      14.376  25.002  41.008  1.00  0.00     0.134 A 
ATOM      7  C   UNL     1      13.597  24.632  42.114  1.00  0.00     0.093 A 
ATOM      8  C   UNL     1      13.966  23.551  42.916  1.00  0.00     0.123 A 
ATOM      9  C   UNL     1      15.123  22.825  42.618  1.00  0.00     0.094 A 
ATOM     10  C   UNL     1      15.912  23.175  41.519  1.00  0.00     0.146 A 
ATOM     11  O   UNL     1      17.003  22.466  41.253  1.00  0.00    -0.452 OA
ENDROOT
BRANCH   1  12
ATOM     12  C   UNL     1      18.991  21.849  40.035  1.00  0.00     0.025 A 
ATOM     13  C   UNL     1      18.977  20.545  40.554  1.00  0.00     0.016 A 
ATOM     14  C   UNL     1      20.071  19.696  40.365  1.00  0.00     0.051 A 
ATOM     15  C   UNL     1      21.188  20.133  39.642  1.00  0.00     0.157 A 
ATOM     16  C   UNL     1      20.105  22.277  39.292  1.00  0.00     0.062 A 
ATOM     17  C   UNL     1      21.202  21.428  39.098  1.00  0.00     0.158 A 
BRANCH  15  18
ATOM     18  O   UNL     1      22.279  19.285  39.457  1.00  0.00    -0.504 OA
ATOM     19  H   UNL     1      23.200  19.521  39.808  1.00  0.00     0.293 HD
ENDBRANCH  15  18
BRANCH  17  20
ATOM     20  O   UNL     1      22.293  21.889  38.361  1.00  0.00    -0.504 OA
ATOM     21  H   UNL     1      22.201  22.196  37.400  1.00  0.00     0.293 HD
ENDBRANCH  17  20
ENDBRANCH   1  12
BRANCH   2  22
ATOM     22  O   UNL     1      18.414  24.130  38.337  1.00  0.00    -0.502 OA
ATOM     23  H   UNL     1      19.184  24.778  38.456  1.00  0.00     0.293 HD
ENDBRANCH   2  22
BRANCH   6  24
ATOM     24  O   UNL     1      13.982  26.089  40.227  1.00  0.00    -0.507 OA
ATOM     25  H   UNL     1      13.029  26.191  39.899  1.00  0.00     0.293 HD
ENDBRANCH   6  24
BRANCH   8  26
ATOM     26  O   UNL     1      13.175  23.205  44.010  1.00  0.00    -0.508 OA
ATOM     27  H   UNL     1      12.175  23.366  44.013  1.00  0.00     0.293 HD
ENDBRANCH   8  26
TORSDOF 6
ENDMDL
MODEL 2
REMARK VINA RESULT:    -7.962      1.886      2.994
REMARK INTER + INTRA:          -9.214
REMARK INTER:                  -8.939
REMARK INTRA:                  -0.275
REMARK UNBOUND:                 0.377
REMARK SMILES O=c1c(O)c(-c2ccc(O)c(O)c2)oc2cc(O)cc(O)c12
REMARK SMILES IDX 5 1 3 2 2 3 1 4 22 5 20 6 19 7 17 8 16 9 15 10 14 11 6 12
REMARK SMILES IDX 7 13 8 14 9 15 13 16 11 17 10 18 12 20 4 22 21 24 18 26
REMARK H PARENT 10 19 12 21 4 23 21 25 18 27
REMARK Flexibility Score: inf
ROOT
ATOM      1  C   UNL     1      15.791  23.029  41.467  1.00  0.00     0.180 A 
ATOM      2  C   UNL     1      15.193  24.150  40.860  1.00  0.00     0.208 A 
ATOM      3  C   UNL     1      14.142  24.801  41.524  1.00  0.00     0.238 A 
ATOM      4  O   UNL     1      13.591  25.799  40.984  1.00  0.00    -0.285 OA
ATOM      5  C   UNL     1      13.721  24.337  42.787  1.00  0.00     0.111 A 
ATOM      6  C   UNL     1      12.672  24.939  43.523  1.00  0.00     0.134 A 
ATOM      7  C   UNL     1      12.318  24.422  44.778  1.00  0.00     0.093 A 
ATOM      8  C   UNL     1      12.990  23.320  45.310  1.00  0.00     0.123 A 
ATOM      9  C   UNL     1      14.026  22.721  44.588  1.00  0.00     0.094 A 
ATOM     10  C   UNL     1      14.393  23.218  43.335  1.00  0.00     0.146 A 
ATOM     11  O   UNL     1      15.377  22.628  42.666  1.00  0.00    -0.452 OA
ENDROOT
BRANCH   1  12
ATOM     12  C   UNL     1      16.891  22.277  40.822  1.00  0.00     0.025 A 
ATOM     13  C   UNL     1      18.194  22.798  40.853  1.00  0.00     0.016 A 
ATOM     14  C   UNL     1      19.251  22.096  40.268  1.00  0.00     0.051 A 
ATOM     15  C   UNL     1      19.024  20.855  39.658  1.00  0.00     0.157 A 
ATOM     16  C   UNL     1      16.671  21.022  40.227  1.00  0.00     0.062 A 
ATOM     17  C   UNL     1      17.728  20.314  39.643  1.00  0.00     0.158 A 
BRANCH  15  18
ATOM     18  O   UNL     1      20.080  20.158  39.074  1.00  0.00    -0.504 OA
ATOM     19  H   UNL     1      20.965  20.035  39.553  1.00  0.00     0.293 HD
ENDBRANCH  15  18
BRANCH  17  20
ATOM     20  O   UNL     1      17.471  19.076  39.056  1.00  0.00    -0.504 OA
ATOM     21  H   UNL     1      16.532  18.702  38.978  1.00  0.00     0.293 HD
ENDBRANCH  17  20
ENDBRANCH   1  12
BRANCH   2  22
ATOM     22  O   UNL     1      15.662  24.619  39.630  1.00  0.00    -0.502 OA
ATOM     23  H   UNL     1      15.043  24.810  38.851  1.00  0.00     0.293 HD
ENDBRANCH   2  22
BRANCH   6  24
ATOM     24  O   UNL     1      11.982  26.042  43.020  1.00  0.00    -0.507 OA
ATOM     25  H   UNL     1      12.231  26.467  42.134  1.00  0.00     0.293 HD
ENDBRANCH   6  24
BRANCH   8  26
ATOM     26  O   UNL     1      12.620  22.827  46.560  1.00  0.00    -0.508 OA
ATOM     27  H   UNL     1      12.126  21.948  46.658  1.00  0.00     0.293 HD
ENDBRANCH   8  26
TORSDOF 6
ENDMDL
MODEL 3
REMARK VINA RESULT:    -7.632      1.168      6.794
REMARK INTER + INTRA:          -8.816
REMARK INTER:                  -9.254
REMARK INTRA:                   0.438
REMARK UNBOUND:                 0.377
REMARK SMILES O=c1c(O)c(-c2ccc(O)c(O)c2)oc2cc(O)cc(O)c12
REMARK SMILES IDX 5 1 3 2 2 3 1 4 22 5 20 6 19 7 17 8 16 9 15 10 14 11 6 12
REMARK SMILES IDX 7 13 8 14 9 15 13 16 11 17 10 18 12 20 4 22 21 24 18 26
REMARK H PARENT 10 19 12 21 4 23 21 25 18 27
REMARK Flexibility Score: inf
ROOT
ATOM      1  C   UNL     1      16.154  23.351  41.026  1.00  0.00     0.180 A 
ATOM      2  C   UNL     1      16.612  24.193  39.995  1.00  0.00     0.208 A 
ATOM      3  C   UNL     1      17.749  23.815  39.264  1.00  0.00     0.238 A 
ATOM      4  O   UNL     1      18.176  24.568  38.346  1.00  0.00    -0.285 OA
ATOM      5  C   UNL     1      18.395  22.597  39.561  1.00  0.00     0.111 A 
ATOM      6  C   UNL     1      19.544  22.142  38.869  1.00  0.00     0.134 A 
ATOM      7  C   UNL     1      20.124  20.913  39.218  1.00  0.00     0.093 A 
ATOM      8  C   UNL     1      19.579  20.133  40.240  1.00  0.00     0.123 A 
ATOM      9  C   UNL     1      18.445  20.577  40.927  1.00  0.00     0.094 A 
ATOM     10  C   UNL     1      17.854  21.800  40.596  1.00  0.00     0.146 A 
ATOM     11  O   UNL     1      16.780  22.202  41.267  1.00  0.00    -0.452 OA
ENDROOT
BRANCH   1  12
ATOM     12  C   UNL     1      14.974  23.689  41.854  1.00  0.00     0.025 A 
ATOM     13  C   UNL     1      14.029  24.605  41.367  1.00  0.00     0.016 A 
ATOM     14  C   UNL     1      12.897  24.923  42.122  1.00  0.00     0.051 A 
ATOM     15  C   UNL     1      12.686  24.319  43.368  1.00  0.00     0.157 A 
ATOM     16  C   UNL     1      14.749  23.069  43.096  1.00  0.00     0.062 A 
ATOM     17  C   UNL     1      13.615  23.383  43.854  1.00  0.00     0.158 A 
BRANCH  15  18
ATOM     18  O   UNL     1      11.557  24.640  44.121  1.00  0.00    -0.504 OA
ATOM     19  H   UNL     1      11.578  24.644  45.134  1.00  0.00     0.293 HD
ENDBRANCH  15  18
BRANCH  17  20
ATOM     20  O   UNL     1      13.427  22.754  45.084  1.00  0.00    -0.504 OA
ATOM     21  H   UNL     1      13.526  21.752  45.196  1.00  0.00     0.293 HD
ENDBRANCH  17  20
ENDBRANCH   1  12
BRANCH   2  22
ATOM     22  O   UNL     1      15.925  25.371  39.689  1.00  0.00    -0.502 OA
ATOM     23  H   UNL     1      15.465  25.929  40.398  1.00  0.00     0.293 HD
ENDBRANCH   2  22
BRANCH   6  24
ATOM     24  O   UNL     1      20.110  22.897  37.842  1.00  0.00    -0.507 OA
ATOM     25  H   UNL     1      21.039  22.701  37.487  1.00  0.00     0.293 HD
ENDBRANCH   6  24
BRANCH   8  26
ATOM     26  O   UNL     1      20.172  18.915  40.566  1.00  0.00    -0.508 OA
ATOM     27  H   UNL     1      19.777  18.304  41.271  1.00  0.00     0.293 HD
ENDBRANCH   8  26
TORSDOF 6
ENDMDL
MODEL 4
REMARK VINA RESULT:    -7.503      2.030      7.401
REMARK INTER + INTRA:          -8.660
REMARK INTER:                  -9.044
REMARK INTRA:                   0.384
REMARK UNBOUND:                 0.377
REMARK SMILES O=c1c(O)c(-c2ccc(O)c(O)c2)oc2cc(O)cc(O)c12
REMARK SMILES IDX 5 1 3 2 2 3 1 4 22 5 20 6 19 7 17 8 16 9 15 10 14 11 6 12
REMARK SMILES IDX 7 13 8 14 9 15 13 16 11 17 10 18 12 20 4 22 21 24 18 26
REMARK H PARENT 10 19 12 21 4 23 21 25 18 27
REMARK Flexibility Score: inf
ROOT
ATOM      1  C   UNL     1      14.423  24.161  41.907  1.00  0.00     0.180 A 
ATOM      2  C   UNL     1      14.728  24.990  40.810  1.00  0.00     0.208 A 
ATOM      3  C   UNL     1      15.798  24.639  39.972  1.00  0.00     0.238 A 
ATOM      4  O   UNL     1      16.088  25.379  38.993  1.00  0.00    -0.285 OA
ATOM      5  C   UNL     1      16.529  23.461  40.232  1.00  0.00     0.111 A 
ATOM      6  C   UNL     1      17.619  23.035  39.434  1.00  0.00     0.134 A 
ATOM      7  C   UNL     1      18.291  21.845  39.753  1.00  0.00     0.093 A 
ATOM      8  C   UNL     1      17.895  21.076  40.849  1.00  0.00     0.123 A 
ATOM      9  C   UNL     1      16.820  21.491  41.640  1.00  0.00     0.094 A 
ATOM     10  C   UNL     1      16.139  22.675  41.341  1.00  0.00     0.146 A 
ATOM     11  O   UNL     1      15.125  23.050  42.112  1.00  0.00    -0.452 OA
ENDROOT
BRANCH   1  12
ATOM     12  C   UNL     1      13.322  24.474  42.847  1.00  0.00     0.025 A 
ATOM     13  C   UNL     1      12.882  25.800  42.979  1.00  0.00     0.016 A 
ATOM     14  C   UNL     1      11.831  26.114  43.845  1.00  0.00     0.051 A 
ATOM     15  C   UNL     1      11.194  25.105  44.579  1.00  0.00     0.157 A 
ATOM     16  C   UNL     1      12.667  23.461  43.571  1.00  0.00     0.062 A 
ATOM     17  C   UNL     1      11.612  23.772  44.436  1.00  0.00     0.158 A 
BRANCH  15  18
ATOM     18  O   UNL     1      10.147  25.422  45.444  1.00  0.00    -0.504 OA
ATOM     19  H   UNL     1       9.189  25.484  45.118  1.00  0.00     0.293 HD
ENDBRANCH  15  18
BRANCH  17  20
ATOM     20  O   UNL     1      10.990  22.742  45.142  1.00  0.00    -0.504 OA
ATOM     21  H   UNL     1      10.835  22.793  46.142  1.00  0.00     0.293 HD
ENDBRANCH  17  20
ENDBRANCH   1  12
BRANCH   2  22
ATOM     22  O   UNL     1      13.957  26.125  40.547  1.00  0.00    -0.502 OA
ATOM     23  H   UNL     1      13.088  26.314  41.033  1.00  0.00     0.293 HD
ENDBRANCH   2  22
BRANCH   6  24
ATOM     24  O   UNL     1      18.037  23.781  38.332  1.00  0.00    -0.507 OA
ATOM     25  H   UNL     1      18.953  23.653  37.918  1.00  0.00     0.293 HD
ENDBRANCH   6  24
BRANCH   8  26
ATOM     26  O   UNL     1      18.577  19.897  41.142  1.00  0.00    -0.508 OA
ATOM     27  H   UNL     1      18.613  19.127  40.484  1.00  0.00     0.293 HD
ENDBRANCH   8  26
TORSDOF 6
ENDMDL
MODEL 5
REMARK VINA RESULT:    -6.944      1.726      7.216
REMARK INTER + INTRA:          -7.987
REMARK INTER:                  -7.842
REMARK INTRA:                  -0.145
REMARK UNBOUND:                 0.377
REMARK SMILES O=c1c(O)c(-c2ccc(O)c(O)c2)oc2cc(O)cc(O)c12
REMARK SMILES IDX 5 1 3 2 2 3 1 4 22 5 20 6 19 7 17 8 16 9 15 10 14 11 6 12
REMARK SMILES IDX 7 13 8 14 9 15 13 16 11 17 10 18 12 20 4 22 21 24 18 26
REMARK H PARENT 10 19 12 21 4 23 21 25 18 27
REMARK Flexibility Score: inf
ROOT
ATOM      1  C   UNL     1      16.870  22.401  41.198  1.00  0.00     0.180 A 
ATOM      2  C   UNL     1      16.966  21.010  40.998  1.00  0.00     0.208 A 
ATOM      3  C   UNL     1      18.143  20.483  40.445  1.00  0.00     0.238 A 
ATOM      4  O   UNL     1      18.236  19.241  40.250  1.00  0.00    -0.285 OA
ATOM      5  C   UNL     1      19.209  21.348  40.123  1.00  0.00     0.111 A 
ATOM      6  C   UNL     1      20.431  20.897  39.566  1.00  0.00     0.134 A 
ATOM      7  C   UNL     1      21.448  21.821  39.280  1.00  0.00     0.093 A 
ATOM      8  C   UNL     1      21.268  23.181  39.541  1.00  0.00     0.123 A 
ATOM      9  C   UNL     1      20.065  23.632  40.090  1.00  0.00     0.094 A 
ATOM     10  C   UNL     1      19.038  22.729  40.379  1.00  0.00     0.146 A 
ATOM     11  O   UNL     1      17.902  23.184  40.896  1.00  0.00    -0.452 OA
ENDROOT
BRANCH   1  12
ATOM     12  C   UNL     1      15.655  23.034  41.758  1.00  0.00     0.025 A 
ATOM     13  C   UNL     1      14.895  23.900  40.956  1.00  0.00     0.016 A 
ATOM     14  C   UNL     1      13.734  24.493  41.457  1.00  0.00     0.051 A 
ATOM     15  C   UNL     1      13.305  24.216  42.762  1.00  0.00     0.157 A 
ATOM     16  C   UNL     1      15.211  22.743  43.060  1.00  0.00     0.062 A 
ATOM     17  C   UNL     1      14.046  23.332  43.565  1.00  0.00     0.158 A 
BRANCH  15  18
ATOM     18  O   UNL     1      12.147  24.811  43.260  1.00  0.00    -0.504 OA
ATOM     19  H   UNL     1      11.680  25.562  42.765  1.00  0.00     0.293 HD
ENDBRANCH  15  18
BRANCH  17  20
ATOM     20  O   UNL     1      13.639  23.025  44.863  1.00  0.00    -0.504 OA
ATOM     21  H   UNL     1      13.327  22.097  45.123  1.00  0.00     0.293 HD
ENDBRANCH  17  20
ENDBRANCH   1  12
BRANCH   2  22
ATOM     22  O   UNL     1      15.913  20.170  41.371  1.00  0.00    -0.502 OA
ATOM     23  H   UNL     1      16.026  19.433  42.056  1.00  0.00     0.293 HD
ENDBRANCH   2  22
BRANCH   6  24
ATOM     24  O   UNL     1      20.641  19.545  39.296  1.00  0.00    -0.507 OA
ATOM     25  H   UNL     1      20.380  19.132  38.407  1.00  0.00     0.293 HD
ENDBRANCH   6  24
BRANCH   8  26
ATOM     26  O   UNL     1      22.295  24.077  39.250  1.00  0.00    -0.508 OA
ATOM     27  H   UNL     1      22.122  24.932  38.735  1.00  0.00     0.293 HD
ENDBRANCH   8  26
TORSDOF 6
ENDMDL
MODEL 6
REMARK VINA RESULT:    -6.092      1.814      7.051
REMARK INTER + INTRA:          -6.961
REMARK INTER:                  -7.227
REMARK INTRA:                   0.266
REMARK UNBOUND:                 0.377
REMARK SMILES O=c1c(O)c(-c2ccc(O)c(O)c2)oc2cc(O)cc(O)c12
REMARK SMILES IDX 5 1 3 2 2 3 1 4 22 5 20 6 19 7 17 8 16 9 15 10 14 11 6 12
REMARK SMILES IDX 7 13 8 14 9 15 13 16 11 17 10 18 12 20 4 22 21 24 18 26
REMARK H PARENT 10 19 12 21 4 23 21 25 18 27
REMARK Flexibility Score: inf
ROOT
ATOM      1  C   UNL     1      16.518  23.048  40.890  1.00  0.00     0.180 A 
ATOM      2  C   UNL     1      17.111  21.771  40.912  1.00  0.00     0.208 A 
ATOM      3  C   UNL     1      18.204  21.517  40.068  1.00  0.00     0.238 A 
ATOM      4  O   UNL     1      18.736  20.373  40.071  1.00  0.00    -0.285 OA
ATOM      5  C   UNL     1      18.696  22.543  39.236  1.00  0.00     0.111 A 
ATOM      6  C   UNL     1      19.795  22.368  38.360  1.00  0.00     0.134 A 
ATOM      7  C   UNL     1      20.231  23.443  37.570  1.00  0.00     0.093 A 
ATOM      8  C   UNL     1      19.593  24.683  37.639  1.00  0.00     0.123 A 
ATOM      9  C   UNL     1      18.507  24.861  38.501  1.00  0.00     0.094 A 
ATOM     10  C   UNL     1      18.056  23.803  39.295  1.00  0.00     0.146 A 
ATOM     11  O   UNL     1      17.019  23.996  40.102  1.00  0.00    -0.452 OA
ENDROOT
BRANCH   1  12
ATOM     12  C   UNL     1      15.351  23.389  41.735  1.00  0.00     0.025 A 
ATOM     13  C   UNL     1      14.390  24.291  41.254  1.00  0.00     0.016 A 
ATOM     14  C   UNL     1      13.270  24.612  42.026  1.00  0.00     0.051 A 
ATOM     15  C   UNL     1      13.088  24.022  43.284  1.00  0.00     0.157 A 
ATOM     16  C   UNL     1      15.154  22.785  42.990  1.00  0.00     0.062 A 
ATOM     17  C   UNL     1      14.032  23.101  43.765  1.00  0.00     0.158 A 
BRANCH  15  18
ATOM     18  O   UNL     1      11.971  24.346  44.054  1.00  0.00    -0.504 OA
ATOM     19  H   UNL     1      12.023  24.412  45.064  1.00  0.00     0.293 HD
ENDBRANCH  15  18
BRANCH  17  20
ATOM     20  O   UNL     1      13.873  22.486  45.007  1.00  0.00    -0.504 OA
ATOM     21  H   UNL     1      14.565  21.852  45.386  1.00  0.00     0.293 HD
ENDBRANCH  17  20
ENDBRANCH   1  12
BRANCH   2  22
ATOM     22  O   UNL     1      16.635  20.787  41.781  1.00  0.00    -0.502 OA
ATOM     23  H   UNL     1      15.909  20.134  41.514  1.00  0.00     0.293 HD
ENDBRANCH   2  22
BRANCH   6  24
ATOM     24  O   UNL     1      20.454  21.143  38.270  1.00  0.00    -0.507 OA
ATOM     25  H   UNL     1      21.394  21.015  38.627  1.00  0.00     0.293 HD
ENDBRANCH   6  24
BRANCH   8  26
ATOM     26  O   UNL     1      20.047  25.734  36.844  1.00  0.00    -0.508 OA
ATOM     27  H   UNL     1      19.446  26.512  36.601  1.00  0.00     0.293 HD
ENDBRANCH   8  26
TORSDOF 6
ENDMDL
MODEL 7
REMARK VINA RESULT:    -5.152      1.379      7.399
REMARK INTER + INTRA:          -5.829
REMARK INTER:                  -6.276
REMARK INTRA:                   0.447
REMARK UNBOUND:                 0.377
REMARK SMILES O=c1c(O)c(-c2ccc(O)c(O)c2)oc2cc(O)cc(O)c12
REMARK SMILES IDX 5 1 3 2 2 3 1 4 22 5 20 6 19 7 17 8 16 9 15 10 14 11 6 12
REMARK SMILES IDX 7 13 8 14 9 15 13 16 11 17 10 18 12 20 4 22 21 24 18 26
REMARK H PARENT 10 19 12 21 4 23 21 25 18 27
REMARK Flexibility Score: inf
ROOT
ATOM      1  C   UNL     1      17.847  22.328  40.206  1.00  0.00     0.180 A 
ATOM      2  C   UNL     1      17.844  21.121  40.931  1.00  0.00     0.208 A 
ATOM      3  C   UNL     1      18.909  20.223  40.758  1.00  0.00     0.238 A 
ATOM      4  O   UNL     1      18.911  19.133  41.393  1.00  0.00    -0.285 OA
ATOM      5  C   UNL     1      19.964  20.553  39.882  1.00  0.00     0.111 A 
ATOM      6  C   UNL     1      21.075  19.705  39.654  1.00  0.00     0.134 A 
ATOM      7  C   UNL     1      22.089  20.109  38.774  1.00  0.00     0.093 A 
ATOM      8  C   UNL     1      22.016  21.341  38.120  1.00  0.00     0.123 A 
ATOM      9  C   UNL     1      20.921  22.182  38.340  1.00  0.00     0.094 A 
ATOM     10  C   UNL     1      19.899  21.797  39.212  1.00  0.00     0.146 A 
ATOM     11  O   UNL     1      18.867  22.612  39.400  1.00  0.00    -0.452 OA
ENDROOT
BRANCH   1  12
ATOM     12  C   UNL     1      16.752  23.318  40.320  1.00  0.00     0.025 A 
ATOM     13  C   UNL     1      16.664  24.361  39.384  1.00  0.00     0.016 A 
ATOM     14  C   UNL     1      15.627  25.294  39.460  1.00  0.00     0.051 A 
ATOM     15  C   UNL     1      14.654  25.189  40.463  1.00  0.00     0.157 A 
ATOM     16  C   UNL     1      15.763  23.205  41.312  1.00  0.00     0.062 A 
ATOM     17  C   UNL     1      14.721  24.136  41.390  1.00  0.00     0.158 A 
BRANCH  15  18
ATOM     18  O   UNL     1      13.621  26.124  40.538  1.00  0.00    -0.504 OA
ATOM     19  H   UNL     1      12.713  25.882  40.917  1.00  0.00     0.293 HD
ENDBRANCH  15  18
BRANCH  17  20
ATOM     20  O   UNL     1      13.761  23.996  42.392  1.00  0.00    -0.504 OA
ATOM     21  H   UNL     1      14.013  23.897  43.368  1.00  0.00     0.293 HD
ENDBRANCH  17  20
ENDBRANCH   1  12
BRANCH   2  22
ATOM     22  O   UNL     1      16.811  20.841  41.829  1.00  0.00    -0.502 OA
ATOM     23  H   UNL     1      16.652  21.395  42.662  1.00  0.00     0.293 HD
ENDBRANCH   2  22
BRANCH   6  24
ATOM     24  O   UNL     1      21.178  18.469  40.294  1.00  0.00    -0.507 OA
ATOM     25  H   UNL     1      21.620  18.374  41.201  1.00  0.00     0.293 HD
ENDBRANCH   6  24
BRANCH   8  26
ATOM     26  O   UNL     1      23.037  21.720  37.252  1.00  0.00    -0.508 OA
ATOM     27  H   UNL     1      23.988  21.849  37.577  1.00  0.00     0.293 HD
ENDBRANCH   8  26
TORSDOF 6
ENDMDL
