MODEL 1
REMARK VINA RESULT:    -7.511      0.000      0.000
REMARK INTER + INTRA:          -9.204
REMARK INTER:                  -9.048
REMARK INTRA:                  -0.155
REMARK UNBOUND:                -0.155
REMARK SMILES O=c1c(O)c(-c2ccc(O)c(O)c2)oc2cc(O)cc(O)c12
REMARK SMILES IDX 5 1 3 2 2 3 1 4 22 5 20 6 19 7 17 8 16 9 15 10 14 11 6 12
REMARK SMILES IDX 7 13 8 14 9 15 13 16 11 17 10 18 12 20 4 22 21 24 18 26
REMARK H PARENT 10 19 12 21 4 23 21 25 18 27
REMARK Flexibility Score: inf
ROOT
ATOM      1  C   UNL     1     -15.358   8.710 -12.595  1.00  0.00     0.180 A 
ATOM      2  C   UNL     1     -16.491   8.580 -11.772  1.00  0.00     0.208 A 
ATOM      3  C   UNL     1     -17.705   8.169 -12.345  1.00  0.00     0.238 A 
ATOM      4  O   UNL     1     -18.701   8.002 -11.594  1.00  0.00    -0.285 OA
ATOM      5  C   UNL     1     -17.776   7.910 -13.735  1.00  0.00     0.111 A 
ATOM      6  C   UNL     1     -18.964   7.528 -14.428  1.00  0.00     0.134 A 
ATOM      7  C   UNL     1     -18.889   7.171 -15.781  1.00  0.00     0.093 A 
ATOM      8  C   UNL     1     -17.682   7.245 -16.480  1.00  0.00     0.123 A 
ATOM      9  C   UNL     1     -16.530   7.673 -15.826  1.00  0.00     0.094 A 
ATOM     10  C   UNL     1     -16.565   8.002 -14.469  1.00  0.00     0.146 A 
ATOM     11  O   UNL     1     -15.441   8.396 -13.882  1.00  0.00    -0.452 OA
ENDROOT
BRANCH   1  12
ATOM     12  C   UNL     1     -14.049   9.161 -12.068  1.00  0.00     0.025 A 
ATOM     13  C   UNL     1     -13.341   8.401 -11.123  1.00  0.00     0.016 A 
ATOM     14  C   UNL     1     -12.121   8.858 -10.622  1.00  0.00     0.051 A 
ATOM     15  C   UNL     1     -11.590  10.082 -11.042  1.00  0.00     0.157 A 
ATOM     16  C   UNL     1     -13.530  10.399 -12.474  1.00  0.00     0.062 A 
ATOM     17  C   UNL     1     -12.306  10.866 -11.977  1.00  0.00     0.158 A 
BRANCH  15  18
ATOM     18  O   UNL     1     -10.363  10.479 -10.505  1.00  0.00    -0.504 OA
ATOM     19  H   UNL     1      -9.473  10.316 -10.953  1.00  0.00     0.293 HD
ENDBRANCH  15  18
BRANCH  17  20
ATOM     20  O   UNL     1     -11.845  12.103 -12.435  1.00  0.00    -0.504 OA
ATOM     21  H   UNL     1     -11.138  12.212 -13.147  1.00  0.00     0.293 HD
ENDBRANCH  17  20
ENDBRANCH   1  12
BRANCH   2  22
ATOM     22  O   UNL     1     -16.393   8.819 -10.398  1.00  0.00    -0.502 OA
ATOM     23  H   UNL     1     -16.574   9.729  -9.991  1.00  0.00     0.293 HD
ENDBRANCH   2  22
BRANCH   6  24
ATOM     24  O   UNL     1     -20.235   7.510 -13.847  1.00  0.00    -0.507 OA
ATOM     25  H   UNL     1     -20.808   8.325 -13.693  1.00  0.00     0.293 HD
ENDBRANCH   6  24
BRANCH   8  26
ATOM     26  O   UNL     1     -17.620   6.901 -17.829  1.00  0.00    -0.508 OA
ATOM     27  H   UNL     1     -18.063   7.470 -18.541  1.00  0.00     0.293 HD
ENDBRANCH   8  26
TORSDOF 6
ENDMDL
MODEL 2
REMARK VINA RESULT:    -7.297      0.713      1.458
REMARK INTER + INTRA:          -8.945
REMARK INTER:                  -8.721
REMARK INTRA:                  -0.224
REMARK UNBOUND:                -0.155
REMARK SMILES O=c1c(O)c(-c2ccc(O)c(O)c2)oc2cc(O)cc(O)c12
REMARK SMILES IDX 5 1 3 2 2 3 1 4 22 5 20 6 19 7 17 8 16 9 15 10 14 11 6 12
REMARK SMILES IDX 7 13 8 14 9 15 13 16 11 17 10 18 12 20 4 22 21 24 18 26
REMARK H PARENT 10 19 12 21 4 23 21 25 18 27
REMARK Flexibility Score: inf
ROOT
ATOM      1  C   UNL     1     -15.196   9.024 -12.512  1.00  0.00     0.180 A 
ATOM      2  C   UNL     1     -16.246   8.711 -11.631  1.00  0.00     0.208 A 
ATOM      3  C   UNL     1     -17.407   8.109 -12.142  1.00  0.00     0.238 A 
ATOM      4  O   UNL     1     -18.321   7.782 -11.341  1.00  0.00    -0.285 OA
ATOM      5  C   UNL     1     -17.510   7.843 -13.529  1.00  0.00     0.111 A 
ATOM      6  C   UNL     1     -18.657   7.273 -14.161  1.00  0.00     0.134 A 
ATOM      7  C   UNL     1     -18.598   6.934 -15.519  1.00  0.00     0.093 A 
ATOM      8  C   UNL     1     -17.459   7.203 -16.281  1.00  0.00     0.123 A 
ATOM      9  C   UNL     1     -16.358   7.813 -15.686  1.00  0.00     0.094 A 
ATOM     10  C   UNL     1     -16.372   8.130 -14.326  1.00  0.00     0.146 A 
ATOM     11  O   UNL     1     -15.297   8.702 -13.796  1.00  0.00    -0.452 OA
ENDROOT
BRANCH   1  12
ATOM     12  C   UNL     1     -13.951   9.681 -12.052  1.00  0.00     0.025 A 
ATOM     13  C   UNL     1     -13.651  11.007 -12.405  1.00  0.00     0.016 A 
ATOM     14  C   UNL     1     -12.460  11.598 -11.980  1.00  0.00     0.051 A 
ATOM     15  C   UNL     1     -11.541  10.878 -11.209  1.00  0.00     0.157 A 
ATOM     16  C   UNL     1     -13.022   8.950 -11.297  1.00  0.00     0.062 A 
ATOM     17  C   UNL     1     -11.824   9.535 -10.866  1.00  0.00     0.158 A 
BRANCH  15  18
ATOM     18  O   UNL     1     -10.371  11.528 -10.813  1.00  0.00    -0.504 OA
ATOM     19  H   UNL     1     -10.117  11.697  -9.850  1.00  0.00     0.293 HD
ENDBRANCH  15  18
BRANCH  17  20
ATOM     20  O   UNL     1     -10.951   8.750 -10.108  1.00  0.00    -0.504 OA
ATOM     21  H   UNL     1     -10.655   8.981  -9.170  1.00  0.00     0.293 HD
ENDBRANCH  17  20
ENDBRANCH   1  12
BRANCH   2  22
ATOM     22  O   UNL     1     -16.114   8.962 -10.262  1.00  0.00    -0.502 OA
ATOM     23  H   UNL     1     -16.845   9.405  -9.718  1.00  0.00     0.293 HD
ENDBRANCH   2  22
BRANCH   6  24
ATOM     24  O   UNL     1     -19.875   7.049 -13.513  1.00  0.00    -0.507 OA
ATOM     25  H   UNL     1     -20.775   7.043 -13.967  1.00  0.00     0.293 HD
ENDBRANCH   6  24
BRANCH   8  26
ATOM     26  O   UNL     1     -17.416   6.875 -17.635  1.00  0.00    -0.508 OA
ATOM     27  H   UNL     1     -16.882   7.425 -18.296  1.00  0.00     0.293 HD
ENDBRANCH   8  26
TORSDOF 6
ENDMDL
MODEL 3
REMARK VINA RESULT:    -6.986      2.457      8.134
REMARK INTER + INTRA:          -8.570
REMARK INTER:                  -8.558
REMARK INTRA:                  -0.013
REMARK UNBOUND:                -0.155
REMARK SMILES O=c1c(O)c(-c2ccc(O)c(O)c2)oc2cc(O)cc(O)c12
REMARK SMILES IDX 5 1 3 2 2 3 1 4 22 5 20 6 19 7 17 8 16 9 15 10 14 11 6 12
REMARK SMILES IDX 7 13 8 14 9 15 13 16 11 17 10 18 12 20 4 22 21 24 18 26
REMARK H PARENT 10 19 12 21 4 23 21 25 18 27
REMARK Flexibility Score: inf
ROOT
ATOM      1  C   UNL     1     -12.732  10.096 -11.285  1.00  0.00     0.180 A 
ATOM      2  C   UNL     1     -12.644  11.472 -11.559  1.00  0.00     0.208 A 
ATOM      3  C   UNL     1     -11.482  12.167 -11.188  1.00  0.00     0.238 A 
ATOM      4  O   UNL     1     -11.387  13.387 -11.484  1.00  0.00    -0.285 OA
ATOM      5  C   UNL     1     -10.430  11.482 -10.533  1.00  0.00     0.111 A 
ATOM      6  C   UNL     1      -9.224  12.095 -10.077  1.00  0.00     0.134 A 
ATOM      7  C   UNL     1      -8.197  11.296  -9.559  1.00  0.00     0.093 A 
ATOM      8  C   UNL     1      -8.357   9.915  -9.423  1.00  0.00     0.123 A 
ATOM      9  C   UNL     1      -9.552   9.316  -9.811  1.00  0.00     0.094 A 
ATOM     10  C   UNL     1     -10.582  10.081 -10.364  1.00  0.00     0.146 A 
ATOM     11  O   UNL     1     -11.701   9.469 -10.730  1.00  0.00    -0.452 OA
ENDROOT
BRANCH   1  12
ATOM     12  C   UNL     1     -13.934   9.300 -11.624  1.00  0.00     0.025 A 
ATOM     13  C   UNL     1     -14.476   9.312 -12.920  1.00  0.00     0.016 A 
ATOM     14  C   UNL     1     -15.624   8.574 -13.210  1.00  0.00     0.051 A 
ATOM     15  C   UNL     1     -16.261   7.822 -12.217  1.00  0.00     0.157 A 
ATOM     16  C   UNL     1     -14.582   8.565 -10.621  1.00  0.00     0.062 A 
ATOM     17  C   UNL     1     -15.735   7.820 -10.903  1.00  0.00     0.158 A 
BRANCH  15  18
ATOM     18  O   UNL     1     -17.403   7.102 -12.575  1.00  0.00    -0.504 OA
ATOM     19  H   UNL     1     -18.293   7.527 -12.791  1.00  0.00     0.293 HD
ENDBRANCH  15  18
BRANCH  17  20
ATOM     20  O   UNL     1     -16.321   7.103  -9.857  1.00  0.00    -0.504 OA
ATOM     21  H   UNL     1     -16.893   6.282  -9.988  1.00  0.00     0.293 HD
ENDBRANCH  17  20
ENDBRANCH   1  12
BRANCH   2  22
ATOM     22  O   UNL     1     -13.685  12.124 -12.225  1.00  0.00    -0.502 OA
ATOM     23  H   UNL     1     -14.260  11.662 -12.920  1.00  0.00     0.293 HD
ENDBRANCH   2  22
BRANCH   6  24
ATOM     24  O   UNL     1      -8.999  13.475 -10.083  1.00  0.00    -0.507 OA
ATOM     25  H   UNL     1      -9.231  14.098  -9.325  1.00  0.00     0.293 HD
ENDBRANCH   6  24
BRANCH   8  26
ATOM     26  O   UNL     1      -7.334   9.130  -8.893  1.00  0.00    -0.508 OA
ATOM     27  H   UNL     1      -7.144   9.108  -7.899  1.00  0.00     0.293 HD
ENDBRANCH   8  26
TORSDOF 6
ENDMDL
MODEL 4
REMARK VINA RESULT:    -6.891      1.115      1.423
REMARK INTER + INTRA:          -8.456
REMARK INTER:                  -8.160
REMARK INTRA:                  -0.296
REMARK UNBOUND:                -0.155
REMARK SMILES O=c1c(O)c(-c2ccc(O)c(O)c2)oc2cc(O)cc(O)c12
REMARK SMILES IDX 5 1 3 2 2 3 1 4 22 5 20 6 19 7 17 8 16 9 15 10 14 11 6 12
REMARK SMILES IDX 7 13 8 14 9 15 13 16 11 17 10 18 12 20 4 22 21 24 18 26
REMARK H PARENT 10 19 12 21 4 23 21 25 18 27
REMARK Flexibility Score: inf
ROOT
ATOM      1  C   UNL     1     -14.503   9.330 -11.731  1.00  0.00     0.180 A 
ATOM      2  C   UNL     1     -15.576   9.287 -10.825  1.00  0.00     0.208 A 
ATOM      3  C   UNL     1     -16.817   8.796 -11.262  1.00  0.00     0.238 A 
ATOM      4  O   UNL     1     -17.759   8.709 -10.431  1.00  0.00    -0.285 OA
ATOM      5  C   UNL     1     -16.973   8.370 -12.603  1.00  0.00     0.111 A 
ATOM      6  C   UNL     1     -18.196   7.892 -13.164  1.00  0.00     0.134 A 
ATOM      7  C   UNL     1     -18.201   7.375 -14.466  1.00  0.00     0.093 A 
ATOM      8  C   UNL     1     -17.044   7.379 -15.248  1.00  0.00     0.123 A 
ATOM      9  C   UNL     1     -15.861   7.896 -14.729  1.00  0.00     0.094 A 
ATOM     10  C   UNL     1     -15.814   8.386 -13.422  1.00  0.00     0.146 A 
ATOM     11  O   UNL     1     -14.663   8.862 -12.963  1.00  0.00    -0.452 OA
ENDROOT
BRANCH   1  12
ATOM     12  C   UNL     1     -13.171   9.857 -11.351  1.00  0.00     0.025 A 
ATOM     13  C   UNL     1     -12.251   9.071 -10.639  1.00  0.00     0.016 A 
ATOM     14  C   UNL     1     -11.012   9.597 -10.270  1.00  0.00     0.051 A 
ATOM     15  C   UNL     1     -10.671  10.916 -10.591  1.00  0.00     0.157 A 
ATOM     16  C   UNL     1     -12.841  11.186 -11.655  1.00  0.00     0.062 A 
ATOM     17  C   UNL     1     -11.600  11.723 -11.289  1.00  0.00     0.158 A 
BRANCH  15  18
ATOM     18  O   UNL     1      -9.414  11.379 -10.196  1.00  0.00    -0.504 OA
ATOM     19  H   UNL     1      -8.606  10.785 -10.076  1.00  0.00     0.293 HD
ENDBRANCH  15  18
BRANCH  17  20
ATOM     20  O   UNL     1     -11.335  13.050 -11.635  1.00  0.00    -0.504 OA
ATOM     21  H   UNL     1     -11.697  13.847 -11.131  1.00  0.00     0.293 HD
ENDBRANCH  17  20
ENDBRANCH   1  12
BRANCH   2  22
ATOM     22  O   UNL     1     -15.394   9.692  -9.499  1.00  0.00    -0.502 OA
ATOM     23  H   UNL     1     -16.159   9.743  -8.836  1.00  0.00     0.293 HD
ENDBRANCH   2  22
BRANCH   6  24
ATOM     24  O   UNL     1     -19.426   7.930 -12.501  1.00  0.00    -0.507 OA
ATOM     25  H   UNL     1     -19.540   8.071 -11.510  1.00  0.00     0.293 HD
ENDBRANCH   6  24
BRANCH   8  26
ATOM     26  O   UNL     1     -17.064   6.875 -16.548  1.00  0.00    -0.508 OA
ATOM     27  H   UNL     1     -17.840   6.323 -16.891  1.00  0.00     0.293 HD
ENDBRANCH   8  26
TORSDOF 6
ENDMDL
MODEL 5
REMARK VINA RESULT:    -6.703      1.550      7.144
REMARK INTER + INTRA:          -8.230
REMARK INTER:                  -8.025
REMARK INTRA:                  -0.205
REMARK UNBOUND:                -0.155
REMARK SMILES O=c1c(O)c(-c2ccc(O)c(O)c2)oc2cc(O)cc(O)c12
REMARK SMILES IDX 5 1 3 2 2 3 1 4 22 5 20 6 19 7 17 8 16 9 15 10 14 11 6 12
REMARK SMILES IDX 7 13 8 14 9 15 13 16 11 17 10 18 12 20 4 22 21 24 18 26
REMARK H PARENT 10 19 12 21 4 23 21 25 18 27
REMARK Flexibility Score: inf
ROOT
ATOM      1  C   UNL     1     -14.513   8.959 -12.155  1.00  0.00     0.180 A 
ATOM      2  C   UNL     1     -13.953   8.103 -11.191  1.00  0.00     0.208 A 
ATOM      3  C   UNL     1     -12.807   8.519 -10.495  1.00  0.00     0.238 A 
ATOM      4  O   UNL     1     -12.342   7.771  -9.595  1.00  0.00    -0.285 OA
ATOM      5  C   UNL     1     -12.225   9.777 -10.784  1.00  0.00     0.111 A 
ATOM      6  C   UNL     1     -11.039  10.281 -10.168  1.00  0.00     0.134 A 
ATOM      7  C   UNL     1     -10.628  11.593 -10.436  1.00  0.00     0.093 A 
ATOM      8  C   UNL     1     -11.322  12.395 -11.346  1.00  0.00     0.123 A 
ATOM      9  C   UNL     1     -12.445  11.890 -11.995  1.00  0.00     0.094 A 
ATOM     10  C   UNL     1     -12.901  10.598 -11.722  1.00  0.00     0.146 A 
ATOM     11  O   UNL     1     -13.982  10.160 -12.356  1.00  0.00    -0.452 OA
ENDROOT
BRANCH   1  12
ATOM     12  C   UNL     1     -15.706   8.581 -12.947  1.00  0.00     0.025 A 
ATOM     13  C   UNL     1     -15.622   8.341 -14.327  1.00  0.00     0.016 A 
ATOM     14  C   UNL     1     -16.765   8.010 -15.057  1.00  0.00     0.051 A 
ATOM     15  C   UNL     1     -18.013   7.925 -14.430  1.00  0.00     0.157 A 
ATOM     16  C   UNL     1     -16.960   8.518 -12.319  1.00  0.00     0.062 A 
ATOM     17  C   UNL     1     -18.113   8.186 -13.043  1.00  0.00     0.158 A 
BRANCH  15  18
ATOM     18  O   UNL     1     -19.116   7.585 -15.216  1.00  0.00    -0.504 OA
ATOM     19  H   UNL     1     -20.028   8.009 -15.122  1.00  0.00     0.293 HD
ENDBRANCH  15  18
BRANCH  17  20
ATOM     20  O   UNL     1     -19.324   8.131 -12.350  1.00  0.00    -0.504 OA
ATOM     21  H   UNL     1     -19.721   7.281 -11.975  1.00  0.00     0.293 HD
ENDBRANCH  17  20
ENDBRANCH   1  12
BRANCH   2  22
ATOM     22  O   UNL     1     -14.557   6.875 -10.906  1.00  0.00    -0.502 OA
ATOM     23  H   UNL     1     -15.269   6.771 -10.192  1.00  0.00     0.293 HD
ENDBRANCH   2  22
BRANCH   6  24
ATOM     24  O   UNL     1     -10.223   9.532  -9.316  1.00  0.00    -0.507 OA
ATOM     25  H   UNL     1      -9.919   9.830  -8.402  1.00  0.00     0.293 HD
ENDBRANCH   6  24
BRANCH   8  26
ATOM     26  O   UNL     1     -10.896  13.694 -11.617  1.00  0.00    -0.508 OA
ATOM     27  H   UNL     1     -10.879  14.407 -10.898  1.00  0.00     0.293 HD
ENDBRANCH   8  26
TORSDOF 6
ENDMDL
MODEL 6
REMARK VINA RESULT:    -6.642      1.573      7.087
REMARK INTER + INTRA:          -8.156
REMARK INTER:                  -7.928
REMARK INTRA:                  -0.228
REMARK UNBOUND:                -0.155
REMARK SMILES O=c1c(O)c(-c2ccc(O)c(O)c2)oc2cc(O)cc(O)c12
REMARK SMILES IDX 5 1 3 2 2 3 1 4 22 5 20 6 19 7 17 8 16 9 15 10 14 11 6 12
REMARK SMILES IDX 7 13 8 14 9 15 13 16 11 17 10 18 12 20 4 22 21 24 18 26
REMARK H PARENT 10 19 12 21 4 23 21 25 18 27
REMARK Flexibility Score: inf
ROOT
ATOM      1  C   UNL     1     -14.504   8.972 -12.114  1.00  0.00     0.180 A 
ATOM      2  C   UNL     1     -13.924   8.100 -11.177  1.00  0.00     0.208 A 
ATOM      3  C   UNL     1     -12.752   8.495 -10.513  1.00  0.00     0.238 A 
ATOM      4  O   UNL     1     -12.267   7.733  -9.636  1.00  0.00    -0.285 OA
ATOM      5  C   UNL     1     -12.165   9.750 -10.806  1.00  0.00     0.111 A 
ATOM      6  C   UNL     1     -10.955  10.235 -10.223  1.00  0.00     0.134 A 
ATOM      7  C   UNL     1     -10.538  11.545 -10.489  1.00  0.00     0.093 A 
ATOM      8  C   UNL     1     -11.251  12.364 -11.368  1.00  0.00     0.123 A 
ATOM      9  C   UNL     1     -12.400  11.879 -11.987  1.00  0.00     0.094 A 
ATOM     10  C   UNL     1     -12.862  10.589 -11.714  1.00  0.00     0.146 A 
ATOM     11  O   UNL     1     -13.967  10.169 -12.318  1.00  0.00    -0.452 OA
ENDROOT
BRANCH   1  12
ATOM     12  C   UNL     1     -15.726   8.616 -12.871  1.00  0.00     0.025 A 
ATOM     13  C   UNL     1     -16.981   8.553 -12.244  1.00  0.00     0.016 A 
ATOM     14  C   UNL     1     -18.116   8.191 -12.972  1.00  0.00     0.051 A 
ATOM     15  C   UNL     1     -18.021   7.873 -14.332  1.00  0.00     0.157 A 
ATOM     16  C   UNL     1     -15.624   8.277 -14.229  1.00  0.00     0.062 A 
ATOM     17  C   UNL     1     -16.758   7.913 -14.968  1.00  0.00     0.158 A 
BRANCH  15  18
ATOM     18  O   UNL     1     -19.194   7.524 -15.004  1.00  0.00    -0.504 OA
ATOM     19  H   UNL     1     -19.795   6.759 -14.729  1.00  0.00     0.293 HD
ENDBRANCH  15  18
BRANCH  17  20
ATOM     20  O   UNL     1     -16.582   7.600 -16.318  1.00  0.00    -0.504 OA
ATOM     21  H   UNL     1     -15.790   7.899 -16.868  1.00  0.00     0.293 HD
ENDBRANCH  17  20
ENDBRANCH   1  12
BRANCH   2  22
ATOM     22  O   UNL     1     -14.532   6.875 -10.887  1.00  0.00    -0.502 OA
ATOM     23  H   UNL     1     -14.637   6.531  -9.939  1.00  0.00     0.293 HD
ENDBRANCH   2  22
BRANCH   6  24
ATOM     24  O   UNL     1     -10.121   9.467  -9.406  1.00  0.00    -0.507 OA
ATOM     25  H   UNL     1      -9.745   9.771  -8.521  1.00  0.00     0.293 HD
ENDBRANCH   6  24
BRANCH   8  26
ATOM     26  O   UNL     1     -10.820  13.661 -11.638  1.00  0.00    -0.508 OA
ATOM     27  H   UNL     1     -10.422  13.911 -12.536  1.00  0.00     0.293 HD
ENDBRANCH   8  26
TORSDOF 6
ENDMDL
MODEL 7
REMARK VINA RESULT:    -6.635      1.391      6.831
REMARK INTER + INTRA:          -8.147
REMARK INTER:                  -8.036
REMARK INTRA:                  -0.111
REMARK UNBOUND:                -0.155
REMARK SMILES O=c1c(O)c(-c2ccc(O)c(O)c2)oc2cc(O)cc(O)c12
REMARK SMILES IDX 5 1 3 2 2 3 1 4 22 5 20 6 19 7 17 8 16 9 15 10 14 11 6 12
REMARK SMILES IDX 7 13 8 14 9 15 13 16 11 17 10 18 12 20 4 22 21 24 18 26
REMARK H PARENT 10 19 12 21 4 23 21 25 18 27
REMARK Flexibility Score: inf
ROOT
ATOM      1  C   UNL     1     -15.278   8.664 -12.526  1.00  0.00     0.180 A 
ATOM      2  C   UNL     1     -15.059   7.914 -11.357  1.00  0.00     0.208 A 
ATOM      3  C   UNL     1     -13.970   8.240 -10.533  1.00  0.00     0.238 A 
ATOM      4  O   UNL     1     -13.811   7.600  -9.461  1.00  0.00    -0.285 OA
ATOM      5  C   UNL     1     -13.104   9.300 -10.896  1.00  0.00     0.111 A 
ATOM      6  C   UNL     1     -11.947   9.690 -10.156  1.00  0.00     0.134 A 
ATOM      7  C   UNL     1     -11.238  10.836 -10.539  1.00  0.00     0.093 A 
ATOM      8  C   UNL     1     -11.606  11.566 -11.670  1.00  0.00     0.123 A 
ATOM      9  C   UNL     1     -12.698  11.159 -12.432  1.00  0.00     0.094 A 
ATOM     10  C   UNL     1     -13.447  10.042 -12.056  1.00  0.00     0.146 A 
ATOM     11  O   UNL     1     -14.487   9.693 -12.804  1.00  0.00    -0.452 OA
ENDROOT
BRANCH   1  12
ATOM     12  C   UNL     1     -16.390   8.365 -13.457  1.00  0.00     0.025 A 
ATOM     13  C   UNL     1     -17.729   8.415 -13.036  1.00  0.00     0.016 A 
ATOM     14  C   UNL     1     -18.760   8.105 -13.924  1.00  0.00     0.051 A 
ATOM     15  C   UNL     1     -18.478   7.730 -15.242  1.00  0.00     0.157 A 
ATOM     16  C   UNL     1     -16.104   7.968 -14.772  1.00  0.00     0.062 A 
ATOM     17  C   UNL     1     -17.132   7.656 -15.671  1.00  0.00     0.158 A 
BRANCH  15  18
ATOM     18  O   UNL     1     -19.556   7.438 -16.081  1.00  0.00    -0.504 OA
ATOM     19  H   UNL     1     -20.513   7.687 -15.878  1.00  0.00     0.293 HD
ENDBRANCH  15  18
BRANCH  17  20
ATOM     20  O   UNL     1     -16.773   7.279 -16.967  1.00  0.00    -0.504 OA
ATOM     21  H   UNL     1     -17.393   6.809 -17.610  1.00  0.00     0.293 HD
ENDBRANCH  17  20
ENDBRANCH   1  12
BRANCH   2  22
ATOM     22  O   UNL     1     -15.939   6.886 -11.007  1.00  0.00    -0.502 OA
ATOM     23  H   UNL     1     -15.982   6.010 -11.514  1.00  0.00     0.293 HD
ENDBRANCH   2  22
BRANCH   6  24
ATOM     24  O   UNL     1     -11.441   8.976  -9.066  1.00  0.00    -0.507 OA
ATOM     25  H   UNL     1     -11.699   9.137  -8.105  1.00  0.00     0.293 HD
ENDBRANCH   6  24
BRANCH   8  26
ATOM     26  O   UNL     1     -10.885  12.697 -12.051  1.00  0.00    -0.508 OA
ATOM     27  H   UNL     1     -10.433  13.292 -11.368  1.00  0.00     0.293 HD
ENDBRANCH   8  26
TORSDOF 6
ENDMDL
MODEL 8
REMARK VINA RESULT:    -6.312      1.732      3.582
REMARK INTER + INTRA:          -7.758
REMARK INTER:                  -7.454
REMARK INTRA:                  -0.304
REMARK UNBOUND:                -0.155
REMARK SMILES O=c1c(O)c(-c2ccc(O)c(O)c2)oc2cc(O)cc(O)c12
REMARK SMILES IDX 5 1 3 2 2 3 1 4 22 5 20 6 19 7 17 8 16 9 15 10 14 11 6 12
REMARK SMILES IDX 7 13 8 14 9 15 13 16 11 17 10 18 12 20 4 22 21 24 18 26
REMARK H PARENT 10 19 12 21 4 23 21 25 18 27
REMARK Flexibility Score: inf
ROOT
ATOM      1  C   UNL     1     -15.794   8.920 -11.882  1.00  0.00     0.180 A 
ATOM      2  C   UNL     1     -16.257   8.259 -13.033  1.00  0.00     0.208 A 
ATOM      3  C   UNL     1     -17.631   8.001 -13.164  1.00  0.00     0.238 A 
ATOM      4  O   UNL     1     -18.045   7.457 -14.221  1.00  0.00    -0.285 OA
ATOM      5  C   UNL     1     -18.522   8.393 -12.137  1.00  0.00     0.111 A 
ATOM      6  C   UNL     1     -19.928   8.147 -12.146  1.00  0.00     0.134 A 
ATOM      7  C   UNL     1     -20.731   8.694 -11.138  1.00  0.00     0.093 A 
ATOM      8  C   UNL     1     -20.171   9.424 -10.087  1.00  0.00     0.123 A 
ATOM      9  C   UNL     1     -18.794   9.619 -10.038  1.00  0.00     0.094 A 
ATOM     10  C   UNL     1     -17.970   9.116 -11.047  1.00  0.00     0.146 A 
ATOM     11  O   UNL     1     -16.663   9.334 -10.968  1.00  0.00    -0.452 OA
ENDROOT
BRANCH   1  12
ATOM     12  C   UNL     1     -14.357   9.205 -11.661  1.00  0.00     0.025 A 
ATOM     13  C   UNL     1     -13.571   8.393 -10.828  1.00  0.00     0.016 A 
ATOM     14  C   UNL     1     -12.225   8.696 -10.615  1.00  0.00     0.051 A 
ATOM     15  C   UNL     1     -11.641   9.817 -11.216  1.00  0.00     0.157 A 
ATOM     16  C   UNL     1     -13.781  10.342 -12.247  1.00  0.00     0.062 A 
ATOM     17  C   UNL     1     -12.430  10.654 -12.039  1.00  0.00     0.158 A 
BRANCH  15  18
ATOM     18  O   UNL     1     -10.289  10.061 -10.965  1.00  0.00    -0.504 OA
ATOM     19  H   UNL     1      -9.643   9.362 -10.628  1.00  0.00     0.293 HD
ENDBRANCH  15  18
BRANCH  17  20
ATOM     20  O   UNL     1     -11.921  11.795 -12.664  1.00  0.00    -0.504 OA
ATOM     21  H   UNL     1     -11.584  12.607 -12.168  1.00  0.00     0.293 HD
ENDBRANCH  17  20
ENDBRANCH   1  12
BRANCH   2  22
ATOM     22  O   UNL     1     -15.362   7.900 -14.045  1.00  0.00    -0.502 OA
ATOM     23  H   UNL     1     -15.211   6.937 -14.322  1.00  0.00     0.293 HD
ENDBRANCH   2  22
BRANCH   6  24
ATOM     24  O   UNL     1     -20.575   7.354 -13.099  1.00  0.00    -0.507 OA
ATOM     25  H   UNL     1     -20.107   6.782 -13.784  1.00  0.00     0.293 HD
ENDBRANCH   6  24
BRANCH   8  26
ATOM     26  O   UNL     1     -20.978   9.952  -9.080  1.00  0.00    -0.508 OA
ATOM     27  H   UNL     1     -21.266   9.395  -8.285  1.00  0.00     0.293 HD
ENDBRANCH   8  26
TORSDOF 6
ENDMDL
