MODEL 1
REMARK VINA RESULT:    -5.805      0.000      0.000
REMARK INTER + INTRA:         -12.819
REMARK INTER:                 -10.895
REMARK INTRA:                  -1.924
REMARK UNBOUND:                -1.924
REMARK SMILES CCCCCCCCC=CCCCCCCCC(=O)[O-]
REMARK SMILES IDX 10 1 9 2 11 3 12 4 13 5 14 6 15 7 16 8 17 9 18 10 19 11
REMARK SMILES IDX 20 12 8 13 7 14 6 15 5 16 4 17 3 18 2 19 1 20
REMARK H PARENT
REMARK Flexibility Score: inf
ROOT
ATOM      1  C   UNL     1      43.611   4.307  26.082  1.00  0.00    -0.031 C 
ATOM      2  C   UNL     1      43.196   3.945  27.309  1.00  0.00    -0.031 C 
ENDROOT
BRANCH   1   3
ATOM      3  C   UNL     1      44.122   5.681  25.728  1.00  0.00     0.027 C 
BRANCH   3   4
ATOM      4  C   UNL     1      43.139   6.407  24.802  1.00  0.00     0.004 C 
BRANCH   4   5
ATOM      5  C   UNL     1      43.033   5.692  23.446  1.00  0.00     0.000 C 
BRANCH   5   6
ATOM      6  C   UNL     1      44.320   5.804  22.613  1.00  0.00     0.000 C 
BRANCH   6   7
ATOM      7  C   UNL     1      45.067   4.464  22.500  1.00  0.00     0.000 C 
BRANCH   7   8
ATOM      8  C   UNL     1      46.564   4.587  22.843  1.00  0.00     0.006 C 
BRANCH   8   9
ATOM      9  C   UNL     1      47.511   4.280  21.671  1.00  0.00     0.053 C 
BRANCH   9  10
ATOM     10  C   UNL     1      47.513   5.376  20.649  1.00  0.00     0.041 C 
ATOM     11  O   UNL     1      47.120   5.149  19.475  1.00  0.00    -0.550 OA
ATOM     12  O   UNL     1      47.919   6.657  21.004  1.00  0.00    -0.550 OA
ENDBRANCH   9  10
ENDBRANCH   8   9
ENDBRANCH   7   8
ENDBRANCH   6   7
ENDBRANCH   5   6
ENDBRANCH   4   5
ENDBRANCH   3   4
ENDBRANCH   1   3
BRANCH   2  13
ATOM     13  C   UNL     1      43.229   4.864  28.506  1.00  0.00     0.027 C 
BRANCH  13  14
ATOM     14  C   UNL     1      41.818   5.342  28.876  1.00  0.00     0.004 C 
BRANCH  14  15
ATOM     15  C   UNL     1      41.573   6.812  28.473  1.00  0.00     0.000 C 
BRANCH  15  16
ATOM     16  C   UNL     1      40.363   7.004  27.543  1.00  0.00     0.000 C 
BRANCH  16  17
ATOM     17  C   UNL     1      39.868   5.686  26.928  1.00  0.00    -0.000 C 
BRANCH  17  18
ATOM     18  C   UNL     1      38.389   5.401  27.235  1.00  0.00    -0.000 C 
BRANCH  18  19
ATOM     19  C   UNL     1      38.179   4.337  28.332  1.00  0.00    -0.003 C 
ATOM     20  C   UNL     1      36.701   4.033  28.577  1.00  0.00     0.004 C 
ENDBRANCH  18  19
ENDBRANCH  17  18
ENDBRANCH  16  17
ENDBRANCH  15  16
ENDBRANCH  14  15
ENDBRANCH  13  14
ENDBRANCH   2  13
TORSDOF 15
ENDMDL
MODEL 2
REMARK VINA RESULT:    -5.775      1.090      1.643
REMARK INTER + INTRA:         -12.763
REMARK INTER:                 -11.456
REMARK INTRA:                  -1.307
REMARK UNBOUND:                -1.924
REMARK SMILES CCCCCCCCC=CCCCCCCCC(=O)[O-]
REMARK SMILES IDX 10 1 9 2 11 3 12 4 13 5 14 6 15 7 16 8 17 9 18 10 19 11
REMARK SMILES IDX 20 12 8 13 7 14 6 15 5 16 4 17 3 18 2 19 1 20
REMARK H PARENT
REMARK Flexibility Score: inf
ROOT
ATOM      1  C   UNL     1      44.236   4.465  26.247  1.00  0.00    -0.031 C 
ATOM      2  C   UNL     1      43.661   4.016  27.377  1.00  0.00    -0.031 C 
ENDROOT
BRANCH   1   3
ATOM      3  C   UNL     1      43.591   5.438  25.293  1.00  0.00     0.027 C 
BRANCH   3   4
ATOM      4  C   UNL     1      44.562   5.831  24.174  1.00  0.00     0.004 C 
BRANCH   4   5
ATOM      5  C   UNL     1      45.245   4.590  23.580  1.00  0.00     0.000 C 
BRANCH   5   6
ATOM      6  C   UNL     1      46.590   4.916  22.910  1.00  0.00     0.000 C 
BRANCH   6   7
ATOM      7  C   UNL     1      47.094   3.771  22.014  1.00  0.00     0.000 C 
BRANCH   7   8
ATOM      8  C   UNL     1      46.535   3.847  20.581  1.00  0.00     0.006 C 
BRANCH   8   9
ATOM      9  C   UNL     1      47.544   4.343  19.531  1.00  0.00     0.053 C 
BRANCH   9  10
ATOM     10  C   UNL     1      47.084   5.601  18.861  1.00  0.00     0.041 C 
ATOM     11  O   UNL     1      46.413   6.452  19.502  1.00  0.00    -0.550 OA
ATOM     12  O   UNL     1      47.425   5.849  17.537  1.00  0.00    -0.550 OA
ENDBRANCH   9  10
ENDBRANCH   8   9
ENDBRANCH   7   8
ENDBRANCH   6   7
ENDBRANCH   5   6
ENDBRANCH   4   5
ENDBRANCH   3   4
ENDBRANCH   1   3
BRANCH   2  13
ATOM     13  C   UNL     1      42.302   4.465  27.858  1.00  0.00     0.027 C 
BRANCH  13  14
ATOM     14  C   UNL     1      42.428   5.553  28.934  1.00  0.00     0.004 C 
BRANCH  14  15
ATOM     15  C   UNL     1      41.571   6.796  28.614  1.00  0.00     0.000 C 
BRANCH  15  16
ATOM     16  C   UNL     1      40.790   6.684  27.293  1.00  0.00     0.000 C 
BRANCH  16  17
ATOM     17  C   UNL     1      39.269   6.790  27.489  1.00  0.00    -0.000 C 
BRANCH  17  18
ATOM     18  C   UNL     1      38.529   5.489  27.136  1.00  0.00    -0.000 C 
BRANCH  18  19
ATOM     19  C   UNL     1      38.360   4.531  28.334  1.00  0.00    -0.003 C 
ATOM     20  C   UNL     1      36.939   3.977  28.442  1.00  0.00     0.004 C 
ENDBRANCH  18  19
ENDBRANCH  17  18
ENDBRANCH  16  17
ENDBRANCH  15  16
ENDBRANCH  14  15
ENDBRANCH  13  14
ENDBRANCH   2  13
TORSDOF 15
ENDMDL
MODEL 3
REMARK VINA RESULT:    -5.633      4.725      5.351
REMARK INTER + INTRA:         -12.496
REMARK INTER:                 -11.763
REMARK INTRA:                  -0.734
REMARK UNBOUND:                -1.924
REMARK SMILES CCCCCCCCC=CCCCCCCCC(=O)[O-]
REMARK SMILES IDX 10 1 9 2 11 3 12 4 13 5 14 6 15 7 16 8 17 9 18 10 19 11
REMARK SMILES IDX 20 12 8 13 7 14 6 15 5 16 4 17 3 18 2 19 1 20
REMARK H PARENT
REMARK Flexibility Score: inf
ROOT
ATOM      1  C   UNL     1      44.290   4.485  24.549  1.00  0.00    -0.031 C 
ATOM      2  C   UNL     1      44.264   4.668  25.882  1.00  0.00    -0.031 C 
ENDROOT
BRANCH   1   3
ATOM      3  C   UNL     1      43.226   3.752  23.771  1.00  0.00     0.027 C 
BRANCH   3   4
ATOM      4  C   UNL     1      43.734   3.374  22.375  1.00  0.00     0.004 C 
BRANCH   4   5
ATOM      5  C   UNL     1      43.360   1.924  22.030  1.00  0.00     0.000 C 
BRANCH   5   6
ATOM      6  C   UNL     1      44.421   0.911  22.492  1.00  0.00     0.000 C 
BRANCH   6   7
ATOM      7  C   UNL     1      43.946  -0.545  22.349  1.00  0.00     0.000 C 
BRANCH   7   8
ATOM      8  C   UNL     1      44.894  -1.549  23.032  1.00  0.00     0.006 C 
BRANCH   8   9
ATOM      9  C   UNL     1      44.535  -1.869  24.493  1.00  0.00     0.053 C 
BRANCH   9  10
ATOM     10  C   UNL     1      44.434  -3.343  24.737  1.00  0.00     0.041 C 
ATOM     11  O   UNL     1      43.316  -3.873  24.965  1.00  0.00    -0.550 OA
ATOM     12  O   UNL     1      45.573  -4.137  24.679  1.00  0.00    -0.550 OA
ENDBRANCH   9  10
ENDBRANCH   8   9
ENDBRANCH   7   8
ENDBRANCH   6   7
ENDBRANCH   5   6
ENDBRANCH   4   5
ENDBRANCH   3   4
ENDBRANCH   1   3
BRANCH   2  13
ATOM     13  C   UNL     1      43.137   4.197  26.768  1.00  0.00     0.027 C 
BRANCH  13  14
ATOM     14  C   UNL     1      43.337   4.666  28.216  1.00  0.00     0.004 C 
BRANCH  14  15
ATOM     15  C   UNL     1      42.037   5.216  28.839  1.00  0.00     0.000 C 
BRANCH  15  16
ATOM     16  C   UNL     1      40.928   5.493  27.810  1.00  0.00     0.000 C 
BRANCH  16  17
ATOM     17  C   UNL     1      39.614   4.767  28.139  1.00  0.00    -0.000 C 
BRANCH  17  18
ATOM     18  C   UNL     1      38.379   5.471  27.552  1.00  0.00    -0.000 C 
BRANCH  18  19
ATOM     19  C   UNL     1      37.076   5.184  28.328  1.00  0.00    -0.003 C 
ATOM     20  C   UNL     1      36.797   3.688  28.467  1.00  0.00     0.004 C 
ENDBRANCH  18  19
ENDBRANCH  17  18
ENDBRANCH  16  17
ENDBRANCH  15  16
ENDBRANCH  14  15
ENDBRANCH  13  14
ENDBRANCH   2  13
TORSDOF 15
ENDMDL
MODEL 4
REMARK VINA RESULT:    -5.557      1.992      3.219
REMARK INTER + INTRA:         -12.354
REMARK INTER:                 -11.560
REMARK INTRA:                  -0.795
REMARK UNBOUND:                -1.924
REMARK SMILES CCCCCCCCC=CCCCCCCCC(=O)[O-]
REMARK SMILES IDX 10 1 9 2 11 3 12 4 13 5 14 6 15 7 16 8 17 9 18 10 19 11
REMARK SMILES IDX 20 12 8 13 7 14 6 15 5 16 4 17 3 18 2 19 1 20
REMARK H PARENT
REMARK Flexibility Score: inf
ROOT
ATOM      1  C   UNL     1      44.386   4.308  23.680  1.00  0.00    -0.031 C 
ATOM      2  C   UNL     1      43.694   4.152  24.824  1.00  0.00    -0.031 C 
ENDROOT
BRANCH   1   3
ATOM      3  C   UNL     1      45.785   4.865  23.602  1.00  0.00     0.027 C 
BRANCH   3   4
ATOM      4  C   UNL     1      46.550   4.256  22.422  1.00  0.00     0.004 C 
BRANCH   4   5
ATOM      5  C   UNL     1      45.664   4.192  21.168  1.00  0.00     0.000 C 
BRANCH   5   6
ATOM      6  C   UNL     1      46.339   3.452  20.002  1.00  0.00     0.000 C 
BRANCH   6   7
ATOM      7  C   UNL     1      47.632   4.142  19.536  1.00  0.00     0.000 C 
BRANCH   7   8
ATOM      8  C   UNL     1      47.400   5.104  18.355  1.00  0.00     0.006 C 
BRANCH   8   9
ATOM      9  C   UNL     1      46.110   4.836  17.561  1.00  0.00     0.053 C 
BRANCH   9  10
ATOM     10  C   UNL     1      45.367   6.100  17.254  1.00  0.00     0.041 C 
ATOM     11  O   UNL     1      44.303   6.063  16.583  1.00  0.00    -0.550 OA
ATOM     12  O   UNL     1      45.833   7.316  17.738  1.00  0.00    -0.550 OA
ENDBRANCH   9  10
ENDBRANCH   8   9
ENDBRANCH   7   8
ENDBRANCH   6   7
ENDBRANCH   5   6
ENDBRANCH   4   5
ENDBRANCH   3   4
ENDBRANCH   1   3
BRANCH   2  13
ATOM     13  C   UNL     1      44.252   4.477  26.188  1.00  0.00     0.027 C 
BRANCH  13  14
ATOM     14  C   UNL     1      43.242   4.140  27.294  1.00  0.00     0.004 C 
BRANCH  14  15
ATOM     15  C   UNL     1      42.918   5.359  28.184  1.00  0.00     0.000 C 
BRANCH  15  16
ATOM     16  C   UNL     1      41.576   5.241  28.927  1.00  0.00     0.000 C 
BRANCH  16  17
ATOM     17  C   UNL     1      40.372   5.163  27.976  1.00  0.00    -0.000 C 
BRANCH  17  18
ATOM     18  C   UNL     1      39.233   4.288  28.524  1.00  0.00    -0.000 C 
BRANCH  18  19
ATOM     19  C   UNL     1      37.826   4.798  28.148  1.00  0.00    -0.003 C 
ATOM     20  C   UNL     1      36.728   3.795  28.501  1.00  0.00     0.004 C 
ENDBRANCH  18  19
ENDBRANCH  17  18
ENDBRANCH  16  17
ENDBRANCH  15  16
ENDBRANCH  14  15
ENDBRANCH  13  14
ENDBRANCH   2  13
TORSDOF 15
ENDMDL
MODEL 5
REMARK VINA RESULT:    -5.513      3.199      4.189
REMARK INTER + INTRA:         -12.272
REMARK INTER:                  -9.773
REMARK INTRA:                  -2.499
REMARK UNBOUND:                -1.924
REMARK SMILES CCCCCCCCC=CCCCCCCCC(=O)[O-]
REMARK SMILES IDX 10 1 9 2 11 3 12 4 13 5 14 6 15 7 16 8 17 9 18 10 19 11
REMARK SMILES IDX 20 12 8 13 7 14 6 15 5 16 4 17 3 18 2 19 1 20
REMARK H PARENT
REMARK Flexibility Score: inf
ROOT
ATOM      1  C   UNL     1      42.276   5.764  28.781  1.00  0.00    -0.031 C 
ATOM      2  C   UNL     1      42.299   7.041  28.358  1.00  0.00    -0.031 C 
ENDROOT
BRANCH   1   3
ATOM      3  C   UNL     1      42.303   4.565  27.867  1.00  0.00     0.027 C 
BRANCH   3   4
ATOM      4  C   UNL     1      43.736   4.050  27.685  1.00  0.00     0.004 C 
BRANCH   4   5
ATOM      5  C   UNL     1      44.271   4.404  26.289  1.00  0.00     0.000 C 
BRANCH   5   6
ATOM      6  C   UNL     1      43.201   4.276  25.192  1.00  0.00     0.000 C 
BRANCH   6   7
ATOM      7  C   UNL     1      43.685   4.807  23.832  1.00  0.00     0.000 C 
BRANCH   7   8
ATOM      8  C   UNL     1      42.918   4.192  22.646  1.00  0.00     0.006 C 
BRANCH   8   9
ATOM      9  C   UNL     1      41.792   5.079  22.089  1.00  0.00     0.053 C 
BRANCH   9  10
ATOM     10  C   UNL     1      40.456   4.405  22.167  1.00  0.00     0.041 C 
ATOM     11  O   UNL     1      40.383   3.154  22.287  1.00  0.00    -0.550 OA
ATOM     12  O   UNL     1      39.292   5.163  22.140  1.00  0.00    -0.550 OA
ENDBRANCH   9  10
ENDBRANCH   8   9
ENDBRANCH   7   8
ENDBRANCH   6   7
ENDBRANCH   5   6
ENDBRANCH   4   5
ENDBRANCH   3   4
ENDBRANCH   1   3
BRANCH   2  13
ATOM     13  C   UNL     1      42.401   7.437  26.905  1.00  0.00     0.027 C 
BRANCH  13  14
ATOM     14  C   UNL     1      41.110   8.116  26.425  1.00  0.00     0.004 C 
BRANCH  14  15
ATOM     15  C   UNL     1      40.479   7.389  25.218  1.00  0.00     0.000 C 
BRANCH  15  16
ATOM     16  C   UNL     1      40.022   5.954  25.531  1.00  0.00     0.000 C 
BRANCH  16  17
ATOM     17  C   UNL     1      38.584   5.890  26.067  1.00  0.00    -0.000 C 
BRANCH  17  18
ATOM     18  C   UNL     1      38.518   5.879  27.604  1.00  0.00    -0.000 C 
BRANCH  18  19
ATOM     19  C   UNL     1      38.269   4.478  28.202  1.00  0.00    -0.003 C 
ATOM     20  C   UNL     1      36.797   4.239  28.536  1.00  0.00     0.004 C 
ENDBRANCH  18  19
ENDBRANCH  17  18
ENDBRANCH  16  17
ENDBRANCH  15  16
ENDBRANCH  14  15
ENDBRANCH  13  14
ENDBRANCH   2  13
TORSDOF 15
ENDMDL
MODEL 6
REMARK VINA RESULT:    -5.384      1.318      2.517
REMARK INTER + INTRA:         -12.029
REMARK INTER:                 -10.009
REMARK INTRA:                  -2.020
REMARK UNBOUND:                -1.924
REMARK SMILES CCCCCCCCC=CCCCCCCCC(=O)[O-]
REMARK SMILES IDX 10 1 9 2 11 3 12 4 13 5 14 6 15 7 16 8 17 9 18 10 19 11
REMARK SMILES IDX 20 12 8 13 7 14 6 15 5 16 4 17 3 18 2 19 1 20
REMARK H PARENT
REMARK Flexibility Score: inf
ROOT
ATOM      1  C   UNL     1      42.735   5.273  29.201  1.00  0.00    -0.031 C 
ATOM      2  C   UNL     1      42.346   6.551  29.357  1.00  0.00    -0.031 C 
ENDROOT
BRANCH   1   3
ATOM      3  C   UNL     1      42.427   4.434  27.986  1.00  0.00     0.027 C 
BRANCH   3   4
ATOM      4  C   UNL     1      43.714   3.872  27.370  1.00  0.00     0.004 C 
BRANCH   4   5
ATOM      5  C   UNL     1      44.063   4.604  26.066  1.00  0.00     0.000 C 
BRANCH   5   6
ATOM      6  C   UNL     1      43.484   3.909  24.822  1.00  0.00     0.000 C 
BRANCH   6   7
ATOM      7  C   UNL     1      44.353   4.123  23.570  1.00  0.00     0.000 C 
BRANCH   7   8
ATOM      8  C   UNL     1      45.631   4.932  23.865  1.00  0.00     0.006 C 
BRANCH   8   9
ATOM      9  C   UNL     1      46.780   4.687  22.872  1.00  0.00     0.053 C 
BRANCH   9  10
ATOM     10  C   UNL     1      46.725   5.627  21.707  1.00  0.00     0.041 C 
ATOM     11  O   UNL     1      47.541   6.581  21.623  1.00  0.00    -0.550 OA
ATOM     12  O   UNL     1      45.792   5.428  20.696  1.00  0.00    -0.550 OA
ENDBRANCH   9  10
ENDBRANCH   8   9
ENDBRANCH   7   8
ENDBRANCH   6   7
ENDBRANCH   5   6
ENDBRANCH   4   5
ENDBRANCH   3   4
ENDBRANCH   1   3
BRANCH   2  13
ATOM     13  C   UNL     1      41.585   7.327  28.310  1.00  0.00     0.027 C 
BRANCH  13  14
ATOM     14  C   UNL     1      42.513   7.783  27.176  1.00  0.00     0.004 C 
BRANCH  14  15
ATOM     15  C   UNL     1      41.789   7.845  25.814  1.00  0.00     0.000 C 
BRANCH  15  16
ATOM     16  C   UNL     1      40.965   6.585  25.495  1.00  0.00     0.000 C 
BRANCH  16  17
ATOM     17  C   UNL     1      39.450   6.824  25.588  1.00  0.00    -0.000 C 
BRANCH  17  18
ATOM     18  C   UNL     1      38.689   5.615  26.157  1.00  0.00    -0.000 C 
BRANCH  18  19
ATOM     19  C   UNL     1      38.363   5.741  27.661  1.00  0.00    -0.003 C 
ATOM     20  C   UNL     1      38.556   4.424  28.412  1.00  0.00     0.004 C 
ENDBRANCH  18  19
ENDBRANCH  17  18
ENDBRANCH  16  17
ENDBRANCH  15  16
ENDBRANCH  14  15
ENDBRANCH  13  14
ENDBRANCH   2  13
TORSDOF 15
ENDMDL
MODEL 7
REMARK VINA RESULT:    -5.381      9.013     10.734
REMARK INTER + INTRA:         -12.024
REMARK INTER:                 -10.226
REMARK INTRA:                  -1.798
REMARK UNBOUND:                -1.924
REMARK SMILES CCCCCCCCC=CCCCCCCCC(=O)[O-]
REMARK SMILES IDX 10 1 9 2 11 3 12 4 13 5 14 6 15 7 16 8 17 9 18 10 19 11
REMARK SMILES IDX 20 12 8 13 7 14 6 15 5 16 4 17 3 18 2 19 1 20
REMARK H PARENT
REMARK Flexibility Score: inf
ROOT
ATOM      1  C   UNL     1      44.079  -3.269  24.705  1.00  0.00    -0.031 C 
ATOM      2  C   UNL     1      43.493  -4.391  25.162  1.00  0.00    -0.031 C 
ENDROOT
BRANCH   1   3
ATOM      3  C   UNL     1      44.976  -2.382  25.531  1.00  0.00     0.027 C 
BRANCH   3   4
ATOM      4  C   UNL     1      46.352  -2.233  24.873  1.00  0.00     0.004 C 
BRANCH   4   5
ATOM      5  C   UNL     1      46.229  -1.592  23.482  1.00  0.00     0.000 C 
BRANCH   5   6
ATOM      6  C   UNL     1      46.535  -2.579  22.344  1.00  0.00     0.000 C 
BRANCH   6   7
ATOM      7  C   UNL     1      45.975  -2.109  20.990  1.00  0.00     0.000 C 
BRANCH   7   8
ATOM      8  C   UNL     1      44.435  -2.062  20.968  1.00  0.00     0.006 C 
BRANCH   8   9
ATOM      9  C   UNL     1      43.827  -1.803  19.579  1.00  0.00     0.053 C 
BRANCH   9  10
ATOM     10  C   UNL     1      43.117  -0.486  19.514  1.00  0.00     0.041 C 
ATOM     11  O   UNL     1      43.262   0.359  20.436  1.00  0.00    -0.550 OA
ATOM     12  O   UNL     1      42.321  -0.178  18.418  1.00  0.00    -0.550 OA
ENDBRANCH   9  10
ENDBRANCH   8   9
ENDBRANCH   7   8
ENDBRANCH   6   7
ENDBRANCH   5   6
ENDBRANCH   4   5
ENDBRANCH   3   4
ENDBRANCH   1   3
BRANCH   2  13
ATOM     13  C   UNL     1      43.697  -4.931  26.557  1.00  0.00     0.027 C 
BRANCH  13  14
ATOM     14  C   UNL     1      43.951  -6.444  26.533  1.00  0.00     0.004 C 
BRANCH  14  15
ATOM     15  C   UNL     1      42.841  -7.213  25.785  1.00  0.00     0.000 C 
BRANCH  15  16
ATOM     16  C   UNL     1      43.260  -8.625  25.339  1.00  0.00     0.000 C 
BRANCH  16  17
ATOM     17  C   UNL     1      43.394  -8.754  23.814  1.00  0.00    -0.000 C 
BRANCH  17  18
ATOM     18  C   UNL     1      42.925  -7.496  23.064  1.00  0.00    -0.000 C 
BRANCH  18  19
ATOM     19  C   UNL     1      43.804  -7.137  21.848  1.00  0.00    -0.003 C 
ATOM     20  C   UNL     1      44.308  -5.695  21.897  1.00  0.00     0.004 C 
ENDBRANCH  18  19
ENDBRANCH  17  18
ENDBRANCH  16  17
ENDBRANCH  15  16
ENDBRANCH  14  15
ENDBRANCH  13  14
ENDBRANCH   2  13
TORSDOF 15
ENDMDL
MODEL 8
REMARK VINA RESULT:    -5.360      2.565      3.549
REMARK INTER + INTRA:         -11.985
REMARK INTER:                 -10.706
REMARK INTRA:                  -1.279
REMARK UNBOUND:                -1.924
REMARK SMILES CCCCCCCCC=CCCCCCCCC(=O)[O-]
REMARK SMILES IDX 10 1 9 2 11 3 12 4 13 5 14 6 15 7 16 8 17 9 18 10 19 11
REMARK SMILES IDX 20 12 8 13 7 14 6 15 5 16 4 17 3 18 2 19 1 20
REMARK H PARENT
REMARK Flexibility Score: inf
ROOT
ATOM      1  C   UNL     1      44.211   4.217  23.996  1.00  0.00    -0.031 C 
ATOM      2  C   UNL     1      43.444   4.424  25.082  1.00  0.00    -0.031 C 
ENDROOT
BRANCH   1   3
ATOM      3  C   UNL     1      45.676   4.564  23.911  1.00  0.00     0.027 C 
BRANCH   3   4
ATOM      4  C   UNL     1      46.040   5.056  22.506  1.00  0.00     0.004 C 
BRANCH   4   5
ATOM      5  C   UNL     1      46.866   4.002  21.752  1.00  0.00     0.000 C 
BRANCH   5   6
ATOM      6  C   UNL     1      46.439   3.854  20.283  1.00  0.00     0.000 C 
BRANCH   6   7
ATOM      7  C   UNL     1      44.952   4.184  20.065  1.00  0.00     0.000 C 
BRANCH   7   8
ATOM      8  C   UNL     1      44.045   2.943  20.177  1.00  0.00     0.006 C 
BRANCH   8   9
ATOM      9  C   UNL     1      44.679   1.643  19.655  1.00  0.00     0.053 C 
BRANCH   9  10
ATOM     10  C   UNL     1      44.833   0.620  20.738  1.00  0.00     0.041 C 
ATOM     11  O   UNL     1      44.667   0.942  21.943  1.00  0.00    -0.550 OA
ATOM     12  O   UNL     1      45.127  -0.699  20.412  1.00  0.00    -0.550 OA
ENDBRANCH   9  10
ENDBRANCH   8   9
ENDBRANCH   7   8
ENDBRANCH   6   7
ENDBRANCH   5   6
ENDBRANCH   4   5
ENDBRANCH   3   4
ENDBRANCH   1   3
BRANCH   2  13
ATOM     13  C   UNL     1      43.968   4.994  26.378  1.00  0.00     0.027 C 
BRANCH  13  14
ATOM     14  C   UNL     1      43.447   4.199  27.583  1.00  0.00     0.004 C 
BRANCH  14  15
ATOM     15  C   UNL     1      42.590   5.066  28.530  1.00  0.00     0.000 C 
BRANCH  15  16
ATOM     16  C   UNL     1      41.083   4.767  28.447  1.00  0.00     0.000 C 
BRANCH  16  17
ATOM     17  C   UNL     1      40.317   5.794  27.599  1.00  0.00    -0.000 C 
BRANCH  17  18
ATOM     18  C   UNL     1      38.805   5.521  27.552  1.00  0.00    -0.000 C 
BRANCH  18  19
ATOM     19  C   UNL     1      38.355   4.369  28.474  1.00  0.00    -0.003 C 
ATOM     20  C   UNL     1      36.834   4.278  28.596  1.00  0.00     0.004 C 
ENDBRANCH  18  19
ENDBRANCH  17  18
ENDBRANCH  16  17
ENDBRANCH  15  16
ENDBRANCH  14  15
ENDBRANCH  13  14
ENDBRANCH   2  13
TORSDOF 15
ENDMDL
MODEL 9
REMARK VINA RESULT:    -5.347      3.557      4.514
REMARK INTER + INTRA:         -11.960
REMARK INTER:                 -10.898
REMARK INTRA:                  -1.062
REMARK UNBOUND:                -1.924
REMARK SMILES CCCCCCCCC=CCCCCCCCC(=O)[O-]
REMARK SMILES IDX 10 1 9 2 11 3 12 4 13 5 14 6 15 7 16 8 17 9 18 10 19 11
REMARK SMILES IDX 20 12 8 13 7 14 6 15 5 16 4 17 3 18 2 19 1 20
REMARK H PARENT
REMARK Flexibility Score: inf
ROOT
ATOM      1  C   UNL     1      44.145   4.472  24.773  1.00  0.00    -0.031 C 
ATOM      2  C   UNL     1      44.094   4.738  26.091  1.00  0.00    -0.031 C 
ENDROOT
BRANCH   1   3
ATOM      3  C   UNL     1      43.381   3.359  24.100  1.00  0.00     0.027 C 
BRANCH   3   4
ATOM      4  C   UNL     1      43.275   3.604  22.591  1.00  0.00     0.004 C 
BRANCH   4   5
ATOM      5  C   UNL     1      42.335   4.781  22.291  1.00  0.00     0.000 C 
BRANCH   5   6
ATOM      6  C   UNL     1      40.968   4.640  22.980  1.00  0.00     0.000 C 
BRANCH   6   7
ATOM      7  C   UNL     1      39.995   3.755  22.182  1.00  0.00     0.000 C 
BRANCH   7   8
ATOM      8  C   UNL     1      40.152   3.924  20.658  1.00  0.00     0.006 C 
BRANCH   8   9
ATOM      9  C   UNL     1      40.212   2.602  19.876  1.00  0.00     0.053 C 
BRANCH   9  10
ATOM     10  C   UNL     1      40.359   1.419  20.783  1.00  0.00     0.041 C 
ATOM     11  O   UNL     1      39.359   0.957  21.391  1.00  0.00    -0.550 OA
ATOM     12  O   UNL     1      41.598   0.805  20.929  1.00  0.00    -0.550 OA
ENDBRANCH   9  10
ENDBRANCH   8   9
ENDBRANCH   7   8
ENDBRANCH   6   7
ENDBRANCH   5   6
ENDBRANCH   4   5
ENDBRANCH   3   4
ENDBRANCH   1   3
BRANCH   2  13
ATOM     13  C   UNL     1      43.224   3.978  27.063  1.00  0.00     0.027 C 
BRANCH  13  14
ATOM     14  C   UNL     1      42.861   4.847  28.275  1.00  0.00     0.004 C 
BRANCH  14  15
ATOM     15  C   UNL     1      41.336   5.044  28.418  1.00  0.00     0.000 C 
BRANCH  15  16
ATOM     16  C   UNL     1      40.875   6.490  28.167  1.00  0.00     0.000 C 
BRANCH  16  17
ATOM     17  C   UNL     1      39.542   6.568  27.407  1.00  0.00    -0.000 C 
BRANCH  17  18
ATOM     18  C   UNL     1      38.773   5.236  27.410  1.00  0.00    -0.000 C 
BRANCH  18  19
ATOM     19  C   UNL     1      37.492   5.264  28.270  1.00  0.00    -0.003 C 
ATOM     20  C   UNL     1      36.917   3.867  28.506  1.00  0.00     0.004 C 
ENDBRANCH  18  19
ENDBRANCH  17  18
ENDBRANCH  16  17
ENDBRANCH  15  16
ENDBRANCH  14  15
ENDBRANCH  13  14
ENDBRANCH   2  13
TORSDOF 15
ENDMDL
