MODEL 1
REMARK VINA RESULT:    -3.045      0.000      0.000
REMARK INTER + INTRA:         -13.152
REMARK INTER:                  -8.030
REMARK INTRA:                  -5.121
REMARK UNBOUND:                -5.121
REMARK SMILES CCCCCCCCCCCCCCCCCCCCCCCCCCCCCC(=O)[O-]
REMARK SMILES IDX 16 1 17 2 18 3 19 4 20 5 21 6 22 7 23 8 24 9 25 10 26 11
REMARK SMILES IDX 27 12 28 13 29 14 30 15 31 16 32 17 15 18 14 19 13 20 12 21
REMARK SMILES IDX 11 22 10 23 9 24 8 25 7 26 6 27 5 28 4 29 3 30 2 31 1 32
REMARK H PARENT
REMARK Flexibility Score: inf
ROOT
ATOM      1  C   UNL     1       3.661   8.434   2.106  1.00  0.00     0.000 C 
ENDROOT
BRANCH   1   2
ATOM      2  C   UNL     1       4.621   8.963   3.184  1.00  0.00     0.000 C 
BRANCH   2   3
ATOM      3  C   UNL     1       4.650   8.148   4.492  1.00  0.00     0.000 C 
BRANCH   3   4
ATOM      4  C   UNL     1       5.691   7.007   4.496  1.00  0.00     0.000 C 
BRANCH   4   5
ATOM      5  C   UNL     1       7.108   7.505   4.174  1.00  0.00     0.000 C 
BRANCH   5   6
ATOM      6  C   UNL     1       7.753   6.651   3.075  1.00  0.00     0.000 C 
BRANCH   6   7
ATOM      7  C   UNL     1       6.762   5.607   2.539  1.00  0.00     0.000 C 
BRANCH   7   8
ATOM      8  C   UNL     1       7.411   4.229   2.309  1.00  0.00     0.000 C 
BRANCH   8   9
ATOM      9  C   UNL     1       8.948   4.219   2.385  1.00  0.00     0.000 C 
BRANCH   9  10
ATOM     10  C   UNL     1       9.558   2.887   1.916  1.00  0.00     0.000 C 
BRANCH  10  11
ATOM     11  C   UNL     1       8.532   1.980   1.217  1.00  0.00     0.000 C 
BRANCH  11  12
ATOM     12  C   UNL     1       9.195   0.926   0.317  1.00  0.00     0.000 C 
BRANCH  12  13
ATOM     13  C   UNL     1       8.460   0.814  -1.027  1.00  0.00     0.006 C 
BRANCH  13  14
ATOM     14  C   UNL     1       7.843  -0.575  -1.236  1.00  0.00     0.053 C 
BRANCH  14  15
ATOM     15  C   UNL     1       6.843  -0.575  -2.353  1.00  0.00     0.041 C 
ATOM     16  O   UNL     1       5.997  -1.503  -2.445  1.00  0.00    -0.550 OA
ATOM     17  O   UNL     1       6.867   0.433  -3.307  1.00  0.00    -0.550 OA
ENDBRANCH  14  15
ENDBRANCH  13  14
ENDBRANCH  12  13
ENDBRANCH  11  12
ENDBRANCH  10  11
ENDBRANCH   9  10
ENDBRANCH   8   9
ENDBRANCH   7   8
ENDBRANCH   6   7
ENDBRANCH   5   6
ENDBRANCH   4   5
ENDBRANCH   3   4
ENDBRANCH   2   3
ENDBRANCH   1   2
BRANCH   1  18
ATOM     18  C   UNL     1       4.399   7.908   0.862  1.00  0.00     0.000 C 
BRANCH  18  19
ATOM     19  C   UNL     1       5.735   8.627   0.614  1.00  0.00     0.000 C 
BRANCH  19  20
ATOM     20  C   UNL     1       6.429   8.279  -0.718  1.00  0.00     0.000 C 
BRANCH  20  21
ATOM     21  C   UNL     1       6.809   6.788  -0.853  1.00  0.00     0.000 C 
BRANCH  21  22
ATOM     22  C   UNL     1       8.322   6.558  -0.683  1.00  0.00     0.000 C 
BRANCH  22  23
ATOM     23  C   UNL     1       8.774   5.178  -1.186  1.00  0.00     0.000 C 
BRANCH  23  24
ATOM     24  C   UNL     1       7.600   4.333  -1.713  1.00  0.00    -0.000 C 
BRANCH  24  25
ATOM     25  C   UNL     1       7.768   3.959  -3.194  1.00  0.00    -0.000 C 
BRANCH  25  26
ATOM     26  C   UNL     1       6.514   4.276  -4.028  1.00  0.00    -0.000 C 
BRANCH  26  27
ATOM     27  C   UNL     1       5.253   3.593  -3.474  1.00  0.00    -0.000 C 
BRANCH  27  28
ATOM     28  C   UNL     1       3.965   4.059  -4.175  1.00  0.00    -0.000 C 
BRANCH  28  29
ATOM     29  C   UNL     1       2.849   4.412  -3.180  1.00  0.00    -0.000 C 
BRANCH  29  30
ATOM     30  C   UNL     1       3.352   5.284  -2.015  1.00  0.00    -0.000 C 
BRANCH  30  31
ATOM     31  C   UNL     1       2.542   5.072  -0.726  1.00  0.00    -0.003 C 
ATOM     32  C   UNL     1       1.359   6.034  -0.609  1.00  0.00     0.004 C 
ENDBRANCH  30  31
ENDBRANCH  29  30
ENDBRANCH  28  29
ENDBRANCH  27  28
ENDBRANCH  26  27
ENDBRANCH  25  26
ENDBRANCH  24  25
ENDBRANCH  23  24
ENDBRANCH  22  23
ENDBRANCH  21  22
ENDBRANCH  20  21
ENDBRANCH  19  20
ENDBRANCH  18  19
ENDBRANCH   1  18
TORSDOF 28
ENDMDL
MODEL 2
REMARK VINA RESULT:    -2.996     11.452     14.245
REMARK INTER + INTRA:         -13.021
REMARK INTER:                  -7.550
REMARK INTRA:                  -5.471
REMARK UNBOUND:                -5.121
REMARK SMILES CCCCCCCCCCCCCCCCCCCCCCCCCCCCCC(=O)[O-]
REMARK SMILES IDX 16 1 17 2 18 3 19 4 20 5 21 6 22 7 23 8 24 9 25 10 26 11
REMARK SMILES IDX 27 12 28 13 29 14 30 15 31 16 32 17 15 18 14 19 13 20 12 21
REMARK SMILES IDX 11 22 10 23 9 24 8 25 7 26 6 27 5 28 4 29 3 30 2 31 1 32
REMARK H PARENT
REMARK Flexibility Score: inf
ROOT
ATOM      1  C   UNL     1       0.807  -1.421   9.004  1.00  0.00     0.000 C 
ENDROOT
BRANCH   1   2
ATOM      2  C   UNL     1       0.985  -0.087   8.262  1.00  0.00     0.000 C 
BRANCH   2   3
ATOM      3  C   UNL     1       0.749  -0.148   6.739  1.00  0.00     0.000 C 
BRANCH   3   4
ATOM      4  C   UNL     1      -0.006   1.074   6.172  1.00  0.00     0.000 C 
BRANCH   4   5
ATOM      5  C   UNL     1      -0.059   2.244   7.166  1.00  0.00     0.000 C 
BRANCH   5   6
ATOM      6  C   UNL     1      -1.506   2.685   7.418  1.00  0.00     0.000 C 
BRANCH   6   7
ATOM      7  C   UNL     1      -2.448   2.117   6.345  1.00  0.00     0.000 C 
BRANCH   7   8
ATOM      8  C   UNL     1      -3.933   2.207   6.744  1.00  0.00     0.000 C 
BRANCH   8   9
ATOM      9  C   UNL     1      -4.905   2.422   5.571  1.00  0.00     0.000 C 
BRANCH   9  10
ATOM     10  C   UNL     1      -5.309   1.106   4.884  1.00  0.00     0.000 C 
BRANCH  10  11
ATOM     11  C   UNL     1      -5.848   0.062   5.876  1.00  0.00     0.000 C 
BRANCH  11  12
ATOM     12  C   UNL     1      -6.577  -1.094   5.175  1.00  0.00     0.000 C 
BRANCH  12  13
ATOM     13  C   UNL     1      -5.789  -2.405   5.315  1.00  0.00     0.006 C 
BRANCH  13  14
ATOM     14  C   UNL     1      -4.779  -2.598   4.177  1.00  0.00     0.053 C 
BRANCH  14  15
ATOM     15  C   UNL     1      -5.423  -2.442   2.832  1.00  0.00     0.041 C 
ATOM     16  O   UNL     1      -5.918  -3.441   2.248  1.00  0.00    -0.550 OA
ATOM     17  O   UNL     1      -5.450  -1.199   2.214  1.00  0.00    -0.550 OA
ENDBRANCH  14  15
ENDBRANCH  13  14
ENDBRANCH  12  13
ENDBRANCH  11  12
ENDBRANCH  10  11
ENDBRANCH   9  10
ENDBRANCH   8   9
ENDBRANCH   7   8
ENDBRANCH   6   7
ENDBRANCH   5   6
ENDBRANCH   4   5
ENDBRANCH   3   4
ENDBRANCH   2   3
ENDBRANCH   1   2
BRANCH   1  18
ATOM     18  C   UNL     1      -0.457  -1.446   9.882  1.00  0.00     0.000 C 
BRANCH  18  19
ATOM     19  C   UNL     1      -1.225  -0.114   9.859  1.00  0.00     0.000 C 
BRANCH  19  20
ATOM     20  C   UNL     1      -2.686  -0.209   9.378  1.00  0.00     0.000 C 
BRANCH  20  21
ATOM     21  C   UNL     1      -3.018  -1.529   8.648  1.00  0.00     0.000 C 
BRANCH  21  22
ATOM     22  C   UNL     1      -2.753  -1.437   7.134  1.00  0.00     0.000 C 
BRANCH  22  23
ATOM     23  C   UNL     1      -1.938  -2.625   6.600  1.00  0.00     0.000 C 
BRANCH  23  24
ATOM     24  C   UNL     1      -2.298  -3.947   7.302  1.00  0.00    -0.000 C 
BRANCH  24  25
ATOM     25  C   UNL     1      -1.083  -4.592   7.990  1.00  0.00    -0.000 C 
BRANCH  25  26
ATOM     26  C   UNL     1       0.200  -4.478   7.148  1.00  0.00    -0.000 C 
BRANCH  26  27
ATOM     27  C   UNL     1       1.458  -4.861   7.943  1.00  0.00    -0.000 C 
BRANCH  27  28
ATOM     28  C   UNL     1       2.431  -5.737   7.136  1.00  0.00    -0.000 C 
BRANCH  28  29
ATOM     29  C   UNL     1       2.462  -7.192   7.630  1.00  0.00    -0.000 C 
BRANCH  29  30
ATOM     30  C   UNL     1       1.626  -8.134   6.745  1.00  0.00    -0.000 C 
BRANCH  30  31
ATOM     31  C   UNL     1       0.564  -8.906   7.542  1.00  0.00    -0.003 C 
ATOM     32  C   UNL     1      -0.811  -8.238   7.491  1.00  0.00     0.004 C 
ENDBRANCH  30  31
ENDBRANCH  29  30
ENDBRANCH  28  29
ENDBRANCH  27  28
ENDBRANCH  26  27
ENDBRANCH  25  26
ENDBRANCH  24  25
ENDBRANCH  23  24
ENDBRANCH  22  23
ENDBRANCH  21  22
ENDBRANCH  20  21
ENDBRANCH  19  20
ENDBRANCH  18  19
ENDBRANCH   1  18
TORSDOF 28
ENDMDL
MODEL 3
REMARK VINA RESULT:    -2.988     11.395     14.411
REMARK INTER + INTRA:         -13.001
REMARK INTER:                  -6.767
REMARK INTRA:                  -6.234
REMARK UNBOUND:                -5.121
REMARK SMILES CCCCCCCCCCCCCCCCCCCCCCCCCCCCCC(=O)[O-]
REMARK SMILES IDX 16 1 17 2 18 3 19 4 20 5 21 6 22 7 23 8 24 9 25 10 26 11
REMARK SMILES IDX 27 12 28 13 29 14 30 15 31 16 32 17 15 18 14 19 13 20 12 21
REMARK SMILES IDX 11 22 10 23 9 24 8 25 7 26 6 27 5 28 4 29 3 30 2 31 1 32
REMARK H PARENT
REMARK Flexibility Score: inf
ROOT
ATOM      1  C   UNL     1      -3.654  -5.267   7.545  1.00  0.00     0.000 C 
ENDROOT
BRANCH   1   2
ATOM      2  C   UNL     1      -4.081  -4.458   6.310  1.00  0.00     0.000 C 
BRANCH   2   3
ATOM      3  C   UNL     1      -4.561  -3.022   6.601  1.00  0.00     0.000 C 
BRANCH   3   4
ATOM      4  C   UNL     1      -3.651  -1.924   6.010  1.00  0.00     0.000 C 
BRANCH   4   5
ATOM      5  C   UNL     1      -3.651  -0.642   6.857  1.00  0.00     0.000 C 
BRANCH   5   6
ATOM      6  C   UNL     1      -3.999  -0.950   8.318  1.00  0.00     0.000 C 
BRANCH   6   7
ATOM      7  C   UNL     1      -5.169  -0.078   8.799  1.00  0.00     0.000 C 
BRANCH   7   8
ATOM      8  C   UNL     1      -5.843   0.703   7.655  1.00  0.00     0.000 C 
BRANCH   8   9
ATOM      9  C   UNL     1      -7.157   0.089   7.141  1.00  0.00     0.000 C 
BRANCH   9  10
ATOM     10  C   UNL     1      -7.626   0.714   5.816  1.00  0.00     0.000 C 
BRANCH  10  11
ATOM     11  C   UNL     1      -6.471   1.331   5.010  1.00  0.00     0.000 C 
BRANCH  11  12
ATOM     12  C   UNL     1      -5.869   0.347   3.996  1.00  0.00     0.000 C 
BRANCH  12  13
ATOM     13  C   UNL     1      -6.949  -0.588   3.432  1.00  0.00     0.006 C 
BRANCH  13  14
ATOM     14  C   UNL     1      -6.678  -2.059   3.775  1.00  0.00     0.053 C 
BRANCH  14  15
ATOM     15  C   UNL     1      -5.894  -2.744   2.697  1.00  0.00     0.041 C 
ATOM     16  O   UNL     1      -4.641  -2.639   2.661  1.00  0.00    -0.550 OA
ATOM     17  O   UNL     1      -6.552  -3.475   1.716  1.00  0.00    -0.550 OA
ENDBRANCH  14  15
ENDBRANCH  13  14
ENDBRANCH  12  13
ENDBRANCH  11  12
ENDBRANCH  10  11
ENDBRANCH   9  10
ENDBRANCH   8   9
ENDBRANCH   7   8
ENDBRANCH   6   7
ENDBRANCH   5   6
ENDBRANCH   4   5
ENDBRANCH   3   4
ENDBRANCH   2   3
ENDBRANCH   1   2
BRANCH   1  18
ATOM     18  C   UNL     1      -2.361  -4.731   8.186  1.00  0.00     0.000 C 
BRANCH  18  19
ATOM     19  C   UNL     1      -1.217  -4.570   7.173  1.00  0.00     0.000 C 
BRANCH  19  20
ATOM     20  C   UNL     1      -0.331  -3.325   7.378  1.00  0.00     0.000 C 
BRANCH  20  21
ATOM     21  C   UNL     1      -0.678  -2.515   8.647  1.00  0.00     0.000 C 
BRANCH  21  22
ATOM     22  C   UNL     1      -0.323  -1.024   8.498  1.00  0.00     0.000 C 
BRANCH  22  23
ATOM     23  C   UNL     1       0.124  -0.659   7.074  1.00  0.00     0.000 C 
BRANCH  23  24
ATOM     24  C   UNL     1       1.045   0.575   7.046  1.00  0.00    -0.000 C 
BRANCH  24  25
ATOM     25  C   UNL     1       1.079   1.309   8.396  1.00  0.00    -0.000 C 
BRANCH  25  26
ATOM     26  C   UNL     1       0.309   2.641   8.362  1.00  0.00    -0.000 C 
BRANCH  26  27
ATOM     27  C   UNL     1      -0.977   2.597   9.202  1.00  0.00    -0.000 C 
BRANCH  27  28
ATOM     28  C   UNL     1      -2.245   2.445   8.345  1.00  0.00    -0.000 C 
BRANCH  28  29
ATOM     29  C   UNL     1      -1.989   2.737   6.858  1.00  0.00    -0.000 C 
BRANCH  29  30
ATOM     30  C   UNL     1      -3.292   2.920   6.060  1.00  0.00    -0.000 C 
BRANCH  30  31
ATOM     31  C   UNL     1      -4.292   3.849   6.765  1.00  0.00    -0.003 C 
ATOM     32  C   UNL     1      -3.934   5.327   6.610  1.00  0.00     0.004 C 
ENDBRANCH  30  31
ENDBRANCH  29  30
ENDBRANCH  28  29
ENDBRANCH  27  28
ENDBRANCH  26  27
ENDBRANCH  25  26
ENDBRANCH  24  25
ENDBRANCH  23  24
ENDBRANCH  22  23
ENDBRANCH  21  22
ENDBRANCH  20  21
ENDBRANCH  19  20
ENDBRANCH  18  19
ENDBRANCH   1  18
TORSDOF 28
ENDMDL
MODEL 4
REMARK VINA RESULT:    -2.987      2.443      5.780
REMARK INTER + INTRA:         -12.998
REMARK INTER:                  -7.401
REMARK INTRA:                  -5.597
REMARK UNBOUND:                -5.121
REMARK SMILES CCCCCCCCCCCCCCCCCCCCCCCCCCCCCC(=O)[O-]
REMARK SMILES IDX 16 1 17 2 18 3 19 4 20 5 21 6 22 7 23 8 24 9 25 10 26 11
REMARK SMILES IDX 27 12 28 13 29 14 30 15 31 16 32 17 15 18 14 19 13 20 12 21
REMARK SMILES IDX 11 22 10 23 9 24 8 25 7 26 6 27 5 28 4 29 3 30 2 31 1 32
REMARK H PARENT
REMARK Flexibility Score: inf
ROOT
ATOM      1  C   UNL     1       8.247   5.430   2.219  1.00  0.00     0.000 C 
ENDROOT
BRANCH   1   2
ATOM      2  C   UNL     1       6.724   5.258   2.331  1.00  0.00     0.000 C 
BRANCH   2   3
ATOM      3  C   UNL     1       6.013   6.285   3.235  1.00  0.00     0.000 C 
BRANCH   3   4
ATOM      4  C   UNL     1       6.976   7.197   4.025  1.00  0.00     0.000 C 
BRANCH   4   5
ATOM      5  C   UNL     1       6.732   8.689   3.748  1.00  0.00     0.000 C 
BRANCH   5   6
ATOM      6  C   UNL     1       7.725   9.223   2.708  1.00  0.00     0.000 C 
BRANCH   6   7
ATOM      7  C   UNL     1       6.995   9.674   1.434  1.00  0.00     0.000 C 
BRANCH   7   8
ATOM      8  C   UNL     1       7.193   8.703   0.255  1.00  0.00     0.000 C 
BRANCH   8   9
ATOM      9  C   UNL     1       5.949   7.876  -0.117  1.00  0.00     0.000 C 
BRANCH   9  10
ATOM     10  C   UNL     1       4.664   8.408   0.539  1.00  0.00     0.000 C 
BRANCH  10  11
ATOM     11  C   UNL     1       3.466   7.464   0.343  1.00  0.00     0.000 C 
BRANCH  11  12
ATOM     12  C   UNL     1       3.896   6.035  -0.023  1.00  0.00     0.000 C 
BRANCH  12  13
ATOM     13  C   UNL     1       2.825   5.344  -0.881  1.00  0.00     0.006 C 
BRANCH  13  14
ATOM     14  C   UNL     1       1.662   6.284  -1.225  1.00  0.00     0.053 C 
BRANCH  14  15
ATOM     15  C   UNL     1       1.364   6.282  -2.694  1.00  0.00     0.041 C 
ATOM     16  O   UNL     1       2.203   5.818  -3.509  1.00  0.00    -0.550 OA
ATOM     17  O   UNL     1       0.172   6.821  -3.162  1.00  0.00    -0.550 OA
ENDBRANCH  14  15
ENDBRANCH  13  14
ENDBRANCH  12  13
ENDBRANCH  11  12
ENDBRANCH  10  11
ENDBRANCH   9  10
ENDBRANCH   8   9
ENDBRANCH   7   8
ENDBRANCH   6   7
ENDBRANCH   5   6
ENDBRANCH   4   5
ENDBRANCH   3   4
ENDBRANCH   2   3
ENDBRANCH   1   2
BRANCH   1  18
ATOM     18  C   UNL     1       9.010   4.107   2.410  1.00  0.00     0.000 C 
BRANCH  18  19
ATOM     19  C   UNL     1       8.100   2.874   2.287  1.00  0.00     0.000 C 
BRANCH  19  20
ATOM     20  C   UNL     1       8.469   1.898   1.152  1.00  0.00     0.000 C 
BRANCH  20  21
ATOM     21  C   UNL     1       9.755   2.287   0.389  1.00  0.00     0.000 C 
BRANCH  21  22
ATOM     22  C   UNL     1       9.449   2.878  -1.000  1.00  0.00     0.000 C 
BRANCH  22  23
ATOM     23  C   UNL     1       9.918   4.334  -1.142  1.00  0.00     0.000 C 
BRANCH  23  24
ATOM     24  C   UNL     1       8.810   5.258  -1.679  1.00  0.00    -0.000 C 
BRANCH  24  25
ATOM     25  C   UNL     1       7.404   4.756  -1.314  1.00  0.00    -0.000 C 
BRANCH  25  26
ATOM     26  C   UNL     1       6.401   4.920  -2.470  1.00  0.00    -0.000 C 
BRANCH  26  27
ATOM     27  C   UNL     1       6.803   4.113  -3.714  1.00  0.00    -0.000 C 
BRANCH  27  28
ATOM     28  C   UNL     1       6.016   2.799  -3.854  1.00  0.00    -0.000 C 
BRANCH  28  29
ATOM     29  C   UNL     1       6.894   1.635  -4.338  1.00  0.00    -0.000 C 
BRANCH  29  30
ATOM     30  C   UNL     1       7.715   1.002  -3.200  1.00  0.00    -0.000 C 
BRANCH  30  31
ATOM     31  C   UNL     1       6.942  -0.096  -2.454  1.00  0.00    -0.003 C 
ATOM     32  C   UNL     1       7.794  -0.803  -1.399  1.00  0.00     0.004 C 
ENDBRANCH  30  31
ENDBRANCH  29  30
ENDBRANCH  28  29
ENDBRANCH  27  28
ENDBRANCH  26  27
ENDBRANCH  25  26
ENDBRANCH  24  25
ENDBRANCH  23  24
ENDBRANCH  22  23
ENDBRANCH  21  22
ENDBRANCH  20  21
ENDBRANCH  19  20
ENDBRANCH  18  19
ENDBRANCH   1  18
TORSDOF 28
ENDMDL
MODEL 5
REMARK VINA RESULT:    -2.963     11.605     14.117
REMARK INTER + INTRA:         -12.935
REMARK INTER:                  -8.084
REMARK INTRA:                  -4.851
REMARK UNBOUND:                -5.121
REMARK SMILES CCCCCCCCCCCCCCCCCCCCCCCCCCCCCC(=O)[O-]
REMARK SMILES IDX 16 1 17 2 18 3 19 4 20 5 21 6 22 7 23 8 24 9 25 10 26 11
REMARK SMILES IDX 27 12 28 13 29 14 30 15 31 16 32 17 15 18 14 19 13 20 12 21
REMARK SMILES IDX 11 22 10 23 9 24 8 25 7 26 6 27 5 28 4 29 3 30 2 31 1 32
REMARK H PARENT
REMARK Flexibility Score: inf
ROOT
ATOM      1  C   UNL     1       1.135   0.555   6.798  1.00  0.00     0.000 C 
ENDROOT
BRANCH   1   2
ATOM      2  C   UNL     1      -0.127   1.136   6.140  1.00  0.00     0.000 C 
BRANCH   2   3
ATOM      3  C   UNL     1      -0.879   2.187   6.981  1.00  0.00     0.000 C 
BRANCH   3   4
ATOM      4  C   UNL     1      -2.248   2.596   6.395  1.00  0.00     0.000 C 
BRANCH   4   5
ATOM      5  C   UNL     1      -3.241   3.042   7.479  1.00  0.00     0.000 C 
BRANCH   5   6
ATOM      6  C   UNL     1      -2.913   2.389   8.827  1.00  0.00     0.000 C 
BRANCH   6   7
ATOM      7  C   UNL     1      -3.715   1.093   9.018  1.00  0.00     0.000 C 
BRANCH   7   8
ATOM      8  C   UNL     1      -2.820  -0.132   9.282  1.00  0.00     0.000 C 
BRANCH   8   9
ATOM      9  C   UNL     1      -3.082  -1.334   8.357  1.00  0.00     0.000 C 
BRANCH   9  10
ATOM     10  C   UNL     1      -2.963  -0.975   6.866  1.00  0.00     0.000 C 
BRANCH  10  11
ATOM     11  C   UNL     1      -4.071  -1.615   6.013  1.00  0.00     0.000 C 
BRANCH  11  12
ATOM     12  C   UNL     1      -3.687  -3.011   5.501  1.00  0.00     0.000 C 
BRANCH  12  13
ATOM     13  C   UNL     1      -4.902  -3.723   4.887  1.00  0.00     0.006 C 
BRANCH  13  14
ATOM     14  C   UNL     1      -5.916  -2.733   4.299  1.00  0.00     0.053 C 
BRANCH  14  15
ATOM     15  C   UNL     1      -5.750  -2.583   2.817  1.00  0.00     0.041 C 
ATOM     16  O   UNL     1      -5.320  -1.503   2.335  1.00  0.00    -0.550 OA
ATOM     17  O   UNL     1      -6.099  -3.627   1.969  1.00  0.00    -0.550 OA
ENDBRANCH  14  15
ENDBRANCH  13  14
ENDBRANCH  12  13
ENDBRANCH  11  12
ENDBRANCH  10  11
ENDBRANCH   9  10
ENDBRANCH   8   9
ENDBRANCH   7   8
ENDBRANCH   6   7
ENDBRANCH   5   6
ENDBRANCH   4   5
ENDBRANCH   3   4
ENDBRANCH   2   3
ENDBRANCH   1   2
BRANCH   1  18
ATOM     18  C   UNL     1       1.148   0.743   8.326  1.00  0.00     0.000 C 
BRANCH  18  19
ATOM     19  C   UNL     1       0.520  -0.443   9.076  1.00  0.00     0.000 C 
BRANCH  19  20
ATOM     20  C   UNL     1       1.464  -1.637   9.320  1.00  0.00     0.000 C 
BRANCH  20  21
ATOM     21  C   UNL     1       0.952  -2.968   8.727  1.00  0.00     0.000 C 
BRANCH  21  22
ATOM     22  C   UNL     1       0.270  -2.770   7.360  1.00  0.00     0.000 C 
BRANCH  22  23
ATOM     23  C   UNL     1      -0.670  -3.928   6.992  1.00  0.00     0.000 C 
BRANCH  23  24
ATOM     24  C   UNL     1      -1.266  -4.618   8.233  1.00  0.00    -0.000 C 
BRANCH  24  25
ATOM     25  C   UNL     1      -1.963  -5.943   7.885  1.00  0.00    -0.000 C 
BRANCH  25  26
ATOM     26  C   UNL     1      -1.224  -7.166   8.458  1.00  0.00    -0.000 C 
BRANCH  26  27
ATOM     27  C   UNL     1      -0.013  -7.572   7.603  1.00  0.00    -0.000 C 
BRANCH  27  28
ATOM     28  C   UNL     1       1.254  -7.817   8.441  1.00  0.00    -0.000 C 
BRANCH  28  29
ATOM     29  C   UNL     1       2.260  -6.661   8.337  1.00  0.00    -0.000 C 
BRANCH  29  30
ATOM     30  C   UNL     1       2.231  -5.975   6.959  1.00  0.00    -0.000 C 
BRANCH  30  31
ATOM     31  C   UNL     1       3.433  -6.359   6.082  1.00  0.00    -0.003 C 
ATOM     32  C   UNL     1       3.160  -7.587   5.213  1.00  0.00     0.004 C 
ENDBRANCH  30  31
ENDBRANCH  29  30
ENDBRANCH  28  29
ENDBRANCH  27  28
ENDBRANCH  26  27
ENDBRANCH  25  26
ENDBRANCH  24  25
ENDBRANCH  23  24
ENDBRANCH  22  23
ENDBRANCH  21  22
ENDBRANCH  20  21
ENDBRANCH  19  20
ENDBRANCH  18  19
ENDBRANCH   1  18
TORSDOF 28
ENDMDL
MODEL 6
REMARK VINA RESULT:    -2.932     12.174     14.526
REMARK INTER + INTRA:         -12.854
REMARK INTER:                  -7.440
REMARK INTRA:                  -5.413
REMARK UNBOUND:                -5.121
REMARK SMILES CCCCCCCCCCCCCCCCCCCCCCCCCCCCCC(=O)[O-]
REMARK SMILES IDX 16 1 17 2 18 3 19 4 20 5 21 6 22 7 23 8 24 9 25 10 26 11
REMARK SMILES IDX 27 12 28 13 29 14 30 15 31 16 32 17 15 18 14 19 13 20 12 21
REMARK SMILES IDX 11 22 10 23 9 24 8 25 7 26 6 27 5 28 4 29 3 30 2 31 1 32
REMARK H PARENT
REMARK Flexibility Score: inf
ROOT
ATOM      1  C   UNL     1      -0.696   2.189   7.101  1.00  0.00     0.000 C 
ENDROOT
BRANCH   1   2
ATOM      2  C   UNL     1      -2.211   1.935   7.154  1.00  0.00     0.000 C 
BRANCH   2   3
ATOM      3  C   UNL     1      -2.635   0.465   6.964  1.00  0.00     0.000 C 
BRANCH   3   4
ATOM      4  C   UNL     1      -2.816  -0.312   8.286  1.00  0.00     0.000 C 
BRANCH   4   5
ATOM      5  C   UNL     1      -2.663  -1.830   8.101  1.00  0.00     0.000 C 
BRANCH   5   6
ATOM      6  C   UNL     1      -2.322  -2.174   6.646  1.00  0.00     0.000 C 
BRANCH   6   7
ATOM      7  C   UNL     1      -3.465  -2.960   5.986  1.00  0.00     0.000 C 
BRANCH   7   8
ATOM      8  C   UNL     1      -4.735  -3.013   6.855  1.00  0.00     0.000 C 
BRANCH   8   9
ATOM      9  C   UNL     1      -6.015  -2.518   6.158  1.00  0.00     0.000 C 
BRANCH   9  10
ATOM     10  C   UNL     1      -6.405  -1.090   6.573  1.00  0.00     0.000 C 
BRANCH  10  11
ATOM     11  C   UNL     1      -5.961  -0.034   5.547  1.00  0.00     0.000 C 
BRANCH  11  12
ATOM     12  C   UNL     1      -6.834  -0.036   4.284  1.00  0.00     0.000 C 
BRANCH  12  13
ATOM     13  C   UNL     1      -6.011   0.358   3.048  1.00  0.00     0.006 C 
BRANCH  13  14
ATOM     14  C   UNL     1      -6.117  -0.684   1.926  1.00  0.00     0.053 C 
BRANCH  14  15
ATOM     15  C   UNL     1      -6.002  -2.082   2.455  1.00  0.00     0.041 C 
ATOM     16  O   UNL     1      -7.030  -2.798   2.577  1.00  0.00    -0.550 OA
ATOM     17  O   UNL     1      -4.764  -2.580   2.840  1.00  0.00    -0.550 OA
ENDBRANCH  14  15
ENDBRANCH  13  14
ENDBRANCH  12  13
ENDBRANCH  11  12
ENDBRANCH  10  11
ENDBRANCH   9  10
ENDBRANCH   8   9
ENDBRANCH   7   8
ENDBRANCH   6   7
ENDBRANCH   5   6
ENDBRANCH   4   5
ENDBRANCH   3   4
ENDBRANCH   2   3
ENDBRANCH   1   2
BRANCH   1  18
ATOM     18  C   UNL     1       0.042   1.185   6.198  1.00  0.00     0.000 C 
BRANCH  18  19
ATOM     19  C   UNL     1       1.114   0.382   6.954  1.00  0.00     0.000 C 
BRANCH  19  20
ATOM     20  C   UNL     1       1.007   0.432   8.490  1.00  0.00     0.000 C 
BRANCH  20  21
ATOM     21  C   UNL     1       0.825  -0.954   9.149  1.00  0.00     0.000 C 
BRANCH  21  22
ATOM     22  C   UNL     1       0.921  -2.099   8.124  1.00  0.00     0.000 C 
BRANCH  22  23
ATOM     23  C   UNL     1       1.190  -3.463   8.780  1.00  0.00     0.000 C 
BRANCH  23  24
ATOM     24  C   UNL     1       1.611  -4.533   7.756  1.00  0.00    -0.000 C 
BRANCH  24  25
ATOM     25  C   UNL     1       0.638  -5.723   7.722  1.00  0.00    -0.000 C 
BRANCH  25  26
ATOM     26  C   UNL     1      -0.688  -5.421   8.443  1.00  0.00    -0.000 C 
BRANCH  26  27
ATOM     27  C   UNL     1      -1.914  -5.821   7.606  1.00  0.00    -0.000 C 
BRANCH  27  28
ATOM     28  C   UNL     1      -3.207  -5.890   8.437  1.00  0.00    -0.000 C 
BRANCH  28  29
ATOM     29  C   UNL     1      -4.332  -6.645   7.712  1.00  0.00    -0.000 C 
BRANCH  29  30
ATOM     30  C   UNL     1      -3.961  -7.008   6.263  1.00  0.00    -0.000 C 
BRANCH  30  31
ATOM     31  C   UNL     1      -4.945  -6.425   5.237  1.00  0.00    -0.003 C 
ATOM     32  C   UNL     1      -6.357  -6.266   5.800  1.00  0.00     0.004 C 
ENDBRANCH  30  31
ENDBRANCH  29  30
ENDBRANCH  28  29
ENDBRANCH  27  28
ENDBRANCH  26  27
ENDBRANCH  25  26
ENDBRANCH  24  25
ENDBRANCH  23  24
ENDBRANCH  22  23
ENDBRANCH  21  22
ENDBRANCH  20  21
ENDBRANCH  19  20
ENDBRANCH  18  19
ENDBRANCH   1  18
TORSDOF 28
ENDMDL
MODEL 7
REMARK VINA RESULT:    -2.913     11.534     14.112
REMARK INTER + INTRA:         -12.803
REMARK INTER:                  -7.144
REMARK INTRA:                  -5.659
REMARK UNBOUND:                -5.121
REMARK SMILES CCCCCCCCCCCCCCCCCCCCCCCCCCCCCC(=O)[O-]
REMARK SMILES IDX 16 1 17 2 18 3 19 4 20 5 21 6 22 7 23 8 24 9 25 10 26 11
REMARK SMILES IDX 27 12 28 13 29 14 30 15 31 16 32 17 15 18 14 19 13 20 12 21
REMARK SMILES IDX 11 22 10 23 9 24 8 25 7 26 6 27 5 28 4 29 3 30 2 31 1 32
REMARK H PARENT
REMARK Flexibility Score: inf
ROOT
ATOM      1  C   UNL     1       0.750   0.378   6.335  1.00  0.00     0.000 C 
ENDROOT
BRANCH   1   2
ATOM      2  C   UNL     1       1.151   0.054   7.783  1.00  0.00     0.000 C 
BRANCH   2   3
ATOM      3  C   UNL     1       0.715  -1.335   8.289  1.00  0.00     0.000 C 
BRANCH   3   4
ATOM      4  C   UNL     1       0.003  -2.196   7.222  1.00  0.00     0.000 C 
BRANCH   4   5
ATOM      5  C   UNL     1       0.220  -3.701   7.442  1.00  0.00     0.000 C 
BRANCH   5   6
ATOM      6  C   UNL     1      -1.116  -4.454   7.441  1.00  0.00     0.000 C 
BRANCH   6   7
ATOM      7  C   UNL     1      -2.296  -3.477   7.332  1.00  0.00     0.000 C 
BRANCH   7   8
ATOM      8  C   UNL     1      -3.615  -4.172   6.944  1.00  0.00     0.000 C 
BRANCH   8   9
ATOM      9  C   UNL     1      -4.668  -3.250   6.305  1.00  0.00     0.000 C 
BRANCH   9  10
ATOM     10  C   UNL     1      -4.310  -2.847   4.865  1.00  0.00     0.000 C 
BRANCH  10  11
ATOM     11  C   UNL     1      -5.482  -3.038   3.888  1.00  0.00     0.000 C 
BRANCH  11  12
ATOM     12  C   UNL     1      -5.370  -2.136   2.650  1.00  0.00     0.000 C 
BRANCH  12  13
ATOM     13  C   UNL     1      -6.724  -2.016   1.935  1.00  0.00     0.006 C 
BRANCH  13  14
ATOM     14  C   UNL     1      -6.954  -0.611   1.362  1.00  0.00     0.053 C 
BRANCH  14  15
ATOM     15  C   UNL     1      -8.398  -0.215   1.427  1.00  0.00     0.041 C 
ATOM     16  O   UNL     1      -9.280  -1.077   1.679  1.00  0.00    -0.550 OA
ATOM     17  O   UNL     1      -8.770   1.100   1.182  1.00  0.00    -0.550 OA
ENDBRANCH  14  15
ENDBRANCH  13  14
ENDBRANCH  12  13
ENDBRANCH  11  12
ENDBRANCH  10  11
ENDBRANCH   9  10
ENDBRANCH   8   9
ENDBRANCH   7   8
ENDBRANCH   6   7
ENDBRANCH   5   6
ENDBRANCH   4   5
ENDBRANCH   3   4
ENDBRANCH   2   3
ENDBRANCH   1   2
BRANCH   1  18
ATOM     18  C   UNL     1      -0.326   1.476   6.249  1.00  0.00     0.000 C 
BRANCH  18  19
ATOM     19  C   UNL     1      -0.340   2.393   7.483  1.00  0.00     0.000 C 
BRANCH  19  20
ATOM     20  C   UNL     1      -1.667   2.415   8.267  1.00  0.00     0.000 C 
BRANCH  20  21
ATOM     21  C   UNL     1      -1.535   1.940   9.731  1.00  0.00     0.000 C 
BRANCH  21  22
ATOM     22  C   UNL     1      -2.194   0.567   9.957  1.00  0.00     0.000 C 
BRANCH  22  23
ATOM     23  C   UNL     1      -2.689  -0.076   8.652  1.00  0.00     0.000 C 
BRANCH  23  24
ATOM     24  C   UNL     1      -4.208  -0.326   8.660  1.00  0.00    -0.000 C 
BRANCH  24  25
ATOM     25  C   UNL     1      -4.933   0.452   7.550  1.00  0.00    -0.000 C 
BRANCH  25  26
ATOM     26  C   UNL     1      -4.092   0.569   6.266  1.00  0.00    -0.000 C 
BRANCH  26  27
ATOM     27  C   UNL     1      -4.531   1.749   5.383  1.00  0.00    -0.000 C 
BRANCH  27  28
ATOM     28  C   UNL     1      -5.314   1.302   4.137  1.00  0.00    -0.000 C 
BRANCH  28  29
ATOM     29  C   UNL     1      -6.715   1.929   4.065  1.00  0.00    -0.000 C 
BRANCH  29  30
ATOM     30  C   UNL     1      -7.697   1.295   5.066  1.00  0.00    -0.000 C 
BRANCH  30  31
ATOM     31  C   UNL     1      -7.535  -0.229   5.168  1.00  0.00    -0.003 C 
ATOM     32  C   UNL     1      -8.875  -0.964   5.189  1.00  0.00     0.004 C 
ENDBRANCH  30  31
ENDBRANCH  29  30
ENDBRANCH  28  29
ENDBRANCH  27  28
ENDBRANCH  26  27
ENDBRANCH  25  26
ENDBRANCH  24  25
ENDBRANCH  23  24
ENDBRANCH  22  23
ENDBRANCH  21  22
ENDBRANCH  20  21
ENDBRANCH  19  20
ENDBRANCH  18  19
ENDBRANCH   1  18
TORSDOF 28
ENDMDL
MODEL 8
REMARK VINA RESULT:    -2.876      2.900      4.966
REMARK INTER + INTRA:         -12.706
REMARK INTER:                  -6.299
REMARK INTRA:                  -6.407
REMARK UNBOUND:                -5.121
REMARK SMILES CCCCCCCCCCCCCCCCCCCCCCCCCCCCCC(=O)[O-]
REMARK SMILES IDX 16 1 17 2 18 3 19 4 20 5 21 6 22 7 23 8 24 9 25 10 26 11
REMARK SMILES IDX 27 12 28 13 29 14 30 15 31 16 32 17 15 18 14 19 13 20 12 21
REMARK SMILES IDX 11 22 10 23 9 24 8 25 7 26 6 27 5 28 4 29 3 30 2 31 1 32
REMARK H PARENT
REMARK Flexibility Score: inf
ROOT
ATOM      1  C   UNL     1       4.689   9.514  -0.341  1.00  0.00     0.000 C 
ENDROOT
BRANCH   1   2
ATOM      2  C   UNL     1       4.104   9.461   1.079  1.00  0.00     0.000 C 
BRANCH   2   3
ATOM      3  C   UNL     1       5.020  10.020   2.187  1.00  0.00     0.000 C 
BRANCH   3   4
ATOM      4  C   UNL     1       4.944   9.239   3.516  1.00  0.00     0.000 C 
BRANCH   4   5
ATOM      5  C   UNL     1       4.872   7.720   3.302  1.00  0.00     0.000 C 
BRANCH   5   6
ATOM      6  C   UNL     1       5.903   6.993   4.173  1.00  0.00     0.000 C 
BRANCH   6   7
ATOM      7  C   UNL     1       6.786   7.995   4.931  1.00  0.00     0.000 C 
BRANCH   7   8
ATOM      8  C   UNL     1       8.265   7.930   4.507  1.00  0.00     0.000 C 
BRANCH   8   9
ATOM      9  C   UNL     1       8.642   8.852   3.334  1.00  0.00     0.000 C 
BRANCH   9  10
ATOM     10  C   UNL     1       9.003   8.073   2.057  1.00  0.00     0.000 C 
BRANCH  10  11
ATOM     11  C   UNL     1       7.833   7.993   1.062  1.00  0.00     0.000 C 
BRANCH  11  12
ATOM     12  C   UNL     1       7.791   6.656   0.308  1.00  0.00     0.000 C 
BRANCH  12  13
ATOM     13  C   UNL     1       7.248   5.536   1.208  1.00  0.00     0.006 C 
BRANCH  13  14
ATOM     14  C   UNL     1       7.997   4.213   1.004  1.00  0.00     0.053 C 
BRANCH  14  15
ATOM     15  C   UNL     1       8.839   3.863   2.194  1.00  0.00     0.041 C 
ATOM     16  O   UNL     1       9.019   2.658   2.509  1.00  0.00    -0.550 OA
ATOM     17  O   UNL     1       9.399   4.870   2.969  1.00  0.00    -0.550 OA
ENDBRANCH  14  15
ENDBRANCH  13  14
ENDBRANCH  12  13
ENDBRANCH  11  12
ENDBRANCH  10  11
ENDBRANCH   9  10
ENDBRANCH   8   9
ENDBRANCH   7   8
ENDBRANCH   6   7
ENDBRANCH   5   6
ENDBRANCH   4   5
ENDBRANCH   3   4
ENDBRANCH   2   3
ENDBRANCH   1   2
BRANCH   1  18
ATOM     18  C   UNL     1       4.723   8.133  -1.020  1.00  0.00     0.000 C 
BRANCH  18  19
ATOM     19  C   UNL     1       4.080   7.032  -0.161  1.00  0.00     0.000 C 
BRANCH  19  20
ATOM     20  C   UNL     1       4.067   5.628  -0.799  1.00  0.00     0.000 C 
BRANCH  20  21
ATOM     21  C   UNL     1       2.654   5.117  -1.153  1.00  0.00     0.000 C 
BRANCH  21  22
ATOM     22  C   UNL     1       2.635   4.336  -2.480  1.00  0.00     0.000 C 
BRANCH  22  23
ATOM     23  C   UNL     1       3.474   5.009  -3.577  1.00  0.00     0.000 C 
BRANCH  23  24
ATOM     24  C   UNL     1       2.643   5.973  -4.443  1.00  0.00    -0.000 C 
BRANCH  24  25
ATOM     25  C   UNL     1       3.023   7.444  -4.208  1.00  0.00    -0.000 C 
BRANCH  25  26
ATOM     26  C   UNL     1       1.935   8.220  -3.444  1.00  0.00    -0.000 C 
BRANCH  26  27
ATOM     27  C   UNL     1       0.633   7.414  -3.301  1.00  0.00    -0.000 C 
BRANCH  27  28
ATOM     28  C   UNL     1      -0.137   7.749  -2.012  1.00  0.00    -0.000 C 
BRANCH  28  29
ATOM     29  C   UNL     1       0.767   8.351  -0.925  1.00  0.00    -0.000 C 
BRANCH  29  30
ATOM     30  C   UNL     1       0.501   7.746   0.465  1.00  0.00    -0.000 C 
BRANCH  30  31
ATOM     31  C   UNL     1       0.560   8.794   1.586  1.00  0.00    -0.003 C 
ATOM     32  C   UNL     1       1.175   8.246   2.874  1.00  0.00     0.004 C 
ENDBRANCH  30  31
ENDBRANCH  29  30
ENDBRANCH  28  29
ENDBRANCH  27  28
ENDBRANCH  26  27
ENDBRANCH  25  26
ENDBRANCH  24  25
ENDBRANCH  23  24
ENDBRANCH  22  23
ENDBRANCH  21  22
ENDBRANCH  20  21
ENDBRANCH  19  20
ENDBRANCH  18  19
ENDBRANCH   1  18
TORSDOF 28
ENDMDL
MODEL 9
REMARK VINA RESULT:    -2.871     11.777     13.572
REMARK INTER + INTRA:         -12.693
REMARK INTER:                  -6.582
REMARK INTRA:                  -6.111
REMARK UNBOUND:                -5.121
REMARK SMILES CCCCCCCCCCCCCCCCCCCCCCCCCCCCCC(=O)[O-]
REMARK SMILES IDX 16 1 17 2 18 3 19 4 20 5 21 6 22 7 23 8 24 9 25 10 26 11
REMARK SMILES IDX 27 12 28 13 29 14 30 15 31 16 32 17 15 18 14 19 13 20 12 21
REMARK SMILES IDX 11 22 10 23 9 24 8 25 7 26 6 27 5 28 4 29 3 30 2 31 1 32
REMARK H PARENT
REMARK Flexibility Score: inf
ROOT
ATOM      1  C   UNL     1      -5.039   1.482   7.898  1.00  0.00     0.000 C 
ENDROOT
BRANCH   1   2
ATOM      2  C   UNL     1      -4.826   1.635   6.383  1.00  0.00     0.000 C 
BRANCH   2   3
ATOM      3  C   UNL     1      -3.583   2.451   5.976  1.00  0.00     0.000 C 
BRANCH   3   4
ATOM      4  C   UNL     1      -2.873   3.145   7.158  1.00  0.00     0.000 C 
BRANCH   4   5
ATOM      5  C   UNL     1      -1.443   2.624   7.372  1.00  0.00     0.000 C 
BRANCH   5   6
ATOM      6  C   UNL     1      -1.094   1.541   6.345  1.00  0.00     0.000 C 
BRANCH   6   7
ATOM      7  C   UNL     1       0.418   1.273   6.322  1.00  0.00     0.000 C 
BRANCH   7   8
ATOM      8  C   UNL     1       0.796  -0.078   6.958  1.00  0.00     0.000 C 
BRANCH   8   9
ATOM      9  C   UNL     1       0.840  -0.077   8.497  1.00  0.00     0.000 C 
BRANCH   9  10
ATOM     10  C   UNL     1       0.904  -1.495   9.091  1.00  0.00     0.000 C 
BRANCH  10  11
ATOM     11  C   UNL     1       0.831  -2.591   8.015  1.00  0.00     0.000 C 
BRANCH  11  12
ATOM     12  C   UNL     1       0.249  -3.906   8.554  1.00  0.00     0.000 C 
BRANCH  12  13
ATOM     13  C   UNL     1       0.222  -4.983   7.458  1.00  0.00     0.006 C 
BRANCH  13  14
ATOM     14  C   UNL     1      -0.185  -6.356   8.006  1.00  0.00     0.053 C 
BRANCH  14  15
ATOM     15  C   UNL     1       0.664  -7.454   7.438  1.00  0.00     0.041 C 
ATOM     16  O   UNL     1       0.277  -8.650   7.499  1.00  0.00    -0.550 OA
ATOM     17  O   UNL     1       1.895  -7.156   6.869  1.00  0.00    -0.550 OA
ENDBRANCH  14  15
ENDBRANCH  13  14
ENDBRANCH  12  13
ENDBRANCH  11  12
ENDBRANCH  10  11
ENDBRANCH   9  10
ENDBRANCH   8   9
ENDBRANCH   7   8
ENDBRANCH   6   7
ENDBRANCH   5   6
ENDBRANCH   4   5
ENDBRANCH   3   4
ENDBRANCH   2   3
ENDBRANCH   1   2
BRANCH   1  18
ATOM     18  C   UNL     1      -4.802   0.042   8.387  1.00  0.00     0.000 C 
BRANCH  18  19
ATOM     19  C   UNL     1      -3.375  -0.180   8.913  1.00  0.00     0.000 C 
BRANCH  19  20
ATOM     20  C   UNL     1      -2.658  -1.426   8.357  1.00  0.00     0.000 C 
BRANCH  20  21
ATOM     21  C   UNL     1      -2.715  -1.543   6.818  1.00  0.00     0.000 C 
BRANCH  21  22
ATOM     22  C   UNL     1      -2.790  -3.009   6.350  1.00  0.00     0.000 C 
BRANCH  22  23
ATOM     23  C   UNL     1      -3.311  -3.955   7.443  1.00  0.00     0.000 C 
BRANCH  23  24
ATOM     24  C   UNL     1      -3.658  -5.351   6.895  1.00  0.00    -0.000 C 
BRANCH  24  25
ATOM     25  C   UNL     1      -5.108  -5.438   6.392  1.00  0.00    -0.000 C 
BRANCH  25  26
ATOM     26  C   UNL     1      -5.207  -5.348   4.859  1.00  0.00    -0.000 C 
BRANCH  26  27
ATOM     27  C   UNL     1      -5.859  -4.038   4.389  1.00  0.00    -0.000 C 
BRANCH  27  28
ATOM     28  C   UNL     1      -6.507  -3.248   5.538  1.00  0.00    -0.000 C 
BRANCH  28  29
ATOM     29  C   UNL     1      -6.212  -1.742   5.457  1.00  0.00    -0.000 C 
BRANCH  29  30
ATOM     30  C   UNL     1      -5.380  -1.370   4.217  1.00  0.00    -0.000 C 
BRANCH  30  31
ATOM     31  C   UNL     1      -6.007  -0.225   3.407  1.00  0.00    -0.003 C 
ATOM     32  C   UNL     1      -7.451   0.065   3.816  1.00  0.00     0.004 C 
ENDBRANCH  30  31
ENDBRANCH  29  30
ENDBRANCH  28  29
ENDBRANCH  27  28
ENDBRANCH  26  27
ENDBRANCH  25  26
ENDBRANCH  24  25
ENDBRANCH  23  24
ENDBRANCH  22  23
ENDBRANCH  21  22
ENDBRANCH  20  21
ENDBRANCH  19  20
ENDBRANCH  18  19
ENDBRANCH   1  18
TORSDOF 28
ENDMDL
