MODEL 1
REMARK VINA RESULT:    -3.001      0.000      0.000
REMARK INTER + INTRA:          -7.214
REMARK INTER:                  -6.510
REMARK INTRA:                  -0.704
REMARK UNBOUND:                -0.704
REMARK SMILES CCCCCCCCCCCCCCCCCCCCCC(=O)[O-]
REMARK SMILES IDX 12 1 11 2 10 3 9 4 8 5 7 6 6 7 5 8 4 9 3 10 2 11 1 12 13 13
REMARK SMILES IDX 14 14 15 15 16 16 17 17 18 18 19 19 20 20 21 21 22 22 23 23
REMARK SMILES IDX 24 24
REMARK H PARENT
REMARK Flexibility Score: inf
ROOT
ATOM      1  C   UNL     1      23.031  64.892  16.548  1.00  0.00     0.000 C 
ENDROOT
BRANCH   1   2
ATOM      2  C   UNL     1      24.293  64.991  15.671  1.00  0.00     0.000 C 
BRANCH   2   3
ATOM      3  C   UNL     1      25.400  65.844  16.309  1.00  0.00     0.000 C 
BRANCH   3   4
ATOM      4  C   UNL     1      26.730  65.076  16.344  1.00  0.00    -0.000 C 
BRANCH   4   5
ATOM      5  C   UNL     1      27.899  65.932  16.859  1.00  0.00    -0.000 C 
BRANCH   5   6
ATOM      6  C   UNL     1      28.694  65.307  18.023  1.00  0.00    -0.000 C 
BRANCH   6   7
ATOM      7  C   UNL     1      30.202  65.633  17.992  1.00  0.00    -0.000 C 
BRANCH   7   8
ATOM      8  C   UNL     1      30.935  65.108  19.239  1.00  0.00    -0.000 C 
BRANCH   8   9
ATOM      9  C   UNL     1      31.761  63.844  18.957  1.00  0.00    -0.000 C 
BRANCH   9  10
ATOM     10  C   UNL     1      32.160  63.098  20.239  1.00  0.00    -0.000 C 
BRANCH  10  11
ATOM     11  C   UNL     1      32.746  61.719  19.914  1.00  0.00    -0.003 C 
ATOM     12  C   UNL     1      32.119  60.635  20.788  1.00  0.00     0.004 C 
ENDBRANCH  10  11
ENDBRANCH   9  10
ENDBRANCH   8   9
ENDBRANCH   7   8
ENDBRANCH   6   7
ENDBRANCH   5   6
ENDBRANCH   4   5
ENDBRANCH   3   4
ENDBRANCH   2   3
ENDBRANCH   1   2
BRANCH   1  13
ATOM     13  C   UNL     1      21.990  66.004  16.326  1.00  0.00     0.000 C 
BRANCH  13  14
ATOM     14  C   UNL     1      20.849  65.577  15.387  1.00  0.00     0.000 C 
BRANCH  14  15
ATOM     15  C   UNL     1      19.666  64.929  16.133  1.00  0.00     0.000 C 
BRANCH  15  16
ATOM     16  C   UNL     1      18.486  65.870  16.437  1.00  0.00     0.000 C 
BRANCH  16  17
ATOM     17  C   UNL     1      17.403  65.848  15.344  1.00  0.00     0.000 C 
BRANCH  17  18
ATOM     18  C   UNL     1      15.998  66.125  15.905  1.00  0.00     0.000 C 
BRANCH  18  19
ATOM     19  C   UNL     1      15.566  65.076  16.946  1.00  0.00     0.000 C 
BRANCH  19  20
ATOM     20  C   UNL     1      14.338  64.265  16.497  1.00  0.00     0.006 C 
BRANCH  20  21
ATOM     21  C   UNL     1      13.551  64.905  15.341  1.00  0.00     0.053 C 
BRANCH  21  22
ATOM     22  C   UNL     1      13.549  64.040  14.119  1.00  0.00     0.041 C 
ATOM     23  O   UNL     1      12.988  62.913  14.140  1.00  0.00    -0.550 OA
ATOM     24  O   UNL     1      14.128  64.499  12.942  1.00  0.00    -0.550 OA
ENDBRANCH  21  22
ENDBRANCH  20  21
ENDBRANCH  19  20
ENDBRANCH  18  19
ENDBRANCH  17  18
ENDBRANCH  16  17
ENDBRANCH  15  16
ENDBRANCH  14  15
ENDBRANCH  13  14
ENDBRANCH   1  13
TORSDOF 20
ENDMDL
MODEL 2
REMARK VINA RESULT:    -2.988      5.830     14.234
REMARK INTER + INTRA:          -7.186
REMARK INTER:                  -6.191
REMARK INTRA:                  -0.995
REMARK UNBOUND:                -0.704
REMARK SMILES CCCCCCCCCCCCCCCCCCCCCC(=O)[O-]
REMARK SMILES IDX 12 1 11 2 10 3 9 4 8 5 7 6 6 7 5 8 4 9 3 10 2 11 1 12 13 13
REMARK SMILES IDX 14 14 15 15 16 16 17 17 18 18 19 19 20 20 21 21 22 22 23 23
REMARK SMILES IDX 24 24
REMARK H PARENT
REMARK Flexibility Score: inf
ROOT
ATOM      1  C   UNL     1      21.814  65.299  16.280  1.00  0.00     0.000 C 
ENDROOT
BRANCH   1   2
ATOM      2  C   UNL     1      20.794  66.119  15.469  1.00  0.00     0.000 C 
BRANCH   2   3
ATOM      3  C   UNL     1      19.439  65.409  15.317  1.00  0.00     0.000 C 
BRANCH   3   4
ATOM      4  C   UNL     1      18.436  65.917  16.363  1.00  0.00    -0.000 C 
BRANCH   4   5
ATOM      5  C   UNL     1      17.472  64.821  16.847  1.00  0.00    -0.000 C 
BRANCH   5   6
ATOM      6  C   UNL     1      16.201  65.341  17.547  1.00  0.00    -0.000 C 
BRANCH   6   7
ATOM      7  C   UNL     1      14.955  64.462  17.309  1.00  0.00    -0.000 C 
BRANCH   7   8
ATOM      8  C   UNL     1      13.670  65.299  17.178  1.00  0.00    -0.000 C 
BRANCH   8   9
ATOM      9  C   UNL     1      12.940  65.066  15.848  1.00  0.00    -0.000 C 
BRANCH   9  10
ATOM     10  C   UNL     1      13.874  64.557  14.740  1.00  0.00    -0.000 C 
BRANCH  10  11
ATOM     11  C   UNL     1      14.596  65.721  14.051  1.00  0.00    -0.003 C 
ATOM     12  C   UNL     1      15.628  65.212  13.048  1.00  0.00     0.004 C 
ENDBRANCH  10  11
ENDBRANCH   9  10
ENDBRANCH   8   9
ENDBRANCH   7   8
ENDBRANCH   6   7
ENDBRANCH   5   6
ENDBRANCH   4   5
ENDBRANCH   3   4
ENDBRANCH   2   3
ENDBRANCH   1   2
BRANCH   1  13
ATOM     13  C   UNL     1      23.221  65.915  16.376  1.00  0.00     0.000 C 
BRANCH  13  14
ATOM     14  C   UNL     1      24.335  64.925  15.994  1.00  0.00     0.000 C 
BRANCH  14  15
ATOM     15  C   UNL     1      25.715  65.595  15.853  1.00  0.00     0.000 C 
BRANCH  15  16
ATOM     16  C   UNL     1      26.649  65.437  17.067  1.00  0.00     0.000 C 
BRANCH  16  17
ATOM     17  C   UNL     1      28.139  65.438  16.684  1.00  0.00     0.000 C 
BRANCH  17  18
ATOM     18  C   UNL     1      29.050  65.084  17.870  1.00  0.00     0.000 C 
BRANCH  18  19
ATOM     19  C   UNL     1      30.536  65.354  17.569  1.00  0.00     0.000 C 
BRANCH  19  20
ATOM     20  C   UNL     1      31.471  64.317  18.214  1.00  0.00     0.006 C 
BRANCH  20  21
ATOM     21  C   UNL     1      32.869  64.249  17.577  1.00  0.00     0.053 C 
BRANCH  21  22
ATOM     22  C   UNL     1      33.004  63.083  16.647  1.00  0.00     0.041 C 
ATOM     23  O   UNL     1      33.124  61.917  17.105  1.00  0.00    -0.550 OA
ATOM     24  O   UNL     1      32.952  63.281  15.273  1.00  0.00    -0.550 OA
ENDBRANCH  21  22
ENDBRANCH  20  21
ENDBRANCH  19  20
ENDBRANCH  18  19
ENDBRANCH  17  18
ENDBRANCH  16  17
ENDBRANCH  15  16
ENDBRANCH  14  15
ENDBRANCH  13  14
ENDBRANCH   1  13
TORSDOF 20
ENDMDL
MODEL 3
REMARK VINA RESULT:    -2.447      5.585     14.198
REMARK INTER + INTRA:          -6.011
REMARK INTER:                  -5.227
REMARK INTRA:                  -0.784
REMARK UNBOUND:                -0.704
REMARK SMILES CCCCCCCCCCCCCCCCCCCCCC(=O)[O-]
REMARK SMILES IDX 12 1 11 2 10 3 9 4 8 5 7 6 6 7 5 8 4 9 3 10 2 11 1 12 13 13
REMARK SMILES IDX 14 14 15 15 16 16 17 17 18 18 19 19 20 20 21 21 22 22 23 23
REMARK SMILES IDX 24 24
REMARK H PARENT
REMARK Flexibility Score: inf
ROOT
ATOM      1  C   UNL     1      20.276  64.808  16.380  1.00  0.00     0.000 C 
ENDROOT
BRANCH   1   2
ATOM      2  C   UNL     1      18.872  65.436  16.314  1.00  0.00     0.000 C 
BRANCH   2   3
ATOM      3  C   UNL     1      17.866  64.758  17.258  1.00  0.00     0.000 C 
BRANCH   3   4
ATOM      4  C   UNL     1      16.470  65.378  17.105  1.00  0.00    -0.000 C 
BRANCH   4   5
ATOM      5  C   UNL     1      15.351  64.465  17.634  1.00  0.00    -0.000 C 
BRANCH   5   6
ATOM      6  C   UNL     1      14.138  64.319  16.693  1.00  0.00    -0.000 C 
BRANCH   6   7
ATOM      7  C   UNL     1      14.337  64.985  15.315  1.00  0.00    -0.000 C 
BRANCH   7   8
ATOM      8  C   UNL     1      13.129  64.769  14.387  1.00  0.00    -0.000 C 
BRANCH   8   9
ATOM      9  C   UNL     1      12.945  63.300  13.978  1.00  0.00    -0.000 C 
BRANCH   9  10
ATOM     10  C   UNL     1      13.281  63.049  12.500  1.00  0.00    -0.000 C 
BRANCH  10  11
ATOM     11  C   UNL     1      14.022  64.246  11.894  1.00  0.00    -0.003 C 
ATOM     12  C   UNL     1      13.299  64.771  10.656  1.00  0.00     0.004 C 
ENDBRANCH  10  11
ENDBRANCH   9  10
ENDBRANCH   8   9
ENDBRANCH   7   8
ENDBRANCH   6   7
ENDBRANCH   5   6
ENDBRANCH   4   5
ENDBRANCH   3   4
ENDBRANCH   2   3
ENDBRANCH   1   2
BRANCH   1  13
ATOM     13  C   UNL     1      21.244  65.250  15.268  1.00  0.00     0.000 C 
BRANCH  13  14
ATOM     14  C   UNL     1      22.396  66.125  15.790  1.00  0.00     0.000 C 
BRANCH  14  15
ATOM     15  C   UNL     1      23.465  65.321  16.556  1.00  0.00     0.000 C 
BRANCH  15  16
ATOM     16  C   UNL     1      24.823  65.188  15.842  1.00  0.00     0.000 C 
BRANCH  16  17
ATOM     17  C   UNL     1      25.948  65.973  16.540  1.00  0.00     0.000 C 
BRANCH  17  18
ATOM     18  C   UNL     1      26.985  65.050  17.200  1.00  0.00     0.000 C 
BRANCH  18  19
ATOM     19  C   UNL     1      28.252  64.886  16.342  1.00  0.00     0.000 C 
BRANCH  19  20
ATOM     20  C   UNL     1      29.316  65.955  16.643  1.00  0.00     0.006 C 
BRANCH  20  21
ATOM     21  C   UNL     1      30.011  65.785  18.004  1.00  0.00     0.053 C 
BRANCH  21  22
ATOM     22  C   UNL     1      31.314  65.057  17.880  1.00  0.00     0.041 C 
ATOM     23  O   UNL     1      32.163  65.114  18.807  1.00  0.00    -0.550 OA
ATOM     24  O   UNL     1      31.569  64.277  16.759  1.00  0.00    -0.550 OA
ENDBRANCH  21  22
ENDBRANCH  20  21
ENDBRANCH  19  20
ENDBRANCH  18  19
ENDBRANCH  17  18
ENDBRANCH  16  17
ENDBRANCH  15  16
ENDBRANCH  14  15
ENDBRANCH  13  14
ENDBRANCH   1  13
TORSDOF 20
ENDMDL
MODEL 4
REMARK VINA RESULT:    -2.310      5.775     13.967
REMARK INTER + INTRA:          -5.714
REMARK INTER:                  -4.755
REMARK INTRA:                  -0.958
REMARK UNBOUND:                -0.704
REMARK SMILES CCCCCCCCCCCCCCCCCCCCCC(=O)[O-]
REMARK SMILES IDX 12 1 11 2 10 3 9 4 8 5 7 6 6 7 5 8 4 9 3 10 2 11 1 12 13 13
REMARK SMILES IDX 14 14 15 15 16 16 17 17 18 18 19 19 20 20 21 21 22 22 23 23
REMARK SMILES IDX 24 24
REMARK H PARENT
REMARK Flexibility Score: inf
ROOT
ATOM      1  C   UNL     1      24.469  64.686  15.585  1.00  0.00     0.000 C 
ENDROOT
BRANCH   1   2
ATOM      2  C   UNL     1      23.505  65.352  16.583  1.00  0.00     0.000 C 
BRANCH   2   3
ATOM      3  C   UNL     1      22.245  65.921  15.912  1.00  0.00     0.000 C 
BRANCH   3   4
ATOM      4  C   UNL     1      21.013  65.070  16.253  1.00  0.00    -0.000 C 
BRANCH   4   5
ATOM      5  C   UNL     1      19.696  65.716  15.790  1.00  0.00    -0.000 C 
BRANCH   5   6
ATOM      6  C   UNL     1      19.496  65.751  14.262  1.00  0.00    -0.000 C 
BRANCH   6   7
ATOM      7  C   UNL     1      18.062  66.125  13.831  1.00  0.00    -0.000 C 
BRANCH   7   8
ATOM      8  C   UNL     1      17.030  65.836  14.935  1.00  0.00    -0.000 C 
BRANCH   8   9
ATOM      9  C   UNL     1      15.588  66.125  14.492  1.00  0.00    -0.000 C 
BRANCH   9  10
ATOM     10  C   UNL     1      14.555  65.266  15.239  1.00  0.00    -0.000 C 
BRANCH  10  11
ATOM     11  C   UNL     1      15.039  64.933  16.656  1.00  0.00    -0.003 C 
ATOM     12  C   UNL     1      13.913  65.097  17.674  1.00  0.00     0.004 C 
ENDBRANCH  10  11
ENDBRANCH   9  10
ENDBRANCH   8   9
ENDBRANCH   7   8
ENDBRANCH   6   7
ENDBRANCH   5   6
ENDBRANCH   4   5
ENDBRANCH   3   4
ENDBRANCH   2   3
ENDBRANCH   1   2
BRANCH   1  13
ATOM     13  C   UNL     1      25.960  64.772  15.958  1.00  0.00     0.000 C 
BRANCH  13  14
ATOM     14  C   UNL     1      26.332  66.103  16.634  1.00  0.00     0.000 C 
BRANCH  14  15
ATOM     15  C   UNL     1      27.353  65.935  17.776  1.00  0.00     0.000 C 
BRANCH  15  16
ATOM     16  C   UNL     1      28.532  64.994  17.468  1.00  0.00     0.000 C 
BRANCH  16  17
ATOM     17  C   UNL     1      29.881  65.730  17.376  1.00  0.00     0.000 C 
BRANCH  17  18
ATOM     18  C   UNL     1      31.075  64.763  17.326  1.00  0.00     0.000 C 
BRANCH  18  19
ATOM     19  C   UNL     1      32.007  64.921  18.541  1.00  0.00     0.000 C 
BRANCH  19  20
ATOM     20  C   UNL     1      31.698  63.914  19.662  1.00  0.00     0.006 C 
BRANCH  20  21
ATOM     21  C   UNL     1      32.424  64.204  20.986  1.00  0.00     0.053 C 
BRANCH  21  22
ATOM     22  C   UNL     1      31.740  65.277  21.776  1.00  0.00     0.041 C 
ATOM     23  O   UNL     1      32.403  66.015  22.550  1.00  0.00    -0.550 OA
ATOM     24  O   UNL     1      30.376  65.490  21.621  1.00  0.00    -0.550 OA
ENDBRANCH  21  22
ENDBRANCH  20  21
ENDBRANCH  19  20
ENDBRANCH  18  19
ENDBRANCH  17  18
ENDBRANCH  16  17
ENDBRANCH  15  16
ENDBRANCH  14  15
ENDBRANCH  13  14
ENDBRANCH   1  13
TORSDOF 20
ENDMDL
MODEL 5
REMARK VINA RESULT:    -2.299      5.998     14.092
REMARK INTER + INTRA:          -5.691
REMARK INTER:                  -4.800
REMARK INTRA:                  -0.891
REMARK UNBOUND:                -0.704
REMARK SMILES CCCCCCCCCCCCCCCCCCCCCC(=O)[O-]
REMARK SMILES IDX 12 1 11 2 10 3 9 4 8 5 7 6 6 7 5 8 4 9 3 10 2 11 1 12 13 13
REMARK SMILES IDX 14 14 15 15 16 16 17 17 18 18 19 19 20 20 21 21 22 22 23 23
REMARK SMILES IDX 24 24
REMARK H PARENT
REMARK Flexibility Score: inf
ROOT
ATOM      1  C   UNL     1      25.599  65.621  15.802  1.00  0.00     0.000 C 
ENDROOT
BRANCH   1   2
ATOM      2  C   UNL     1      24.308  65.291  16.572  1.00  0.00     0.000 C 
BRANCH   2   3
ATOM      3  C   UNL     1      23.084  66.058  16.048  1.00  0.00     0.000 C 
BRANCH   3   4
ATOM      4  C   UNL     1      21.829  65.174  16.084  1.00  0.00    -0.000 C 
BRANCH   4   5
ATOM      5  C   UNL     1      20.526  65.983  15.966  1.00  0.00    -0.000 C 
BRANCH   5   6
ATOM      6  C   UNL     1      19.277  65.148  15.618  1.00  0.00    -0.000 C 
BRANCH   6   7
ATOM      7  C   UNL     1      18.179  65.948  14.886  1.00  0.00    -0.000 C 
BRANCH   7   8
ATOM      8  C   UNL     1      16.917  66.125  15.748  1.00  0.00    -0.000 C 
BRANCH   8   9
ATOM      9  C   UNL     1      16.925  65.241  17.005  1.00  0.00    -0.000 C 
BRANCH   9  10
ATOM     10  C   UNL     1      15.548  64.632  17.310  1.00  0.00    -0.000 C 
BRANCH  10  11
ATOM     11  C   UNL     1      14.451  65.304  16.475  1.00  0.00    -0.003 C 
ATOM     12  C   UNL     1      13.217  65.599  17.323  1.00  0.00     0.004 C 
ENDBRANCH  10  11
ENDBRANCH   9  10
ENDBRANCH   8   9
ENDBRANCH   7   8
ENDBRANCH   6   7
ENDBRANCH   5   6
ENDBRANCH   4   5
ENDBRANCH   3   4
ENDBRANCH   2   3
ENDBRANCH   1   2
BRANCH   1  13
ATOM     13  C   UNL     1      26.863  65.760  16.670  1.00  0.00     0.000 C 
BRANCH  13  14
ATOM     14  C   UNL     1      26.867  64.808  17.878  1.00  0.00     0.000 C 
BRANCH  14  15
ATOM     15  C   UNL     1      28.202  64.815  18.647  1.00  0.00     0.000 C 
BRANCH  15  16
ATOM     16  C   UNL     1      29.056  66.083  18.467  1.00  0.00     0.000 C 
BRANCH  16  17
ATOM     17  C   UNL     1      30.237  65.881  17.502  1.00  0.00     0.000 C 
BRANCH  17  18
ATOM     18  C   UNL     1      31.598  66.078  18.189  1.00  0.00     0.000 C 
BRANCH  18  19
ATOM     19  C   UNL     1      31.683  65.345  19.540  1.00  0.00     0.000 C 
BRANCH  19  20
ATOM     20  C   UNL     1      32.774  64.261  19.559  1.00  0.00     0.006 C 
BRANCH  20  21
ATOM     21  C   UNL     1      32.673  63.289  20.746  1.00  0.00     0.053 C 
BRANCH  21  22
ATOM     22  C   UNL     1      32.710  61.859  20.303  1.00  0.00     0.041 C 
ATOM     23  O   UNL     1      33.108  61.562  19.147  1.00  0.00    -0.550 OA
ATOM     24  O   UNL     1      32.347  60.849  21.186  1.00  0.00    -0.550 OA
ENDBRANCH  21  22
ENDBRANCH  20  21
ENDBRANCH  19  20
ENDBRANCH  18  19
ENDBRANCH  17  18
ENDBRANCH  16  17
ENDBRANCH  15  16
ENDBRANCH  14  15
ENDBRANCH  13  14
ENDBRANCH   1  13
TORSDOF 20
ENDMDL
MODEL 6
REMARK VINA RESULT:    -2.265      5.774     13.902
REMARK INTER + INTRA:          -5.618
REMARK INTER:                  -4.654
REMARK INTRA:                  -0.963
REMARK UNBOUND:                -0.704
REMARK SMILES CCCCCCCCCCCCCCCCCCCCCC(=O)[O-]
REMARK SMILES IDX 12 1 11 2 10 3 9 4 8 5 7 6 6 7 5 8 4 9 3 10 2 11 1 12 13 13
REMARK SMILES IDX 14 14 15 15 16 16 17 17 18 18 19 19 20 20 21 21 22 22 23 23
REMARK SMILES IDX 24 24
REMARK H PARENT
REMARK Flexibility Score: inf
ROOT
ATOM      1  C   UNL     1      21.125  64.992  16.825  1.00  0.00     0.000 C 
ENDROOT
BRANCH   1   2
ATOM      2  C   UNL     1      19.969  65.887  16.342  1.00  0.00     0.000 C 
BRANCH   2   3
ATOM      3  C   UNL     1      19.559  65.605  14.888  1.00  0.00     0.000 C 
BRANCH   3   4
ATOM      4  C   UNL     1      18.091  65.987  14.651  1.00  0.00    -0.000 C 
BRANCH   4   5
ATOM      5  C   UNL     1      17.291  66.124  15.957  1.00  0.00    -0.000 C 
BRANCH   5   6
ATOM      6  C   UNL     1      16.883  64.788  16.608  1.00  0.00    -0.000 C 
BRANCH   6   7
ATOM      7  C   UNL     1      15.792  64.930  17.691  1.00  0.00    -0.000 C 
BRANCH   7   8
ATOM      8  C   UNL     1      14.398  65.162  17.083  1.00  0.00    -0.000 C 
BRANCH   8   9
ATOM      9  C   UNL     1      13.966  64.034  16.135  1.00  0.00    -0.000 C 
BRANCH   9  10
ATOM     10  C   UNL     1      13.466  64.557  14.779  1.00  0.00    -0.000 C 
BRANCH  10  11
ATOM     11  C   UNL     1      14.637  64.992  13.891  1.00  0.00    -0.003 C 
ATOM     12  C   UNL     1      14.278  64.877  12.412  1.00  0.00     0.004 C 
ENDBRANCH  10  11
ENDBRANCH   9  10
ENDBRANCH   8   9
ENDBRANCH   7   8
ENDBRANCH   6   7
ENDBRANCH   5   6
ENDBRANCH   4   5
ENDBRANCH   3   4
ENDBRANCH   2   3
ENDBRANCH   1   2
BRANCH   1  13
ATOM     13  C   UNL     1      22.357  64.958  15.902  1.00  0.00     0.000 C 
BRANCH  13  14
ATOM     14  C   UNL     1      23.491  65.879  16.384  1.00  0.00     0.000 C 
BRANCH  14  15
ATOM     15  C   UNL     1      24.887  65.394  15.948  1.00  0.00     0.000 C 
BRANCH  15  16
ATOM     16  C   UNL     1      26.071  66.121  16.612  1.00  0.00     0.000 C 
BRANCH  16  17
ATOM     17  C   UNL     1      27.265  65.191  16.896  1.00  0.00     0.000 C 
BRANCH  17  18
ATOM     18  C   UNL     1      28.540  65.633  16.161  1.00  0.00     0.000 C 
BRANCH  18  19
ATOM     19  C   UNL     1      29.817  65.071  16.813  1.00  0.00     0.000 C 
BRANCH  19  20
ATOM     20  C   UNL     1      29.839  65.265  18.339  1.00  0.00     0.006 C 
BRANCH  20  21
ATOM     21  C   UNL     1      31.092  65.986  18.863  1.00  0.00     0.053 C 
BRANCH  21  22
ATOM     22  C   UNL     1      31.674  65.300  20.060  1.00  0.00     0.041 C 
ATOM     23  O   UNL     1      32.769  64.686  19.969  1.00  0.00    -0.550 OA
ATOM     24  O   UNL     1      31.027  65.378  21.287  1.00  0.00    -0.550 OA
ENDBRANCH  21  22
ENDBRANCH  20  21
ENDBRANCH  19  20
ENDBRANCH  18  19
ENDBRANCH  17  18
ENDBRANCH  16  17
ENDBRANCH  15  16
ENDBRANCH  14  15
ENDBRANCH  13  14
ENDBRANCH   1  13
TORSDOF 20
ENDMDL
MODEL 7
REMARK VINA RESULT:    -2.256      1.506      2.025
REMARK INTER + INTRA:          -5.596
REMARK INTER:                  -4.825
REMARK INTRA:                  -0.771
REMARK UNBOUND:                -0.704
REMARK SMILES CCCCCCCCCCCCCCCCCCCCCC(=O)[O-]
REMARK SMILES IDX 12 1 11 2 10 3 9 4 8 5 7 6 6 7 5 8 4 9 3 10 2 11 1 12 13 13
REMARK SMILES IDX 14 14 15 15 16 16 17 17 18 18 19 19 20 20 21 21 22 22 23 23
REMARK SMILES IDX 24 24
REMARK H PARENT
REMARK Flexibility Score: inf
ROOT
ATOM      1  C   UNL     1      23.309  64.742  16.507  1.00  0.00     0.000 C 
ENDROOT
BRANCH   1   2
ATOM      2  C   UNL     1      24.521  65.087  15.623  1.00  0.00     0.000 C 
BRANCH   2   3
ATOM      3  C   UNL     1      25.864  64.735  16.281  1.00  0.00     0.000 C 
BRANCH   3   4
ATOM      4  C   UNL     1      26.508  65.979  16.908  1.00  0.00    -0.000 C 
BRANCH   4   5
ATOM      5  C   UNL     1      28.034  66.020  16.720  1.00  0.00    -0.000 C 
BRANCH   5   6
ATOM      6  C   UNL     1      28.844  66.125  18.027  1.00  0.00    -0.000 C 
BRANCH   6   7
ATOM      7  C   UNL     1      30.288  65.595  17.909  1.00  0.00    -0.000 C 
BRANCH   7   8
ATOM      8  C   UNL     1      31.141  65.953  19.139  1.00  0.00    -0.000 C 
BRANCH   8   9
ATOM      9  C   UNL     1      31.014  64.924  20.272  1.00  0.00    -0.000 C 
BRANCH   9  10
ATOM     10  C   UNL     1      31.595  65.431  21.601  1.00  0.00    -0.000 C 
BRANCH  10  11
ATOM     11  C   UNL     1      30.489  65.629  22.645  1.00  0.00    -0.003 C 
ATOM     12  C   UNL     1      31.024  65.421  24.059  1.00  0.00     0.004 C 
ENDBRANCH  10  11
ENDBRANCH   9  10
ENDBRANCH   8   9
ENDBRANCH   7   8
ENDBRANCH   6   7
ENDBRANCH   5   6
ENDBRANCH   4   5
ENDBRANCH   3   4
ENDBRANCH   2   3
ENDBRANCH   1   2
BRANCH   1  13
ATOM     13  C   UNL     1      22.212  65.821  16.565  1.00  0.00     0.000 C 
BRANCH  13  14
ATOM     14  C   UNL     1      21.172  65.678  15.440  1.00  0.00     0.000 C 
BRANCH  14  15
ATOM     15  C   UNL     1      19.854  65.037  15.914  1.00  0.00     0.000 C 
BRANCH  15  16
ATOM     16  C   UNL     1      18.689  66.019  16.136  1.00  0.00     0.000 C 
BRANCH  16  17
ATOM     17  C   UNL     1      17.308  65.363  15.961  1.00  0.00     0.000 C 
BRANCH  17  18
ATOM     18  C   UNL     1      16.373  65.637  17.150  1.00  0.00     0.000 C 
BRANCH  18  19
ATOM     19  C   UNL     1      15.468  64.434  17.472  1.00  0.00     0.000 C 
BRANCH  19  20
ATOM     20  C   UNL     1      13.975  64.807  17.505  1.00  0.00     0.006 C 
BRANCH  20  21
ATOM     21  C   UNL     1      13.466  65.477  16.218  1.00  0.00     0.053 C 
BRANCH  21  22
ATOM     22  C   UNL     1      13.689  64.617  15.013  1.00  0.00     0.041 C 
ATOM     23  O   UNL     1      14.346  65.056  14.033  1.00  0.00    -0.550 OA
ATOM     24  O   UNL     1      13.210  63.313  14.992  1.00  0.00    -0.550 OA
ENDBRANCH  21  22
ENDBRANCH  20  21
ENDBRANCH  19  20
ENDBRANCH  18  19
ENDBRANCH  17  18
ENDBRANCH  16  17
ENDBRANCH  15  16
ENDBRANCH  14  15
ENDBRANCH  13  14
ENDBRANCH   1  13
TORSDOF 20
ENDMDL
MODEL 8
REMARK VINA RESULT:    -2.254      1.730      2.334
REMARK INTER + INTRA:          -5.594
REMARK INTER:                  -4.825
REMARK INTRA:                  -0.769
REMARK UNBOUND:                -0.704
REMARK SMILES CCCCCCCCCCCCCCCCCCCCCC(=O)[O-]
REMARK SMILES IDX 12 1 11 2 10 3 9 4 8 5 7 6 6 7 5 8 4 9 3 10 2 11 1 12 13 13
REMARK SMILES IDX 14 14 15 15 16 16 17 17 18 18 19 19 20 20 21 21 22 22 23 23
REMARK SMILES IDX 24 24
REMARK H PARENT
REMARK Flexibility Score: inf
ROOT
ATOM      1  C   UNL     1      24.763  65.483  15.718  1.00  0.00     0.000 C 
ENDROOT
BRANCH   1   2
ATOM      2  C   UNL     1      25.985  65.977  16.514  1.00  0.00     0.000 C 
BRANCH   2   3
ATOM      3  C   UNL     1      26.654  64.866  17.337  1.00  0.00     0.000 C 
BRANCH   3   4
ATOM      4  C   UNL     1      27.959  65.367  17.974  1.00  0.00    -0.000 C 
BRANCH   4   5
ATOM      5  C   UNL     1      29.099  65.520  16.954  1.00  0.00    -0.000 C 
BRANCH   5   6
ATOM      6  C   UNL     1      30.493  65.743  17.574  1.00  0.00    -0.000 C 
BRANCH   6   7
ATOM      7  C   UNL     1      31.548  64.712  17.119  1.00  0.00    -0.000 C 
BRANCH   7   8
ATOM      8  C   UNL     1      32.800  64.728  18.014  1.00  0.00    -0.000 C 
BRANCH   8   9
ATOM      9  C   UNL     1      32.462  64.833  19.509  1.00  0.00    -0.000 C 
BRANCH   9  10
ATOM     10  C   UNL     1      31.813  63.554  20.061  1.00  0.00    -0.000 C 
BRANCH  10  11
ATOM     11  C   UNL     1      32.863  62.634  20.695  1.00  0.00    -0.003 C 
ATOM     12  C   UNL     1      32.250  61.296  21.099  1.00  0.00     0.004 C 
ENDBRANCH  10  11
ENDBRANCH   9  10
ENDBRANCH   8   9
ENDBRANCH   7   8
ENDBRANCH   6   7
ENDBRANCH   5   6
ENDBRANCH   4   5
ENDBRANCH   3   4
ENDBRANCH   2   3
ENDBRANCH   1   2
BRANCH   1  13
ATOM     13  C   UNL     1      23.514  65.173  16.562  1.00  0.00     0.000 C 
BRANCH  13  14
ATOM     14  C   UNL     1      22.272  65.956  16.103  1.00  0.00     0.000 C 
BRANCH  14  15
ATOM     15  C   UNL     1      20.954  65.200  16.357  1.00  0.00     0.000 C 
BRANCH  15  16
ATOM     16  C   UNL     1      19.730  65.740  15.594  1.00  0.00     0.000 C 
BRANCH  16  17
ATOM     17  C   UNL     1      19.747  65.381  14.098  1.00  0.00     0.000 C 
BRANCH  17  18
ATOM     18  C   UNL     1      18.661  66.125  13.304  1.00  0.00     0.000 C 
BRANCH  18  19
ATOM     19  C   UNL     1      17.261  65.950  13.920  1.00  0.00     0.000 C 
BRANCH  19  20
ATOM     20  C   UNL     1      16.144  65.930  12.862  1.00  0.00     0.006 C 
BRANCH  20  21
ATOM     21  C   UNL     1      15.173  64.746  12.996  1.00  0.00     0.053 C 
BRANCH  21  22
ATOM     22  C   UNL     1      14.080  64.800  11.974  1.00  0.00     0.041 C 
ATOM     23  O   UNL     1      13.758  65.897  11.447  1.00  0.00    -0.550 OA
ATOM     24  O   UNL     1      13.448  63.631  11.570  1.00  0.00    -0.550 OA
ENDBRANCH  21  22
ENDBRANCH  20  21
ENDBRANCH  19  20
ENDBRANCH  18  19
ENDBRANCH  17  18
ENDBRANCH  16  17
ENDBRANCH  15  16
ENDBRANCH  14  15
ENDBRANCH  13  14
ENDBRANCH   1  13
TORSDOF 20
ENDMDL
MODEL 9
REMARK VINA RESULT:    -1.994      2.098      2.665
REMARK INTER + INTRA:          -5.030
REMARK INTER:                  -4.094
REMARK INTRA:                  -0.936
REMARK UNBOUND:                -0.704
REMARK SMILES CCCCCCCCCCCCCCCCCCCCCC(=O)[O-]
REMARK SMILES IDX 12 1 11 2 10 3 9 4 8 5 7 6 6 7 5 8 4 9 3 10 2 11 1 12 13 13
REMARK SMILES IDX 14 14 15 15 16 16 17 17 18 18 19 19 20 20 21 21 22 22 23 23
REMARK SMILES IDX 24 24
REMARK H PARENT
REMARK Flexibility Score: inf
ROOT
ATOM      1  C   UNL     1      21.484  65.342  16.062  1.00  0.00     0.000 C 
ENDROOT
BRANCH   1   2
ATOM      2  C   UNL     1      22.815  66.065  16.337  1.00  0.00     0.000 C 
BRANCH   2   3
ATOM      3  C   UNL     1      23.950  65.105  16.723  1.00  0.00     0.000 C 
BRANCH   3   4
ATOM      4  C   UNL     1      25.149  65.267  15.777  1.00  0.00    -0.000 C 
BRANCH   4   5
ATOM      5  C   UNL     1      26.336  65.989  16.436  1.00  0.00    -0.000 C 
BRANCH   5   6
ATOM      6  C   UNL     1      27.026  65.198  17.566  1.00  0.00    -0.000 C 
BRANCH   6   7
ATOM      7  C   UNL     1      28.532  64.960  17.328  1.00  0.00    -0.000 C 
BRANCH   7   8
ATOM      8  C   UNL     1      28.926  65.161  15.854  1.00  0.00    -0.000 C 
BRANCH   8   9
ATOM      9  C   UNL     1      29.997  64.167  15.383  1.00  0.00    -0.000 C 
BRANCH   9  10
ATOM     10  C   UNL     1      31.229  64.142  16.301  1.00  0.00    -0.000 C 
BRANCH  10  11
ATOM     11  C   UNL     1      32.194  63.021  15.898  1.00  0.00    -0.003 C 
ATOM     12  C   UNL     1      32.865  63.328  14.562  1.00  0.00     0.004 C 
ENDBRANCH  10  11
ENDBRANCH   9  10
ENDBRANCH   8   9
ENDBRANCH   7   8
ENDBRANCH   6   7
ENDBRANCH   5   6
ENDBRANCH   4   5
ENDBRANCH   3   4
ENDBRANCH   2   3
ENDBRANCH   1   2
BRANCH   1  13
ATOM     13  C   UNL     1      20.527  66.073  15.103  1.00  0.00     0.000 C 
BRANCH  13  14
ATOM     14  C   UNL     1      19.087  65.535  15.168  1.00  0.00     0.000 C 
BRANCH  14  15
ATOM     15  C   UNL     1      18.390  65.841  16.508  1.00  0.00     0.000 C 
BRANCH  15  16
ATOM     16  C   UNL     1      17.190  64.936  16.844  1.00  0.00     0.000 C 
BRANCH  16  17
ATOM     17  C   UNL     1      15.916  65.729  17.184  1.00  0.00     0.000 C 
BRANCH  17  18
ATOM     18  C   UNL     1      14.863  65.656  16.065  1.00  0.00     0.000 C 
BRANCH  18  19
ATOM     19  C   UNL     1      14.260  64.247  15.920  1.00  0.00     0.000 C 
BRANCH  19  20
ATOM     20  C   UNL     1      12.880  64.259  15.240  1.00  0.00     0.006 C 
BRANCH  20  21
ATOM     21  C   UNL     1      12.875  64.894  13.840  1.00  0.00     0.053 C 
BRANCH  21  22
ATOM     22  C   UNL     1      13.766  64.158  12.888  1.00  0.00     0.041 C 
ATOM     23  O   UNL     1      13.349  63.128  12.297  1.00  0.00    -0.550 OA
ATOM     24  O   UNL     1      15.042  64.637  12.618  1.00  0.00    -0.550 OA
ENDBRANCH  21  22
ENDBRANCH  20  21
ENDBRANCH  19  20
ENDBRANCH  18  19
ENDBRANCH  17  18
ENDBRANCH  16  17
ENDBRANCH  15  16
ENDBRANCH  14  15
ENDBRANCH  13  14
ENDBRANCH   1  13
TORSDOF 20
ENDMDL
