MODEL 1
REMARK VINA RESULT:    -4.163      0.000      0.000
REMARK INTER + INTRA:          -8.896
REMARK INTER:                  -7.084
REMARK INTRA:                  -1.812
REMARK UNBOUND:                -1.812
REMARK SMILES CCCCCCCCCCCCCC(=O)[O-]
REMARK SMILES IDX 8 1 9 2 10 3 11 4 12 5 13 6 14 7 15 8 16 9 7 10 6 11 5 12
REMARK SMILES IDX 4 13 3 14 2 15 1 16
REMARK H PARENT
REMARK Flexibility Score: inf
ROOT
ATOM      1  C   UNL     1      -7.989 -14.187  17.145  1.00  0.00     0.000 C 
ENDROOT
BRANCH   1   2
ATOM      2  C   UNL     1      -7.453 -12.763  17.356  1.00  0.00     0.000 C 
BRANCH   2   3
ATOM      3  C   UNL     1      -7.038 -12.079  16.042  1.00  0.00     0.000 C 
BRANCH   3   4
ATOM      4  C   UNL     1      -6.916 -10.543  16.114  1.00  0.00     0.000 C 
BRANCH   4   5
ATOM      5  C   UNL     1      -8.089  -9.763  15.488  1.00  0.00     0.006 C 
BRANCH   5   6
ATOM      6  C   UNL     1      -9.415  -9.894  16.251  1.00  0.00     0.053 C 
BRANCH   6   7
ATOM      7  C   UNL     1      -9.430  -9.057  17.493  1.00  0.00     0.041 C 
ATOM      8  O   UNL     1     -10.086  -9.430  18.501  1.00  0.00    -0.550 OA
ATOM      9  O   UNL     1      -8.692  -7.881  17.548  1.00  0.00    -0.550 OA
ENDBRANCH   6   7
ENDBRANCH   5   6
ENDBRANCH   4   5
ENDBRANCH   3   4
ENDBRANCH   2   3
ENDBRANCH   1   2
BRANCH   1  10
ATOM     10  C   UNL     1      -9.431 -14.312  17.658  1.00  0.00     0.000 C 
BRANCH  10  11
ATOM     11  C   UNL     1     -10.069 -12.950  17.971  1.00  0.00    -0.000 C 
BRANCH  11  12
ATOM     12  C   UNL     1     -11.495 -12.821  17.416  1.00  0.00    -0.000 C 
BRANCH  12  13
ATOM     13  C   UNL     1     -11.857 -14.030  16.544  1.00  0.00    -0.000 C 
BRANCH  13  14
ATOM     14  C   UNL     1     -12.204 -13.593  15.113  1.00  0.00    -0.000 C 
BRANCH  14  15
ATOM     15  C   UNL     1     -11.110 -13.965  14.101  1.00  0.00    -0.003 C 
ATOM     16  C   UNL     1      -9.974 -12.944  14.055  1.00  0.00     0.004 C 
ENDBRANCH  14  15
ENDBRANCH  13  14
ENDBRANCH  12  13
ENDBRANCH  11  12
ENDBRANCH  10  11
ENDBRANCH   1  10
TORSDOF 12
ENDMDL
MODEL 2
REMARK VINA RESULT:    -4.050      1.414      2.334
REMARK INTER + INTRA:          -8.704
REMARK INTER:                  -6.633
REMARK INTRA:                  -2.071
REMARK UNBOUND:                -1.812
REMARK SMILES CCCCCCCCCCCCCC(=O)[O-]
REMARK SMILES IDX 8 1 9 2 10 3 11 4 12 5 13 6 14 7 15 8 16 9 7 10 6 11 5 12
REMARK SMILES IDX 4 13 3 14 2 15 1 16
REMARK H PARENT
REMARK Flexibility Score: inf
ROOT
ATOM      1  C   UNL     1      -6.529 -12.599  16.136  1.00  0.00     0.000 C 
ENDROOT
BRANCH   1   2
ATOM      2  C   UNL     1      -7.240 -11.250  15.950  1.00  0.00     0.000 C 
BRANCH   2   3
ATOM      3  C   UNL     1      -8.641 -11.392  15.332  1.00  0.00     0.000 C 
BRANCH   3   4
ATOM      4  C   UNL     1      -9.716 -10.460  15.927  1.00  0.00     0.000 C 
BRANCH   4   5
ATOM      5  C   UNL     1      -9.993 -10.655  17.431  1.00  0.00     0.006 C 
BRANCH   5   6
ATOM      6  C   UNL     1      -9.684  -9.424  18.297  1.00  0.00     0.053 C 
BRANCH   6   7
ATOM      7  C   UNL     1      -8.807  -9.767  19.462  1.00  0.00     0.041 C 
ATOM      8  O   UNL     1      -7.931 -10.665  19.354  1.00  0.00    -0.550 OA
ATOM      9  O   UNL     1      -8.936  -9.071  20.658  1.00  0.00    -0.550 OA
ENDBRANCH   6   7
ENDBRANCH   5   6
ENDBRANCH   4   5
ENDBRANCH   3   4
ENDBRANCH   2   3
ENDBRANCH   1   2
BRANCH   1  10
ATOM     10  C   UNL     1      -7.545 -13.747  16.222  1.00  0.00     0.000 C 
BRANCH  10  11
ATOM     11  C   UNL     1      -7.866 -14.147  17.671  1.00  0.00    -0.000 C 
BRANCH  11  12
ATOM     12  C   UNL     1      -9.371 -14.320  17.919  1.00  0.00    -0.000 C 
BRANCH  12  13
ATOM     13  C   UNL     1     -10.118 -14.589  16.606  1.00  0.00    -0.000 C 
BRANCH  13  14
ATOM     14  C   UNL     1     -11.547 -14.028  16.660  1.00  0.00    -0.000 C 
BRANCH  14  15
ATOM     15  C   UNL     1     -12.008 -13.457  15.311  1.00  0.00    -0.003 C 
ATOM     16  C   UNL     1     -11.084 -13.843  14.156  1.00  0.00     0.004 C 
ENDBRANCH  14  15
ENDBRANCH  13  14
ENDBRANCH  12  13
ENDBRANCH  11  12
ENDBRANCH  10  11
ENDBRANCH   1  10
TORSDOF 12
ENDMDL
MODEL 3
REMARK VINA RESULT:    -3.898      2.661      5.197
REMARK INTER + INTRA:          -8.445
REMARK INTER:                  -6.555
REMARK INTRA:                  -1.890
REMARK UNBOUND:                -1.812
REMARK SMILES CCCCCCCCCCCCCC(=O)[O-]
REMARK SMILES IDX 8 1 9 2 10 3 11 4 12 5 13 6 14 7 15 8 16 9 7 10 6 11 5 12
REMARK SMILES IDX 4 13 3 14 2 15 1 16
REMARK H PARENT
REMARK Flexibility Score: inf
ROOT
ATOM      1  C   UNL     1      -6.877 -11.954  18.250  1.00  0.00     0.000 C 
ENDROOT
BRANCH   1   2
ATOM      2  C   UNL     1      -7.702 -13.066  17.585  1.00  0.00     0.000 C 
BRANCH   2   3
ATOM      3  C   UNL     1      -9.029 -13.344  18.312  1.00  0.00     0.000 C 
BRANCH   3   4
ATOM      4  C   UNL     1     -10.191 -13.795  17.404  1.00  0.00     0.000 C 
BRANCH   4   5
ATOM      5  C   UNL     1     -10.946 -12.656  16.691  1.00  0.00     0.006 C 
BRANCH   5   6
ATOM      6  C   UNL     1     -10.678 -12.566  15.181  1.00  0.00     0.053 C 
BRANCH   6   7
ATOM      7  C   UNL     1     -11.494 -13.556  14.409  1.00  0.00     0.041 C 
ATOM      8  O   UNL     1     -12.597 -13.961  14.863  1.00  0.00    -0.550 OA
ATOM      9  O   UNL     1     -11.052 -14.007  13.172  1.00  0.00    -0.550 OA
ENDBRANCH   6   7
ENDBRANCH   5   6
ENDBRANCH   4   5
ENDBRANCH   3   4
ENDBRANCH   2   3
ENDBRANCH   1   2
BRANCH   1  10
ATOM     10  C   UNL     1      -6.405 -10.926  17.213  1.00  0.00     0.000 C 
BRANCH  10  11
ATOM     11  C   UNL     1      -7.150 -11.049  15.874  1.00  0.00    -0.000 C 
BRANCH  11  12
ATOM     12  C   UNL     1      -7.806  -9.731  15.438  1.00  0.00    -0.000 C 
BRANCH  12  13
ATOM     13  C   UNL     1      -9.033  -9.413  16.303  1.00  0.00    -0.000 C 
BRANCH  13  14
ATOM     14  C   UNL     1      -8.765  -8.209  17.218  1.00  0.00    -0.000 C 
BRANCH  14  15
ATOM     15  C   UNL     1      -9.493  -8.318  18.565  1.00  0.00    -0.003 C 
ATOM     16  C   UNL     1     -10.043  -9.719  18.831  1.00  0.00     0.004 C 
ENDBRANCH  14  15
ENDBRANCH  13  14
ENDBRANCH  12  13
ENDBRANCH  11  12
ENDBRANCH  10  11
ENDBRANCH   1  10
TORSDOF 12
ENDMDL
MODEL 4
REMARK VINA RESULT:    -3.858      1.815      4.647
REMARK INTER + INTRA:          -8.377
REMARK INTER:                  -6.885
REMARK INTRA:                  -1.492
REMARK UNBOUND:                -1.812
REMARK SMILES CCCCCCCCCCCCCC(=O)[O-]
REMARK SMILES IDX 8 1 9 2 10 3 11 4 12 5 13 6 14 7 15 8 16 9 7 10 6 11 5 12
REMARK SMILES IDX 4 13 3 14 2 15 1 16
REMARK H PARENT
REMARK Flexibility Score: inf
ROOT
ATOM      1  C   UNL     1      -7.139 -13.877  14.223  1.00  0.00     0.000 C 
ENDROOT
BRANCH   1   2
ATOM      2  C   UNL     1      -8.581 -14.057  14.721  1.00  0.00     0.000 C 
BRANCH   2   3
ATOM      3  C   UNL     1      -9.620 -13.405  13.795  1.00  0.00     0.000 C 
BRANCH   3   4
ATOM      4  C   UNL     1     -11.082 -13.820  14.056  1.00  0.00     0.000 C 
BRANCH   4   5
ATOM      5  C   UNL     1     -11.795 -13.037  15.178  1.00  0.00     0.006 C 
BRANCH   5   6
ATOM      6  C   UNL     1     -11.859 -13.775  16.523  1.00  0.00     0.053 C 
BRANCH   6   7
ATOM      7  C   UNL     1     -11.230 -12.981  17.626  1.00  0.00     0.041 C 
ATOM      8  O   UNL     1     -10.037 -13.199  17.965  1.00  0.00    -0.550 OA
ATOM      9  O   UNL     1     -11.953 -11.978  18.259  1.00  0.00    -0.550 OA
ENDBRANCH   6   7
ENDBRANCH   5   6
ENDBRANCH   4   5
ENDBRANCH   3   4
ENDBRANCH   2   3
ENDBRANCH   1   2
BRANCH   1  10
ATOM     10  C   UNL     1      -6.288 -13.134  15.263  1.00  0.00     0.000 C 
BRANCH  10  11
ATOM     11  C   UNL     1      -7.129 -12.544  16.406  1.00  0.00    -0.000 C 
BRANCH  11  12
ATOM     12  C   UNL     1      -7.142 -11.008  16.400  1.00  0.00    -0.000 C 
BRANCH  12  13
ATOM     13  C   UNL     1      -8.273 -10.471  15.514  1.00  0.00    -0.000 C 
BRANCH  13  14
ATOM     14  C   UNL     1      -9.479 -10.038  16.360  1.00  0.00    -0.000 C 
BRANCH  14  15
ATOM     15  C   UNL     1      -9.123  -9.849  17.842  1.00  0.00    -0.003 C 
ATOM     16  C   UNL     1      -9.363  -8.422  18.332  1.00  0.00     0.004 C 
ENDBRANCH  14  15
ENDBRANCH  13  14
ENDBRANCH  12  13
ENDBRANCH  11  12
ENDBRANCH  10  11
ENDBRANCH   1  10
TORSDOF 12
ENDMDL
MODEL 5
REMARK VINA RESULT:    -3.805      2.582      5.317
REMARK INTER + INTRA:          -8.287
REMARK INTER:                  -6.337
REMARK INTRA:                  -1.950
REMARK UNBOUND:                -1.812
REMARK SMILES CCCCCCCCCCCCCC(=O)[O-]
REMARK SMILES IDX 8 1 9 2 10 3 11 4 12 5 13 6 14 7 15 8 16 9 7 10 6 11 5 12
REMARK SMILES IDX 4 13 3 14 2 15 1 16
REMARK H PARENT
REMARK Flexibility Score: inf
ROOT
ATOM      1  C   UNL     1      -9.365  -9.119  17.733  1.00  0.00     0.000 C 
ENDROOT
BRANCH   1   2
ATOM      2  C   UNL     1     -10.113 -10.285  18.398  1.00  0.00     0.000 C 
BRANCH   2   3
ATOM      3  C   UNL     1     -10.763 -11.237  17.380  1.00  0.00     0.000 C 
BRANCH   3   4
ATOM      4  C   UNL     1     -11.347 -12.534  17.977  1.00  0.00     0.000 C 
BRANCH   4   5
ATOM      5  C   UNL     1     -11.578 -13.675  16.966  1.00  0.00     0.006 C 
BRANCH   5   6
ATOM      6  C   UNL     1     -10.541 -13.740  15.836  1.00  0.00     0.053 C 
BRANCH   6   7
ATOM      7  C   UNL     1     -11.174 -13.592  14.486  1.00  0.00     0.041 C 
ATOM      8  O   UNL     1     -12.423 -13.474  14.382  1.00  0.00    -0.550 OA
ATOM      9  O   UNL     1     -10.381 -13.552  13.347  1.00  0.00    -0.550 OA
ENDBRANCH   6   7
ENDBRANCH   5   6
ENDBRANCH   4   5
ENDBRANCH   3   4
ENDBRANCH   2   3
ENDBRANCH   1   2
BRANCH   1  10
ATOM     10  C   UNL     1      -9.108  -9.408  16.247  1.00  0.00     0.000 C 
BRANCH  10  11
ATOM     11  C   UNL     1      -7.684  -9.031  15.808  1.00  0.00    -0.000 C 
BRANCH  11  12
ATOM     12  C   UNL     1      -6.755 -10.249  15.701  1.00  0.00    -0.000 C 
BRANCH  12  13
ATOM     13  C   UNL     1      -7.557 -11.534  15.457  1.00  0.00    -0.000 C 
BRANCH  13  14
ATOM     14  C   UNL     1      -6.920 -12.728  16.183  1.00  0.00    -0.000 C 
BRANCH  14  15
ATOM     15  C   UNL     1      -6.852 -12.526  17.703  1.00  0.00    -0.003 C 
ATOM     16  C   UNL     1      -7.905 -13.338  18.457  1.00  0.00     0.004 C 
ENDBRANCH  14  15
ENDBRANCH  13  14
ENDBRANCH  12  13
ENDBRANCH  11  12
ENDBRANCH  10  11
ENDBRANCH   1  10
TORSDOF 12
ENDMDL
MODEL 6
REMARK VINA RESULT:    -3.786      2.592      5.239
REMARK INTER + INTRA:          -8.254
REMARK INTER:                  -6.650
REMARK INTRA:                  -1.603
REMARK UNBOUND:                -1.812
REMARK SMILES CCCCCCCCCCCCCC(=O)[O-]
REMARK SMILES IDX 8 1 9 2 10 3 11 4 12 5 13 6 14 7 15 8 16 9 7 10 6 11 5 12
REMARK SMILES IDX 4 13 3 14 2 15 1 16
REMARK H PARENT
REMARK Flexibility Score: inf
ROOT
ATOM      1  C   UNL     1      -6.355 -11.873  16.610  1.00  0.00     0.000 C 
ENDROOT
BRANCH   1   2
ATOM      2  C   UNL     1      -7.073 -13.222  16.452  1.00  0.00     0.000 C 
BRANCH   2   3
ATOM      3  C   UNL     1      -7.402 -13.885  17.800  1.00  0.00     0.000 C 
BRANCH   3   4
ATOM      4  C   UNL     1      -8.881 -13.799  18.228  1.00  0.00     0.000 C 
BRANCH   4   5
ATOM      5  C   UNL     1      -9.890 -14.392  17.225  1.00  0.00     0.006 C 
BRANCH   5   6
ATOM      6  C   UNL     1     -11.157 -13.546  17.025  1.00  0.00     0.053 C 
BRANCH   6   7
ATOM      7  C   UNL     1     -12.024 -14.089  15.931  1.00  0.00     0.041 C 
ATOM      8  O   UNL     1     -12.067 -13.515  14.812  1.00  0.00    -0.550 OA
ATOM      9  O   UNL     1     -12.762 -15.248  16.139  1.00  0.00    -0.550 OA
ENDBRANCH   6   7
ENDBRANCH   5   6
ENDBRANCH   4   5
ENDBRANCH   3   4
ENDBRANCH   2   3
ENDBRANCH   1   2
BRANCH   1  10
ATOM     10  C   UNL     1      -7.054 -10.779  15.791  1.00  0.00     0.000 C 
BRANCH  10  11
ATOM     11  C   UNL     1      -8.546 -11.072  15.563  1.00  0.00    -0.000 C 
BRANCH  11  12
ATOM     12  C   UNL     1      -9.458  -9.965  16.113  1.00  0.00    -0.000 C 
BRANCH  12  13
ATOM     13  C   UNL     1      -9.773 -10.198  17.596  1.00  0.00    -0.000 C 
BRANCH  13  14
ATOM     14  C   UNL     1      -9.643  -8.895  18.399  1.00  0.00    -0.000 C 
BRANCH  14  15
ATOM     15  C   UNL     1      -8.216  -8.328  18.375  1.00  0.00    -0.003 C 
ATOM     16  C   UNL     1      -8.140  -6.942  17.734  1.00  0.00     0.004 C 
ENDBRANCH  14  15
ENDBRANCH  13  14
ENDBRANCH  12  13
ENDBRANCH  11  12
ENDBRANCH  10  11
ENDBRANCH   1  10
TORSDOF 12
ENDMDL
MODEL 7
REMARK VINA RESULT:    -3.742      2.737      5.289
REMARK INTER + INTRA:          -8.179
REMARK INTER:                  -5.963
REMARK INTRA:                  -2.217
REMARK UNBOUND:                -1.812
REMARK SMILES CCCCCCCCCCCCCC(=O)[O-]
REMARK SMILES IDX 8 1 9 2 10 3 11 4 12 5 13 6 14 7 15 8 16 9 7 10 6 11 5 12
REMARK SMILES IDX 4 13 3 14 2 15 1 16
REMARK H PARENT
REMARK Flexibility Score: inf
ROOT
ATOM      1  C   UNL     1      -6.436 -10.130  16.042  1.00  0.00     0.000 C 
ENDROOT
BRANCH   1   2
ATOM      2  C   UNL     1      -7.528 -11.137  15.650  1.00  0.00     0.000 C 
BRANCH   2   3
ATOM      3  C   UNL     1      -8.908 -10.484  15.468  1.00  0.00     0.000 C 
BRANCH   3   4
ATOM      4  C   UNL     1     -10.111 -11.426  15.675  1.00  0.00     0.000 C 
BRANCH   4   5
ATOM      5  C   UNL     1     -10.438 -11.757  17.145  1.00  0.00     0.006 C 
BRANCH   5   6
ATOM      6  C   UNL     1     -10.002 -13.161  17.590  1.00  0.00     0.053 C 
BRANCH   6   7
ATOM      7  C   UNL     1     -10.706 -14.235  16.819  1.00  0.00     0.041 C 
ATOM      8  O   UNL     1     -10.049 -15.168  16.286  1.00  0.00    -0.550 OA
ATOM      9  O   UNL     1     -12.092 -14.224  16.718  1.00  0.00    -0.550 OA
ENDBRANCH   6   7
ENDBRANCH   5   6
ENDBRANCH   4   5
ENDBRANCH   3   4
ENDBRANCH   2   3
ENDBRANCH   1   2
BRANCH   1  10
ATOM     10  C   UNL     1      -5.844 -10.469  17.417  1.00  0.00     0.000 C 
BRANCH  10  11
ATOM     11  C   UNL     1      -6.596 -11.610  18.121  1.00  0.00    -0.000 C 
BRANCH  11  12
ATOM     12  C   UNL     1      -7.358 -11.137  19.368  1.00  0.00    -0.000 C 
BRANCH  12  13
ATOM     13  C   UNL     1      -7.516  -9.611  19.371  1.00  0.00    -0.000 C 
BRANCH  13  14
ATOM     14  C   UNL     1      -8.985  -9.209  19.573  1.00  0.00    -0.000 C 
BRANCH  14  15
ATOM     15  C   UNL     1      -9.519  -8.332  18.433  1.00  0.00    -0.003 C 
ATOM     16  C   UNL     1      -8.427  -7.494  17.768  1.00  0.00     0.004 C 
ENDBRANCH  14  15
ENDBRANCH  13  14
ENDBRANCH  12  13
ENDBRANCH  11  12
ENDBRANCH  10  11
ENDBRANCH   1  10
TORSDOF 12
ENDMDL
MODEL 8
REMARK VINA RESULT:    -3.729      1.700      3.335
REMARK INTER + INTRA:          -8.158
REMARK INTER:                  -6.500
REMARK INTRA:                  -1.657
REMARK UNBOUND:                -1.812
REMARK SMILES CCCCCCCCCCCCCC(=O)[O-]
REMARK SMILES IDX 8 1 9 2 10 3 11 4 12 5 13 6 14 7 15 8 16 9 7 10 6 11 5 12
REMARK SMILES IDX 4 13 3 14 2 15 1 16
REMARK H PARENT
REMARK Flexibility Score: inf
ROOT
ATOM      1  C   UNL     1     -11.679 -13.292  17.377  1.00  0.00     0.000 C 
ENDROOT
BRANCH   1   2
ATOM      2  C   UNL     1     -10.322 -12.696  17.779  1.00  0.00     0.000 C 
BRANCH   2   3
ATOM      3  C   UNL     1     -10.302 -11.159  17.724  1.00  0.00     0.000 C 
BRANCH   3   4
ATOM      4  C   UNL     1      -8.970 -10.538  17.260  1.00  0.00     0.000 C 
BRANCH   4   5
ATOM      5  C   UNL     1      -9.044  -9.732  15.948  1.00  0.00     0.006 C 
BRANCH   5   6
ATOM      6  C   UNL     1      -8.429  -8.327  16.031  1.00  0.00     0.053 C 
BRANCH   6   7
ATOM      7  C   UNL     1      -6.932  -8.369  15.977  1.00  0.00     0.041 C 
ATOM      8  O   UNL     1      -6.256  -8.224  17.029  1.00  0.00    -0.550 OA
ATOM      9  O   UNL     1      -6.286  -8.599  14.769  1.00  0.00    -0.550 OA
ENDBRANCH   6   7
ENDBRANCH   5   6
ENDBRANCH   4   5
ENDBRANCH   3   4
ENDBRANCH   2   3
ENDBRANCH   1   2
BRANCH   1  10
ATOM     10  C   UNL     1     -11.521 -14.281  16.213  1.00  0.00     0.000 C 
BRANCH  10  11
ATOM     11  C   UNL     1     -12.008 -13.703  14.874  1.00  0.00    -0.000 C 
BRANCH  11  12
ATOM     12  C   UNL     1     -10.929 -13.745  13.783  1.00  0.00    -0.000 C 
BRANCH  12  13
ATOM     13  C   UNL     1      -9.695 -12.931  14.196  1.00  0.00    -0.000 C 
BRANCH  13  14
ATOM     14  C   UNL     1      -8.436 -13.810  14.212  1.00  0.00    -0.000 C 
BRANCH  14  15
ATOM     15  C   UNL     1      -7.569 -13.577  15.458  1.00  0.00    -0.003 C 
ATOM     16  C   UNL     1      -6.534 -12.470  15.262  1.00  0.00     0.004 C 
ENDBRANCH  14  15
ENDBRANCH  13  14
ENDBRANCH  12  13
ENDBRANCH  11  12
ENDBRANCH  10  11
ENDBRANCH   1  10
TORSDOF 12
ENDMDL
MODEL 9
REMARK VINA RESULT:    -3.725      2.683      5.382
REMARK INTER + INTRA:          -8.151
REMARK INTER:                  -6.688
REMARK INTRA:                  -1.464
REMARK UNBOUND:                -1.812
REMARK SMILES CCCCCCCCCCCCCC(=O)[O-]
REMARK SMILES IDX 8 1 9 2 10 3 11 4 12 5 13 6 14 7 15 8 16 9 7 10 6 11 5 12
REMARK SMILES IDX 4 13 3 14 2 15 1 16
REMARK H PARENT
REMARK Flexibility Score: inf
ROOT
ATOM      1  C   UNL     1      -9.739 -10.311  18.055  1.00  0.00     0.000 C 
ENDROOT
BRANCH   1   2
ATOM      2  C   UNL     1      -8.577 -11.223  18.477  1.00  0.00     0.000 C 
BRANCH   2   3
ATOM      3  C   UNL     1      -8.480 -12.501  17.628  1.00  0.00     0.000 C 
BRANCH   3   4
ATOM      4  C   UNL     1      -7.978 -12.293  16.185  1.00  0.00     0.000 C 
BRANCH   4   5
ATOM      5  C   UNL     1      -8.928 -12.797  15.080  1.00  0.00     0.006 C 
BRANCH   5   6
ATOM      6  C   UNL     1     -10.245 -12.015  14.972  1.00  0.00     0.053 C 
BRANCH   6   7
ATOM      7  C   UNL     1     -11.426 -12.853  15.358  1.00  0.00     0.041 C 
ATOM      8  O   UNL     1     -11.862 -12.828  16.539  1.00  0.00    -0.550 OA
ATOM      9  O   UNL     1     -12.064 -13.636  14.405  1.00  0.00    -0.550 OA
ENDBRANCH   6   7
ENDBRANCH   5   6
ENDBRANCH   4   5
ENDBRANCH   3   4
ENDBRANCH   2   3
ENDBRANCH   1   2
BRANCH   1  10
ATOM     10  C   UNL     1      -9.413  -8.838  18.338  1.00  0.00     0.000 C 
BRANCH  10  11
ATOM     11  C   UNL     1      -8.391  -8.257  17.349  1.00  0.00    -0.000 C 
BRANCH  11  12
ATOM     12  C   UNL     1      -8.702  -8.625  15.890  1.00  0.00    -0.000 C 
BRANCH  12  13
ATOM     13  C   UNL     1      -7.420  -8.977  15.126  1.00  0.00    -0.000 C 
BRANCH  13  14
ATOM     14  C   UNL     1      -6.580  -7.721  14.850  1.00  0.00    -0.000 C 
BRANCH  14  15
ATOM     15  C   UNL     1      -6.898  -7.085  13.490  1.00  0.00    -0.003 C 
ATOM     16  C   UNL     1      -7.761  -5.829  13.610  1.00  0.00     0.004 C 
ENDBRANCH  14  15
ENDBRANCH  13  14
ENDBRANCH  12  13
ENDBRANCH  11  12
ENDBRANCH  10  11
ENDBRANCH   1  10
TORSDOF 12
ENDMDL
