MODEL 1
REMARK VINA RESULT:    -3.795      0.000      0.000
REMARK INTER + INTRA:          -4.431
REMARK INTER:                  -4.571
REMARK INTRA:                   0.140
REMARK UNBOUND:                 0.140
REMARK SMILES O=c1c(O)c(-c2ccc(O)c(O)c2)oc2cc(O)cc(O)c12
REMARK SMILES IDX 5 1 3 2 2 3 1 4 22 5 20 6 19 7 17 8 16 9 15 10 14 11 6 12
REMARK SMILES IDX 7 13 8 14 9 15 13 16 11 17 10 18 12 20 4 22 21 24 18 26
REMARK H PARENT 10 19 12 21 4 23 21 25 18 27
REMARK Flexibility Score: inf
ROOT
ATOM      1  C   UNL     1      22.092  44.561  29.908  1.00  0.00     0.180 A 
ATOM      2  C   UNL     1      22.601  45.260  28.797  1.00  0.00     0.208 A 
ATOM      3  C   UNL     1      22.613  44.628  27.545  1.00  0.00     0.238 A 
ATOM      4  O   UNL     1      23.057  45.248  26.540  1.00  0.00    -0.285 OA
ATOM      5  C   UNL     1      22.139  43.306  27.427  1.00  0.00     0.111 A 
ATOM      6  C   UNL     1      22.120  42.596  26.202  1.00  0.00     0.134 A 
ATOM      7  C   UNL     1      21.639  41.277  26.168  1.00  0.00     0.093 A 
ATOM      8  C   UNL     1      21.179  40.658  27.332  1.00  0.00     0.123 A 
ATOM      9  C   UNL     1      21.194  41.354  28.545  1.00  0.00     0.094 A 
ATOM     10  C   UNL     1      21.667  42.668  28.599  1.00  0.00     0.146 A 
ATOM     11  O   UNL     1      21.666  43.310  29.762  1.00  0.00    -0.452 OA
ENDROOT
BRANCH   1  12
ATOM     12  C   UNL     1      22.028  45.166  31.258  1.00  0.00     0.025 A 
ATOM     13  C   UNL     1      23.125  45.899  31.739  1.00  0.00     0.016 A 
ATOM     14  C   UNL     1      23.094  46.461  33.018  1.00  0.00     0.051 A 
ATOM     15  C   UNL     1      21.977  46.288  33.840  1.00  0.00     0.157 A 
ATOM     16  C   UNL     1      20.914  44.974  32.094  1.00  0.00     0.062 A 
ATOM     17  C   UNL     1      20.882  45.537  33.379  1.00  0.00     0.158 A 
BRANCH  15  18
ATOM     18  O   UNL     1      21.974  46.862  35.110  1.00  0.00    -0.504 OA
ATOM     19  H   UNL     1      21.653  47.809  35.272  1.00  0.00     0.293 HD
ENDBRANCH  15  18
BRANCH  17  20
ATOM     20  O   UNL     1      19.771  45.348  34.200  1.00  0.00    -0.504 OA
ATOM     21  H   UNL     1      19.132  44.574  34.058  1.00  0.00     0.293 HD
ENDBRANCH  17  20
ENDBRANCH   1  12
BRANCH   2  22
ATOM     22  O   UNL     1      23.112  46.552  28.951  1.00  0.00    -0.502 OA
ATOM     23  H   UNL     1      23.061  47.246  28.215  1.00  0.00     0.293 HD
ENDBRANCH   2  22
BRANCH   6  24
ATOM     24  O   UNL     1      22.574  43.186  25.022  1.00  0.00    -0.507 OA
ATOM     25  H   UNL     1      22.003  43.216  24.185  1.00  0.00     0.293 HD
ENDBRANCH   6  24
BRANCH   8  26
ATOM     26  O   UNL     1      20.707  39.348  27.272  1.00  0.00    -0.508 OA
ATOM     27  H   UNL     1      19.815  39.125  26.847  1.00  0.00     0.293 HD
ENDBRANCH   8  26
TORSDOF 6
ENDMDL
MODEL 2
REMARK VINA RESULT:    -3.721      1.291      3.060
REMARK INTER + INTRA:          -4.343
REMARK INTER:                  -4.382
REMARK INTRA:                   0.039
REMARK UNBOUND:                 0.140
REMARK SMILES O=c1c(O)c(-c2ccc(O)c(O)c2)oc2cc(O)cc(O)c12
REMARK SMILES IDX 5 1 3 2 2 3 1 4 22 5 20 6 19 7 17 8 16 9 15 10 14 11 6 12
REMARK SMILES IDX 7 13 8 14 9 15 13 16 11 17 10 18 12 20 4 22 21 24 18 26
REMARK H PARENT 10 19 12 21 4 23 21 25 18 27
REMARK Flexibility Score: inf
ROOT
ATOM      1  C   UNL     1      22.069  44.563  29.716  1.00  0.00     0.180 A 
ATOM      2  C   UNL     1      21.798  43.211  29.436  1.00  0.00     0.208 A 
ATOM      3  C   UNL     1      21.869  42.765  28.108  1.00  0.00     0.238 A 
ATOM      4  O   UNL     1      21.639  41.553  27.846  1.00  0.00    -0.285 OA
ATOM      5  C   UNL     1      22.187  43.679  27.082  1.00  0.00     0.111 A 
ATOM      6  C   UNL     1      22.275  43.312  25.718  1.00  0.00     0.134 A 
ATOM      7  C   UNL     1      22.589  44.283  24.754  1.00  0.00     0.093 A 
ATOM      8  C   UNL     1      22.815  45.610  25.128  1.00  0.00     0.123 A 
ATOM      9  C   UNL     1      22.730  45.978  26.474  1.00  0.00     0.094 A 
ATOM     10  C   UNL     1      22.421  45.025  27.450  1.00  0.00     0.146 A 
ATOM     11  O   UNL     1      22.351  45.400  28.722  1.00  0.00    -0.452 OA
ENDROOT
BRANCH   1  12
ATOM     12  C   UNL     1      22.032  45.105  31.094  1.00  0.00     0.025 A 
ATOM     13  C   UNL     1      23.123  45.849  31.572  1.00  0.00     0.016 A 
ATOM     14  C   UNL     1      23.118  46.351  32.876  1.00  0.00     0.051 A 
ATOM     15  C   UNL     1      22.036  46.106  33.725  1.00  0.00     0.157 A 
ATOM     16  C   UNL     1      20.953  44.840  31.956  1.00  0.00     0.062 A 
ATOM     17  C   UNL     1      20.949  45.342  33.267  1.00  0.00     0.158 A 
BRANCH  15  18
ATOM     18  O   UNL     1      22.059  46.622  35.021  1.00  0.00    -0.504 OA
ATOM     19  H   UNL     1      21.717  47.550  35.236  1.00  0.00     0.293 HD
ENDBRANCH  15  18
BRANCH  17  20
ATOM     20  O   UNL     1      19.872  45.081  34.113  1.00  0.00    -0.504 OA
ATOM     21  H   UNL     1      19.059  45.685  34.139  1.00  0.00     0.293 HD
ENDBRANCH  17  20
ENDBRANCH   1  12
BRANCH   2  22
ATOM     22  O   UNL     1      21.435  42.335  30.465  1.00  0.00    -0.502 OA
ATOM     23  H   UNL     1      20.478  42.237  30.781  1.00  0.00     0.293 HD
ENDBRANCH   2  22
BRANCH   6  24
ATOM     24  O   UNL     1      22.053  41.995  25.312  1.00  0.00    -0.507 OA
ATOM     25  H   UNL     1      22.324  41.206  25.888  1.00  0.00     0.293 HD
ENDBRANCH   6  24
BRANCH   8  26
ATOM     26  O   UNL     1      23.124  46.555  24.153  1.00  0.00    -0.508 OA
ATOM     27  H   UNL     1      22.590  46.626  23.295  1.00  0.00     0.293 HD
ENDBRANCH   8  26
TORSDOF 6
ENDMDL
MODEL 3
REMARK VINA RESULT:    -2.511      1.987      2.638
REMARK INTER + INTRA:          -2.885
REMARK INTER:                  -3.165
REMARK INTRA:                   0.280
REMARK UNBOUND:                 0.140
REMARK SMILES O=c1c(O)c(-c2ccc(O)c(O)c2)oc2cc(O)cc(O)c12
REMARK SMILES IDX 5 1 3 2 2 3 1 4 22 5 20 6 19 7 17 8 16 9 15 10 14 11 6 12
REMARK SMILES IDX 7 13 8 14 9 15 13 16 11 17 10 18 12 20 4 22 21 24 18 26
REMARK H PARENT 10 19 12 21 4 23 21 25 18 27
REMARK Flexibility Score: inf
ROOT
ATOM      1  C   UNL     1      22.493  45.488  28.381  1.00  0.00     0.180 A 
ATOM      2  C   UNL     1      22.776  46.678  27.684  1.00  0.00     0.208 A 
ATOM      3  C   UNL     1      22.882  46.637  26.286  1.00  0.00     0.238 A 
ATOM      4  O   UNL     1      23.125  47.699  25.650  1.00  0.00    -0.285 OA
ATOM      5  C   UNL     1      22.724  45.409  25.610  1.00  0.00     0.111 A 
ATOM      6  C   UNL     1      22.819  45.281  24.204  1.00  0.00     0.134 A 
ATOM      7  C   UNL     1      22.657  44.021  23.607  1.00  0.00     0.093 A 
ATOM      8  C   UNL     1      22.404  42.891  24.387  1.00  0.00     0.123 A 
ATOM      9  C   UNL     1      22.308  43.011  25.777  1.00  0.00     0.094 A 
ATOM     10  C   UNL     1      22.464  44.258  26.391  1.00  0.00     0.146 A 
ATOM     11  O   UNL     1      22.364  44.346  27.712  1.00  0.00    -0.452 OA
ENDROOT
BRANCH   1  12
ATOM     12  C   UNL     1      22.347  45.454  29.854  1.00  0.00     0.025 A 
ATOM     13  C   UNL     1      23.125  46.315  30.645  1.00  0.00     0.016 A 
ATOM     14  C   UNL     1      23.019  46.284  32.038  1.00  0.00     0.051 A 
ATOM     15  C   UNL     1      22.149  45.385  32.662  1.00  0.00     0.157 A 
ATOM     16  C   UNL     1      21.489  44.535  30.483  1.00  0.00     0.062 A 
ATOM     17  C   UNL     1      21.383  44.502  31.883  1.00  0.00     0.158 A 
BRANCH  15  18
ATOM     18  O   UNL     1      22.064  45.380  34.054  1.00  0.00    -0.504 OA
ATOM     19  H   UNL     1      21.344  45.891  34.550  1.00  0.00     0.293 HD
ENDBRANCH  15  18
BRANCH  17  20
ATOM     20  O   UNL     1      20.524  43.593  32.499  1.00  0.00    -0.504 OA
ATOM     21  H   UNL     1      19.765  43.900  33.095  1.00  0.00     0.293 HD
ENDBRANCH  17  20
ENDBRANCH   1  12
BRANCH   2  22
ATOM     22  O   UNL     1      22.979  47.873  28.381  1.00  0.00    -0.502 OA
ATOM     23  H   UNL     1      23.288  47.892  29.345  1.00  0.00     0.293 HD
ENDBRANCH   2  22
BRANCH   6  24
ATOM     24  O   UNL     1      23.072  46.391  23.397  1.00  0.00    -0.507 OA
ATOM     25  H   UNL     1      23.675  46.333  22.584  1.00  0.00     0.293 HD
ENDBRANCH   6  24
BRANCH   8  26
ATOM     26  O   UNL     1      22.248  41.651  23.770  1.00  0.00    -0.508 OA
ATOM     27  H   UNL     1      21.582  40.969  24.113  1.00  0.00     0.293 HD
ENDBRANCH   8  26
TORSDOF 6
ENDMDL
MODEL 4
REMARK VINA RESULT:    -0.858      2.016      7.161
REMARK INTER + INTRA:          -0.894
REMARK INTER:                  -1.424
REMARK INTRA:                   0.531
REMARK UNBOUND:                 0.140
REMARK SMILES O=c1c(O)c(-c2ccc(O)c(O)c2)oc2cc(O)cc(O)c12
REMARK SMILES IDX 5 1 3 2 2 3 1 4 22 5 20 6 19 7 17 8 16 9 15 10 14 11 6 12
REMARK SMILES IDX 7 13 8 14 9 15 13 16 11 17 10 18 12 20 4 22 21 24 18 26
REMARK H PARENT 10 19 12 21 4 23 21 25 18 27
REMARK Flexibility Score: inf
ROOT
ATOM      1  C   UNL     1      21.836  43.080  27.551  1.00  0.00     0.180 A 
ATOM      2  C   UNL     1      21.405  41.818  28.002  1.00  0.00     0.208 A 
ATOM      3  C   UNL     1      21.104  41.649  29.361  1.00  0.00     0.238 A 
ATOM      4  O   UNL     1      20.707  40.525  29.774  1.00  0.00    -0.285 OA
ATOM      5  C   UNL     1      21.256  42.733  30.249  1.00  0.00     0.111 A 
ATOM      6  C   UNL     1      20.978  42.646  31.634  1.00  0.00     0.134 A 
ATOM      7  C   UNL     1      21.163  43.769  32.454  1.00  0.00     0.093 A 
ATOM      8  C   UNL     1      21.621  44.975  31.918  1.00  0.00     0.123 A 
ATOM      9  C   UNL     1      21.897  45.068  30.550  1.00  0.00     0.094 A 
ATOM     10  C   UNL     1      21.717  43.960  29.716  1.00  0.00     0.146 A 
ATOM     11  O   UNL     1      21.982  44.076  28.419  1.00  0.00    -0.452 OA
ENDROOT
BRANCH   1  12
ATOM     12  C   UNL     1      22.155  43.342  26.129  1.00  0.00     0.025 A 
ATOM     13  C   UNL     1      22.187  42.273  25.220  1.00  0.00     0.016 A 
ATOM     14  C   UNL     1      22.506  42.495  23.878  1.00  0.00     0.051 A 
ATOM     15  C   UNL     1      22.812  43.782  23.427  1.00  0.00     0.157 A 
ATOM     16  C   UNL     1      22.484  44.633  25.679  1.00  0.00     0.062 A 
ATOM     17  C   UNL     1      22.806  44.858  24.331  1.00  0.00     0.158 A 
BRANCH  15  18
ATOM     18  O   UNL     1      23.125  43.972  22.081  1.00  0.00    -0.504 OA
ATOM     19  H   UNL     1      22.911  44.836  21.597  1.00  0.00     0.293 HD
ENDBRANCH  15  18
BRANCH  17  20
ATOM     20  O   UNL     1      23.125  46.141  23.891  1.00  0.00    -0.504 OA
ATOM     21  H   UNL     1      22.923  46.443  22.946  1.00  0.00     0.293 HD
ENDBRANCH  17  20
ENDBRANCH   1  12
BRANCH   2  22
ATOM     22  O   UNL     1      21.310  40.745  27.110  1.00  0.00    -0.502 OA
ATOM     23  H   UNL     1      21.706  40.778  26.178  1.00  0.00     0.293 HD
ENDBRANCH   2  22
BRANCH   6  24
ATOM     24  O   UNL     1      20.520  41.455  32.201  1.00  0.00    -0.507 OA
ATOM     25  H   UNL     1      20.980  40.569  32.025  1.00  0.00     0.293 HD
ENDBRANCH   6  24
BRANCH   8  26
ATOM     26  O   UNL     1      21.797  46.075  32.753  1.00  0.00    -0.508 OA
ATOM     27  H   UNL     1      22.530  46.097  33.454  1.00  0.00     0.293 HD
ENDBRANCH   8  26
TORSDOF 6
ENDMDL
