MODEL 1
REMARK VINA RESULT:    -6.046      0.000      0.000
REMARK INTER + INTRA:         -10.239
REMARK INTER:                  -8.696
REMARK INTRA:                  -1.543
REMARK UNBOUND:                -1.543
REMARK SMILES O=c1c(O[C@H]2O[C@H](CO)[C@H](O)[C@@H](O)[C@H]2O)c(-c2ccc(O)cc2)oc2cc(O)cc(O)c12
REMARK SMILES IDX 4 1 3 2 16 3 24 4 2 5 25 6 1 7 32 8 26 9 30 10 27 11 29 12
REMARK SMILES IDX 17 13 18 14 19 15 20 16 23 17 22 18 21 19 31 21 28 23 5 25
REMARK SMILES IDX 14 26 6 27 12 28 7 29 10 30 15 31 13 33 8 35 9 36 11 38
REMARK H PARENT 21 20 31 22 28 24 15 32 13 34 9 37 11 39
REMARK Flexibility Score: inf
ROOT
ATOM      1  O   UNL     1      15.098  -7.042 -12.590  1.00  0.00    -0.454 OA
ENDROOT
BRANCH   1   2
ATOM      2  C   UNL     1      13.907  -6.920 -11.853  1.00  0.00     0.214 A 
ATOM      3  C   UNL     1      13.622  -5.693 -11.224  1.00  0.00     0.180 A 
ATOM      4  O   UNL     1      12.539  -5.566 -10.462  1.00  0.00    -0.452 OA
ATOM      5  C   UNL     1      12.990  -7.980 -11.702  1.00  0.00     0.239 A 
ATOM      6  C   UNL     1      11.661  -6.543 -10.279  1.00  0.00     0.146 A 
ATOM      7  O   UNL     1      13.191  -9.076 -12.290  1.00  0.00    -0.285 OA
ATOM      8  C   UNL     1      11.839  -7.800 -10.907  1.00  0.00     0.111 A 
ATOM      9  C   UNL     1      10.555  -6.317  -9.455  1.00  0.00     0.094 A 
ATOM     10  C   UNL     1      10.871  -8.815 -10.705  1.00  0.00     0.134 A 
ATOM     11  C   UNL     1       9.605  -7.322  -9.253  1.00  0.00     0.123 A 
ATOM     12  C   UNL     1       9.764  -8.564  -9.880  1.00  0.00     0.093 A 
BRANCH   3  13
ATOM     13  C   UNL     1      14.523  -4.525 -11.347  1.00  0.00     0.021 A 
ATOM     14  C   UNL     1      14.382  -3.599 -12.396  1.00  0.00     0.016 A 
ATOM     15  C   UNL     1      15.246  -2.505 -12.494  1.00  0.00     0.047 A 
ATOM     16  C   UNL     1      16.261  -2.323 -11.546  1.00  0.00     0.115 A 
ATOM     17  C   UNL     1      15.521  -4.315 -10.377  1.00  0.00     0.016 A 
ATOM     18  C   UNL     1      16.390  -3.228 -10.484  1.00  0.00     0.047 A 
BRANCH  16  19
ATOM     19  O   UNL     1      17.140  -1.248 -11.642  1.00  0.00    -0.508 OA
ATOM     20  H   UNL     1      18.140  -1.388 -11.727  1.00  0.00     0.293 HD
ENDBRANCH  16  19
ENDBRANCH   3  13
BRANCH  10  21
ATOM     21  O   UNL     1      10.997 -10.063 -11.320  1.00  0.00    -0.507 OA
ATOM     22  H   UNL     1      11.567 -10.800 -10.921  1.00  0.00     0.293 HD
ENDBRANCH  10  21
BRANCH  11  23
ATOM     23  O   UNL     1       8.507  -7.076  -8.432  1.00  0.00    -0.508 OA
ATOM     24  H   UNL     1       7.587  -7.431  -8.662  1.00  0.00     0.293 HD
ENDBRANCH  11  23
ENDBRANCH   1   2
BRANCH   1  25
ATOM     25  C   UNL     1      15.186  -7.242 -14.003  1.00  0.00     0.339 C 
ATOM     26  C   UNL     1      16.043  -8.515 -14.278  1.00  0.00     0.214 C 
ATOM     27  O   UNL     1      15.719  -6.056 -14.590  1.00  0.00    -0.332 OA
ATOM     28  C   UNL     1      17.471  -8.129 -14.689  1.00  0.00     0.180 C 
ATOM     29  C   UNL     1      16.199  -6.245 -15.912  1.00  0.00     0.179 C 
ATOM     30  C   UNL     1      17.427  -7.205 -15.931  1.00  0.00     0.177 C 
BRANCH  26  31
ATOM     31  O   UNL     1      16.087  -9.365 -13.160  1.00  0.00    -0.384 OA
ATOM     32  H   UNL     1      15.255  -9.905 -13.178  1.00  0.00     0.211 HD
ENDBRANCH  26  31
BRANCH  28  33
ATOM     33  O   UNL     1      18.104  -7.458 -13.627  1.00  0.00    -0.387 OA
ATOM     34  H   UNL     1      18.276  -8.129 -12.914  1.00  0.00     0.211 HD
ENDBRANCH  28  33
BRANCH  29  35
ATOM     35  C   UNL     1      15.063  -6.595 -16.902  1.00  0.00     0.191 C 
BRANCH  35  36
ATOM     36  O   UNL     1      15.464  -6.278 -18.206  1.00  0.00    -0.394 OA
ATOM     37  H   UNL     1      16.456  -6.225 -18.191  1.00  0.00     0.210 HD
ENDBRANCH  35  36
ENDBRANCH  29  35
BRANCH  30  38
ATOM     38  O   UNL     1      17.511  -7.937 -17.132  1.00  0.00    -0.387 OA
ATOM     39  H   UNL     1      16.888  -8.707 -17.069  1.00  0.00     0.211 HD
ENDBRANCH  30  38
ENDBRANCH   1  25
TORSDOF 11
ENDMDL
MODEL 2
REMARK VINA RESULT:    -5.883      4.114      8.726
REMARK INTER + INTRA:         -10.006
REMARK INTER:                  -8.413
REMARK INTRA:                  -1.593
REMARK UNBOUND:                -1.543
REMARK SMILES O=c1c(O[C@H]2O[C@H](CO)[C@H](O)[C@@H](O)[C@H]2O)c(-c2ccc(O)cc2)oc2cc(O)cc(O)c12
REMARK SMILES IDX 4 1 3 2 16 3 24 4 2 5 25 6 1 7 32 8 26 9 30 10 27 11 29 12
REMARK SMILES IDX 17 13 18 14 19 15 20 16 23 17 22 18 21 19 31 21 28 23 5 25
REMARK SMILES IDX 14 26 6 27 12 28 7 29 10 30 15 31 13 33 8 35 9 36 11 38
REMARK H PARENT 21 20 31 22 28 24 15 32 13 34 9 37 11 39
REMARK Flexibility Score: inf
ROOT
ATOM      1  O   UNL     1      15.452  -1.284 -11.066  1.00  0.00    -0.454 OA
ENDROOT
BRANCH   1   2
ATOM      2  C   UNL     1      16.709  -1.530 -10.487  1.00  0.00     0.214 A 
ATOM      3  C   UNL     1      17.461  -2.631 -10.942  1.00  0.00     0.180 A 
ATOM      4  O   UNL     1      18.621  -2.933 -10.366  1.00  0.00    -0.452 OA
ATOM      5  C   UNL     1      17.245  -0.733  -9.455  1.00  0.00     0.239 A 
ATOM      6  C   UNL     1      19.152  -2.220  -9.382  1.00  0.00     0.146 A 
ATOM      7  O   UNL     1      16.620   0.286  -9.056  1.00  0.00    -0.285 OA
ATOM      8  C   UNL     1      18.491  -1.071  -8.887  1.00  0.00     0.111 A 
ATOM      9  C   UNL     1      20.375  -2.621  -8.836  1.00  0.00     0.094 A 
ATOM     10  C   UNL     1      19.096  -0.321  -7.848  1.00  0.00     0.134 A 
ATOM     11  C   UNL     1      20.966  -1.882  -7.808  1.00  0.00     0.123 A 
ATOM     12  C   UNL     1      20.329  -0.736  -7.320  1.00  0.00     0.093 A 
BRANCH   3  13
ATOM     13  C   UNL     1      16.979  -3.508 -12.032  1.00  0.00     0.021 A 
ATOM     14  C   UNL     1      17.334  -3.271 -13.372  1.00  0.00     0.016 A 
ATOM     15  C   UNL     1      16.864  -4.111 -14.387  1.00  0.00     0.047 A 
ATOM     16  C   UNL     1      16.036  -5.196 -14.074  1.00  0.00     0.115 A 
ATOM     17  C   UNL     1      16.177  -4.622 -11.722  1.00  0.00     0.016 A 
ATOM     18  C   UNL     1      15.700  -5.452 -12.738  1.00  0.00     0.047 A 
BRANCH  16  19
ATOM     19  O   UNL     1      15.546  -6.029 -15.076  1.00  0.00    -0.508 OA
ATOM     20  H   UNL     1      14.770  -5.749 -15.665  1.00  0.00     0.293 HD
ENDBRANCH  16  19
ENDBRANCH   3  13
BRANCH  10  21
ATOM     21  O   UNL     1      18.488   0.831  -7.342  1.00  0.00    -0.507 OA
ATOM     22  H   UNL     1      18.997   1.498  -6.774  1.00  0.00     0.293 HD
ENDBRANCH  10  21
BRANCH  11  23
ATOM     23  O   UNL     1      22.189  -2.294  -7.280  1.00  0.00    -0.508 OA
ATOM     24  H   UNL     1      22.242  -3.029  -6.585  1.00  0.00     0.293 HD
ENDBRANCH  11  23
ENDBRANCH   1   2
BRANCH   1  25
ATOM     25  C   UNL     1      15.155  -0.237 -11.994  1.00  0.00     0.339 C 
ATOM     26  C   UNL     1      13.892   0.532 -11.496  1.00  0.00     0.214 C 
ATOM     27  O   UNL     1      14.997  -0.819 -13.287  1.00  0.00    -0.332 OA
ATOM     28  C   UNL     1      12.646   0.089 -12.274  1.00  0.00     0.180 C 
ATOM     29  C   UNL     1      14.346   0.035 -14.216  1.00  0.00     0.179 C 
ATOM     30  C   UNL     1      12.870   0.304 -13.791  1.00  0.00     0.177 C 
BRANCH  26  31
ATOM     31  O   UNL     1      13.680   0.349 -10.120  1.00  0.00    -0.384 OA
ATOM     32  H   UNL     1      14.130   1.103  -9.657  1.00  0.00     0.211 HD
ENDBRANCH  26  31
BRANCH  28  33
ATOM     33  O   UNL     1      12.392  -1.273 -12.027  1.00  0.00    -0.387 OA
ATOM     34  H   UNL     1      13.210  -1.655 -11.610  1.00  0.00     0.211 HD
ENDBRANCH  28  33
BRANCH  29  35
ATOM     35  C   UNL     1      15.186   1.292 -14.543  1.00  0.00     0.191 C 
BRANCH  35  36
ATOM     36  O   UNL     1      14.807   1.797 -15.794  1.00  0.00    -0.394 OA
ATOM     37  H   UNL     1      15.587   1.669 -16.397  1.00  0.00     0.210 HD
ENDBRANCH  35  36
ENDBRANCH  29  35
BRANCH  30  38
ATOM     38  O   UNL     1      12.418   1.570 -14.213  1.00  0.00    -0.387 OA
ATOM     39  H   UNL     1      13.045   2.256 -13.862  1.00  0.00     0.211 HD
ENDBRANCH  30  38
ENDBRANCH   1  25
TORSDOF 11
ENDMDL
MODEL 3
REMARK VINA RESULT:    -5.843      3.919      6.524
REMARK INTER + INTRA:          -9.948
REMARK INTER:                  -8.713
REMARK INTRA:                  -1.236
REMARK UNBOUND:                -1.543
REMARK SMILES O=c1c(O[C@H]2O[C@H](CO)[C@H](O)[C@@H](O)[C@H]2O)c(-c2ccc(O)cc2)oc2cc(O)cc(O)c12
REMARK SMILES IDX 4 1 3 2 16 3 24 4 2 5 25 6 1 7 32 8 26 9 30 10 27 11 29 12
REMARK SMILES IDX 17 13 18 14 19 15 20 16 23 17 22 18 21 19 31 21 28 23 5 25
REMARK SMILES IDX 14 26 6 27 12 28 7 29 10 30 15 31 13 33 8 35 9 36 11 38
REMARK H PARENT 21 20 31 22 28 24 15 32 13 34 9 37 11 39
REMARK Flexibility Score: inf
ROOT
ATOM      1  O   UNL     1      15.584  -3.416 -12.295  1.00  0.00    -0.454 OA
ENDROOT
BRANCH   1   2
ATOM      2  C   UNL     1      16.392  -2.689 -11.403  1.00  0.00     0.214 A 
ATOM      3  C   UNL     1      16.700  -1.349 -11.708  1.00  0.00     0.180 A 
ATOM      4  O   UNL     1      17.519  -0.655 -10.922  1.00  0.00    -0.452 OA
ATOM      5  C   UNL     1      16.924  -3.248 -10.223  1.00  0.00     0.239 A 
ATOM      6  C   UNL     1      18.054  -1.148  -9.813  1.00  0.00     0.146 A 
ATOM      7  O   UNL     1      16.631  -4.430  -9.898  1.00  0.00    -0.285 OA
ATOM      8  C   UNL     1      17.768  -2.472  -9.402  1.00  0.00     0.111 A 
ATOM      9  C   UNL     1      18.909  -0.343  -9.055  1.00  0.00     0.094 A 
ATOM     10  C   UNL     1      18.342  -2.961  -8.202  1.00  0.00     0.134 A 
ATOM     11  C   UNL     1      19.478  -0.830  -7.875  1.00  0.00     0.123 A 
ATOM     12  C   UNL     1      19.191  -2.133  -7.451  1.00  0.00     0.093 A 
BRANCH   3  13
ATOM     13  C   UNL     1      16.169  -0.681 -12.917  1.00  0.00     0.021 A 
ATOM     14  C   UNL     1      16.956  -0.522 -14.070  1.00  0.00     0.016 A 
ATOM     15  C   UNL     1      16.435   0.116 -15.200  1.00  0.00     0.047 A 
ATOM     16  C   UNL     1      15.121   0.601 -15.190  1.00  0.00     0.115 A 
ATOM     17  C   UNL     1      14.838  -0.224 -12.926  1.00  0.00     0.016 A 
ATOM     18  C   UNL     1      14.323   0.422 -14.052  1.00  0.00     0.047 A 
BRANCH  16  19
ATOM     19  O   UNL     1      14.595   1.253 -16.301  1.00  0.00    -0.508 OA
ATOM     20  H   UNL     1      13.883   0.824 -16.880  1.00  0.00     0.293 HD
ENDBRANCH  16  19
ENDBRANCH   3  13
BRANCH  10  21
ATOM     21  O   UNL     1      18.072  -4.255  -7.748  1.00  0.00    -0.507 OA
ATOM     22  H   UNL     1      18.020  -4.475  -6.761  1.00  0.00     0.293 HD
ENDBRANCH  10  21
BRANCH  11  23
ATOM     23  O   UNL     1      20.323  -0.011  -7.130  1.00  0.00    -0.508 OA
ATOM     24  H   UNL     1      20.009   0.433  -6.275  1.00  0.00     0.293 HD
ENDBRANCH  11  23
ENDBRANCH   1   2
BRANCH   1  25
ATOM     25  C   UNL     1      16.026  -4.026 -13.510  1.00  0.00     0.339 C 
ATOM     26  C   UNL     1      15.667  -5.543 -13.472  1.00  0.00     0.214 C 
ATOM     27  O   UNL     1      17.424  -3.773 -13.653  1.00  0.00    -0.332 OA
ATOM     28  C   UNL     1      16.902  -6.383 -13.118  1.00  0.00     0.180 C 
ATOM     29  C   UNL     1      18.057  -4.616 -14.603  1.00  0.00     0.179 C 
ATOM     30  C   UNL     1      18.037  -6.103 -14.133  1.00  0.00     0.177 C 
BRANCH  26  31
ATOM     31  O   UNL     1      14.635  -5.810 -12.557  1.00  0.00    -0.384 OA
ATOM     32  H   UNL     1      13.900  -5.175 -12.761  1.00  0.00     0.211 HD
ENDBRANCH  26  31
BRANCH  28  33
ATOM     33  O   UNL     1      17.341  -6.057 -11.821  1.00  0.00    -0.387 OA
ATOM     34  H   UNL     1      17.619  -6.904 -11.382  1.00  0.00     0.211 HD
ENDBRANCH  28  33
BRANCH  29  35
ATOM     35  C   UNL     1      17.549  -4.364 -16.042  1.00  0.00     0.191 C 
BRANCH  35  36
ATOM     36  O   UNL     1      18.418  -4.969 -16.959  1.00  0.00    -0.394 OA
ATOM     37  H   UNL     1      19.166  -4.330 -17.100  1.00  0.00     0.210 HD
ENDBRANCH  35  36
ENDBRANCH  29  35
BRANCH  30  38
ATOM     38  O   UNL     1      18.003  -7.002 -15.217  1.00  0.00    -0.387 OA
ATOM     39  H   UNL     1      18.897  -7.428 -15.294  1.00  0.00     0.211 HD
ENDBRANCH  30  38
ENDBRANCH   1  25
TORSDOF 11
ENDMDL
MODEL 4
REMARK VINA RESULT:    -5.818      5.893      9.465
REMARK INTER + INTRA:          -9.912
REMARK INTER:                  -8.289
REMARK INTRA:                  -1.623
REMARK UNBOUND:                -1.543
REMARK SMILES O=c1c(O[C@H]2O[C@H](CO)[C@H](O)[C@@H](O)[C@H]2O)c(-c2ccc(O)cc2)oc2cc(O)cc(O)c12
REMARK SMILES IDX 4 1 3 2 16 3 24 4 2 5 25 6 1 7 32 8 26 9 30 10 27 11 29 12
REMARK SMILES IDX 17 13 18 14 19 15 20 16 23 17 22 18 21 19 31 21 28 23 5 25
REMARK SMILES IDX 14 26 6 27 12 28 7 29 10 30 15 31 13 33 8 35 9 36 11 38
REMARK H PARENT 21 20 31 22 28 24 15 32 13 34 9 37 11 39
REMARK Flexibility Score: inf
ROOT
ATOM      1  O   UNL     1      17.098   0.767 -10.099  1.00  0.00    -0.454 OA
ENDROOT
BRANCH   1   2
ATOM      2  C   UNL     1      16.355   1.538  -9.189  1.00  0.00     0.214 A 
ATOM      3  C   UNL     1      17.043   2.364  -8.279  1.00  0.00     0.180 A 
ATOM      4  O   UNL     1      16.372   3.052  -7.359  1.00  0.00    -0.452 OA
ATOM      5  C   UNL     1      14.946   1.509  -9.134  1.00  0.00     0.239 A 
ATOM      6  C   UNL     1      15.050   3.038  -7.262  1.00  0.00     0.146 A 
ATOM      7  O   UNL     1      14.297   0.817  -9.964  1.00  0.00    -0.285 OA
ATOM      8  C   UNL     1      14.269   2.272  -8.160  1.00  0.00     0.111 A 
ATOM      9  C   UNL     1      14.435   3.790  -6.257  1.00  0.00     0.094 A 
ATOM     10  C   UNL     1      12.857   2.296  -8.040  1.00  0.00     0.134 A 
ATOM     11  C   UNL     1      13.042   3.807  -6.137  1.00  0.00     0.123 A 
ATOM     12  C   UNL     1      12.260   3.064  -7.029  1.00  0.00     0.093 A 
BRANCH   3  13
ATOM     13  C   UNL     1      18.520   2.466  -8.281  1.00  0.00     0.021 A 
ATOM     14  C   UNL     1      19.189   3.369  -9.126  1.00  0.00     0.016 A 
ATOM     15  C   UNL     1      20.585   3.446  -9.114  1.00  0.00     0.047 A 
ATOM     16  C   UNL     1      21.328   2.623  -8.257  1.00  0.00     0.115 A 
ATOM     17  C   UNL     1      19.270   1.668  -7.397  1.00  0.00     0.016 A 
ATOM     18  C   UNL     1      20.664   1.740  -7.395  1.00  0.00     0.047 A 
BRANCH  16  19
ATOM     19  O   UNL     1      22.718   2.676  -8.248  1.00  0.00    -0.508 OA
ATOM     20  H   UNL     1      23.279   1.948  -8.674  1.00  0.00     0.293 HD
ENDBRANCH  16  19
ENDBRANCH   3  13
BRANCH  10  21
ATOM     21  O   UNL     1      12.046   1.570  -8.917  1.00  0.00    -0.507 OA
ATOM     22  H   UNL     1      11.440   2.028  -9.586  1.00  0.00     0.293 HD
ENDBRANCH  10  21
BRANCH  11  23
ATOM     23  O   UNL     1      12.448   4.567  -5.132  1.00  0.00    -0.508 OA
ATOM     24  H   UNL     1      12.999   4.995  -4.399  1.00  0.00     0.293 HD
ENDBRANCH  11  23
ENDBRANCH   1   2
BRANCH   1  25
ATOM     25  C   UNL     1      17.595  -0.552  -9.860  1.00  0.00     0.339 C 
ATOM     26  C   UNL     1      17.530  -1.363 -11.190  1.00  0.00     0.214 C 
ATOM     27  O   UNL     1      16.834  -1.130  -8.800  1.00  0.00    -0.332 OA
ATOM     28  C   UNL     1      16.313  -2.298 -11.195  1.00  0.00     0.180 C 
ATOM     29  C   UNL     1      16.969  -2.540  -8.711  1.00  0.00     0.179 C 
ATOM     30  C   UNL     1      16.371  -3.241  -9.968  1.00  0.00     0.177 C 
BRANCH  26  31
ATOM     31  O   UNL     1      17.482  -0.519 -12.313  1.00  0.00    -0.384 OA
ATOM     32  H   UNL     1      18.421  -0.313 -12.557  1.00  0.00     0.211 HD
ENDBRANCH  26  31
BRANCH  28  33
ATOM     33  O   UNL     1      15.130  -1.538 -11.147  1.00  0.00    -0.387 OA
ATOM     34  H   UNL     1      14.735  -1.548 -12.059  1.00  0.00     0.211 HD
ENDBRANCH  28  33
BRANCH  29  35
ATOM     35  C   UNL     1      18.406  -2.968  -8.328  1.00  0.00     0.191 C 
BRANCH  35  36
ATOM     36  O   UNL     1      18.355  -4.107  -7.514  1.00  0.00    -0.394 OA
ATOM     37  H   UNL     1      18.961  -3.931  -6.746  1.00  0.00     0.210 HD
ENDBRANCH  35  36
ENDBRANCH  29  35
BRANCH  30  38
ATOM     38  O   UNL     1      17.030  -4.450 -10.267  1.00  0.00    -0.387 OA
ATOM     39  H   UNL     1      16.883  -5.078  -9.511  1.00  0.00     0.211 HD
ENDBRANCH  30  38
ENDBRANCH   1  25
TORSDOF 11
ENDMDL
MODEL 5
REMARK VINA RESULT:    -5.620      6.115     10.623
REMARK INTER + INTRA:          -9.628
REMARK INTER:                  -8.239
REMARK INTRA:                  -1.389
REMARK UNBOUND:                -1.543
REMARK SMILES O=c1c(O[C@H]2O[C@H](CO)[C@H](O)[C@@H](O)[C@H]2O)c(-c2ccc(O)cc2)oc2cc(O)cc(O)c12
REMARK SMILES IDX 4 1 3 2 16 3 24 4 2 5 25 6 1 7 32 8 26 9 30 10 27 11 29 12
REMARK SMILES IDX 17 13 18 14 19 15 20 16 23 17 22 18 21 19 31 21 28 23 5 25
REMARK SMILES IDX 14 26 6 27 12 28 7 29 10 30 15 31 13 33 8 35 9 36 11 38
REMARK H PARENT 21 20 31 22 28 24 15 32 13 34 9 37 11 39
REMARK Flexibility Score: inf
ROOT
ATOM      1  O   UNL     1      18.774   0.624 -13.085  1.00  0.00    -0.454 OA
ENDROOT
BRANCH   1   2
ATOM      2  C   UNL     1      18.801   0.399 -14.472  1.00  0.00     0.214 A 
ATOM      3  C   UNL     1      17.667  -0.165 -15.089  1.00  0.00     0.180 A 
ATOM      4  O   UNL     1      17.686  -0.456 -16.387  1.00  0.00    -0.452 OA
ATOM      5  C   UNL     1      19.921   0.698 -15.274  1.00  0.00     0.239 A 
ATOM      6  C   UNL     1      18.725  -0.207 -17.173  1.00  0.00     0.146 A 
ATOM      7  O   UNL     1      20.934   1.246 -14.763  1.00  0.00    -0.285 OA
ATOM      8  C   UNL     1      19.893   0.399 -16.652  1.00  0.00     0.111 A 
ATOM      9  C   UNL     1      18.652  -0.555 -18.525  1.00  0.00     0.094 A 
ATOM     10  C   UNL     1      20.978   0.667 -17.525  1.00  0.00     0.134 A 
ATOM     11  C   UNL     1      19.726  -0.294 -19.381  1.00  0.00     0.123 A 
ATOM     12  C   UNL     1      20.881   0.318 -18.880  1.00  0.00     0.093 A 
BRANCH   3  13
ATOM     13  C   UNL     1      16.443  -0.493 -14.323  1.00  0.00     0.021 A 
ATOM     14  C   UNL     1      15.407   0.444 -14.166  1.00  0.00     0.016 A 
ATOM     15  C   UNL     1      14.261   0.115 -13.435  1.00  0.00     0.047 A 
ATOM     16  C   UNL     1      14.138  -1.154 -12.854  1.00  0.00     0.115 A 
ATOM     17  C   UNL     1      16.297  -1.778 -13.769  1.00  0.00     0.016 A 
ATOM     18  C   UNL     1      15.157  -2.101 -13.030  1.00  0.00     0.047 A 
BRANCH  16  19
ATOM     19  O   UNL     1      13.012  -1.489 -12.109  1.00  0.00    -0.508 OA
ATOM     20  H   UNL     1      12.211  -0.871 -12.053  1.00  0.00     0.293 HD
ENDBRANCH  16  19
ENDBRANCH   3  13
BRANCH  10  21
ATOM     21  O   UNL     1      22.143   1.281 -17.057  1.00  0.00    -0.507 OA
ATOM     22  H   UNL     1      22.303   2.275 -17.167  1.00  0.00     0.293 HD
ENDBRANCH  10  21
BRANCH  11  23
ATOM     23  O   UNL     1      19.633  -0.642 -20.727  1.00  0.00    -0.508 OA
ATOM     24  H   UNL     1      20.062  -1.487 -21.083  1.00  0.00     0.293 HD
ENDBRANCH  11  23
ENDBRANCH   1   2
BRANCH   1  25
ATOM     25  C   UNL     1      18.962  -0.372 -12.077  1.00  0.00     0.339 C 
ATOM     26  C   UNL     1      18.133   0.024 -10.817  1.00  0.00     0.214 C 
ATOM     27  O   UNL     1      20.362  -0.494 -11.825  1.00  0.00    -0.332 OA
ATOM     28  C   UNL     1      19.039   0.647  -9.747  1.00  0.00     0.180 C 
ATOM     29  C   UNL     1      20.662  -1.164 -10.611  1.00  0.00     0.179 C 
ATOM     30  C   UNL     1      20.175  -0.339  -9.381  1.00  0.00     0.177 C 
BRANCH  26  31
ATOM     31  O   UNL     1      17.096   0.916 -11.136  1.00  0.00    -0.384 OA
ATOM     32  H   UNL     1      16.630   0.542 -11.928  1.00  0.00     0.211 HD
ENDBRANCH  26  31
BRANCH  28  33
ATOM     33  O   UNL     1      19.596   1.844 -10.235  1.00  0.00    -0.387 OA
ATOM     34  H   UNL     1      19.967   2.337  -9.456  1.00  0.00     0.211 HD
ENDBRANCH  28  33
BRANCH  29  35
ATOM     35  C   UNL     1      20.223  -2.647 -10.636  1.00  0.00     0.191 C 
BRANCH  35  36
ATOM     36  O   UNL     1      20.996  -3.381  -9.727  1.00  0.00    -0.394 OA
ATOM     37  H   UNL     1      20.813  -4.340  -9.912  1.00  0.00     0.210 HD
ENDBRANCH  35  36
ENDBRANCH  29  35
BRANCH  30  38
ATOM     38  O   UNL     1      19.823  -1.164  -8.294  1.00  0.00    -0.387 OA
ATOM     39  H   UNL     1      18.986  -0.809  -7.894  1.00  0.00     0.211 HD
ENDBRANCH  30  38
ENDBRANCH   1  25
TORSDOF 11
ENDMDL
MODEL 6
REMARK VINA RESULT:    -5.601      4.694      7.220
REMARK INTER + INTRA:          -9.599
REMARK INTER:                  -8.200
REMARK INTRA:                  -1.399
REMARK UNBOUND:                -1.543
REMARK SMILES O=c1c(O[C@H]2O[C@H](CO)[C@H](O)[C@@H](O)[C@H]2O)c(-c2ccc(O)cc2)oc2cc(O)cc(O)c12
REMARK SMILES IDX 4 1 3 2 16 3 24 4 2 5 25 6 1 7 32 8 26 9 30 10 27 11 29 12
REMARK SMILES IDX 17 13 18 14 19 15 20 16 23 17 22 18 21 19 31 21 28 23 5 25
REMARK SMILES IDX 14 26 6 27 12 28 7 29 10 30 15 31 13 33 8 35 9 36 11 38
REMARK H PARENT 21 20 31 22 28 24 15 32 13 34 9 37 11 39
REMARK Flexibility Score: inf
ROOT
ATOM      1  O   UNL     1      17.049  -2.102 -13.872  1.00  0.00    -0.454 OA
ENDROOT
BRANCH   1   2
ATOM      2  C   UNL     1      16.159  -1.024 -14.021  1.00  0.00     0.214 A 
ATOM      3  C   UNL     1      16.515   0.036 -14.877  1.00  0.00     0.180 A 
ATOM      4  O   UNL     1      15.728   1.103 -14.986  1.00  0.00    -0.452 OA
ATOM      5  C   UNL     1      14.929  -0.947 -13.336  1.00  0.00     0.239 A 
ATOM      6  C   UNL     1      14.573   1.222 -14.346  1.00  0.00     0.146 A 
ATOM      7  O   UNL     1      14.558  -1.899 -12.598  1.00  0.00    -0.285 OA
ATOM      8  C   UNL     1      14.109   0.189 -13.496  1.00  0.00     0.111 A 
ATOM      9  C   UNL     1      13.817   2.386 -14.518  1.00  0.00     0.094 A 
ATOM     10  C   UNL     1      12.861   0.342 -12.842  1.00  0.00     0.134 A 
ATOM     11  C   UNL     1      12.589   2.535 -13.868  1.00  0.00     0.123 A 
ATOM     12  C   UNL     1      12.115   1.514 -13.036  1.00  0.00     0.093 A 
BRANCH   3  13
ATOM     13  C   UNL     1      17.779   0.026 -15.647  1.00  0.00     0.021 A 
ATOM     14  C   UNL     1      17.908  -0.718 -16.833  1.00  0.00     0.016 A 
ATOM     15  C   UNL     1      19.113  -0.716 -17.542  1.00  0.00     0.047 A 
ATOM     16  C   UNL     1      20.202   0.031 -17.075  1.00  0.00     0.115 A 
ATOM     17  C   UNL     1      18.865   0.804 -15.204  1.00  0.00     0.016 A 
ATOM     18  C   UNL     1      20.071   0.796 -15.908  1.00  0.00     0.047 A 
BRANCH  16  19
ATOM     19  O   UNL     1      21.412   0.028 -17.761  1.00  0.00    -0.508 OA
ATOM     20  H   UNL     1      22.249   0.437 -17.361  1.00  0.00     0.293 HD
ENDBRANCH  16  19
ENDBRANCH   3  13
BRANCH  10  21
ATOM     21  O   UNL     1      12.356  -0.661 -12.009  1.00  0.00    -0.507 OA
ATOM     22  H   UNL     1      12.966  -1.292 -11.504  1.00  0.00     0.293 HD
ENDBRANCH  10  21
BRANCH  11  23
ATOM     23  O   UNL     1      11.848   3.700 -14.057  1.00  0.00    -0.508 OA
ATOM     24  H   UNL     1      11.732   4.377 -13.314  1.00  0.00     0.293 HD
ENDBRANCH  11  23
ENDBRANCH   1   2
BRANCH   1  25
ATOM     25  C   UNL     1      16.823  -3.436 -14.333  1.00  0.00     0.339 C 
ATOM     26  C   UNL     1      16.766  -4.391 -13.101  1.00  0.00     0.214 C 
ATOM     27  O   UNL     1      17.851  -3.767 -15.265  1.00  0.00    -0.332 OA
ATOM     28  C   UNL     1      18.094  -5.143 -12.937  1.00  0.00     0.180 C 
ATOM     29  C   UNL     1      17.963  -5.160 -15.515  1.00  0.00     0.179 C 
ATOM     30  C   UNL     1      18.419  -5.923 -14.234  1.00  0.00     0.177 C 
BRANCH  26  31
ATOM     31  O   UNL     1      16.468  -3.696 -11.917  1.00  0.00    -0.384 OA
ATOM     32  H   UNL     1      15.730  -4.189 -11.473  1.00  0.00     0.211 HD
ENDBRANCH  26  31
BRANCH  28  33
ATOM     33  O   UNL     1      19.128  -4.227 -12.669  1.00  0.00    -0.387 OA
ATOM     34  H   UNL     1      19.727  -4.218 -13.462  1.00  0.00     0.211 HD
ENDBRANCH  28  33
BRANCH  29  35
ATOM     35  C   UNL     1      16.710  -5.731 -16.221  1.00  0.00     0.191 C 
BRANCH  35  36
ATOM     36  O   UNL     1      17.068  -6.856 -16.973  1.00  0.00    -0.394 OA
ATOM     37  H   UNL     1      18.049  -6.970 -16.860  1.00  0.00     0.210 HD
ENDBRANCH  35  36
ENDBRANCH  29  35
BRANCH  30  38
ATOM     38  O   UNL     1      17.917  -7.240 -14.193  1.00  0.00    -0.387 OA
ATOM     39  H   UNL     1      17.933  -7.606 -15.116  1.00  0.00     0.211 HD
ENDBRANCH  30  38
ENDBRANCH   1  25
TORSDOF 11
ENDMDL
MODEL 7
REMARK VINA RESULT:    -5.590      4.938      8.173
REMARK INTER + INTRA:          -9.584
REMARK INTER:                  -8.179
REMARK INTRA:                  -1.404
REMARK UNBOUND:                -1.543
REMARK SMILES O=c1c(O[C@H]2O[C@H](CO)[C@H](O)[C@@H](O)[C@H]2O)c(-c2ccc(O)cc2)oc2cc(O)cc(O)c12
REMARK SMILES IDX 4 1 3 2 16 3 24 4 2 5 25 6 1 7 32 8 26 9 30 10 27 11 29 12
REMARK SMILES IDX 17 13 18 14 19 15 20 16 23 17 22 18 21 19 31 21 28 23 5 25
REMARK SMILES IDX 14 26 6 27 12 28 7 29 10 30 15 31 13 33 8 35 9 36 11 38
REMARK H PARENT 21 20 31 22 28 24 15 32 13 34 9 37 11 39
REMARK Flexibility Score: inf
ROOT
ATOM      1  O   UNL     1      17.476  -0.892 -11.374  1.00  0.00    -0.454 OA
ENDROOT
BRANCH   1   2
ATOM      2  C   UNL     1      16.125  -0.833 -11.759  1.00  0.00     0.214 A 
ATOM      3  C   UNL     1      15.610  -1.854 -12.581  1.00  0.00     0.180 A 
ATOM      4  O   UNL     1      14.356  -1.791 -13.021  1.00  0.00    -0.452 OA
ATOM      5  C   UNL     1      15.265   0.214 -11.372  1.00  0.00     0.239 A 
ATOM      6  C   UNL     1      13.520  -0.814 -12.695  1.00  0.00     0.146 A 
ATOM      7  O   UNL     1      15.681   1.119 -10.599  1.00  0.00    -0.285 OA
ATOM      8  C   UNL     1      13.934   0.234 -11.837  1.00  0.00     0.111 A 
ATOM      9  C   UNL     1      12.221  -0.831 -13.212  1.00  0.00     0.094 A 
ATOM     10  C   UNL     1      13.008   1.251 -11.495  1.00  0.00     0.134 A 
ATOM     11  C   UNL     1      11.313   0.177 -12.876  1.00  0.00     0.123 A 
ATOM     12  C   UNL     1      11.707   1.210 -12.018  1.00  0.00     0.093 A 
BRANCH   3  13
ATOM     13  C   UNL     1      16.440  -2.998 -13.018  1.00  0.00     0.021 A 
ATOM     14  C   UNL     1      16.612  -4.131 -12.203  1.00  0.00     0.016 A 
ATOM     15  C   UNL     1      17.404  -5.199 -12.634  1.00  0.00     0.047 A 
ATOM     16  C   UNL     1      18.033  -5.148 -13.885  1.00  0.00     0.115 A 
ATOM     17  C   UNL     1      17.044  -2.970 -14.289  1.00  0.00     0.016 A 
ATOM     18  C   UNL     1      17.844  -4.033 -14.713  1.00  0.00     0.047 A 
BRANCH  16  19
ATOM     19  O   UNL     1      18.838  -6.196 -14.319  1.00  0.00    -0.508 OA
ATOM     20  H   UNL     1      19.697  -6.439 -13.839  1.00  0.00     0.293 HD
ENDBRANCH  16  19
ENDBRANCH   3  13
BRANCH  10  21
ATOM     21  O   UNL     1      13.369   2.293 -10.637  1.00  0.00    -0.507 OA
ATOM     22  H   UNL     1      13.190   3.263 -10.870  1.00  0.00     0.293 HD
ENDBRANCH  10  21
BRANCH  11  23
ATOM     23  O   UNL     1      10.021   0.140 -13.398  1.00  0.00    -0.508 OA
ATOM     24  H   UNL     1       9.540   0.987 -13.674  1.00  0.00     0.293 HD
ENDBRANCH  11  23
ENDBRANCH   1   2
BRANCH   1  25
ATOM     25  C   UNL     1      17.954  -1.201 -10.062  1.00  0.00     0.339 C 
ATOM     26  C   UNL     1      18.843  -0.021  -9.560  1.00  0.00     0.214 C 
ATOM     27  O   UNL     1      18.642  -2.450 -10.120  1.00  0.00    -0.332 OA
ATOM     28  C   UNL     1      20.331  -0.365  -9.705  1.00  0.00     0.180 C 
ATOM     29  C   UNL     1      19.471  -2.692  -8.994  1.00  0.00     0.179 C 
ATOM     30  C   UNL     1      20.647  -1.670  -8.933  1.00  0.00     0.177 C 
BRANCH  26  31
ATOM     31  O   UNL     1      18.563   1.171 -10.250  1.00  0.00    -0.384 OA
ATOM     32  H   UNL     1      19.420   1.480 -10.645  1.00  0.00     0.211 HD
ENDBRANCH  26  31
BRANCH  28  33
ATOM     33  O   UNL     1      20.648  -0.536 -11.065  1.00  0.00    -0.387 OA
ATOM     34  H   UNL     1      21.637  -0.616 -11.130  1.00  0.00     0.211 HD
ENDBRANCH  28  33
BRANCH  29  35
ATOM     35  C   UNL     1      18.655  -2.850  -7.689  1.00  0.00     0.191 C 
BRANCH  35  36
ATOM     36  O   UNL     1      18.008  -4.092  -7.687  1.00  0.00    -0.394 OA
ATOM     37  H   UNL     1      17.100  -3.936  -8.061  1.00  0.00     0.210 HD
ENDBRANCH  35  36
ENDBRANCH  29  35
BRANCH  30  38
ATOM     38  O   UNL     1      21.057  -1.410  -7.610  1.00  0.00    -0.387 OA
ATOM     39  H   UNL     1      21.226  -2.280  -7.162  1.00  0.00     0.211 HD
ENDBRANCH  30  38
ENDBRANCH   1  25
TORSDOF 11
ENDMDL
MODEL 8
REMARK VINA RESULT:    -5.550      4.334      8.979
REMARK INTER + INTRA:          -9.527
REMARK INTER:                  -7.898
REMARK INTRA:                  -1.629
REMARK UNBOUND:                -1.543
REMARK SMILES O=c1c(O[C@H]2O[C@H](CO)[C@H](O)[C@@H](O)[C@H]2O)c(-c2ccc(O)cc2)oc2cc(O)cc(O)c12
REMARK SMILES IDX 4 1 3 2 16 3 24 4 2 5 25 6 1 7 32 8 26 9 30 10 27 11 29 12
REMARK SMILES IDX 17 13 18 14 19 15 20 16 23 17 22 18 21 19 31 21 28 23 5 25
REMARK SMILES IDX 14 26 6 27 12 28 7 29 10 30 15 31 13 33 8 35 9 36 11 38
REMARK H PARENT 21 20 31 22 28 24 15 32 13 34 9 37 11 39
REMARK Flexibility Score: inf
ROOT
ATOM      1  O   UNL     1      17.650  -0.345  -8.474  1.00  0.00    -0.454 OA
ENDROOT
BRANCH   1   2
ATOM      2  C   UNL     1      17.291  -1.447  -9.270  1.00  0.00     0.214 A 
ATOM      3  C   UNL     1      18.047  -2.631  -9.169  1.00  0.00     0.180 A 
ATOM      4  O   UNL     1      17.777  -3.667  -9.958  1.00  0.00    -0.452 OA
ATOM      5  C   UNL     1      16.214  -1.415 -10.180  1.00  0.00     0.239 A 
ATOM      6  C   UNL     1      16.786  -3.671 -10.839  1.00  0.00     0.146 A 
ATOM      7  O   UNL     1      15.488  -0.388 -10.262  1.00  0.00    -0.285 OA
ATOM      8  C   UNL     1      15.943  -2.543 -10.982  1.00  0.00     0.111 A 
ATOM      9  C   UNL     1      16.584  -4.807 -11.629  1.00  0.00     0.094 A 
ATOM     10  C   UNL     1      14.882  -2.589 -11.919  1.00  0.00     0.134 A 
ATOM     11  C   UNL     1      15.540  -4.847 -12.557  1.00  0.00     0.123 A 
ATOM     12  C   UNL     1      14.692  -3.742 -12.696  1.00  0.00     0.093 A 
BRANCH   3  13
ATOM     13  C   UNL     1      19.182  -2.754  -8.227  1.00  0.00     0.021 A 
ATOM     14  C   UNL     1      20.511  -2.599  -8.658  1.00  0.00     0.016 A 
ATOM     15  C   UNL     1      21.567  -2.724  -7.751  1.00  0.00     0.047 A 
ATOM     16  C   UNL     1      21.308  -3.004  -6.403  1.00  0.00     0.115 A 
ATOM     17  C   UNL     1      18.926  -2.999  -6.865  1.00  0.00     0.016 A 
ATOM     18  C   UNL     1      19.984  -3.134  -5.963  1.00  0.00     0.047 A 
BRANCH  16  19
ATOM     19  O   UNL     1      22.351  -3.148  -5.493  1.00  0.00    -0.508 OA
ATOM     20  H   UNL     1      22.704  -2.360  -4.963  1.00  0.00     0.293 HD
ENDBRANCH  16  19
ENDBRANCH   3  13
BRANCH  10  21
ATOM     21  O   UNL     1      14.014  -1.505 -12.079  1.00  0.00    -0.507 OA
ATOM     22  H   UNL     1      14.238  -0.585 -11.721  1.00  0.00     0.293 HD
ENDBRANCH  10  21
BRANCH  11  23
ATOM     23  O   UNL     1      15.351  -5.990 -13.331  1.00  0.00    -0.508 OA
ATOM     24  H   UNL     1      14.500  -6.534 -13.270  1.00  0.00     0.293 HD
ENDBRANCH  11  23
ENDBRANCH   1   2
BRANCH   1  25
ATOM     25  C   UNL     1      18.639   0.633  -8.806  1.00  0.00     0.339 C 
ATOM     26  C   UNL     1      18.121   2.039  -8.374  1.00  0.00     0.214 C 
ATOM     27  O   UNL     1      18.917   0.531 -10.202  1.00  0.00    -0.332 OA
ATOM     28  C   UNL     1      17.583   2.814  -9.584  1.00  0.00     0.180 C 
ATOM     29  C   UNL     1      19.590   1.663 -10.730  1.00  0.00     0.179 C 
ATOM     30  C   UNL     1      18.686   2.932 -10.664  1.00  0.00     0.177 C 
BRANCH  26  31
ATOM     31  O   UNL     1      17.121   1.946  -7.391  1.00  0.00    -0.384 OA
ATOM     32  H   UNL     1      16.729   1.037  -7.467  1.00  0.00     0.211 HD
ENDBRANCH  26  31
BRANCH  28  33
ATOM     33  O   UNL     1      16.471   2.140 -10.123  1.00  0.00    -0.387 OA
ATOM     34  H   UNL     1      16.751   1.203 -10.302  1.00  0.00     0.211 HD
ENDBRANCH  28  33
BRANCH  29  35
ATOM     35  C   UNL     1      21.012   1.826 -10.143  1.00  0.00     0.191 C 
BRANCH  35  36
ATOM     36  O   UNL     1      21.804   2.565 -11.030  1.00  0.00    -0.394 OA
ATOM     37  H   UNL     1      22.630   2.807 -10.535  1.00  0.00     0.210 HD
ENDBRANCH  35  36
ENDBRANCH  29  35
BRANCH  30  38
ATOM     38  O   UNL     1      19.440   4.114 -10.516  1.00  0.00    -0.387 OA
ATOM     39  H   UNL     1      18.958   4.849 -10.978  1.00  0.00     0.211 HD
ENDBRANCH  30  38
ENDBRANCH   1  25
TORSDOF 11
ENDMDL
MODEL 9
REMARK VINA RESULT:    -5.475      5.753      9.272
REMARK INTER + INTRA:          -9.418
REMARK INTER:                  -8.009
REMARK INTRA:                  -1.409
REMARK UNBOUND:                -1.543
REMARK SMILES O=c1c(O[C@H]2O[C@H](CO)[C@H](O)[C@@H](O)[C@H]2O)c(-c2ccc(O)cc2)oc2cc(O)cc(O)c12
REMARK SMILES IDX 4 1 3 2 16 3 24 4 2 5 25 6 1 7 32 8 26 9 30 10 27 11 29 12
REMARK SMILES IDX 17 13 18 14 19 15 20 16 23 17 22 18 21 19 31 21 28 23 5 25
REMARK SMILES IDX 14 26 6 27 12 28 7 29 10 30 15 31 13 33 8 35 9 36 11 38
REMARK H PARENT 21 20 31 22 28 24 15 32 13 34 9 37 11 39
REMARK Flexibility Score: inf
ROOT
ATOM      1  O   UNL     1      17.442   0.522  -9.451  1.00  0.00    -0.454 OA
ENDROOT
BRANCH   1   2
ATOM      2  C   UNL     1      16.084   0.883  -9.418  1.00  0.00     0.214 A 
ATOM      3  C   UNL     1      15.218   0.355 -10.395  1.00  0.00     0.180 A 
ATOM      4  O   UNL     1      13.943   0.731 -10.433  1.00  0.00    -0.452 OA
ATOM      5  C   UNL     1      15.551   1.767  -8.457  1.00  0.00     0.239 A 
ATOM      6  C   UNL     1      13.407   1.573  -9.560  1.00  0.00     0.146 A 
ATOM      7  O   UNL     1      16.288   2.222  -7.542  1.00  0.00    -0.285 OA
ATOM      8  C   UNL     1      14.188   2.123  -8.516  1.00  0.00     0.111 A 
ATOM      9  C   UNL     1      12.057   1.914  -9.686  1.00  0.00     0.094 A 
ATOM     10  C   UNL     1      13.578   3.005  -7.589  1.00  0.00     0.134 A 
ATOM     11  C   UNL     1      11.460   2.789  -8.774  1.00  0.00     0.123 A 
ATOM     12  C   UNL     1      12.219   3.328  -7.729  1.00  0.00     0.093 A 
BRANCH   3  13
ATOM     13  C   UNL     1      15.692  -0.593 -11.427  1.00  0.00     0.021 A 
ATOM     14  C   UNL     1      15.756  -1.976 -11.177  1.00  0.00     0.016 A 
ATOM     15  C   UNL     1      16.211  -2.852 -12.167  1.00  0.00     0.047 A 
ATOM     16  C   UNL     1      16.606  -2.359 -13.417  1.00  0.00     0.115 A 
ATOM     17  C   UNL     1      16.056  -0.108 -12.697  1.00  0.00     0.016 A 
ATOM     18  C   UNL     1      16.520  -0.985 -13.680  1.00  0.00     0.047 A 
BRANCH  16  19
ATOM     19  O   UNL     1      17.078  -3.218 -14.404  1.00  0.00    -0.508 OA
ATOM     20  H   UNL     1      16.859  -4.208 -14.394  1.00  0.00     0.293 HD
ENDBRANCH  16  19
ENDBRANCH   3  13
BRANCH  10  21
ATOM     21  O   UNL     1      14.307   3.557  -6.532  1.00  0.00    -0.507 OA
ATOM     22  H   UNL     1      14.587   4.530  -6.527  1.00  0.00     0.293 HD
ENDBRANCH  10  21
BRANCH  11  23
ATOM     23  O   UNL     1      10.112   3.112  -8.913  1.00  0.00    -0.508 OA
ATOM     24  H   UNL     1       9.672   3.160  -9.824  1.00  0.00     0.293 HD
ENDBRANCH  11  23
ENDBRANCH   1   2
BRANCH   1  25
ATOM     25  C   UNL     1      18.077  -0.409  -8.572  1.00  0.00     0.339 C 
ATOM     26  C   UNL     1      19.250   0.311  -7.838  1.00  0.00     0.214 C 
ATOM     27  O   UNL     1      18.491  -1.538  -9.340  1.00  0.00    -0.332 OA
ATOM     28  C   UNL     1      20.596  -0.054  -8.481  1.00  0.00     0.180 C 
ATOM     29  C   UNL     1      19.444  -2.355  -8.678  1.00  0.00     0.179 C 
ATOM     30  C   UNL     1      20.786  -1.590  -8.466  1.00  0.00     0.177 C 
BRANCH  26  31
ATOM     31  O   UNL     1      19.088   1.706  -7.841  1.00  0.00    -0.384 OA
ATOM     32  H   UNL     1      19.998   2.101  -7.867  1.00  0.00     0.211 HD
ENDBRANCH  26  31
BRANCH  28  33
ATOM     33  O   UNL     1      20.627   0.410  -9.809  1.00  0.00    -0.387 OA
ATOM     34  H   UNL     1      20.159   1.287  -9.828  1.00  0.00     0.211 HD
ENDBRANCH  28  33
BRANCH  29  35
ATOM     35  C   UNL     1      18.858  -3.037  -7.419  1.00  0.00     0.191 C 
BRANCH  35  36
ATOM     36  O   UNL     1      18.029  -4.099  -7.804  1.00  0.00    -0.394 OA
ATOM     37  H   UNL     1      17.164  -3.694  -8.080  1.00  0.00     0.210 HD
ENDBRANCH  35  36
ENDBRANCH  29  35
BRANCH  30  38
ATOM     38  O   UNL     1      21.467  -2.022  -7.310  1.00  0.00    -0.387 OA
ATOM     39  H   UNL     1      22.431  -1.811  -7.421  1.00  0.00     0.211 HD
ENDBRANCH  30  38
ENDBRANCH   1  25
TORSDOF 11
ENDMDL
