MODEL 1
REMARK VINA RESULT:    -6.019      0.000      0.000
REMARK INTER + INTRA:         -12.498
REMARK INTER:                 -10.945
REMARK INTRA:                  -1.553
REMARK UNBOUND:                -1.553
REMARK SMILES CCCCCCCCCCCCCCCC(=O)[O-]
REMARK SMILES IDX 9 1 10 2 11 3 12 4 13 5 14 6 15 7 16 8 17 9 18 10 8 11 7 12
REMARK SMILES IDX 6 13 5 14 4 15 3 16 2 17 1 18
REMARK H PARENT
REMARK Flexibility Score: inf
ROOT
ATOM      1  C   UNL     1      25.870   1.124  62.748  1.00  0.00     0.000 C 
ENDROOT
BRANCH   1   2
ATOM      2  C   UNL     1      25.040  -0.000  62.105  1.00  0.00     0.000 C 
BRANCH   2   3
ATOM      3  C   UNL     1      25.911  -1.147  61.561  1.00  0.00     0.000 C 
BRANCH   3   4
ATOM      4  C   UNL     1      25.410  -2.530  62.004  1.00  0.00     0.000 C 
BRANCH   4   5
ATOM      5  C   UNL     1      23.921  -2.524  62.381  1.00  0.00     0.000 C 
BRANCH   5   6
ATOM      6  C   UNL     1      23.091  -3.307  61.353  1.00  0.00     0.006 C 
BRANCH   6   7
ATOM      7  C   UNL     1      23.966  -3.936  60.260  1.00  0.00     0.053 C 
BRANCH   7   8
ATOM      8  C   UNL     1      23.868  -3.182  58.969  1.00  0.00     0.041 C 
ATOM      9  O   UNL     1      24.888  -3.029  58.246  1.00  0.00    -0.550 OA
ATOM     10  O   UNL     1      22.659  -2.622  58.580  1.00  0.00    -0.550 OA
ENDBRANCH   7   8
ENDBRANCH   6   7
ENDBRANCH   5   6
ENDBRANCH   4   5
ENDBRANCH   3   4
ENDBRANCH   2   3
ENDBRANCH   1   2
BRANCH   1  11
ATOM     11  C   UNL     1      25.509   2.550  62.281  1.00  0.00     0.000 C 
BRANCH  11  12
ATOM     12  C   UNL     1      25.433   3.606  63.400  1.00  0.00    -0.000 C 
BRANCH  12  13
ATOM     13  C   UNL     1      25.299   3.033  64.823  1.00  0.00    -0.000 C 
BRANCH  13  14
ATOM     14  C   UNL     1      23.848   3.011  65.350  1.00  0.00    -0.000 C 
BRANCH  14  15
ATOM     15  C   UNL     1      22.844   3.572  64.333  1.00  0.00    -0.000 C 
BRANCH  15  16
ATOM     16  C   UNL     1      21.730   2.559  64.043  1.00  0.00    -0.000 C 
BRANCH  16  17
ATOM     17  C   UNL     1      21.908   1.925  62.658  1.00  0.00    -0.003 C 
ATOM     18  C   UNL     1      21.404   0.486  62.642  1.00  0.00     0.004 C 
ENDBRANCH  16  17
ENDBRANCH  15  16
ENDBRANCH  14  15
ENDBRANCH  13  14
ENDBRANCH  12  13
ENDBRANCH  11  12
ENDBRANCH   1  11
TORSDOF 14
ENDMDL
MODEL 2
REMARK VINA RESULT:    -5.930      2.525      6.484
REMARK INTER + INTRA:         -12.337
REMARK INTER:                 -10.916
REMARK INTRA:                  -1.421
REMARK UNBOUND:                -1.553
REMARK SMILES CCCCCCCCCCCCCCCC(=O)[O-]
REMARK SMILES IDX 9 1 10 2 11 3 12 4 13 5 14 6 15 7 16 8 17 9 18 10 8 11 7 12
REMARK SMILES IDX 6 13 5 14 4 15 3 16 2 17 1 18
REMARK H PARENT
REMARK Flexibility Score: inf
ROOT
ATOM      1  C   UNL     1      25.062   0.066  62.074  1.00  0.00     0.000 C 
ENDROOT
BRANCH   1   2
ATOM      2  C   UNL     1      25.892   1.160  62.767  1.00  0.00     0.000 C 
BRANCH   2   3
ATOM      3  C   UNL     1      25.560   2.574  62.257  1.00  0.00     0.000 C 
BRANCH   3   4
ATOM      4  C   UNL     1      25.440   3.599  63.395  1.00  0.00     0.000 C 
BRANCH   4   5
ATOM      5  C   UNL     1      25.353   2.936  64.778  1.00  0.00     0.000 C 
BRANCH   5   6
ATOM      6  C   UNL     1      23.946   3.094  65.374  1.00  0.00     0.006 C 
BRANCH   6   7
ATOM      7  C   UNL     1      22.923   3.563  64.330  1.00  0.00     0.053 C 
BRANCH   7   8
ATOM      8  C   UNL     1      21.993   2.459  63.929  1.00  0.00     0.041 C 
ATOM      9  O   UNL     1      21.972   2.048  62.739  1.00  0.00    -0.550 OA
ATOM     10  O   UNL     1      21.126   1.906  64.863  1.00  0.00    -0.550 OA
ENDBRANCH   7   8
ENDBRANCH   6   7
ENDBRANCH   5   6
ENDBRANCH   4   5
ENDBRANCH   3   4
ENDBRANCH   2   3
ENDBRANCH   1   2
BRANCH   1  11
ATOM     11  C   UNL     1      25.881  -1.107  61.494  1.00  0.00     0.000 C 
BRANCH  11  12
ATOM     12  C   UNL     1      25.527  -2.495  62.059  1.00  0.00    -0.000 C 
BRANCH  12  13
ATOM     13  C   UNL     1      25.478  -3.626  61.014  1.00  0.00    -0.000 C 
BRANCH  13  14
ATOM     14  C   UNL     1      25.389  -3.122  59.557  1.00  0.00    -0.000 C 
BRANCH  14  15
ATOM     15  C   UNL     1      23.949  -3.110  59.025  1.00  0.00    -0.000 C 
BRANCH  15  16
ATOM     16  C   UNL     1      22.977  -3.703  60.053  1.00  0.00    -0.000 C 
BRANCH  16  17
ATOM     17  C   UNL     1      21.748  -2.804  60.230  1.00  0.00    -0.003 C 
ATOM     18  C   UNL     1      21.909  -1.879  61.432  1.00  0.00     0.004 C 
ENDBRANCH  16  17
ENDBRANCH  15  16
ENDBRANCH  14  15
ENDBRANCH  13  14
ENDBRANCH  12  13
ENDBRANCH  11  12
ENDBRANCH   1  11
TORSDOF 14
ENDMDL
MODEL 3
REMARK VINA RESULT:    -5.930      1.277      2.070
REMARK INTER + INTRA:         -12.337
REMARK INTER:                 -10.795
REMARK INTRA:                  -1.542
REMARK UNBOUND:                -1.553
REMARK SMILES CCCCCCCCCCCCCCCC(=O)[O-]
REMARK SMILES IDX 9 1 10 2 11 3 12 4 13 5 14 6 15 7 16 8 17 9 18 10 8 11 7 12
REMARK SMILES IDX 6 13 5 14 4 15 3 16 2 17 1 18
REMARK H PARENT
REMARK Flexibility Score: inf
ROOT
ATOM      1  C   UNL     1      25.066   0.019  62.046  1.00  0.00     0.000 C 
ENDROOT
BRANCH   1   2
ATOM      2  C   UNL     1      25.939  -1.145  61.546  1.00  0.00     0.000 C 
BRANCH   2   3
ATOM      3  C   UNL     1      25.512  -2.504  62.129  1.00  0.00     0.000 C 
BRANCH   3   4
ATOM      4  C   UNL     1      25.266  -3.562  61.042  1.00  0.00     0.000 C 
BRANCH   4   5
ATOM      5  C   UNL     1      25.202  -2.955  59.633  1.00  0.00     0.000 C 
BRANCH   5   6
ATOM      6  C   UNL     1      23.817  -3.173  59.005  1.00  0.00     0.006 C 
BRANCH   6   7
ATOM      7  C   UNL     1      22.749  -3.503  60.056  1.00  0.00     0.053 C 
BRANCH   7   8
ATOM      8  C   UNL     1      21.884  -2.318  60.360  1.00  0.00     0.041 C 
ATOM      9  O   UNL     1      21.846  -1.844  61.526  1.00  0.00    -0.550 OA
ATOM     10  O   UNL     1      21.096  -1.758  59.363  1.00  0.00    -0.550 OA
ENDBRANCH   7   8
ENDBRANCH   6   7
ENDBRANCH   5   6
ENDBRANCH   4   5
ENDBRANCH   3   4
ENDBRANCH   2   3
ENDBRANCH   1   2
BRANCH   1  11
ATOM     11  C   UNL     1      25.837   1.168  62.727  1.00  0.00     0.000 C 
BRANCH  11  12
ATOM     12  C   UNL     1      25.517   2.577  62.196  1.00  0.00    -0.000 C 
BRANCH  12  13
ATOM     13  C   UNL     1      25.300   3.646  63.284  1.00  0.00    -0.000 C 
BRANCH  13  14
ATOM     14  C   UNL     1      25.251   3.073  64.717  1.00  0.00    -0.000 C 
BRANCH  14  15
ATOM     15  C   UNL     1      23.835   3.086  65.309  1.00  0.00    -0.000 C 
BRANCH  15  16
ATOM     16  C   UNL     1      22.820   3.627  64.294  1.00  0.00    -0.000 C 
BRANCH  16  17
ATOM     17  C   UNL     1      21.664   2.639  64.093  1.00  0.00    -0.003 C 
ATOM     18  C   UNL     1      21.870   1.800  62.836  1.00  0.00     0.004 C 
ENDBRANCH  16  17
ENDBRANCH  15  16
ENDBRANCH  14  15
ENDBRANCH  13  14
ENDBRANCH  12  13
ENDBRANCH  11  12
ENDBRANCH   1  11
TORSDOF 14
ENDMDL
MODEL 4
REMARK VINA RESULT:    -5.855      0.921      2.492
REMARK INTER + INTRA:         -12.200
REMARK INTER:                 -10.468
REMARK INTRA:                  -1.732
REMARK UNBOUND:                -1.553
REMARK SMILES CCCCCCCCCCCCCCCC(=O)[O-]
REMARK SMILES IDX 9 1 10 2 11 3 12 4 13 5 14 6 15 7 16 8 17 9 18 10 8 11 7 12
REMARK SMILES IDX 6 13 5 14 4 15 3 16 2 17 1 18
REMARK H PARENT
REMARK Flexibility Score: inf
ROOT
ATOM      1  C   UNL     1      25.350   3.538  63.402  1.00  0.00     0.000 C 
ENDROOT
BRANCH   1   2
ATOM      2  C   UNL     1      25.606   2.536  62.263  1.00  0.00     0.000 C 
BRANCH   2   3
ATOM      3  C   UNL     1      25.901   1.114  62.773  1.00  0.00     0.000 C 
BRANCH   3   4
ATOM      4  C   UNL     1      25.094   0.040  62.027  1.00  0.00     0.000 C 
BRANCH   4   5
ATOM      5  C   UNL     1      25.949  -1.178  61.646  1.00  0.00     0.000 C 
BRANCH   5   6
ATOM      6  C   UNL     1      25.246  -2.486  62.041  1.00  0.00     0.006 C 
BRANCH   6   7
ATOM      7  C   UNL     1      25.583  -3.637  61.084  1.00  0.00     0.053 C 
BRANCH   7   8
ATOM      8  C   UNL     1      24.734  -3.600  59.850  1.00  0.00     0.041 C 
ATOM      9  O   UNL     1      23.583  -4.112  59.857  1.00  0.00    -0.550 OA
ATOM     10  O   UNL     1      25.226  -3.030  58.683  1.00  0.00    -0.550 OA
ENDBRANCH   7   8
ENDBRANCH   6   7
ENDBRANCH   5   6
ENDBRANCH   4   5
ENDBRANCH   3   4
ENDBRANCH   2   3
ENDBRANCH   1   2
BRANCH   1  11
ATOM     11  C   UNL     1      25.198   2.908  64.802  1.00  0.00     0.000 C 
BRANCH  11  12
ATOM     12  C   UNL     1      23.793   3.019  65.421  1.00  0.00    -0.000 C 
BRANCH  12  13
ATOM     13  C   UNL     1      22.672   3.372  64.425  1.00  0.00    -0.000 C 
BRANCH  13  14
ATOM     14  C   UNL     1      21.849   2.152  63.958  1.00  0.00    -0.000 C 
BRANCH  14  15
ATOM     15  C   UNL     1      22.051   1.840  62.469  1.00  0.00    -0.000 C 
BRANCH  15  16
ATOM     16  C   UNL     1      21.094   0.736  62.003  1.00  0.00    -0.000 C 
BRANCH  16  17
ATOM     17  C   UNL     1      21.578  -0.644  62.466  1.00  0.00    -0.003 C 
ATOM     18  C   UNL     1      21.708  -1.606  61.290  1.00  0.00     0.004 C 
ENDBRANCH  16  17
ENDBRANCH  15  16
ENDBRANCH  14  15
ENDBRANCH  13  14
ENDBRANCH  12  13
ENDBRANCH  11  12
ENDBRANCH   1  11
TORSDOF 14
ENDMDL
MODEL 5
REMARK VINA RESULT:    -5.852      3.440      6.921
REMARK INTER + INTRA:         -12.194
REMARK INTER:                 -10.767
REMARK INTRA:                  -1.427
REMARK UNBOUND:                -1.553
REMARK SMILES CCCCCCCCCCCCCCCC(=O)[O-]
REMARK SMILES IDX 9 1 10 2 11 3 12 4 13 5 14 6 15 7 16 8 17 9 18 10 8 11 7 12
REMARK SMILES IDX 6 13 5 14 4 15 3 16 2 17 1 18
REMARK H PARENT
REMARK Flexibility Score: inf
ROOT
ATOM      1  C   UNL     1      25.195  -0.147  62.335  1.00  0.00     0.000 C 
ENDROOT
BRANCH   1   2
ATOM      2  C   UNL     1      26.134   1.007  62.728  1.00  0.00     0.000 C 
BRANCH   2   3
ATOM      3  C   UNL     1      25.595   2.385  62.305  1.00  0.00     0.000 C 
BRANCH   3   4
ATOM      4  C   UNL     1      24.069   2.393  62.124  1.00  0.00     0.000 C 
BRANCH   4   5
ATOM      5  C   UNL     1      23.460   3.789  62.318  1.00  0.00     0.000 C 
BRANCH   5   6
ATOM      6  C   UNL     1      23.567   4.235  63.785  1.00  0.00     0.006 C 
BRANCH   6   7
ATOM      7  C   UNL     1      22.981   3.196  64.751  1.00  0.00     0.053 C 
BRANCH   7   8
ATOM      8  C   UNL     1      23.889   2.950  65.917  1.00  0.00     0.041 C 
ATOM      9  O   UNL     1      23.406   2.697  67.053  1.00  0.00    -0.550 OA
ATOM     10  O   UNL     1      25.265   3.031  65.757  1.00  0.00    -0.550 OA
ENDBRANCH   7   8
ENDBRANCH   6   7
ENDBRANCH   5   6
ENDBRANCH   4   5
ENDBRANCH   3   4
ENDBRANCH   2   3
ENDBRANCH   1   2
BRANCH   1  11
ATOM     11  C   UNL     1      25.850  -1.266  61.498  1.00  0.00     0.000 C 
BRANCH  11  12
ATOM     12  C   UNL     1      25.515  -2.700  61.947  1.00  0.00    -0.000 C 
BRANCH  12  13
ATOM     13  C   UNL     1      25.363  -3.719  60.802  1.00  0.00    -0.000 C 
BRANCH  13  14
ATOM     14  C   UNL     1      25.189  -3.070  59.412  1.00  0.00    -0.000 C 
BRANCH  14  15
ATOM     15  C   UNL     1      23.722  -3.034  58.959  1.00  0.00    -0.000 C 
BRANCH  15  16
ATOM     16  C   UNL     1      22.798  -3.602  60.043  1.00  0.00    -0.000 C 
BRANCH  16  17
ATOM     17  C   UNL     1      21.620  -2.658  60.312  1.00  0.00    -0.003 C 
ATOM     18  C   UNL     1      21.894  -1.766  61.518  1.00  0.00     0.004 C 
ENDBRANCH  16  17
ENDBRANCH  15  16
ENDBRANCH  14  15
ENDBRANCH  13  14
ENDBRANCH  12  13
ENDBRANCH  11  12
ENDBRANCH   1  11
TORSDOF 14
ENDMDL
MODEL 6
REMARK VINA RESULT:    -5.819      1.270      3.293
REMARK INTER + INTRA:         -12.134
REMARK INTER:                 -10.526
REMARK INTRA:                  -1.607
REMARK UNBOUND:                -1.553
REMARK SMILES CCCCCCCCCCCCCCCC(=O)[O-]
REMARK SMILES IDX 9 1 10 2 11 3 12 4 13 5 14 6 15 7 16 8 17 9 18 10 8 11 7 12
REMARK SMILES IDX 6 13 5 14 4 15 3 16 2 17 1 18
REMARK H PARENT
REMARK Flexibility Score: inf
ROOT
ATOM      1  C   UNL     1      21.169   0.131  61.986  1.00  0.00     0.000 C 
ENDROOT
BRANCH   1   2
ATOM      2  C   UNL     1      22.019  -1.140  61.817  1.00  0.00     0.000 C 
BRANCH   2   3
ATOM      3  C   UNL     1      21.621  -1.963  60.579  1.00  0.00     0.000 C 
BRANCH   3   4
ATOM      4  C   UNL     1      22.184  -3.393  60.614  1.00  0.00     0.000 C 
BRANCH   4   5
ATOM      5  C   UNL     1      23.234  -3.585  61.719  1.00  0.00     0.000 C 
BRANCH   5   6
ATOM      6  C   UNL     1      24.535  -4.165  61.144  1.00  0.00     0.006 C 
BRANCH   6   7
ATOM      7  C   UNL     1      25.641  -3.107  61.032  1.00  0.00     0.053 C 
BRANCH   7   8
ATOM      8  C   UNL     1      25.902  -2.725  59.607  1.00  0.00     0.041 C 
ATOM      9  O   UNL     1      26.884  -1.992  59.317  1.00  0.00    -0.550 OA
ATOM     10  O   UNL     1      25.043  -3.153  58.603  1.00  0.00    -0.550 OA
ENDBRANCH   7   8
ENDBRANCH   6   7
ENDBRANCH   5   6
ENDBRANCH   4   5
ENDBRANCH   3   4
ENDBRANCH   2   3
ENDBRANCH   1   2
BRANCH   1  11
ATOM     11  C   UNL     1      21.967   1.411  62.313  1.00  0.00     0.000 C 
BRANCH  11  12
ATOM     12  C   UNL     1      21.739   1.981  63.725  1.00  0.00    -0.000 C 
BRANCH  12  13
ATOM     13  C   UNL     1      22.496   3.288  64.026  1.00  0.00    -0.000 C 
BRANCH  13  14
ATOM     14  C   UNL     1      23.287   3.840  62.820  1.00  0.00    -0.000 C 
BRANCH  14  15
ATOM     15  C   UNL     1      24.801   3.874  63.075  1.00  0.00    -0.000 C 
BRANCH  15  16
ATOM     16  C   UNL     1      25.526   2.826  62.222  1.00  0.00    -0.000 C 
BRANCH  16  17
ATOM     17  C   UNL     1      25.824   1.563  63.039  1.00  0.00    -0.003 C 
ATOM     18  C   UNL     1      25.482   0.303  62.250  1.00  0.00     0.004 C 
ENDBRANCH  16  17
ENDBRANCH  15  16
ENDBRANCH  14  15
ENDBRANCH  13  14
ENDBRANCH  12  13
ENDBRANCH  11  12
ENDBRANCH   1  11
TORSDOF 14
ENDMDL
MODEL 7
REMARK VINA RESULT:    -5.783      0.911      3.219
REMARK INTER + INTRA:         -12.070
REMARK INTER:                 -10.482
REMARK INTRA:                  -1.587
REMARK UNBOUND:                -1.553
REMARK SMILES CCCCCCCCCCCCCCCC(=O)[O-]
REMARK SMILES IDX 9 1 10 2 11 3 12 4 13 5 14 6 15 7 16 8 17 9 18 10 8 11 7 12
REMARK SMILES IDX 6 13 5 14 4 15 3 16 2 17 1 18
REMARK H PARENT
REMARK Flexibility Score: inf
ROOT
ATOM      1  C   UNL     1      21.513   1.984  63.843  1.00  0.00     0.000 C 
ENDROOT
BRANCH   1   2
ATOM      2  C   UNL     1      21.615   1.256  62.492  1.00  0.00     0.000 C 
BRANCH   2   3
ATOM      3  C   UNL     1      20.993  -0.152  62.525  1.00  0.00     0.000 C 
BRANCH   3   4
ATOM      4  C   UNL     1      21.586  -1.084  61.457  1.00  0.00     0.000 C 
BRANCH   4   5
ATOM      5  C   UNL     1      22.529  -2.139  62.055  1.00  0.00     0.000 C 
BRANCH   5   6
ATOM      6  C   UNL     1      22.721  -3.316  61.086  1.00  0.00     0.006 C 
BRANCH   6   7
ATOM      7  C   UNL     1      22.490  -2.906  59.625  1.00  0.00     0.053 C 
BRANCH   7   8
ATOM      8  C   UNL     1      23.726  -3.086  58.797  1.00  0.00     0.041 C 
ATOM      9  O   UNL     1      23.695  -2.868  57.556  1.00  0.00    -0.550 OA
ATOM     10  O   UNL     1      24.903  -3.523  59.389  1.00  0.00    -0.550 OA
ENDBRANCH   7   8
ENDBRANCH   6   7
ENDBRANCH   5   6
ENDBRANCH   4   5
ENDBRANCH   3   4
ENDBRANCH   2   3
ENDBRANCH   1   2
BRANCH   1  11
ATOM     11  C   UNL     1      22.488   3.167  64.021  1.00  0.00     0.000 C 
BRANCH  11  12
ATOM     12  C   UNL     1      23.520   3.000  65.151  1.00  0.00    -0.000 C 
BRANCH  12  13
ATOM     13  C   UNL     1      24.990   3.135  64.712  1.00  0.00    -0.000 C 
BRANCH  13  14
ATOM     14  C   UNL     1      25.167   3.793  63.326  1.00  0.00    -0.000 C 
BRANCH  14  15
ATOM     15  C   UNL     1      25.551   2.781  62.238  1.00  0.00    -0.000 C 
BRANCH  15  16
ATOM     16  C   UNL     1      25.905   1.421  62.852  1.00  0.00    -0.000 C 
BRANCH  16  17
ATOM     17  C   UNL     1      25.055   0.302  62.238  1.00  0.00    -0.003 C 
ATOM     18  C   UNL     1      25.928  -0.849  61.749  1.00  0.00     0.004 C 
ENDBRANCH  16  17
ENDBRANCH  15  16
ENDBRANCH  14  15
ENDBRANCH  13  14
ENDBRANCH  12  13
ENDBRANCH  11  12
ENDBRANCH   1  11
TORSDOF 14
ENDMDL
MODEL 8
REMARK VINA RESULT:    -5.770      3.049      6.504
REMARK INTER + INTRA:         -12.045
REMARK INTER:                 -10.336
REMARK INTRA:                  -1.710
REMARK UNBOUND:                -1.553
REMARK SMILES CCCCCCCCCCCCCCCC(=O)[O-]
REMARK SMILES IDX 9 1 10 2 11 3 12 4 13 5 14 6 15 7 16 8 17 9 18 10 8 11 7 12
REMARK SMILES IDX 6 13 5 14 4 15 3 16 2 17 1 18
REMARK H PARENT
REMARK Flexibility Score: inf
ROOT
ATOM      1  C   UNL     1      25.855  -0.972  61.620  1.00  0.00     0.000 C 
ENDROOT
BRANCH   1   2
ATOM      2  C   UNL     1      25.167   0.353  61.992  1.00  0.00     0.000 C 
BRANCH   2   3
ATOM      3  C   UNL     1      25.925   1.133  63.081  1.00  0.00     0.000 C 
BRANCH   3   4
ATOM      4  C   UNL     1      25.809   2.655  62.906  1.00  0.00     0.000 C 
BRANCH   4   5
ATOM      5  C   UNL     1      24.727   3.050  61.890  1.00  0.00     0.000 C 
BRANCH   5   6
ATOM      6  C   UNL     1      23.544   3.738  62.589  1.00  0.00     0.006 C 
BRANCH   6   7
ATOM      7  C   UNL     1      22.436   2.744  62.964  1.00  0.00     0.053 C 
BRANCH   7   8
ATOM      8  C   UNL     1      22.301   2.599  64.449  1.00  0.00     0.041 C 
ATOM      9  O   UNL     1      23.160   3.108  65.217  1.00  0.00    -0.550 OA
ATOM     10  O   UNL     1      21.245   1.873  64.984  1.00  0.00    -0.550 OA
ENDBRANCH   7   8
ENDBRANCH   6   7
ENDBRANCH   5   6
ENDBRANCH   4   5
ENDBRANCH   3   4
ENDBRANCH   2   3
ENDBRANCH   1   2
BRANCH   1  11
ATOM     11  C   UNL     1      25.201  -2.237  62.217  1.00  0.00     0.000 C 
BRANCH  11  12
ATOM     12  C   UNL     1      25.528  -3.551  61.484  1.00  0.00    -0.000 C 
BRANCH  12  13
ATOM     13  C   UNL     1      24.413  -4.071  60.559  1.00  0.00    -0.000 C 
BRANCH  13  14
ATOM     14  C   UNL     1      24.343  -3.342  59.199  1.00  0.00    -0.000 C 
BRANCH  14  15
ATOM     15  C   UNL     1      22.933  -2.825  58.880  1.00  0.00    -0.000 C 
BRANCH  15  16
ATOM     16  C   UNL     1      22.002  -2.985  60.088  1.00  0.00    -0.000 C 
BRANCH  16  17
ATOM     17  C   UNL     1      21.382  -1.640  60.486  1.00  0.00    -0.003 C 
ATOM     18  C   UNL     1      21.770  -1.256  61.910  1.00  0.00     0.004 C 
ENDBRANCH  16  17
ENDBRANCH  15  16
ENDBRANCH  14  15
ENDBRANCH  13  14
ENDBRANCH  12  13
ENDBRANCH  11  12
ENDBRANCH   1  11
TORSDOF 14
ENDMDL
MODEL 9
REMARK VINA RESULT:    -5.676      3.133      7.031
REMARK INTER + INTRA:         -11.875
REMARK INTER:                 -10.086
REMARK INTRA:                  -1.789
REMARK UNBOUND:                -1.553
REMARK SMILES CCCCCCCCCCCCCCCC(=O)[O-]
REMARK SMILES IDX 9 1 10 2 11 3 12 4 13 5 14 6 15 7 16 8 17 9 18 10 8 11 7 12
REMARK SMILES IDX 6 13 5 14 4 15 3 16 2 17 1 18
REMARK H PARENT
REMARK Flexibility Score: inf
ROOT
ATOM      1  C   UNL     1      21.872  -1.291  61.762  1.00  0.00     0.000 C 
ENDROOT
BRANCH   1   2
ATOM      2  C   UNL     1      21.698   0.236  61.695  1.00  0.00     0.000 C 
BRANCH   2   3
ATOM      3  C   UNL     1      21.167   0.834  63.010  1.00  0.00     0.000 C 
BRANCH   3   4
ATOM      4  C   UNL     1      21.891   2.131  63.404  1.00  0.00     0.000 C 
BRANCH   4   5
ATOM      5  C   UNL     1      23.033   2.483  62.440  1.00  0.00     0.000 C 
BRANCH   5   6
ATOM      6  C   UNL     1      23.763   3.756  62.896  1.00  0.00     0.006 C 
BRANCH   6   7
ATOM      7  C   UNL     1      25.267   3.523  63.092  1.00  0.00     0.053 C 
BRANCH   7   8
ATOM      8  C   UNL     1      25.564   2.902  64.422  1.00  0.00     0.041 C 
ATOM      9  O   UNL     1      26.547   2.125  64.554  1.00  0.00    -0.550 OA
ATOM     10  O   UNL     1      24.738   3.155  65.509  1.00  0.00    -0.550 OA
ENDBRANCH   7   8
ENDBRANCH   6   7
ENDBRANCH   5   6
ENDBRANCH   4   5
ENDBRANCH   3   4
ENDBRANCH   2   3
ENDBRANCH   1   2
BRANCH   1  11
ATOM     11  C   UNL     1      21.398  -2.057  60.509  1.00  0.00     0.000 C 
BRANCH  11  12
ATOM     12  C   UNL     1      22.234  -3.298  60.145  1.00  0.00    -0.000 C 
BRANCH  12  13
ATOM     13  C   UNL     1      23.297  -3.067  59.055  1.00  0.00    -0.000 C 
BRANCH  13  14
ATOM     14  C   UNL     1      24.749  -3.197  59.564  1.00  0.00    -0.000 C 
BRANCH  14  15
ATOM     15  C   UNL     1      24.826  -3.798  60.975  1.00  0.00    -0.000 C 
BRANCH  15  16
ATOM     16  C   UNL     1      25.528  -2.838  61.943  1.00  0.00    -0.000 C 
BRANCH  16  17
ATOM     17  C   UNL     1      25.933  -1.540  61.234  1.00  0.00    -0.003 C 
ATOM     18  C   UNL     1      25.520  -0.317  62.046  1.00  0.00     0.004 C 
ENDBRANCH  16  17
ENDBRANCH  15  16
ENDBRANCH  14  15
ENDBRANCH  13  14
ENDBRANCH  12  13
ENDBRANCH  11  12
ENDBRANCH   1  11
TORSDOF 14
ENDMDL
