MODEL 1
REMARK VINA RESULT:    -6.462      0.000      0.000
REMARK INTER + INTRA:          -7.899
REMARK INTER:                  -7.596
REMARK INTRA:                  -0.303
REMARK UNBOUND:                -0.303
REMARK SMILES O=c1cc(-c2ccc(O)c(O)c2)oc2cc(O)cc(O)c12
REMARK SMILES IDX 4 1 3 2 2 3 1 4 21 5 19 6 18 7 16 8 15 9 14 10 13 11 5 12
REMARK SMILES IDX 6 13 7 14 8 15 12 16 10 17 9 18 11 20 20 22 17 24
REMARK H PARENT 9 19 11 21 20 23 17 25
REMARK Flexibility Score: inf
ROOT
ATOM      1  C   UNL     1      70.044  49.032   8.228  1.00  0.00     0.138 A 
ATOM      2  C   UNL     1      71.005  49.252   9.228  1.00  0.00     0.100 A 
ATOM      3  C   UNL     1      72.356  49.051   8.939  1.00  0.00     0.197 A 
ATOM      4  O   UNL     1      73.211  49.250   9.844  1.00  0.00    -0.289 OA
ATOM      5  C   UNL     1      72.736  48.629   7.649  1.00  0.00     0.107 A 
ATOM      6  C   UNL     1      74.082  48.405   7.273  1.00  0.00     0.134 A 
ATOM      7  C   UNL     1      74.377  47.980   5.969  1.00  0.00     0.093 A 
ATOM      8  C   UNL     1      73.355  47.775   5.038  1.00  0.00     0.123 A 
ATOM      9  C   UNL     1      72.024  47.995   5.405  1.00  0.00     0.094 A 
ATOM     10  C   UNL     1      71.709  48.420   6.699  1.00  0.00     0.146 A 
ATOM     11  O   UNL     1      70.436  48.624   7.023  1.00  0.00    -0.456 OA
ENDROOT
BRANCH   1  12
ATOM     12  C   UNL     1      68.594  49.227   8.479  1.00  0.00     0.021 A 
ATOM     13  C   UNL     1      68.177  50.227   9.375  1.00  0.00     0.016 A 
ATOM     14  C   UNL     1      66.819  50.427   9.635  1.00  0.00     0.051 A 
ATOM     15  C   UNL     1      65.855  49.625   9.013  1.00  0.00     0.157 A 
ATOM     16  C   UNL     1      67.620  48.416   7.867  1.00  0.00     0.062 A 
ATOM     17  C   UNL     1      66.258  48.612   8.127  1.00  0.00     0.158 A 
BRANCH  15  18
ATOM     18  O   UNL     1      64.500  49.827   9.274  1.00  0.00    -0.504 OA
ATOM     19  H   UNL     1      63.809  49.112   9.076  1.00  0.00     0.293 HD
ENDBRANCH  15  18
BRANCH  17  20
ATOM     20  O   UNL     1      65.324  47.789   7.500  1.00  0.00    -0.504 OA
ATOM     21  H   UNL     1      65.425  46.781   7.475  1.00  0.00     0.293 HD
ENDBRANCH  17  20
ENDBRANCH   1  12
BRANCH   6  22
ATOM     22  O   UNL     1      75.122  48.601   8.180  1.00  0.00    -0.507 OA
ATOM     23  H   UNL     1      74.966  49.025   9.087  1.00  0.00     0.293 HD
ENDBRANCH   6  22
BRANCH   8  24
ATOM     24  O   UNL     1      73.675  47.352   3.750  1.00  0.00    -0.508 OA
ATOM     25  H   UNL     1      73.127  46.647   3.272  1.00  0.00     0.293 HD
ENDBRANCH   8  24
TORSDOF 5
ENDMDL
MODEL 2
REMARK VINA RESULT:    -6.328      1.412      6.962
REMARK INTER + INTRA:          -7.741
REMARK INTER:                  -7.452
REMARK INTRA:                  -0.289
REMARK UNBOUND:                -0.303
REMARK SMILES O=c1cc(-c2ccc(O)c(O)c2)oc2cc(O)cc(O)c12
REMARK SMILES IDX 4 1 3 2 2 3 1 4 21 5 19 6 18 7 16 8 15 9 14 10 13 11 5 12
REMARK SMILES IDX 6 13 7 14 8 15 12 16 10 17 9 18 11 20 20 22 17 24
REMARK H PARENT 9 19 11 21 20 23 17 25
REMARK Flexibility Score: inf
ROOT
ATOM      1  C   UNL     1      69.470  48.972   8.552  1.00  0.00     0.138 A 
ATOM      2  C   UNL     1      68.849  50.105   9.105  1.00  0.00     0.100 A 
ATOM      3  C   UNL     1      67.463  50.121   9.261  1.00  0.00     0.197 A 
ATOM      4  O   UNL     1      66.915  51.142   9.757  1.00  0.00    -0.289 OA
ATOM      5  C   UNL     1      66.704  49.002   8.860  1.00  0.00     0.107 A 
ATOM      6  C   UNL     1      65.296  48.936   8.986  1.00  0.00     0.134 A 
ATOM      7  C   UNL     1      64.615  47.787   8.558  1.00  0.00     0.093 A 
ATOM      8  C   UNL     1      65.312  46.708   8.008  1.00  0.00     0.123 A 
ATOM      9  C   UNL     1      66.703  46.768   7.881  1.00  0.00     0.094 A 
ATOM     10  C   UNL     1      67.402  47.904   8.303  1.00  0.00     0.146 A 
ATOM     11  O   UNL     1      68.724  47.937   8.175  1.00  0.00    -0.456 OA
ENDROOT
BRANCH   1  12
ATOM     12  C   UNL     1      70.940  48.901   8.360  1.00  0.00     0.021 A 
ATOM     13  C   UNL     1      71.793  49.252   9.421  1.00  0.00     0.016 A 
ATOM     14  C   UNL     1      73.181  49.200   9.265  1.00  0.00     0.051 A 
ATOM     15  C   UNL     1      73.740  48.808   8.043  1.00  0.00     0.157 A 
ATOM     16  C   UNL     1      71.510  48.521   7.130  1.00  0.00     0.062 A 
ATOM     17  C   UNL     1      72.900  48.471   6.970  1.00  0.00     0.158 A 
BRANCH  15  18
ATOM     18  O   UNL     1      75.125  48.757   7.890  1.00  0.00    -0.504 OA
ATOM     19  H   UNL     1      75.747  48.756   8.690  1.00  0.00     0.293 HD
ENDBRANCH  15  18
BRANCH  17  20
ATOM     20  O   UNL     1      73.426  48.087   5.737  1.00  0.00    -0.504 OA
ATOM     21  H   UNL     1      73.133  47.237   5.268  1.00  0.00     0.293 HD
ENDBRANCH  17  20
ENDBRANCH   1  12
BRANCH   6  22
ATOM     22  O   UNL     1      64.574  49.997   9.530  1.00  0.00    -0.507 OA
ATOM     23  H   UNL     1      63.758  49.843  10.112  1.00  0.00     0.293 HD
ENDBRANCH   6  22
BRANCH   8  24
ATOM     24  O   UNL     1      64.610  45.579   7.589  1.00  0.00    -0.508 OA
ATOM     25  H   UNL     1      65.063  44.678   7.495  1.00  0.00     0.293 HD
ENDBRANCH   8  24
TORSDOF 5
ENDMDL
MODEL 3
REMARK VINA RESULT:    -6.123      2.006      7.391
REMARK INTER + INTRA:          -7.500
REMARK INTER:                  -7.194
REMARK INTRA:                  -0.306
REMARK UNBOUND:                -0.303
REMARK SMILES O=c1cc(-c2ccc(O)c(O)c2)oc2cc(O)cc(O)c12
REMARK SMILES IDX 4 1 3 2 2 3 1 4 21 5 19 6 18 7 16 8 15 9 14 10 13 11 5 12
REMARK SMILES IDX 6 13 7 14 8 15 12 16 10 17 9 18 11 20 20 22 17 24
REMARK H PARENT 9 19 11 21 20 23 17 25
REMARK Flexibility Score: inf
ROOT
ATOM      1  C   UNL     1      67.792  48.800   8.571  1.00  0.00     0.138 A 
ATOM      2  C   UNL     1      67.037  49.785   9.230  1.00  0.00     0.100 A 
ATOM      3  C   UNL     1      65.698  49.536   9.530  1.00  0.00     0.197 A 
ATOM      4  O   UNL     1      65.028  50.427  10.120  1.00  0.00    -0.289 OA
ATOM      5  C   UNL     1      65.119  48.303   9.167  1.00  0.00     0.107 A 
ATOM      6  C   UNL     1      63.771  47.971   9.436  1.00  0.00     0.134 A 
ATOM      7  C   UNL     1      63.270  46.722   9.037  1.00  0.00     0.093 A 
ATOM      8  C   UNL     1      64.090  45.804   8.376  1.00  0.00     0.123 A 
ATOM      9  C   UNL     1      65.424  46.128   8.107  1.00  0.00     0.094 A 
ATOM     10  C   UNL     1      65.942  47.366   8.498  1.00  0.00     0.146 A 
ATOM     11  O   UNL     1      67.214  47.649   8.234  1.00  0.00    -0.456 OA
ENDROOT
BRANCH   1  12
ATOM     12  C   UNL     1      69.220  49.010   8.225  1.00  0.00     0.021 A 
ATOM     13  C   UNL     1      70.011  49.845   9.032  1.00  0.00     0.016 A 
ATOM     14  C   UNL     1      71.357  50.065   8.724  1.00  0.00     0.051 A 
ATOM     15  C   UNL     1      71.931  49.464   7.599  1.00  0.00     0.157 A 
ATOM     16  C   UNL     1      69.801  48.419   7.086  1.00  0.00     0.062 A 
ATOM     17  C   UNL     1      71.148  48.640   6.774  1.00  0.00     0.158 A 
BRANCH  15  18
ATOM     18  O   UNL     1      73.274  49.685   7.294  1.00  0.00    -0.504 OA
ATOM     19  H   UNL     1      73.913  48.916   7.125  1.00  0.00     0.293 HD
ENDBRANCH  15  18
BRANCH  17  20
ATOM     20  O   UNL     1      71.688  48.035   5.639  1.00  0.00    -0.504 OA
ATOM     21  H   UNL     1      71.262  48.131   4.724  1.00  0.00     0.293 HD
ENDBRANCH  17  20
ENDBRANCH   1  12
BRANCH   6  22
ATOM     22  O   UNL     1      62.929  48.866  10.094  1.00  0.00    -0.507 OA
ATOM     23  H   UNL     1      61.943  48.934   9.870  1.00  0.00     0.293 HD
ENDBRANCH   6  22
BRANCH   8  24
ATOM     24  O   UNL     1      63.568  44.572   7.989  1.00  0.00    -0.508 OA
ATOM     25  H   UNL     1      62.614  44.309   8.206  1.00  0.00     0.293 HD
ENDBRANCH   8  24
TORSDOF 5
ENDMDL
MODEL 4
REMARK VINA RESULT:    -6.120      1.665      6.929
REMARK INTER + INTRA:          -7.497
REMARK INTER:                  -7.225
REMARK INTRA:                  -0.272
REMARK UNBOUND:                -0.303
REMARK SMILES O=c1cc(-c2ccc(O)c(O)c2)oc2cc(O)cc(O)c12
REMARK SMILES IDX 4 1 3 2 2 3 1 4 21 5 19 6 18 7 16 8 15 9 14 10 13 11 5 12
REMARK SMILES IDX 6 13 7 14 8 15 12 16 10 17 9 18 11 20 20 22 17 24
REMARK H PARENT 9 19 11 21 20 23 17 25
REMARK Flexibility Score: inf
ROOT
ATOM      1  C   UNL     1      70.683  48.277   7.288  1.00  0.00     0.138 A 
ATOM      2  C   UNL     1      70.863  49.383   8.135  1.00  0.00     0.100 A 
ATOM      3  C   UNL     1      69.747  50.013   8.687  1.00  0.00     0.197 A 
ATOM      4  O   UNL     1      69.919  51.006   9.445  1.00  0.00    -0.289 OA
ATOM      5  C   UNL     1      68.456  49.534   8.386  1.00  0.00     0.107 A 
ATOM      6  C   UNL     1      67.274  50.113   8.905  1.00  0.00     0.134 A 
ATOM      7  C   UNL     1      66.026  49.579   8.552  1.00  0.00     0.093 A 
ATOM      8  C   UNL     1      65.938  48.481   7.692  1.00  0.00     0.123 A 
ATOM      9  C   UNL     1      67.103  47.905   7.176  1.00  0.00     0.094 A 
ATOM     10  C   UNL     1      68.357  48.421   7.517  1.00  0.00     0.146 A 
ATOM     11  O   UNL     1      69.450  47.855   7.016  1.00  0.00    -0.456 OA
ENDROOT
BRANCH   1  12
ATOM     12  C   UNL     1      71.833  47.569   6.671  1.00  0.00     0.021 A 
ATOM     13  C   UNL     1      71.953  46.178   6.830  1.00  0.00     0.016 A 
ATOM     14  C   UNL     1      73.030  45.488   6.266  1.00  0.00     0.051 A 
ATOM     15  C   UNL     1      74.009  46.177   5.541  1.00  0.00     0.157 A 
ATOM     16  C   UNL     1      72.828  48.258   5.952  1.00  0.00     0.062 A 
ATOM     17  C   UNL     1      73.909  47.570   5.387  1.00  0.00     0.158 A 
BRANCH  15  18
ATOM     18  O   UNL     1      75.081  45.487   4.979  1.00  0.00    -0.504 OA
ATOM     19  H   UNL     1      76.021  45.866   4.990  1.00  0.00     0.293 HD
ENDBRANCH  15  18
BRANCH  17  20
ATOM     20  O   UNL     1      74.874  48.287   4.681  1.00  0.00    -0.504 OA
ATOM     21  H   UNL     1      74.922  49.299   4.712  1.00  0.00     0.293 HD
ENDBRANCH  17  20
ENDBRANCH   1  12
BRANCH   6  22
ATOM     22  O   UNL     1      67.330  51.209   9.765  1.00  0.00    -0.507 OA
ATOM     23  H   UNL     1      67.880  51.192  10.616  1.00  0.00     0.293 HD
ENDBRANCH   6  22
BRANCH   8  24
ATOM     24  O   UNL     1      64.686  47.970   7.356  1.00  0.00    -0.508 OA
ATOM     25  H   UNL     1      64.280  47.190   7.858  1.00  0.00     0.293 HD
ENDBRANCH   8  24
TORSDOF 5
ENDMDL
MODEL 5
REMARK VINA RESULT:    -5.790      1.395      1.450
REMARK INTER + INTRA:          -7.109
REMARK INTER:                  -6.794
REMARK INTRA:                  -0.315
REMARK UNBOUND:                -0.303
REMARK SMILES O=c1cc(-c2ccc(O)c(O)c2)oc2cc(O)cc(O)c12
REMARK SMILES IDX 4 1 3 2 2 3 1 4 21 5 19 6 18 7 16 8 15 9 14 10 13 11 5 12
REMARK SMILES IDX 6 13 7 14 8 15 12 16 10 17 9 18 11 20 20 22 17 24
REMARK H PARENT 9 19 11 21 20 23 17 25
REMARK Flexibility Score: inf
ROOT
ATOM      1  C   UNL     1      69.914  48.088   8.095  1.00  0.00     0.138 A 
ATOM      2  C   UNL     1      70.775  48.955   8.789  1.00  0.00     0.100 A 
ATOM      3  C   UNL     1      72.155  48.816   8.640  1.00  0.00     0.197 A 
ATOM      4  O   UNL     1      72.920  49.598   9.267  1.00  0.00    -0.289 OA
ATOM      5  C   UNL     1      72.667  47.807   7.798  1.00  0.00     0.107 A 
ATOM      6  C   UNL     1      74.051  47.601   7.590  1.00  0.00     0.134 A 
ATOM      7  C   UNL     1      74.479  46.570   6.740  1.00  0.00     0.093 A 
ATOM      8  C   UNL     1      73.552  45.745   6.096  1.00  0.00     0.123 A 
ATOM      9  C   UNL     1      72.183  45.946   6.299  1.00  0.00     0.094 A 
ATOM     10  C   UNL     1      71.736  46.968   7.141  1.00  0.00     0.146 A 
ATOM     11  O   UNL     1      70.430  47.140   7.316  1.00  0.00    -0.456 OA
ENDROOT
BRANCH   1  12
ATOM     12  C   UNL     1      68.438  48.188   8.217  1.00  0.00     0.021 A 
ATOM     13  C   UNL     1      67.869  49.339   8.788  1.00  0.00     0.016 A 
ATOM     14  C   UNL     1      66.482  49.455   8.921  1.00  0.00     0.051 A 
ATOM     15  C   UNL     1      65.642  48.419   8.496  1.00  0.00     0.157 A 
ATOM     16  C   UNL     1      67.588  47.144   7.804  1.00  0.00     0.062 A 
ATOM     17  C   UNL     1      66.199  47.257   7.939  1.00  0.00     0.158 A 
BRANCH  15  18
ATOM     18  O   UNL     1      64.260  48.538   8.630  1.00  0.00    -0.504 OA
ATOM     19  H   UNL     1      63.744  49.279   8.169  1.00  0.00     0.293 HD
ENDBRANCH  15  18
BRANCH  17  20
ATOM     20  O   UNL     1      65.390  46.202   7.517  1.00  0.00    -0.504 OA
ATOM     21  H   UNL     1      64.804  46.269   6.692  1.00  0.00     0.293 HD
ENDBRANCH  17  20
ENDBRANCH   1  12
BRANCH   6  22
ATOM     22  O   UNL     1      74.999  48.407   8.218  1.00  0.00    -0.507 OA
ATOM     23  H   UNL     1      75.573  48.061   8.979  1.00  0.00     0.293 HD
ENDBRANCH   6  22
BRANCH   8  24
ATOM     24  O   UNL     1      74.004  44.729   5.258  1.00  0.00    -0.508 OA
ATOM     25  H   UNL     1      74.876  44.810   4.749  1.00  0.00     0.293 HD
ENDBRANCH   8  24
TORSDOF 5
ENDMDL
MODEL 6
REMARK VINA RESULT:    -5.605      1.910      2.273
REMARK INTER + INTRA:          -6.891
REMARK INTER:                  -6.627
REMARK INTRA:                  -0.265
REMARK UNBOUND:                -0.303
REMARK SMILES O=c1cc(-c2ccc(O)c(O)c2)oc2cc(O)cc(O)c12
REMARK SMILES IDX 4 1 3 2 2 3 1 4 21 5 19 6 18 7 16 8 15 9 14 10 13 11 5 12
REMARK SMILES IDX 6 13 7 14 8 15 12 16 10 17 9 18 11 20 20 22 17 24
REMARK H PARENT 9 19 11 21 20 23 17 25
REMARK Flexibility Score: inf
ROOT
ATOM      1  C   UNL     1      69.821  47.492   7.544  1.00  0.00     0.138 A 
ATOM      2  C   UNL     1      70.115  46.162   7.886  1.00  0.00     0.100 A 
ATOM      3  C   UNL     1      71.325  45.599   7.476  1.00  0.00     0.197 A 
ATOM      4  O   UNL     1      71.579  44.404   7.786  1.00  0.00    -0.289 OA
ATOM      5  C   UNL     1      72.233  46.371   6.723  1.00  0.00     0.107 A 
ATOM      6  C   UNL     1      73.479  45.878   6.271  1.00  0.00     0.134 A 
ATOM      7  C   UNL     1      74.325  46.710   5.522  1.00  0.00     0.093 A 
ATOM      8  C   UNL     1      73.947  48.021   5.217  1.00  0.00     0.123 A 
ATOM      9  C   UNL     1      72.716  48.513   5.662  1.00  0.00     0.094 A 
ATOM     10  C   UNL     1      71.860  47.700   6.411  1.00  0.00     0.146 A 
ATOM     11  O   UNL     1      70.696  48.191   6.824  1.00  0.00    -0.456 OA
ENDROOT
BRANCH   1  12
ATOM     12  C   UNL     1      68.550  48.142   7.951  1.00  0.00     0.021 A 
ATOM     13  C   UNL     1      68.562  49.099   8.980  1.00  0.00     0.016 A 
ATOM     14  C   UNL     1      67.379  49.720   9.387  1.00  0.00     0.051 A 
ATOM     15  C   UNL     1      66.162  49.389   8.781  1.00  0.00     0.157 A 
ATOM     16  C   UNL     1      67.321  47.803   7.354  1.00  0.00     0.062 A 
ATOM     17  C   UNL     1      66.133  48.423   7.762  1.00  0.00     0.158 A 
BRANCH  15  18
ATOM     18  O   UNL     1      64.982  50.010   9.189  1.00  0.00    -0.504 OA
ATOM     19  H   UNL     1      64.099  49.513   9.207  1.00  0.00     0.293 HD
ENDBRANCH  15  18
BRANCH  17  20
ATOM     20  O   UNL     1      64.935  48.062   7.145  1.00  0.00    -0.504 OA
ATOM     21  H   UNL     1      64.684  47.093   6.983  1.00  0.00     0.293 HD
ENDBRANCH  17  20
ENDBRANCH   1  12
BRANCH   6  22
ATOM     22  O   UNL     1      73.883  44.575   6.559  1.00  0.00    -0.507 OA
ATOM     23  H   UNL     1      74.218  43.949   5.836  1.00  0.00     0.293 HD
ENDBRANCH   6  22
BRANCH   8  24
ATOM     24  O   UNL     1      74.805  48.826   4.471  1.00  0.00    -0.508 OA
ATOM     25  H   UNL     1      74.753  49.837   4.512  1.00  0.00     0.293 HD
ENDBRANCH   8  24
TORSDOF 5
ENDMDL
MODEL 7
REMARK VINA RESULT:    -5.551      3.915      6.688
REMARK INTER + INTRA:          -6.828
REMARK INTER:                  -6.511
REMARK INTRA:                  -0.317
REMARK UNBOUND:                -0.303
REMARK SMILES O=c1cc(-c2ccc(O)c(O)c2)oc2cc(O)cc(O)c12
REMARK SMILES IDX 4 1 3 2 2 3 1 4 21 5 19 6 18 7 16 8 15 9 14 10 13 11 5 12
REMARK SMILES IDX 6 13 7 14 8 15 12 16 10 17 9 18 11 20 20 22 17 24
REMARK H PARENT 9 19 11 21 20 23 17 25
REMARK Flexibility Score: inf
ROOT
ATOM      1  C   UNL     1      72.815  45.354   6.916  1.00  0.00     0.138 A 
ATOM      2  C   UNL     1      74.009  45.908   7.407  1.00  0.00     0.100 A 
ATOM      3  C   UNL     1      74.022  47.232   7.848  1.00  0.00     0.197 A 
ATOM      4  O   UNL     1      75.099  47.720   8.285  1.00  0.00    -0.289 OA
ATOM      5  C   UNL     1      72.838  47.995   7.794  1.00  0.00     0.107 A 
ATOM      6  C   UNL     1      72.765  49.342   8.223  1.00  0.00     0.134 A 
ATOM      7  C   UNL     1      71.548  50.034   8.131  1.00  0.00     0.093 A 
ATOM      8  C   UNL     1      70.408  49.408   7.619  1.00  0.00     0.123 A 
ATOM      9  C   UNL     1      70.476  48.078   7.194  1.00  0.00     0.094 A 
ATOM     10  C   UNL     1      71.679  47.369   7.278  1.00  0.00     0.146 A 
ATOM     11  O   UNL     1      71.717  46.105   6.869  1.00  0.00    -0.456 OA
ENDROOT
BRANCH   1  12
ATOM     12  C   UNL     1      72.743  43.953   6.432  1.00  0.00     0.021 A 
ATOM     13  C   UNL     1      73.929  43.216   6.272  1.00  0.00     0.016 A 
ATOM     14  C   UNL     1      73.890  41.897   5.811  1.00  0.00     0.051 A 
ATOM     15  C   UNL     1      72.667  41.297   5.491  1.00  0.00     0.157 A 
ATOM     16  C   UNL     1      71.518  43.347   6.095  1.00  0.00     0.062 A 
ATOM     17  C   UNL     1      71.476  42.027   5.630  1.00  0.00     0.158 A 
BRANCH  15  18
ATOM     18  O   UNL     1      72.631  39.981   5.031  1.00  0.00    -0.504 OA
ATOM     19  H   UNL     1      72.974  39.731   4.111  1.00  0.00     0.293 HD
ENDBRANCH  15  18
BRANCH  17  20
ATOM     20  O   UNL     1      70.242  41.461   5.309  1.00  0.00    -0.504 OA
ATOM     21  H   UNL     1      70.029  41.129   4.376  1.00  0.00     0.293 HD
ENDBRANCH  17  20
ENDBRANCH   1  12
BRANCH   6  22
ATOM     22  O   UNL     1      73.885  49.993   8.737  1.00  0.00    -0.507 OA
ATOM     23  H   UNL     1      74.202  50.881   8.367  1.00  0.00     0.293 HD
ENDBRANCH   6  22
BRANCH   8  24
ATOM     24  O   UNL     1      69.213  50.119   7.537  1.00  0.00    -0.508 OA
ATOM     25  H   UNL     1      68.609  50.234   8.341  1.00  0.00     0.293 HD
ENDBRANCH   8  24
TORSDOF 5
ENDMDL
MODEL 8
REMARK VINA RESULT:    -5.500      1.924      7.141
REMARK INTER + INTRA:          -6.768
REMARK INTER:                  -6.461
REMARK INTRA:                  -0.308
REMARK UNBOUND:                -0.303
REMARK SMILES O=c1cc(-c2ccc(O)c(O)c2)oc2cc(O)cc(O)c12
REMARK SMILES IDX 4 1 3 2 2 3 1 4 21 5 19 6 18 7 16 8 15 9 14 10 13 11 5 12
REMARK SMILES IDX 6 13 7 14 8 15 12 16 10 17 9 18 11 20 20 22 17 24
REMARK H PARENT 9 19 11 21 20 23 17 25
REMARK Flexibility Score: inf
ROOT
ATOM      1  C   UNL     1      70.312  47.428   7.497  1.00  0.00     0.138 A 
ATOM      2  C   UNL     1      69.337  46.479   7.849  1.00  0.00     0.100 A 
ATOM      3  C   UNL     1      68.180  46.894   8.508  1.00  0.00     0.197 A 
ATOM      4  O   UNL     1      67.312  46.035   8.821  1.00  0.00    -0.289 OA
ATOM      5  C   UNL     1      68.006  48.259   8.815  1.00  0.00     0.107 A 
ATOM      6  C   UNL     1      66.863  48.764   9.479  1.00  0.00     0.134 A 
ATOM      7  C   UNL     1      66.769  50.137   9.752  1.00  0.00     0.093 A 
ATOM      8  C   UNL     1      67.792  51.011   9.376  1.00  0.00     0.123 A 
ATOM      9  C   UNL     1      68.923  50.517   8.719  1.00  0.00     0.094 A 
ATOM     10  C   UNL     1      69.037  49.152   8.437  1.00  0.00     0.146 A 
ATOM     11  O   UNL     1      70.121  48.708   7.810  1.00  0.00    -0.456 OA
ENDROOT
BRANCH   1  12
ATOM     12  C   UNL     1      71.563  47.042   6.797  1.00  0.00     0.021 A 
ATOM     13  C   UNL     1      72.089  45.753   6.984  1.00  0.00     0.016 A 
ATOM     14  C   UNL     1      73.269  45.367   6.342  1.00  0.00     0.051 A 
ATOM     15  C   UNL     1      73.948  46.266   5.511  1.00  0.00     0.157 A 
ATOM     16  C   UNL     1      72.258  47.946   5.971  1.00  0.00     0.062 A 
ATOM     17  C   UNL     1      73.441  47.563   5.328  1.00  0.00     0.158 A 
BRANCH  15  18
ATOM     18  O   UNL     1      75.125  45.879   4.872  1.00  0.00    -0.504 OA
ATOM     19  H   UNL     1      75.719  46.551   4.400  1.00  0.00     0.293 HD
ENDBRANCH  15  18
BRANCH  17  20
ATOM     20  O   UNL     1      74.100  48.486   4.517  1.00  0.00    -0.504 OA
ATOM     21  H   UNL     1      73.687  49.379   4.271  1.00  0.00     0.293 HD
ENDBRANCH  17  20
ENDBRANCH   1  12
BRANCH   6  22
ATOM     22  O   UNL     1      65.826  47.917   9.867  1.00  0.00    -0.507 OA
ATOM     23  H   UNL     1      65.852  47.409  10.744  1.00  0.00     0.293 HD
ENDBRANCH   6  22
BRANCH   8  24
ATOM     24  O   UNL     1      67.674  52.369   9.660  1.00  0.00    -0.508 OA
ATOM     25  H   UNL     1      67.329  53.027   8.971  1.00  0.00     0.293 HD
ENDBRANCH   8  24
TORSDOF 5
ENDMDL
MODEL 9
REMARK VINA RESULT:    -5.403      1.848      2.207
REMARK INTER + INTRA:          -6.654
REMARK INTER:                  -6.341
REMARK INTRA:                  -0.313
REMARK UNBOUND:                -0.303
REMARK SMILES O=c1cc(-c2ccc(O)c(O)c2)oc2cc(O)cc(O)c12
REMARK SMILES IDX 4 1 3 2 2 3 1 4 21 5 19 6 18 7 16 8 15 9 14 10 13 11 5 12
REMARK SMILES IDX 6 13 7 14 8 15 12 16 10 17 9 18 11 20 20 22 17 24
REMARK H PARENT 9 19 11 21 20 23 17 25
REMARK Flexibility Score: inf
ROOT
ATOM      1  C   UNL     1      68.587  48.396   8.486  1.00  0.00     0.138 A 
ATOM      2  C   UNL     1      69.121  49.642   8.855  1.00  0.00     0.100 A 
ATOM      3  C   UNL     1      70.473  49.902   8.634  1.00  0.00     0.197 A 
ATOM      4  O   UNL     1      70.944  51.022   8.970  1.00  0.00    -0.289 OA
ATOM      5  C   UNL     1      71.286  48.911   8.045  1.00  0.00     0.107 A 
ATOM      6  C   UNL     1      72.664  49.095   7.784  1.00  0.00     0.134 A 
ATOM      7  C   UNL     1      73.404  48.056   7.200  1.00  0.00     0.093 A 
ATOM      8  C   UNL     1      72.794  46.842   6.873  1.00  0.00     0.123 A 
ATOM      9  C   UNL     1      71.432  46.656   7.128  1.00  0.00     0.094 A 
ATOM     10  C   UNL     1      70.676  47.679   7.710  1.00  0.00     0.146 A 
ATOM     11  O   UNL     1      69.383  47.479   7.941  1.00  0.00    -0.456 OA
ENDROOT
BRANCH   1  12
ATOM     12  C   UNL     1      67.156  48.064   8.699  1.00  0.00     0.021 A 
ATOM     13  C   UNL     1      66.412  48.788   9.647  1.00  0.00     0.016 A 
ATOM     14  C   UNL     1      65.066  48.491   9.873  1.00  0.00     0.051 A 
ATOM     15  C   UNL     1      64.442  47.458   9.164  1.00  0.00     0.157 A 
ATOM     16  C   UNL     1      66.525  47.017   7.999  1.00  0.00     0.062 A 
ATOM     17  C   UNL     1      65.177  46.716   8.225  1.00  0.00     0.158 A 
BRANCH  15  18
ATOM     18  O   UNL     1      63.098  47.164   9.390  1.00  0.00    -0.504 OA
ATOM     19  H   UNL     1      62.798  46.238   9.673  1.00  0.00     0.293 HD
ENDBRANCH  15  18
BRANCH  17  20
ATOM     20  O   UNL     1      64.588  45.673   7.511  1.00  0.00    -0.504 OA
ATOM     21  H   UNL     1      63.593  45.484   7.556  1.00  0.00     0.293 HD
ENDBRANCH  17  20
ENDBRANCH   1  12
BRANCH   6  22
ATOM     22  O   UNL     1      73.301  50.294   8.100  1.00  0.00    -0.507 OA
ATOM     23  H   UNL     1      73.613  50.501   9.042  1.00  0.00     0.293 HD
ENDBRANCH   6  22
BRANCH   8  24
ATOM     24  O   UNL     1      73.552  45.827   6.294  1.00  0.00    -0.508 OA
ATOM     25  H   UNL     1      74.375  45.454   6.751  1.00  0.00     0.293 HD
ENDBRANCH   8  24
TORSDOF 5
ENDMDL
