MODEL 1
REMARK VINA RESULT:    -5.175      0.000      0.000
REMARK INTER + INTRA:          -6.088
REMARK INTER:                  -6.234
REMARK INTRA:                   0.146
REMARK UNBOUND:                 0.146
REMARK SMILES O=c1c(O)c(-c2ccc(O)cc2O)oc2cc(O)cc(O)c12
REMARK SMILES IDX 5 1 3 2 2 3 1 4 22 5 20 6 19 7 17 8 16 9 15 10 14 11 6 12
REMARK SMILES IDX 8 13 7 14 9 15 11 16 12 17 10 18 13 20 4 22 21 24 18 26
REMARK H PARENT 10 19 13 21 4 23 21 25 18 27
REMARK Flexibility Score: inf
ROOT
ATOM      1  C   UNL     1      10.847  -1.608  19.006  1.00  0.00     0.184 A 
ATOM      2  C   UNL     1      10.278  -0.535  18.304  1.00  0.00     0.208 A 
ATOM      3  C   UNL     1       8.895  -0.534  18.067  1.00  0.00     0.238 A 
ATOM      4  O   UNL     1       8.398   0.404  17.391  1.00  0.00    -0.285 OA
ATOM      5  C   UNL     1       8.098  -1.600  18.550  1.00  0.00     0.111 A 
ATOM      6  C   UNL     1       6.680  -1.684  18.403  1.00  0.00     0.134 A 
ATOM      7  C   UNL     1       6.011  -2.846  18.807  1.00  0.00     0.093 A 
ATOM      8  C   UNL     1       6.697  -3.899  19.410  1.00  0.00     0.123 A 
ATOM      9  C   UNL     1       8.074  -3.805  19.612  1.00  0.00     0.094 A 
ATOM     10  C   UNL     1       8.775  -2.673  19.188  1.00  0.00     0.146 A 
ATOM     11  O   UNL     1      10.087  -2.627  19.389  1.00  0.00    -0.451 OA
ENDROOT
BRANCH   1  12
ATOM     12  C   UNL     1      12.294  -1.662  19.303  1.00  0.00     0.063 A 
ATOM     13  C   UNL     1      14.366  -0.474  19.762  1.00  0.00     0.047 A 
ATOM     14  C   UNL     1      12.997  -0.460  19.485  1.00  0.00     0.020 A 
ATOM     15  C   UNL     1      15.053  -1.691  19.846  1.00  0.00     0.119 A 
ATOM     16  C   UNL     1      14.367  -2.892  19.643  1.00  0.00     0.093 A 
ATOM     17  C   UNL     1      12.993  -2.886  19.360  1.00  0.00     0.130 A 
BRANCH  15  18
ATOM     18  O   UNL     1      16.418  -1.717  20.125  1.00  0.00    -0.508 OA
ATOM     19  H   UNL     1      16.764  -1.700  21.077  1.00  0.00     0.293 HD
ENDBRANCH  15  18
BRANCH  17  20
ATOM     20  O   UNL     1      12.331  -4.088  19.111  1.00  0.00    -0.507 OA
ATOM     21  H   UNL     1      11.655  -4.177  18.360  1.00  0.00     0.293 HD
ENDBRANCH  17  20
ENDBRANCH   1  12
BRANCH   2  22
ATOM     22  O   UNL     1      11.091   0.495  17.823  1.00  0.00    -0.502 OA
ATOM     23  H   UNL     1      12.088   0.528  17.999  1.00  0.00     0.293 HD
ENDBRANCH   2  22
BRANCH   6  24
ATOM     24  O   UNL     1       5.886  -0.650  17.898  1.00  0.00    -0.507 OA
ATOM     25  H   UNL     1       6.212   0.074  17.276  1.00  0.00     0.293 HD
ENDBRANCH   6  24
BRANCH   8  26
ATOM     26  O   UNL     1       5.996  -5.034  19.812  1.00  0.00    -0.508 OA
ATOM     27  H   UNL     1       6.019  -5.358  20.772  1.00  0.00     0.293 HD
ENDBRANCH   8  26
TORSDOF 6
ENDMDL
MODEL 2
REMARK VINA RESULT:    -5.020      3.365      6.106
REMARK INTER + INTRA:          -5.901
REMARK INTER:                  -5.656
REMARK INTRA:                  -0.244
REMARK UNBOUND:                 0.146
REMARK SMILES O=c1c(O)c(-c2ccc(O)cc2O)oc2cc(O)cc(O)c12
REMARK SMILES IDX 5 1 3 2 2 3 1 4 22 5 20 6 19 7 17 8 16 9 15 10 14 11 6 12
REMARK SMILES IDX 8 13 7 14 9 15 11 16 12 17 10 18 13 20 4 22 21 24 18 26
REMARK H PARENT 10 19 13 21 4 23 21 25 18 27
REMARK Flexibility Score: inf
ROOT
ATOM      1  C   UNL     1       9.612  -1.060  16.799  1.00  0.00     0.184 A 
ATOM      2  C   UNL     1      10.952  -0.846  17.156  1.00  0.00     0.208 A 
ATOM      3  C   UNL     1      11.262   0.200  18.039  1.00  0.00     0.238 A 
ATOM      4  O   UNL     1      12.470   0.421  18.313  1.00  0.00    -0.285 OA
ATOM      5  C   UNL     1      10.225   1.007  18.565  1.00  0.00     0.111 A 
ATOM      6  C   UNL     1      10.419   2.069  19.499  1.00  0.00     0.134 A 
ATOM      7  C   UNL     1       9.337   2.884  19.853  1.00  0.00     0.093 A 
ATOM      8  C   UNL     1       8.057   2.637  19.358  1.00  0.00     0.123 A 
ATOM      9  C   UNL     1       7.844   1.566  18.490  1.00  0.00     0.094 A 
ATOM     10  C   UNL     1       8.910   0.756  18.091  1.00  0.00     0.146 A 
ATOM     11  O   UNL     1       8.667  -0.247  17.255  1.00  0.00    -0.451 OA
ENDROOT
BRANCH   1  12
ATOM     12  C   UNL     1       9.216  -2.154  15.887  1.00  0.00     0.063 A 
ATOM     13  C   UNL     1       8.050  -4.262  15.555  1.00  0.00     0.047 A 
ATOM     14  C   UNL     1       8.437  -3.209  16.387  1.00  0.00     0.020 A 
ATOM     15  C   UNL     1       8.450  -4.280  14.213  1.00  0.00     0.119 A 
ATOM     16  C   UNL     1       9.245  -3.245  13.712  1.00  0.00     0.093 A 
ATOM     17  C   UNL     1       9.642  -2.187  14.543  1.00  0.00     0.130 A 
BRANCH  15  18
ATOM     18  O   UNL     1       8.067  -5.322  13.372  1.00  0.00    -0.508 OA
ATOM     19  H   UNL     1       7.712  -5.147  12.439  1.00  0.00     0.293 HD
ENDBRANCH  15  18
BRANCH  17  20
ATOM     20  O   UNL     1      10.477  -1.187  14.043  1.00  0.00    -0.507 OA
ATOM     21  H   UNL     1      10.775  -0.407  14.618  1.00  0.00     0.293 HD
ENDBRANCH  17  20
ENDBRANCH   1  12
BRANCH   2  22
ATOM     22  O   UNL     1      11.958  -1.646  16.606  1.00  0.00    -0.502 OA
ATOM     23  H   UNL     1      11.761  -2.394  15.952  1.00  0.00     0.293 HD
ENDBRANCH   2  22
BRANCH   6  24
ATOM     24  O   UNL     1      11.639   2.345  20.125  1.00  0.00    -0.507 OA
ATOM     25  H   UNL     1      12.430   2.779  19.675  1.00  0.00     0.293 HD
ENDBRANCH   6  24
BRANCH   8  26
ATOM     26  O   UNL     1       7.001   3.460  19.743  1.00  0.00    -0.508 OA
ATOM     27  H   UNL     1       6.120   3.075  20.064  1.00  0.00     0.293 HD
ENDBRANCH   8  26
TORSDOF 6
ENDMDL
MODEL 3
REMARK VINA RESULT:    -4.852      2.938      6.287
REMARK INTER + INTRA:          -5.698
REMARK INTER:                  -5.399
REMARK INTRA:                  -0.299
REMARK UNBOUND:                 0.146
REMARK SMILES O=c1c(O)c(-c2ccc(O)cc2O)oc2cc(O)cc(O)c12
REMARK SMILES IDX 5 1 3 2 2 3 1 4 22 5 20 6 19 7 17 8 16 9 15 10 14 11 6 12
REMARK SMILES IDX 8 13 7 14 9 15 11 16 12 17 10 18 13 20 4 22 21 24 18 26
REMARK H PARENT 10 19 13 21 4 23 21 25 18 27
REMARK Flexibility Score: inf
ROOT
ATOM      1  C   UNL     1      10.239  -1.448  16.976  1.00  0.00     0.184 A 
ATOM      2  C   UNL     1       9.564  -0.310  17.445  1.00  0.00     0.208 A 
ATOM      3  C   UNL     1      10.210   0.535  18.360  1.00  0.00     0.238 A 
ATOM      4  O   UNL     1       9.582   1.525  18.817  1.00  0.00    -0.285 OA
ATOM      5  C   UNL     1      11.528   0.238  18.782  1.00  0.00     0.111 A 
ATOM      6  C   UNL     1      12.296   1.046  19.676  1.00  0.00     0.134 A 
ATOM      7  C   UNL     1      13.540   0.588  20.125  1.00  0.00     0.093 A 
ATOM      8  C   UNL     1      14.074  -0.615  19.665  1.00  0.00     0.123 A 
ATOM      9  C   UNL     1      13.360  -1.384  18.746  1.00  0.00     0.094 A 
ATOM     10  C   UNL     1      12.100  -0.971  18.306  1.00  0.00     0.146 A 
ATOM     11  O   UNL     1      11.448  -1.738  17.439  1.00  0.00    -0.451 OA
ENDROOT
BRANCH   1  12
ATOM     12  C   UNL     1       9.621  -2.369  15.999  1.00  0.00     0.063 A 
ATOM     13  C   UNL     1       9.573  -3.278  13.744  1.00  0.00     0.047 A 
ATOM     14  C   UNL     1      10.136  -2.423  14.694  1.00  0.00     0.020 A 
ATOM     15  C   UNL     1       8.478  -4.081  14.083  1.00  0.00     0.119 A 
ATOM     16  C   UNL     1       7.944  -4.018  15.373  1.00  0.00     0.093 A 
ATOM     17  C   UNL     1       8.500  -3.157  16.332  1.00  0.00     0.130 A 
BRANCH  15  18
ATOM     18  O   UNL     1       7.910  -4.941  13.145  1.00  0.00    -0.508 OA
ATOM     19  H   UNL     1       7.836  -4.684  12.168  1.00  0.00     0.293 HD
ENDBRANCH  15  18
BRANCH  17  20
ATOM     20  O   UNL     1       7.926  -3.068  17.600  1.00  0.00    -0.507 OA
ATOM     21  H   UNL     1       6.948  -2.833  17.726  1.00  0.00     0.293 HD
ENDBRANCH  17  20
ENDBRANCH   1  12
BRANCH   2  22
ATOM     22  O   UNL     1       8.256  -0.050  17.025  1.00  0.00    -0.502 OA
ATOM     23  H   UNL     1       7.885  -0.405  16.152  1.00  0.00     0.293 HD
ENDBRANCH   2  22
BRANCH   6  24
ATOM     24  O   UNL     1      11.895   2.307  20.125  1.00  0.00    -0.507 OA
ATOM     25  H   UNL     1      11.663   3.085  19.525  1.00  0.00     0.293 HD
ENDBRANCH   6  24
BRANCH   8  26
ATOM     26  O   UNL     1      15.323  -1.032  20.122  1.00  0.00    -0.508 OA
ATOM     27  H   UNL     1      15.713  -0.682  20.989  1.00  0.00     0.293 HD
ENDBRANCH   8  26
TORSDOF 6
ENDMDL
MODEL 4
REMARK VINA RESULT:    -4.625      2.325      6.594
REMARK INTER + INTRA:          -5.425
REMARK INTER:                  -5.547
REMARK INTRA:                   0.122
REMARK UNBOUND:                 0.146
REMARK SMILES O=c1c(O)c(-c2ccc(O)cc2O)oc2cc(O)cc(O)c12
REMARK SMILES IDX 5 1 3 2 2 3 1 4 22 5 20 6 19 7 17 8 16 9 15 10 14 11 6 12
REMARK SMILES IDX 8 13 7 14 9 15 11 16 12 17 10 18 13 20 4 22 21 24 18 26
REMARK H PARENT 10 19 13 21 4 23 21 25 18 27
REMARK Flexibility Score: inf
ROOT
ATOM      1  C   UNL     1      10.236   0.264  19.088  1.00  0.00     0.184 A 
ATOM      2  C   UNL     1       9.664  -1.017  19.051  1.00  0.00     0.208 A 
ATOM      3  C   UNL     1      10.507  -2.139  19.086  1.00  0.00     0.238 A 
ATOM      4  O   UNL     1       9.993  -3.284  18.999  1.00  0.00    -0.285 OA
ATOM      5  C   UNL     1      11.909  -1.963  19.172  1.00  0.00     0.111 A 
ATOM      6  C   UNL     1      12.857  -3.028  19.254  1.00  0.00     0.134 A 
ATOM      7  C   UNL     1      14.226  -2.739  19.205  1.00  0.00     0.093 A 
ATOM      8  C   UNL     1      14.683  -1.424  19.143  1.00  0.00     0.123 A 
ATOM      9  C   UNL     1      13.768  -0.372  19.122  1.00  0.00     0.094 A 
ATOM     10  C   UNL     1      12.395  -0.629  19.134  1.00  0.00     0.146 A 
ATOM     11  O   UNL     1      11.555   0.401  19.101  1.00  0.00    -0.451 OA
ENDROOT
BRANCH   1  12
ATOM     12  C   UNL     1       9.404   1.486  19.072  1.00  0.00     0.063 A 
ATOM     13  C   UNL     1       8.788   3.593  20.117  1.00  0.00     0.047 A 
ATOM     14  C   UNL     1       9.562   2.431  20.098  1.00  0.00     0.020 A 
ATOM     15  C   UNL     1       7.836   3.820  19.116  1.00  0.00     0.119 A 
ATOM     16  C   UNL     1       7.656   2.875  18.102  1.00  0.00     0.093 A 
ATOM     17  C   UNL     1       8.425   1.701  18.079  1.00  0.00     0.130 A 
BRANCH  15  18
ATOM     18  O   UNL     1       7.062   4.978  19.121  1.00  0.00    -0.508 OA
ATOM     19  H   UNL     1       7.338   5.803  18.602  1.00  0.00     0.293 HD
ENDBRANCH  15  18
BRANCH  17  20
ATOM     20  O   UNL     1       8.200   0.743  17.091  1.00  0.00    -0.507 OA
ATOM     21  H   UNL     1       8.965   0.321  16.576  1.00  0.00     0.293 HD
ENDBRANCH  17  20
ENDBRANCH   1  12
BRANCH   2  22
ATOM     22  O   UNL     1       8.278  -1.162  18.948  1.00  0.00    -0.502 OA
ATOM     23  H   UNL     1       7.633  -0.667  19.552  1.00  0.00     0.293 HD
ENDBRANCH   2  22
BRANCH   6  24
ATOM     24  O   UNL     1      12.507  -4.372  19.411  1.00  0.00    -0.507 OA
ATOM     25  H   UNL     1      12.464  -5.047  18.662  1.00  0.00     0.293 HD
ENDBRANCH   6  24
BRANCH   8  26
ATOM     26  O   UNL     1      16.054  -1.174  19.111  1.00  0.00    -0.508 OA
ATOM     27  H   UNL     1      16.511  -0.838  18.271  1.00  0.00     0.293 HD
ENDBRANCH   8  26
TORSDOF 6
ENDMDL
MODEL 5
REMARK VINA RESULT:    -4.230      9.946     11.679
REMARK INTER + INTRA:          -4.950
REMARK INTER:                  -4.553
REMARK INTRA:                  -0.397
REMARK UNBOUND:                 0.146
REMARK SMILES O=c1c(O)c(-c2ccc(O)cc2O)oc2cc(O)cc(O)c12
REMARK SMILES IDX 5 1 3 2 2 3 1 4 22 5 20 6 19 7 17 8 16 9 15 10 14 11 6 12
REMARK SMILES IDX 8 13 7 14 9 15 11 16 12 17 10 18 13 20 4 22 21 24 18 26
REMARK H PARENT 10 19 13 21 4 23 21 25 18 27
REMARK Flexibility Score: inf
ROOT
ATOM      1  C   UNL     1      19.787  -6.221  18.570  1.00  0.00     0.184 A 
ATOM      2  C   UNL     1      18.726  -6.750  19.321  1.00  0.00     0.208 A 
ATOM      3  C   UNL     1      18.441  -8.121  19.223  1.00  0.00     0.238 A 
ATOM      4  O   UNL     1      17.455  -8.580  19.857  1.00  0.00    -0.285 OA
ATOM      5  C   UNL     1      19.231  -8.946  18.387  1.00  0.00     0.111 A 
ATOM      6  C   UNL     1      19.058 -10.356  18.242  1.00  0.00     0.134 A 
ATOM      7  C   UNL     1      19.814 -11.050  17.289  1.00  0.00     0.093 A 
ATOM      8  C   UNL     1      20.780 -10.399  16.523  1.00  0.00     0.123 A 
ATOM      9  C   UNL     1      21.000  -9.033  16.698  1.00  0.00     0.094 A 
ATOM     10  C   UNL     1      20.237  -8.306  17.616  1.00  0.00     0.146 A 
ATOM     11  O   UNL     1      20.469  -7.004  17.744  1.00  0.00    -0.451 OA
ENDROOT
BRANCH   1  12
ATOM     12  C   UNL     1      20.151  -4.790  18.641  1.00  0.00     0.063 A 
ATOM     13  C   UNL     1      21.021  -2.930  19.942  1.00  0.00     0.047 A 
ATOM     14  C   UNL     1      20.673  -4.278  19.839  1.00  0.00     0.020 A 
ATOM     15  C   UNL     1      20.839  -2.071  18.851  1.00  0.00     0.119 A 
ATOM     16  C   UNL     1      20.298  -2.566  17.661  1.00  0.00     0.093 A 
ATOM     17  C   UNL     1      19.940  -3.919  17.552  1.00  0.00     0.130 A 
BRANCH  15  18
ATOM     18  O   UNL     1      21.186  -0.725  18.941  1.00  0.00    -0.508 OA
ATOM     19  H   UNL     1      21.432  -0.186  18.119  1.00  0.00     0.293 HD
ENDBRANCH  15  18
BRANCH  17  20
ATOM     20  O   UNL     1      19.356  -4.389  16.376  1.00  0.00    -0.507 OA
ATOM     21  H   UNL     1      19.909  -4.587  15.550  1.00  0.00     0.293 HD
ENDBRANCH  17  20
ENDBRANCH   1  12
BRANCH   2  22
ATOM     22  O   UNL     1      17.951  -5.909  20.125  1.00  0.00    -0.502 OA
ATOM     23  H   UNL     1      18.353  -5.157  20.671  1.00  0.00     0.293 HD
ENDBRANCH   2  22
BRANCH   6  24
ATOM     24  O   UNL     1      18.184 -11.119  19.022  1.00  0.00    -0.507 OA
ATOM     25  H   UNL     1      18.411 -12.012  19.433  1.00  0.00     0.293 HD
ENDBRANCH   6  24
BRANCH   8  26
ATOM     26  O   UNL     1      21.524 -11.125  15.595  1.00  0.00    -0.508 OA
ATOM     27  H   UNL     1      21.789 -12.088  15.765  1.00  0.00     0.293 HD
ENDBRANCH   8  26
TORSDOF 6
ENDMDL
MODEL 6
REMARK VINA RESULT:    -4.190      2.435      6.020
REMARK INTER + INTRA:          -4.902
REMARK INTER:                  -5.320
REMARK INTRA:                   0.418
REMARK UNBOUND:                 0.146
REMARK SMILES O=c1c(O)c(-c2ccc(O)cc2O)oc2cc(O)cc(O)c12
REMARK SMILES IDX 5 1 3 2 2 3 1 4 22 5 20 6 19 7 17 8 16 9 15 10 14 11 6 12
REMARK SMILES IDX 8 13 7 14 9 15 11 16 12 17 10 18 13 20 4 22 21 24 18 26
REMARK H PARENT 10 19 13 21 4 23 21 25 18 27
REMARK Flexibility Score: inf
ROOT
ATOM      1  C   UNL     1       8.126  -1.662  19.299  1.00  0.00     0.184 A 
ATOM      2  C   UNL     1       7.248  -0.680  18.815  1.00  0.00     0.208 A 
ATOM      3  C   UNL     1       7.725   0.626  18.626  1.00  0.00     0.238 A 
ATOM      4  O   UNL     1       6.921   1.515  18.243  1.00  0.00    -0.285 OA
ATOM      5  C   UNL     1       9.079   0.928  18.910  1.00  0.00     0.111 A 
ATOM      6  C   UNL     1       9.682   2.208  18.719  1.00  0.00     0.134 A 
ATOM      7  C   UNL     1      10.995   2.426  19.155  1.00  0.00     0.093 A 
ATOM      8  C   UNL     1      11.748   1.395  19.716  1.00  0.00     0.123 A 
ATOM      9  C   UNL     1      11.189   0.125  19.854  1.00  0.00     0.094 A 
ATOM     10  C   UNL     1       9.870  -0.115  19.461  1.00  0.00     0.146 A 
ATOM     11  O   UNL     1       9.371  -1.336  19.620  1.00  0.00    -0.451 OA
ENDROOT
BRANCH   1  12
ATOM     12  C   UNL     1       7.691  -3.060  19.504  1.00  0.00     0.063 A 
ATOM     13  C   UNL     1       5.875  -4.642  19.837  1.00  0.00     0.047 A 
ATOM     14  C   UNL     1       6.320  -3.334  19.636  1.00  0.00     0.020 A 
ATOM     15  C   UNL     1       6.797  -5.693  19.921  1.00  0.00     0.119 A 
ATOM     16  C   UNL     1       8.165  -5.427  19.814  1.00  0.00     0.093 A 
ATOM     17  C   UNL     1       8.620  -4.114  19.618  1.00  0.00     0.130 A 
BRANCH  15  18
ATOM     18  O   UNL     1       6.364  -7.003  20.117  1.00  0.00    -0.508 OA
ATOM     19  H   UNL     1       6.064  -7.331  21.027  1.00  0.00     0.293 HD
ENDBRANCH  15  18
BRANCH  17  20
ATOM     20  O   UNL     1       9.990  -3.856  19.562  1.00  0.00    -0.507 OA
ATOM     21  H   UNL     1      10.582  -4.280  18.857  1.00  0.00     0.293 HD
ENDBRANCH  17  20
ENDBRANCH   1  12
BRANCH   2  22
ATOM     22  O   UNL     1       5.911  -1.001  18.560  1.00  0.00    -0.502 OA
ATOM     23  H   UNL     1       5.142  -0.452  18.923  1.00  0.00     0.293 HD
ENDBRANCH   2  22
BRANCH   6  24
ATOM     24  O   UNL     1       9.049   3.281  18.084  1.00  0.00    -0.507 OA
ATOM     25  H   UNL     1       8.824   4.159  18.527  1.00  0.00     0.293 HD
ENDBRANCH   6  24
BRANCH   8  26
ATOM     26  O   UNL     1      13.056   1.644  20.125  1.00  0.00    -0.508 OA
ATOM     27  H   UNL     1      13.529   2.509  19.890  1.00  0.00     0.293 HD
ENDBRANCH   8  26
TORSDOF 6
ENDMDL
MODEL 7
REMARK VINA RESULT:    -3.913      2.459      6.135
REMARK INTER + INTRA:          -4.567
REMARK INTER:                  -4.932
REMARK INTRA:                   0.365
REMARK UNBOUND:                 0.146
REMARK SMILES O=c1c(O)c(-c2ccc(O)cc2O)oc2cc(O)cc(O)c12
REMARK SMILES IDX 5 1 3 2 2 3 1 4 22 5 20 6 19 7 17 8 16 9 15 10 14 11 6 12
REMARK SMILES IDX 8 13 7 14 9 15 11 16 12 17 10 18 13 20 4 22 21 24 18 26
REMARK H PARENT 10 19 13 21 4 23 21 25 18 27
REMARK Flexibility Score: inf
ROOT
ATOM      1  C   UNL     1       8.724  -2.168  19.578  1.00  0.00     0.184 A 
ATOM      2  C   UNL     1      10.088  -2.072  19.262  1.00  0.00     0.208 A 
ATOM      3  C   UNL     1      10.673  -0.801  19.154  1.00  0.00     0.238 A 
ATOM      4  O   UNL     1      11.883  -0.719  18.818  1.00  0.00    -0.285 OA
ATOM      5  C   UNL     1       9.889   0.356  19.379  1.00  0.00     0.111 A 
ATOM      6  C   UNL     1      10.386   1.694  19.335  1.00  0.00     0.134 A 
ATOM      7  C   UNL     1       9.493   2.767  19.446  1.00  0.00     0.093 A 
ATOM      8  C   UNL     1       8.133   2.552  19.662  1.00  0.00     0.123 A 
ATOM      9  C   UNL     1       7.644   1.250  19.765  1.00  0.00     0.094 A 
ATOM     10  C   UNL     1       8.505   0.158  19.624  1.00  0.00     0.146 A 
ATOM     11  O   UNL     1       7.997  -1.066  19.718  1.00  0.00    -0.451 OA
ENDROOT
BRANCH   1  12
ATOM     12  C   UNL     1       8.051  -3.476  19.723  1.00  0.00     0.063 A 
ATOM     13  C   UNL     1       8.223  -5.868  20.125  1.00  0.00     0.047 A 
ATOM     14  C   UNL     1       8.827  -4.615  19.988  1.00  0.00     0.020 A 
ATOM     15  C   UNL     1       6.837  -5.999  19.985  1.00  0.00     0.119 A 
ATOM     16  C   UNL     1       6.058  -4.874  19.700  1.00  0.00     0.093 A 
ATOM     17  C   UNL     1       6.657  -3.613  19.554  1.00  0.00     0.130 A 
BRANCH  15  18
ATOM     18  O   UNL     1       6.223  -7.242  20.125  1.00  0.00    -0.508 OA
ATOM     19  H   UNL     1       6.098  -7.862  19.333  1.00  0.00     0.293 HD
ENDBRANCH  15  18
BRANCH  17  20
ATOM     20  O   UNL     1       5.875  -2.507  19.220  1.00  0.00    -0.507 OA
ATOM     21  H   UNL     1       5.719  -1.749  19.874  1.00  0.00     0.293 HD
ENDBRANCH  17  20
ENDBRANCH   1  12
BRANCH   2  22
ATOM     22  O   UNL     1      10.834  -3.230  19.027  1.00  0.00    -0.502 OA
ATOM     23  H   UNL     1      11.789  -3.202  18.689  1.00  0.00     0.293 HD
ENDBRANCH   2  22
BRANCH   6  24
ATOM     24  O   UNL     1      11.741   2.019  19.215  1.00  0.00    -0.507 OA
ATOM     25  H   UNL     1      12.503   1.381  19.389  1.00  0.00     0.293 HD
ENDBRANCH   6  24
BRANCH   8  26
ATOM     26  O   UNL     1       7.276   3.644  19.783  1.00  0.00    -0.508 OA
ATOM     27  H   UNL     1       7.604   4.540  20.123  1.00  0.00     0.293 HD
ENDBRANCH   8  26
TORSDOF 6
ENDMDL
MODEL 8
REMARK VINA RESULT:    -3.905      3.335      6.930
REMARK INTER + INTRA:          -4.558
REMARK INTER:                  -4.278
REMARK INTRA:                  -0.280
REMARK UNBOUND:                 0.146
REMARK SMILES O=c1c(O)c(-c2ccc(O)cc2O)oc2cc(O)cc(O)c12
REMARK SMILES IDX 5 1 3 2 2 3 1 4 22 5 20 6 19 7 17 8 16 9 15 10 14 11 6 12
REMARK SMILES IDX 8 13 7 14 9 15 11 16 12 17 10 18 13 20 4 22 21 24 18 26
REMARK H PARENT 10 19 13 21 4 23 21 25 18 27
REMARK Flexibility Score: inf
ROOT
ATOM      1  C   UNL     1       9.064   1.636  18.705  1.00  0.00     0.184 A 
ATOM      2  C   UNL     1       8.635   0.664  17.788  1.00  0.00     0.208 A 
ATOM      3  C   UNL     1       9.481  -0.416  17.496  1.00  0.00     0.238 A 
ATOM      4  O   UNL     1       9.114  -1.256  16.634  1.00  0.00    -0.285 OA
ATOM      5  C   UNL     1      10.739  -0.517  18.138  1.00  0.00     0.111 A 
ATOM      6  C   UNL     1      11.662  -1.591  17.949  1.00  0.00     0.134 A 
ATOM      7  C   UNL     1      12.931  -1.522  18.537  1.00  0.00     0.093 A 
ATOM      8  C   UNL     1      13.288  -0.453  19.357  1.00  0.00     0.123 A 
ATOM      9  C   UNL     1      12.374   0.573  19.596  1.00  0.00     0.094 A 
ATOM     10  C   UNL     1      11.112   0.550  18.996  1.00  0.00     0.146 A 
ATOM     11  O   UNL     1      10.275   1.552  19.241  1.00  0.00    -0.451 OA
ENDROOT
BRANCH   1  12
ATOM     12  C   UNL     1       8.214   2.790  19.068  1.00  0.00     0.063 A 
ATOM     13  C   UNL     1       7.886   5.199  19.102  1.00  0.00     0.047 A 
ATOM     14  C   UNL     1       8.661   4.086  18.768  1.00  0.00     0.020 A 
ATOM     15  C   UNL     1       6.659   5.030  19.755  1.00  0.00     0.119 A 
ATOM     16  C   UNL     1       6.216   3.744  20.079  1.00  0.00     0.093 A 
ATOM     17  C   UNL     1       6.992   2.622  19.751  1.00  0.00     0.130 A 
BRANCH  15  18
ATOM     18  O   UNL     1       5.875   6.132  20.090  1.00  0.00    -0.508 OA
ATOM     19  H   UNL     1       5.985   6.610  20.977  1.00  0.00     0.293 HD
ENDBRANCH  15  18
BRANCH  17  20
ATOM     20  O   UNL     1       6.562   1.348  20.125  1.00  0.00    -0.507 OA
ATOM     21  H   UNL     1       7.213   0.581  20.243  1.00  0.00     0.293 HD
ENDBRANCH  17  20
ENDBRANCH   1  12
BRANCH   2  22
ATOM     22  O   UNL     1       7.395   0.799  17.155  1.00  0.00    -0.502 OA
ATOM     23  H   UNL     1       7.079   1.676  16.760  1.00  0.00     0.293 HD
ENDBRANCH   2  22
BRANCH   6  24
ATOM     24  O   UNL     1      11.372  -2.749  17.223  1.00  0.00    -0.507 OA
ATOM     25  H   UNL     1      10.565  -3.336  17.374  1.00  0.00     0.293 HD
ENDBRANCH   6  24
BRANCH   8  26
ATOM     26  O   UNL     1      14.555  -0.425  19.937  1.00  0.00    -0.508 OA
ATOM     27  H   UNL     1      14.755   0.154  20.745  1.00  0.00     0.293 HD
ENDBRANCH   8  26
TORSDOF 6
ENDMDL
MODEL 9
REMARK VINA RESULT:    -3.080      1.882      3.855
REMARK INTER + INTRA:          -3.565
REMARK INTER:                  -3.946
REMARK INTRA:                   0.382
REMARK UNBOUND:                 0.146
REMARK SMILES O=c1c(O)c(-c2ccc(O)cc2O)oc2cc(O)cc(O)c12
REMARK SMILES IDX 5 1 3 2 2 3 1 4 22 5 20 6 19 7 17 8 16 9 15 10 14 11 6 12
REMARK SMILES IDX 8 13 7 14 9 15 11 16 12 17 10 18 13 20 4 22 21 24 18 26
REMARK H PARENT 10 19 13 21 4 23 21 25 18 27
REMARK Flexibility Score: inf
ROOT
ATOM      1  C   UNL     1      10.958  -0.853  19.103  1.00  0.00     0.184 A 
ATOM      2  C   UNL     1       9.872  -1.742  19.080  1.00  0.00     0.208 A 
ATOM      3  C   UNL     1       8.590  -1.241  18.806  1.00  0.00     0.238 A 
ATOM      4  O   UNL     1       7.612  -2.033  18.839  1.00  0.00    -0.285 OA
ATOM      5  C   UNL     1       8.415   0.139  18.544  1.00  0.00     0.111 A 
ATOM      6  C   UNL     1       7.167   0.750  18.215  1.00  0.00     0.134 A 
ATOM      7  C   UNL     1       7.089   2.144  18.103  1.00  0.00     0.093 A 
ATOM      8  C   UNL     1       8.223   2.943  18.244  1.00  0.00     0.123 A 
ATOM      9  C   UNL     1       9.459   2.352  18.507  1.00  0.00     0.094 A 
ATOM     10  C   UNL     1       9.563   0.967  18.659  1.00  0.00     0.146 A 
ATOM     11  O   UNL     1      10.756   0.445  18.920  1.00  0.00    -0.451 OA
ENDROOT
BRANCH   1  12
ATOM     12  C   UNL     1      12.336  -1.319  19.369  1.00  0.00     0.063 A 
ATOM     13  C   UNL     1      13.936  -3.149  19.426  1.00  0.00     0.047 A 
ATOM     14  C   UNL     1      12.645  -2.675  19.179  1.00  0.00     0.020 A 
ATOM     15  C   UNL     1      14.931  -2.275  19.879  1.00  0.00     0.119 A 
ATOM     16  C   UNL     1      14.627  -0.928  20.093  1.00  0.00     0.093 A 
ATOM     17  C   UNL     1      13.332  -0.444  19.852  1.00  0.00     0.130 A 
BRANCH  15  18
ATOM     18  O   UNL     1      16.223  -2.736  20.125  1.00  0.00    -0.508 OA
ATOM     19  H   UNL     1      16.955  -2.114  20.447  1.00  0.00     0.293 HD
ENDBRANCH  15  18
BRANCH  17  20
ATOM     20  O   UNL     1      13.029   0.891  20.117  1.00  0.00    -0.507 OA
ATOM     21  H   UNL     1      12.371   1.410  19.546  1.00  0.00     0.293 HD
ENDBRANCH  17  20
ENDBRANCH   1  12
BRANCH   2  22
ATOM     22  O   UNL     1      10.071  -3.097  19.360  1.00  0.00    -0.502 OA
ATOM     23  H   UNL     1       9.344  -3.682  19.754  1.00  0.00     0.293 HD
ENDBRANCH   2  22
BRANCH   6  24
ATOM     24  O   UNL     1       5.992   0.037  17.963  1.00  0.00    -0.507 OA
ATOM     25  H   UNL     1       5.364   0.216  17.195  1.00  0.00     0.293 HD
ENDBRANCH   6  24
BRANCH   8  26
ATOM     26  O   UNL     1       8.110   4.325  18.111  1.00  0.00    -0.508 OA
ATOM     27  H   UNL     1       7.206   4.780  18.051  1.00  0.00     0.293 HD
ENDBRANCH   8  26
TORSDOF 6
ENDMDL
