MODEL 1
REMARK VINA RESULT:    -3.216      0.000      0.000
REMARK INTER + INTRA:         -14.358
REMARK INTER:                  -8.480
REMARK INTRA:                  -5.879
REMARK UNBOUND:                -5.879
REMARK SMILES CCCCCCCCCCCCCCCCCCCCCCCCCCCCCC(=O)[O-]
REMARK SMILES IDX 16 1 17 2 18 3 19 4 20 5 21 6 22 7 23 8 24 9 25 10 26 11
REMARK SMILES IDX 27 12 28 13 29 14 30 15 31 16 32 17 15 18 14 19 13 20 12 21
REMARK SMILES IDX 11 22 10 23 9 24 8 25 7 26 6 27 5 28 4 29 3 30 2 31 1 32
REMARK H PARENT
REMARK Flexibility Score: inf
ROOT
ATOM      1  C   UNL     1     -94.922 145.742 243.129  1.00  0.00     0.000 C 
ENDROOT
BRANCH   1   2
ATOM      2  C   UNL     1     -93.886 146.377 242.185  1.00  0.00     0.000 C 
BRANCH   2   3
ATOM      3  C   UNL     1     -94.376 147.693 241.551  1.00  0.00     0.000 C 
BRANCH   3   4
ATOM      4  C   UNL     1     -94.052 147.868 240.055  1.00  0.00     0.000 C 
BRANCH   4   5
ATOM      5  C   UNL     1     -93.644 146.551 239.369  1.00  0.00     0.000 C 
BRANCH   5   6
ATOM      6  C   UNL     1     -94.848 145.788 238.789  1.00  0.00     0.000 C 
BRANCH   6   7
ATOM      7  C   UNL     1     -95.325 146.369 237.446  1.00  0.00     0.000 C 
BRANCH   7   8
ATOM      8  C   UNL     1     -94.191 146.479 236.408  1.00  0.00     0.000 C 
BRANCH   8   9
ATOM      9  C   UNL     1     -94.015 147.884 235.793  1.00  0.00     0.000 C 
BRANCH   9  10
ATOM     10  C   UNL     1     -95.152 148.863 236.136  1.00  0.00     0.000 C 
BRANCH  10  11
ATOM     11  C   UNL     1     -94.720 150.344 236.033  1.00  0.00     0.000 C 
BRANCH  11  12
ATOM     12  C   UNL     1     -95.451 151.246 237.044  1.00  0.00     0.000 C 
BRANCH  12  13
ATOM     13  C   UNL     1     -96.391 152.277 236.384  1.00  0.00     0.006 C 
BRANCH  13  14
ATOM     14  C   UNL     1     -96.565 153.572 237.195  1.00  0.00     0.053 C 
BRANCH  14  15
ATOM     15  C   UNL     1     -97.425 154.568 236.477  1.00  0.00     0.041 C 
ATOM     16  O   UNL     1     -98.210 155.312 237.123  1.00  0.00    -0.550 OA
ATOM     17  O   UNL     1     -97.343 154.686 235.096  1.00  0.00    -0.550 OA
ENDBRANCH  14  15
ENDBRANCH  13  14
ENDBRANCH  12  13
ENDBRANCH  11  12
ENDBRANCH  10  11
ENDBRANCH   9  10
ENDBRANCH   8   9
ENDBRANCH   7   8
ENDBRANCH   6   7
ENDBRANCH   5   6
ENDBRANCH   4   5
ENDBRANCH   3   4
ENDBRANCH   2   3
ENDBRANCH   1   2
BRANCH   1  18
ATOM     18  C   UNL     1     -96.257 145.435 242.430  1.00  0.00     0.000 C 
BRANCH  18  19
ATOM     19  C   UNL     1     -97.496 145.462 243.347  1.00  0.00     0.000 C 
BRANCH  19  20
ATOM     20  C   UNL     1     -97.252 146.015 244.766  1.00  0.00     0.000 C 
BRANCH  20  21
ATOM     21  C   UNL     1     -98.012 147.313 245.101  1.00  0.00     0.000 C 
BRANCH  21  22
ATOM     22  C   UNL     1     -97.310 148.573 244.575  1.00  0.00     0.000 C 
BRANCH  22  23
ATOM     23  C   UNL     1     -98.194 149.309 243.558  1.00  0.00     0.000 C 
BRANCH  23  24
ATOM     24  C   UNL     1     -97.704 149.151 242.106  1.00  0.00    -0.000 C 
BRANCH  24  25
ATOM     25  C   UNL     1     -98.508 148.159 241.243  1.00  0.00    -0.000 C 
BRANCH  25  26
ATOM     26  C   UNL     1     -97.780 147.762 239.947  1.00  0.00    -0.000 C 
BRANCH  26  27
ATOM     27  C   UNL     1     -97.461 148.972 239.054  1.00  0.00    -0.000 C 
BRANCH  27  28
ATOM     28  C   UNL     1     -98.459 149.140 237.899  1.00  0.00    -0.000 C 
BRANCH  28  29
ATOM     29  C   UNL     1     -99.267 150.437 238.061  1.00  0.00    -0.000 C 
BRANCH  29  30
ATOM     30  C   UNL     1     -98.688 151.369 239.138  1.00  0.00    -0.000 C 
BRANCH  30  31
ATOM     31  C   UNL     1     -99.752 151.854 240.133  1.00  0.00    -0.003 C 
ATOM     32  C   UNL     1    -100.821 150.788 240.356  1.00  0.00     0.004 C 
ENDBRANCH  30  31
ENDBRANCH  29  30
ENDBRANCH  28  29
ENDBRANCH  27  28
ENDBRANCH  26  27
ENDBRANCH  25  26
ENDBRANCH  24  25
ENDBRANCH  23  24
ENDBRANCH  22  23
ENDBRANCH  21  22
ENDBRANCH  20  21
ENDBRANCH  19  20
ENDBRANCH  18  19
ENDBRANCH   1  18
TORSDOF 28
ENDMDL
MODEL 2
REMARK VINA RESULT:    -3.187      2.253      5.011
REMARK INTER + INTRA:         -14.281
REMARK INTER:                  -9.032
REMARK INTRA:                  -5.249
REMARK UNBOUND:                -5.879
REMARK SMILES CCCCCCCCCCCCCCCCCCCCCCCCCCCCCC(=O)[O-]
REMARK SMILES IDX 16 1 17 2 18 3 19 4 20 5 21 6 22 7 23 8 24 9 25 10 26 11
REMARK SMILES IDX 27 12 28 13 29 14 30 15 31 16 32 17 15 18 14 19 13 20 12 21
REMARK SMILES IDX 11 22 10 23 9 24 8 25 7 26 6 27 5 28 4 29 3 30 2 31 1 32
REMARK H PARENT
REMARK Flexibility Score: inf
ROOT
ATOM      1  C   UNL     1     -93.743 145.303 239.060  1.00  0.00     0.000 C 
ENDROOT
BRANCH   1   2
ATOM      2  C   UNL     1     -93.205 145.688 237.672  1.00  0.00     0.000 C 
BRANCH   2   3
ATOM      3  C   UNL     1     -94.098 146.711 236.942  1.00  0.00     0.000 C 
BRANCH   3   4
ATOM      4  C   UNL     1     -95.540 146.827 237.472  1.00  0.00     0.000 C 
BRANCH   4   5
ATOM      5  C   UNL     1     -95.950 148.276 237.792  1.00  0.00     0.000 C 
BRANCH   5   6
ATOM      6  C   UNL     1     -94.778 149.119 238.322  1.00  0.00     0.000 C 
BRANCH   6   7
ATOM      7  C   UNL     1     -94.638 150.465 237.588  1.00  0.00     0.000 C 
BRANCH   7   8
ATOM      8  C   UNL     1     -95.351 150.474 236.221  1.00  0.00     0.000 C 
BRANCH   8   9
ATOM      9  C   UNL     1     -96.259 151.698 235.977  1.00  0.00     0.000 C 
BRANCH   9  10
ATOM     10  C   UNL     1     -96.270 152.710 237.137  1.00  0.00     0.000 C 
BRANCH  10  11
ATOM     11  C   UNL     1     -97.679 152.921 237.736  1.00  0.00     0.000 C 
BRANCH  11  12
ATOM     12  C   UNL     1     -98.388 151.594 238.064  1.00  0.00     0.000 C 
BRANCH  12  13
ATOM     13  C   UNL     1     -98.836 151.481 239.536  1.00  0.00     0.006 C 
BRANCH  13  14
ATOM     14  C   UNL     1    -100.319 151.819 239.767  1.00  0.00     0.053 C 
BRANCH  14  15
ATOM     15  C   UNL     1    -100.909 151.007 240.879  1.00  0.00     0.041 C 
ATOM     16  O   UNL     1    -101.244 151.560 241.960  1.00  0.00    -0.550 OA
ATOM     17  O   UNL     1    -101.107 149.643 240.713  1.00  0.00    -0.550 OA
ENDBRANCH  14  15
ENDBRANCH  13  14
ENDBRANCH  12  13
ENDBRANCH  11  12
ENDBRANCH  10  11
ENDBRANCH   9  10
ENDBRANCH   8   9
ENDBRANCH   7   8
ENDBRANCH   6   7
ENDBRANCH   5   6
ENDBRANCH   4   5
ENDBRANCH   3   4
ENDBRANCH   2   3
ENDBRANCH   1   2
BRANCH   1  18
ATOM     18  C   UNL     1     -92.782 145.685 240.199  1.00  0.00     0.000 C 
BRANCH  18  19
ATOM     19  C   UNL     1     -93.041 147.065 240.837  1.00  0.00     0.000 C 
BRANCH  19  20
ATOM     20  C   UNL     1     -94.381 147.201 241.587  1.00  0.00     0.000 C 
BRANCH  20  21
ATOM     21  C   UNL     1     -94.622 146.155 242.692  1.00  0.00     0.000 C 
BRANCH  21  22
ATOM     22  C   UNL     1     -95.982 145.452 242.567  1.00  0.00     0.000 C 
BRANCH  22  23
ATOM     23  C   UNL     1     -96.593 145.683 241.177  1.00  0.00     0.000 C 
BRANCH  23  24
ATOM     24  C   UNL     1     -98.029 146.237 241.234  1.00  0.00    -0.000 C 
BRANCH  24  25
ATOM     25  C   UNL     1     -98.232 147.612 240.567  1.00  0.00    -0.000 C 
BRANCH  25  26
ATOM     26  C   UNL     1     -97.547 148.758 241.331  1.00  0.00    -0.000 C 
BRANCH  26  27
ATOM     27  C   UNL     1     -98.220 149.051 242.682  1.00  0.00    -0.000 C 
BRANCH  27  28
ATOM     28  C   UNL     1     -97.221 149.105 243.847  1.00  0.00    -0.000 C 
BRANCH  28  29
ATOM     29  C   UNL     1     -97.358 147.862 244.740  1.00  0.00    -0.000 C 
BRANCH  29  30
ATOM     30  C   UNL     1     -98.038 148.167 246.084  1.00  0.00    -0.000 C 
BRANCH  30  31
ATOM     31  C   UNL     1     -98.237 149.672 246.317  1.00  0.00    -0.003 C 
ATOM     32  C   UNL     1     -97.619 150.107 247.643  1.00  0.00     0.004 C 
ENDBRANCH  30  31
ENDBRANCH  29  30
ENDBRANCH  28  29
ENDBRANCH  27  28
ENDBRANCH  26  27
ENDBRANCH  25  26
ENDBRANCH  24  25
ENDBRANCH  23  24
ENDBRANCH  22  23
ENDBRANCH  21  22
ENDBRANCH  20  21
ENDBRANCH  19  20
ENDBRANCH  18  19
ENDBRANCH   1  18
TORSDOF 28
ENDMDL
MODEL 3
REMARK VINA RESULT:    -3.158      3.718      7.505
REMARK INTER + INTRA:         -14.207
REMARK INTER:                  -7.936
REMARK INTRA:                  -6.271
REMARK UNBOUND:                -5.879
REMARK SMILES CCCCCCCCCCCCCCCCCCCCCCCCCCCCCC(=O)[O-]
REMARK SMILES IDX 16 1 17 2 18 3 19 4 20 5 21 6 22 7 23 8 24 9 25 10 26 11
REMARK SMILES IDX 27 12 28 13 29 14 30 15 31 16 32 17 15 18 14 19 13 20 12 21
REMARK SMILES IDX 11 22 10 23 9 24 8 25 7 26 6 27 5 28 4 29 3 30 2 31 1 32
REMARK H PARENT
REMARK Flexibility Score: inf
ROOT
ATOM      1  C   UNL     1     -96.731 146.203 242.416  1.00  0.00     0.000 C 
ENDROOT
BRANCH   1   2
ATOM      2  C   UNL     1     -96.435 147.208 243.543  1.00  0.00     0.000 C 
BRANCH   2   3
ATOM      3  C   UNL     1     -96.297 148.657 243.037  1.00  0.00     0.000 C 
BRANCH   3   4
ATOM      4  C   UNL     1     -97.547 149.541 243.210  1.00  0.00     0.000 C 
BRANCH   4   5
ATOM      5  C   UNL     1     -98.292 149.795 241.888  1.00  0.00     0.000 C 
BRANCH   5   6
ATOM      6  C   UNL     1     -99.708 149.193 241.880  1.00  0.00     0.000 C 
BRANCH   6   7
ATOM      7  C   UNL     1     -99.775 147.850 241.129  1.00  0.00     0.000 C 
BRANCH   7   8
ATOM      8  C   UNL     1    -100.368 146.717 241.989  1.00  0.00     0.000 C 
BRANCH   8   9
ATOM      9  C   UNL     1    -100.749 147.132 243.426  1.00  0.00     0.000 C 
BRANCH   9  10
ATOM     10  C   UNL     1     -99.926 146.428 244.519  1.00  0.00     0.000 C 
BRANCH  10  11
ATOM     11  C   UNL     1     -99.468 147.390 245.639  1.00  0.00     0.000 C 
BRANCH  11  12
ATOM     12  C   UNL     1    -100.118 148.781 245.527  1.00  0.00     0.000 C 
BRANCH  12  13
ATOM     13  C   UNL     1     -99.590 149.794 246.565  1.00  0.00     0.006 C 
BRANCH  13  14
ATOM     14  C   UNL     1     -98.098 149.626 246.899  1.00  0.00     0.053 C 
BRANCH  14  15
ATOM     15  C   UNL     1     -97.801 149.990 248.322  1.00  0.00     0.041 C 
ATOM     16  O   UNL     1     -98.429 149.436 249.263  1.00  0.00    -0.550 OA
ATOM     17  O   UNL     1     -96.817 150.926 248.607  1.00  0.00    -0.550 OA
ENDBRANCH  14  15
ENDBRANCH  13  14
ENDBRANCH  12  13
ENDBRANCH  11  12
ENDBRANCH  10  11
ENDBRANCH   9  10
ENDBRANCH   8   9
ENDBRANCH   7   8
ENDBRANCH   6   7
ENDBRANCH   5   6
ENDBRANCH   4   5
ENDBRANCH   3   4
ENDBRANCH   2   3
ENDBRANCH   1   2
BRANCH   1  18
ATOM     18  C   UNL     1     -95.706 145.058 242.355  1.00  0.00     0.000 C 
BRANCH  18  19
ATOM     19  C   UNL     1     -94.257 145.458 242.698  1.00  0.00     0.000 C 
BRANCH  19  20
ATOM     20  C   UNL     1     -93.382 145.855 241.491  1.00  0.00     0.000 C 
BRANCH  20  21
ATOM     21  C   UNL     1     -93.314 147.366 241.202  1.00  0.00     0.000 C 
BRANCH  21  22
ATOM     22  C   UNL     1     -94.249 147.803 240.065  1.00  0.00     0.000 C 
BRANCH  22  23
ATOM     23  C   UNL     1     -94.089 146.889 238.842  1.00  0.00     0.000 C 
BRANCH  23  24
ATOM     24  C   UNL     1     -95.435 146.451 238.235  1.00  0.00    -0.000 C 
BRANCH  24  25
ATOM     25  C   UNL     1     -96.687 146.935 238.992  1.00  0.00    -0.000 C 
BRANCH  25  26
ATOM     26  C   UNL     1     -97.560 147.892 238.160  1.00  0.00    -0.000 C 
BRANCH  26  27
ATOM     27  C   UNL     1     -97.241 149.371 238.435  1.00  0.00    -0.000 C 
BRANCH  27  28
ATOM     28  C   UNL     1     -96.889 150.151 237.160  1.00  0.00    -0.000 C 
BRANCH  28  29
ATOM     29  C   UNL     1     -95.435 150.648 237.210  1.00  0.00    -0.000 C 
BRANCH  29  30
ATOM     30  C   UNL     1     -94.479 149.777 236.379  1.00  0.00    -0.000 C 
BRANCH  30  31
ATOM     31  C   UNL     1     -95.218 148.897 235.360  1.00  0.00    -0.003 C 
ATOM     32  C   UNL     1     -94.375 147.685 234.971  1.00  0.00     0.004 C 
ENDBRANCH  30  31
ENDBRANCH  29  30
ENDBRANCH  28  29
ENDBRANCH  27  28
ENDBRANCH  26  27
ENDBRANCH  25  26
ENDBRANCH  24  25
ENDBRANCH  23  24
ENDBRANCH  22  23
ENDBRANCH  21  22
ENDBRANCH  20  21
ENDBRANCH  19  20
ENDBRANCH  18  19
ENDBRANCH   1  18
TORSDOF 28
ENDMDL
MODEL 4
REMARK VINA RESULT:    -3.133      1.790      5.400
REMARK INTER + INTRA:         -14.141
REMARK INTER:                  -8.416
REMARK INTRA:                  -5.726
REMARK UNBOUND:                -5.879
REMARK SMILES CCCCCCCCCCCCCCCCCCCCCCCCCCCCCC(=O)[O-]
REMARK SMILES IDX 16 1 17 2 18 3 19 4 20 5 21 6 22 7 23 8 24 9 25 10 26 11
REMARK SMILES IDX 27 12 28 13 29 14 30 15 31 16 32 17 15 18 14 19 13 20 12 21
REMARK SMILES IDX 11 22 10 23 9 24 8 25 7 26 6 27 5 28 4 29 3 30 2 31 1 32
REMARK H PARENT
REMARK Flexibility Score: inf
ROOT
ATOM      1  C   UNL     1     -93.741 145.625 237.671  1.00  0.00     0.000 C 
ENDROOT
BRANCH   1   2
ATOM      2  C   UNL     1     -92.339 145.174 238.117  1.00  0.00     0.000 C 
BRANCH   2   3
ATOM      3  C   UNL     1     -92.129 145.279 239.640  1.00  0.00     0.000 C 
BRANCH   3   4
ATOM      4  C   UNL     1     -93.316 145.858 240.434  1.00  0.00     0.000 C 
BRANCH   4   5
ATOM      5  C   UNL     1     -92.948 147.121 241.232  1.00  0.00     0.000 C 
BRANCH   5   6
ATOM      6  C   UNL     1     -94.148 147.714 241.990  1.00  0.00     0.000 C 
BRANCH   6   7
ATOM      7  C   UNL     1     -95.349 146.752 242.040  1.00  0.00     0.000 C 
BRANCH   7   8
ATOM      8  C   UNL     1     -96.554 147.344 242.798  1.00  0.00     0.000 C 
BRANCH   8   9
ATOM      9  C   UNL     1     -96.343 148.782 243.319  1.00  0.00     0.000 C 
BRANCH   9  10
ATOM     10  C   UNL     1     -97.440 149.771 242.887  1.00  0.00     0.000 C 
BRANCH  10  11
ATOM     11  C   UNL     1     -98.410 149.172 241.843  1.00  0.00     0.000 C 
BRANCH  11  12
ATOM     12  C   UNL     1     -98.794 150.180 240.744  1.00  0.00     0.000 C 
BRANCH  12  13
ATOM     13  C   UNL     1    -100.107 150.937 241.033  1.00  0.00     0.006 C 
BRANCH  13  14
ATOM     14  C   UNL     1    -101.017 151.101 239.804  1.00  0.00     0.053 C 
BRANCH  14  15
ATOM     15  C   UNL     1    -100.919 152.476 239.218  1.00  0.00     0.041 C 
ATOM     16  O   UNL     1    -101.939 153.033 238.730  1.00  0.00    -0.550 OA
ATOM     17  O   UNL     1     -99.706 153.150 239.229  1.00  0.00    -0.550 OA
ENDBRANCH  14  15
ENDBRANCH  13  14
ENDBRANCH  12  13
ENDBRANCH  11  12
ENDBRANCH  10  11
ENDBRANCH   9  10
ENDBRANCH   8   9
ENDBRANCH   7   8
ENDBRANCH   6   7
ENDBRANCH   5   6
ENDBRANCH   4   5
ENDBRANCH   3   4
ENDBRANCH   2   3
ENDBRANCH   1   2
BRANCH   1  18
ATOM     18  C   UNL     1     -93.700 146.753 236.626  1.00  0.00     0.000 C 
BRANCH  18  19
ATOM     19  C   UNL     1     -94.746 147.868 236.828  1.00  0.00     0.000 C 
BRANCH  19  20
ATOM     20  C   UNL     1     -94.746 148.524 238.224  1.00  0.00     0.000 C 
BRANCH  20  21
ATOM     21  C   UNL     1     -96.105 148.517 238.950  1.00  0.00     0.000 C 
BRANCH  21  22
ATOM     22  C   UNL     1     -96.875 147.200 238.770  1.00  0.00     0.000 C 
BRANCH  22  23
ATOM     23  C   UNL     1     -98.345 147.469 238.417  1.00  0.00     0.000 C 
BRANCH  23  24
ATOM     24  C   UNL     1     -98.522 148.142 237.042  1.00  0.00    -0.000 C 
BRANCH  24  25
ATOM     25  C   UNL     1     -99.311 149.465 237.053  1.00  0.00    -0.000 C 
BRANCH  25  26
ATOM     26  C   UNL     1     -98.405 150.707 236.977  1.00  0.00    -0.000 C 
BRANCH  26  27
ATOM     27  C   UNL     1     -97.242 150.528 235.988  1.00  0.00    -0.000 C 
BRANCH  27  28
ATOM     28  C   UNL     1     -96.185 151.636 236.105  1.00  0.00    -0.000 C 
BRANCH  28  29
ATOM     29  C   UNL     1     -96.358 152.417 237.417  1.00  0.00    -0.000 C 
BRANCH  29  30
ATOM     30  C   UNL     1     -96.693 153.900 237.187  1.00  0.00    -0.000 C 
BRANCH  30  31
ATOM     31  C   UNL     1     -97.428 154.140 235.859  1.00  0.00    -0.003 C 
ATOM     32  C   UNL     1     -98.878 154.547 236.102  1.00  0.00     0.004 C 
ENDBRANCH  30  31
ENDBRANCH  29  30
ENDBRANCH  28  29
ENDBRANCH  27  28
ENDBRANCH  26  27
ENDBRANCH  25  26
ENDBRANCH  24  25
ENDBRANCH  23  24
ENDBRANCH  22  23
ENDBRANCH  21  22
ENDBRANCH  20  21
ENDBRANCH  19  20
ENDBRANCH  18  19
ENDBRANCH   1  18
TORSDOF 28
ENDMDL
MODEL 5
REMARK VINA RESULT:    -3.117      3.557      7.401
REMARK INTER + INTRA:         -14.097
REMARK INTER:                  -9.640
REMARK INTRA:                  -4.457
REMARK UNBOUND:                -5.879
REMARK SMILES CCCCCCCCCCCCCCCCCCCCCCCCCCCCCC(=O)[O-]
REMARK SMILES IDX 16 1 17 2 18 3 19 4 20 5 21 6 22 7 23 8 24 9 25 10 26 11
REMARK SMILES IDX 27 12 28 13 29 14 30 15 31 16 32 17 15 18 14 19 13 20 12 21
REMARK SMILES IDX 11 22 10 23 9 24 8 25 7 26 6 27 5 28 4 29 3 30 2 31 1 32
REMARK H PARENT
REMARK Flexibility Score: inf
ROOT
ATOM      1  C   UNL     1     -94.646 147.686 238.688  1.00  0.00     0.000 C 
ENDROOT
BRANCH   1   2
ATOM      2  C   UNL     1     -93.911 146.512 238.020  1.00  0.00     0.000 C 
BRANCH   2   3
ATOM      3  C   UNL     1     -93.277 145.542 239.035  1.00  0.00     0.000 C 
BRANCH   3   4
ATOM      4  C   UNL     1     -92.849 146.172 240.375  1.00  0.00     0.000 C 
BRANCH   4   5
ATOM      5  C   UNL     1     -93.172 145.283 241.589  1.00  0.00     0.000 C 
BRANCH   5   6
ATOM      6  C   UNL     1     -93.868 146.056 242.722  1.00  0.00     0.000 C 
BRANCH   6   7
ATOM      7  C   UNL     1     -95.165 146.745 242.257  1.00  0.00     0.000 C 
BRANCH   7   8
ATOM      8  C   UNL     1     -95.054 148.282 242.255  1.00  0.00     0.000 C 
BRANCH   8   9
ATOM      9  C   UNL     1     -96.114 149.005 243.114  1.00  0.00     0.000 C 
BRANCH   9  10
ATOM     10  C   UNL     1     -97.561 148.776 242.644  1.00  0.00     0.000 C 
BRANCH  10  11
ATOM     11  C   UNL     1     -98.492 148.296 243.780  1.00  0.00     0.000 C 
BRANCH  11  12
ATOM     12  C   UNL     1     -97.721 147.642 244.941  1.00  0.00     0.000 C 
BRANCH  12  13
ATOM     13  C   UNL     1     -98.126 148.178 246.330  1.00  0.00     0.006 C 
BRANCH  13  14
ATOM     14  C   UNL     1     -97.999 149.705 246.472  1.00  0.00     0.053 C 
BRANCH  14  15
ATOM     15  C   UNL     1     -98.214 150.153 247.886  1.00  0.00     0.041 C 
ATOM     16  O   UNL     1     -98.448 149.308 248.791  1.00  0.00    -0.550 OA
ATOM     17  O   UNL     1     -98.135 151.501 248.206  1.00  0.00    -0.550 OA
ENDBRANCH  14  15
ENDBRANCH  13  14
ENDBRANCH  12  13
ENDBRANCH  11  12
ENDBRANCH  10  11
ENDBRANCH   9  10
ENDBRANCH   8   9
ENDBRANCH   7   8
ENDBRANCH   6   7
ENDBRANCH   5   6
ENDBRANCH   4   5
ENDBRANCH   3   4
ENDBRANCH   2   3
ENDBRANCH   1   2
BRANCH   1  18
ATOM     18  C   UNL     1     -96.169 147.475 238.756  1.00  0.00     0.000 C 
BRANCH  18  19
ATOM     19  C   UNL     1     -96.992 148.746 239.051  1.00  0.00     0.000 C 
BRANCH  19  20
ATOM     20  C   UNL     1     -98.202 148.975 238.122  1.00  0.00     0.000 C 
BRANCH  20  21
ATOM     21  C   UNL     1     -98.240 148.083 236.866  1.00  0.00     0.000 C 
BRANCH  21  22
ATOM     22  C   UNL     1     -97.877 148.842 235.581  1.00  0.00     0.000 C 
BRANCH  22  23
ATOM     23  C   UNL     1     -96.392 148.656 235.236  1.00  0.00     0.000 C 
BRANCH  23  24
ATOM     24  C   UNL     1     -95.639 149.990 235.074  1.00  0.00    -0.000 C 
BRANCH  24  25
ATOM     25  C   UNL     1     -94.756 150.398 236.269  1.00  0.00    -0.000 C 
BRANCH  25  26
ATOM     26  C   UNL     1     -95.421 151.448 237.176  1.00  0.00    -0.000 C 
BRANCH  26  27
ATOM     27  C   UNL     1     -96.452 152.307 236.427  1.00  0.00    -0.000 C 
BRANCH  27  28
ATOM     28  C   UNL     1     -97.756 152.495 237.216  1.00  0.00    -0.000 C 
BRANCH  28  29
ATOM     29  C   UNL     1     -98.045 153.988 237.443  1.00  0.00    -0.000 C 
BRANCH  29  30
ATOM     30  C   UNL     1     -96.806 154.873 237.228  1.00  0.00    -0.000 C 
BRANCH  30  31
ATOM     31  C   UNL     1     -97.076 156.043 236.270  1.00  0.00    -0.003 C 
ATOM     32  C   UNL     1     -97.460 155.538 234.883  1.00  0.00     0.004 C 
ENDBRANCH  30  31
ENDBRANCH  29  30
ENDBRANCH  28  29
ENDBRANCH  27  28
ENDBRANCH  26  27
ENDBRANCH  25  26
ENDBRANCH  24  25
ENDBRANCH  23  24
ENDBRANCH  22  23
ENDBRANCH  21  22
ENDBRANCH  20  21
ENDBRANCH  19  20
ENDBRANCH  18  19
ENDBRANCH   1  18
TORSDOF 28
ENDMDL
MODEL 6
REMARK VINA RESULT:    -3.106      1.547      4.981
REMARK INTER + INTRA:         -14.070
REMARK INTER:                  -8.871
REMARK INTRA:                  -5.199
REMARK UNBOUND:                -5.879
REMARK SMILES CCCCCCCCCCCCCCCCCCCCCCCCCCCCCC(=O)[O-]
REMARK SMILES IDX 16 1 17 2 18 3 19 4 20 5 21 6 22 7 23 8 24 9 25 10 26 11
REMARK SMILES IDX 27 12 28 13 29 14 30 15 31 16 32 17 15 18 14 19 13 20 12 21
REMARK SMILES IDX 11 22 10 23 9 24 8 25 7 26 6 27 5 28 4 29 3 30 2 31 1 32
REMARK H PARENT
REMARK Flexibility Score: inf
ROOT
ATOM      1  C   UNL     1     -94.968 147.455 238.206  1.00  0.00     0.000 C 
ENDROOT
BRANCH   1   2
ATOM      2  C   UNL     1     -94.780 148.980 238.149  1.00  0.00     0.000 C 
BRANCH   2   3
ATOM      3  C   UNL     1     -94.442 149.493 236.736  1.00  0.00     0.000 C 
BRANCH   3   4
ATOM      4  C   UNL     1     -95.156 150.793 236.315  1.00  0.00     0.000 C 
BRANCH   4   5
ATOM      5  C   UNL     1     -96.211 150.573 235.217  1.00  0.00     0.000 C 
BRANCH   5   6
ATOM      6  C   UNL     1     -97.649 150.602 235.762  1.00  0.00     0.000 C 
BRANCH   6   7
ATOM      7  C   UNL     1     -98.055 149.277 236.431  1.00  0.00     0.000 C 
BRANCH   7   8
ATOM      8  C   UNL     1     -98.619 149.477 237.852  1.00  0.00     0.000 C 
BRANCH   8   9
ATOM      9  C   UNL     1     -98.128 150.755 238.565  1.00  0.00     0.000 C 
BRANCH   9  10
ATOM     10  C   UNL     1     -99.121 151.314 239.600  1.00  0.00     0.000 C 
BRANCH  10  11
ATOM     11  C   UNL     1     -99.751 152.655 239.163  1.00  0.00     0.000 C 
BRANCH  11  12
ATOM     12  C   UNL     1    -100.142 152.669 237.674  1.00  0.00     0.000 C 
BRANCH  12  13
ATOM     13  C   UNL     1     -99.431 153.770 236.859  1.00  0.00     0.006 C 
BRANCH  13  14
ATOM     14  C   UNL     1     -98.595 154.738 237.713  1.00  0.00     0.053 C 
BRANCH  14  15
ATOM     15  C   UNL     1     -97.152 154.734 237.308  1.00  0.00     0.041 C 
ATOM     16  O   UNL     1     -96.441 153.712 237.501  1.00  0.00    -0.550 OA
ATOM     17  O   UNL     1     -96.600 155.853 236.700  1.00  0.00    -0.550 OA
ENDBRANCH  14  15
ENDBRANCH  13  14
ENDBRANCH  12  13
ENDBRANCH  11  12
ENDBRANCH  10  11
ENDBRANCH   9  10
ENDBRANCH   8   9
ENDBRANCH   7   8
ENDBRANCH   6   7
ENDBRANCH   5   6
ENDBRANCH   4   5
ENDBRANCH   3   4
ENDBRANCH   2   3
ENDBRANCH   1   2
BRANCH   1  18
ATOM     18  C   UNL     1     -94.078 146.784 239.266  1.00  0.00     0.000 C 
BRANCH  18  19
ATOM     19  C   UNL     1     -93.590 147.715 240.394  1.00  0.00     0.000 C 
BRANCH  19  20
ATOM     20  C   UNL     1     -93.609 147.101 241.808  1.00  0.00     0.000 C 
BRANCH  20  21
ATOM     21  C   UNL     1     -94.317 145.737 241.920  1.00  0.00     0.000 C 
BRANCH  21  22
ATOM     22  C   UNL     1     -95.254 145.644 243.133  1.00  0.00     0.000 C 
BRANCH  22  23
ATOM     23  C   UNL     1     -96.692 145.333 242.693  1.00  0.00     0.000 C 
BRANCH  23  24
ATOM     24  C   UNL     1     -96.958 145.677 241.215  1.00  0.00    -0.000 C 
BRANCH  24  25
ATOM     25  C   UNL     1     -97.867 146.898 240.976  1.00  0.00    -0.000 C 
BRANCH  25  26
ATOM     26  C   UNL     1     -97.115 148.237 241.081  1.00  0.00    -0.000 C 
BRANCH  26  27
ATOM     27  C   UNL     1     -97.615 149.105 242.247  1.00  0.00    -0.000 C 
BRANCH  27  28
ATOM     28  C   UNL     1     -96.673 149.075 243.459  1.00  0.00    -0.000 C 
BRANCH  28  29
ATOM     29  C   UNL     1     -97.343 148.374 244.652  1.00  0.00    -0.000 C 
BRANCH  29  30
ATOM     30  C   UNL     1     -98.281 149.304 245.438  1.00  0.00    -0.000 C 
BRANCH  30  31
ATOM     31  C   UNL     1     -98.143 149.135 246.958  1.00  0.00    -0.003 C 
ATOM     32  C   UNL     1     -97.808 150.464 247.628  1.00  0.00     0.004 C 
ENDBRANCH  30  31
ENDBRANCH  29  30
ENDBRANCH  28  29
ENDBRANCH  27  28
ENDBRANCH  26  27
ENDBRANCH  25  26
ENDBRANCH  24  25
ENDBRANCH  23  24
ENDBRANCH  22  23
ENDBRANCH  21  22
ENDBRANCH  20  21
ENDBRANCH  19  20
ENDBRANCH  18  19
ENDBRANCH   1  18
TORSDOF 28
ENDMDL
MODEL 7
REMARK VINA RESULT:    -3.091      1.660      4.578
REMARK INTER + INTRA:         -14.031
REMARK INTER:                  -7.880
REMARK INTRA:                  -6.151
REMARK UNBOUND:                -5.879
REMARK SMILES CCCCCCCCCCCCCCCCCCCCCCCCCCCCCC(=O)[O-]
REMARK SMILES IDX 16 1 17 2 18 3 19 4 20 5 21 6 22 7 23 8 24 9 25 10 26 11
REMARK SMILES IDX 27 12 28 13 29 14 30 15 31 16 32 17 15 18 14 19 13 20 12 21
REMARK SMILES IDX 11 22 10 23 9 24 8 25 7 26 6 27 5 28 4 29 3 30 2 31 1 32
REMARK H PARENT
REMARK Flexibility Score: inf
ROOT
ATOM      1  C   UNL     1     -96.420 147.442 242.901  1.00  0.00     0.000 C 
ENDROOT
BRANCH   1   2
ATOM      2  C   UNL     1     -96.220 148.961 243.046  1.00  0.00     0.000 C 
BRANCH   2   3
ATOM      3  C   UNL     1     -97.530 149.758 242.901  1.00  0.00     0.000 C 
BRANCH   3   4
ATOM      4  C   UNL     1     -98.399 149.388 241.683  1.00  0.00     0.000 C 
BRANCH   4   5
ATOM      5  C   UNL     1     -99.003 150.616 240.979  1.00  0.00     0.000 C 
BRANCH   5   6
ATOM      6  C   UNL     1     -98.788 150.592 239.457  1.00  0.00     0.000 C 
BRANCH   6   7
ATOM      7  C   UNL     1     -99.832 151.432 238.698  1.00  0.00     0.000 C 
BRANCH   7   8
ATOM      8  C   UNL     1    -100.241 150.799 237.354  1.00  0.00     0.000 C 
BRANCH   8   9
ATOM      9  C   UNL     1     -99.211 149.808 236.769  1.00  0.00     0.000 C 
BRANCH   9  10
ATOM     10  C   UNL     1     -98.263 150.433 235.730  1.00  0.00     0.000 C 
BRANCH  10  11
ATOM     11  C   UNL     1     -96.832 150.645 236.275  1.00  0.00     0.000 C 
BRANCH  11  12
ATOM     12  C   UNL     1     -96.295 152.061 235.996  1.00  0.00     0.000 C 
BRANCH  12  13
ATOM     13  C   UNL     1     -96.497 153.040 237.171  1.00  0.00     0.006 C 
BRANCH  13  14
ATOM     14  C   UNL     1     -97.746 153.928 237.037  1.00  0.00     0.053 C 
BRANCH  14  15
ATOM     15  C   UNL     1     -97.389 155.344 236.701  1.00  0.00     0.041 C 
ATOM     16  O   UNL     1     -96.259 155.806 237.013  1.00  0.00    -0.550 OA
ATOM     17  O   UNL     1     -98.299 156.147 236.026  1.00  0.00    -0.550 OA
ENDBRANCH  14  15
ENDBRANCH  13  14
ENDBRANCH  12  13
ENDBRANCH  11  12
ENDBRANCH  10  11
ENDBRANCH   9  10
ENDBRANCH   8   9
ENDBRANCH   7   8
ENDBRANCH   6   7
ENDBRANCH   5   6
ENDBRANCH   4   5
ENDBRANCH   3   4
ENDBRANCH   2   3
ENDBRANCH   1   2
BRANCH   1  18
ATOM     18  C   UNL     1     -95.109 146.693 242.610  1.00  0.00     0.000 C 
BRANCH  18  19
ATOM     19  C   UNL     1     -93.949 147.576 242.107  1.00  0.00     0.000 C 
BRANCH  19  20
ATOM     20  C   UNL     1     -93.074 146.946 241.005  1.00  0.00     0.000 C 
BRANCH  20  21
ATOM     21  C   UNL     1     -93.362 145.462 240.709  1.00  0.00     0.000 C 
BRANCH  21  22
ATOM     22  C   UNL     1     -94.014 145.240 239.336  1.00  0.00     0.000 C 
BRANCH  22  23
ATOM     23  C   UNL     1     -93.401 146.172 238.281  1.00  0.00     0.000 C 
BRANCH  23  24
ATOM     24  C   UNL     1     -94.452 147.026 237.546  1.00  0.00    -0.000 C 
BRANCH  24  25
ATOM     25  C   UNL     1     -94.756 148.393 238.188  1.00  0.00    -0.000 C 
BRANCH  25  26
ATOM     26  C   UNL     1     -95.980 148.360 239.121  1.00  0.00    -0.000 C 
BRANCH  26  27
ATOM     27  C   UNL     1     -97.075 147.403 238.624  1.00  0.00    -0.000 C 
BRANCH  27  28
ATOM     28  C   UNL     1     -97.511 146.390 239.693  1.00  0.00    -0.000 C 
BRANCH  28  29
ATOM     29  C   UNL     1     -99.043 146.298 239.763  1.00  0.00    -0.000 C 
BRANCH  29  30
ATOM     30  C   UNL     1     -99.739 147.070 238.630  1.00  0.00    -0.000 C 
BRANCH  30  31
ATOM     31  C   UNL     1    -101.213 147.372 238.939  1.00  0.00    -0.003 C 
ATOM     32  C   UNL     1    -101.400 147.737 240.409  1.00  0.00     0.004 C 
ENDBRANCH  30  31
ENDBRANCH  29  30
ENDBRANCH  28  29
ENDBRANCH  27  28
ENDBRANCH  26  27
ENDBRANCH  25  26
ENDBRANCH  24  25
ENDBRANCH  23  24
ENDBRANCH  22  23
ENDBRANCH  21  22
ENDBRANCH  20  21
ENDBRANCH  19  20
ENDBRANCH  18  19
ENDBRANCH   1  18
TORSDOF 28
ENDMDL
MODEL 8
REMARK VINA RESULT:    -3.083      1.841      5.034
REMARK INTER + INTRA:         -14.008
REMARK INTER:                  -8.039
REMARK INTRA:                  -5.970
REMARK UNBOUND:                -5.879
REMARK SMILES CCCCCCCCCCCCCCCCCCCCCCCCCCCCCC(=O)[O-]
REMARK SMILES IDX 16 1 17 2 18 3 19 4 20 5 21 6 22 7 23 8 24 9 25 10 26 11
REMARK SMILES IDX 27 12 28 13 29 14 30 15 31 16 32 17 15 18 14 19 13 20 12 21
REMARK SMILES IDX 11 22 10 23 9 24 8 25 7 26 6 27 5 28 4 29 3 30 2 31 1 32
REMARK H PARENT
REMARK Flexibility Score: inf
ROOT
ATOM      1  C   UNL     1     -93.320 145.823 236.801  1.00  0.00     0.000 C 
ENDROOT
BRANCH   1   2
ATOM      2  C   UNL     1     -93.588 147.050 235.912  1.00  0.00     0.000 C 
BRANCH   2   3
ATOM      3  C   UNL     1     -94.970 147.011 235.231  1.00  0.00     0.000 C 
BRANCH   3   4
ATOM      4  C   UNL     1     -95.284 148.199 234.302  1.00  0.00     0.000 C 
BRANCH   4   5
ATOM      5  C   UNL     1     -96.615 148.893 234.641  1.00  0.00     0.000 C 
BRANCH   5   6
ATOM      6  C   UNL     1     -96.440 150.388 234.961  1.00  0.00     0.000 C 
BRANCH   6   7
ATOM      7  C   UNL     1     -95.073 150.700 235.595  1.00  0.00     0.000 C 
BRANCH   7   8
ATOM      8  C   UNL     1     -95.155 150.891 237.122  1.00  0.00     0.000 C 
BRANCH   8   9
ATOM      9  C   UNL     1     -94.836 149.626 237.947  1.00  0.00     0.000 C 
BRANCH   9  10
ATOM     10  C   UNL     1     -96.080 148.818 238.358  1.00  0.00     0.000 C 
BRANCH  10  11
ATOM     11  C   UNL     1     -97.354 149.688 238.460  1.00  0.00     0.000 C 
BRANCH  11  12
ATOM     12  C   UNL     1     -98.585 149.013 237.829  1.00  0.00     0.000 C 
BRANCH  12  13
ATOM     13  C   UNL     1     -99.913 149.373 238.528  1.00  0.00     0.006 C 
BRANCH  13  14
ATOM     14  C   UNL     1    -100.389 150.811 238.261  1.00  0.00     0.053 C 
BRANCH  14  15
ATOM     15  C   UNL     1    -100.139 151.708 239.435  1.00  0.00     0.041 C 
ATOM     16  O   UNL     1     -99.498 152.783 239.288  1.00  0.00    -0.550 OA
ATOM     17  O   UNL     1    -100.632 151.365 240.687  1.00  0.00    -0.550 OA
ENDBRANCH  14  15
ENDBRANCH  13  14
ENDBRANCH  12  13
ENDBRANCH  11  12
ENDBRANCH  10  11
ENDBRANCH   9  10
ENDBRANCH   8   9
ENDBRANCH   7   8
ENDBRANCH   6   7
ENDBRANCH   5   6
ENDBRANCH   4   5
ENDBRANCH   3   4
ENDBRANCH   2   3
ENDBRANCH   1   2
BRANCH   1  18
ATOM     18  C   UNL     1     -93.643 146.079 238.283  1.00  0.00     0.000 C 
BRANCH  18  19
ATOM     19  C   UNL     1     -92.682 145.410 239.286  1.00  0.00     0.000 C 
BRANCH  19  20
ATOM     20  C   UNL     1     -92.762 145.946 240.730  1.00  0.00     0.000 C 
BRANCH  20  21
ATOM     21  C   UNL     1     -93.123 147.438 240.855  1.00  0.00     0.000 C 
BRANCH  21  22
ATOM     22  C   UNL     1     -94.423 147.678 241.636  1.00  0.00     0.000 C 
BRANCH  22  23
ATOM     23  C   UNL     1     -94.785 146.451 242.487  1.00  0.00     0.000 C 
BRANCH  23  24
ATOM     24  C   UNL     1     -96.140 145.828 242.100  1.00  0.00    -0.000 C 
BRANCH  24  25
ATOM     25  C   UNL     1     -96.602 146.100 240.655  1.00  0.00    -0.000 C 
BRANCH  25  26
ATOM     26  C   UNL     1     -98.053 146.605 240.574  1.00  0.00    -0.000 C 
BRANCH  26  27
ATOM     27  C   UNL     1     -98.638 146.946 241.954  1.00  0.00    -0.000 C 
BRANCH  27  28
ATOM     28  C   UNL     1     -99.208 148.371 242.024  1.00  0.00    -0.000 C 
BRANCH  28  29
ATOM     29  C   UNL     1     -98.077 149.411 242.019  1.00  0.00    -0.000 C 
BRANCH  29  30
ATOM     30  C   UNL     1     -97.162 149.303 243.249  1.00  0.00    -0.000 C 
BRANCH  30  31
ATOM     31  C   UNL     1     -97.950 149.146 244.559  1.00  0.00    -0.003 C 
ATOM     32  C   UNL     1     -97.456 147.941 245.353  1.00  0.00     0.004 C 
ENDBRANCH  30  31
ENDBRANCH  29  30
ENDBRANCH  28  29
ENDBRANCH  27  28
ENDBRANCH  26  27
ENDBRANCH  25  26
ENDBRANCH  24  25
ENDBRANCH  23  24
ENDBRANCH  22  23
ENDBRANCH  21  22
ENDBRANCH  20  21
ENDBRANCH  19  20
ENDBRANCH  18  19
ENDBRANCH   1  18
TORSDOF 28
ENDMDL
MODEL 9
REMARK VINA RESULT:    -3.053      2.245      4.965
REMARK INTER + INTRA:         -13.930
REMARK INTER:                  -8.467
REMARK INTRA:                  -5.463
REMARK UNBOUND:                -5.879
REMARK SMILES CCCCCCCCCCCCCCCCCCCCCCCCCCCCCC(=O)[O-]
REMARK SMILES IDX 16 1 17 2 18 3 19 4 20 5 21 6 22 7 23 8 24 9 25 10 26 11
REMARK SMILES IDX 27 12 28 13 29 14 30 15 31 16 32 17 15 18 14 19 13 20 12 21
REMARK SMILES IDX 11 22 10 23 9 24 8 25 7 26 6 27 5 28 4 29 3 30 2 31 1 32
REMARK H PARENT
REMARK Flexibility Score: inf
ROOT
ATOM      1  C   UNL     1     -93.698 145.558 239.317  1.00  0.00     0.000 C 
ENDROOT
BRANCH   1   2
ATOM      2  C   UNL     1     -93.314 145.986 237.890  1.00  0.00     0.000 C 
BRANCH   2   3
ATOM      3  C   UNL     1     -94.453 146.717 237.153  1.00  0.00     0.000 C 
BRANCH   3   4
ATOM      4  C   UNL     1     -95.287 147.683 238.017  1.00  0.00     0.000 C 
BRANCH   4   5
ATOM      5  C   UNL     1     -94.895 149.158 237.821  1.00  0.00     0.000 C 
BRANCH   5   6
ATOM      6  C   UNL     1     -94.552 149.491 236.359  1.00  0.00     0.000 C 
BRANCH   6   7
ATOM      7  C   UNL     1     -95.104 150.859 235.919  1.00  0.00     0.000 C 
BRANCH   7   8
ATOM      8  C   UNL     1     -95.503 151.750 237.112  1.00  0.00     0.000 C 
BRANCH   8   9
ATOM      9  C   UNL     1     -96.637 152.755 236.813  1.00  0.00     0.000 C 
BRANCH   9  10
ATOM     10  C   UNL     1     -97.852 152.623 237.749  1.00  0.00     0.000 C 
BRANCH  10  11
ATOM     11  C   UNL     1     -98.891 151.598 237.242  1.00  0.00     0.000 C 
BRANCH  11  12
ATOM     12  C   UNL     1     -98.640 150.180 237.787  1.00  0.00     0.000 C 
BRANCH  12  13
ATOM     13  C   UNL     1     -98.653 149.089 236.696  1.00  0.00     0.006 C 
BRANCH  13  14
ATOM     14  C   UNL     1     -98.380 149.619 235.278  1.00  0.00     0.053 C 
BRANCH  14  15
ATOM     15  C   UNL     1     -97.715 148.590 234.417  1.00  0.00     0.041 C 
ATOM     16  O   UNL     1     -97.657 148.747 233.168  1.00  0.00    -0.550 OA
ATOM     17  O   UNL     1     -97.140 147.467 234.996  1.00  0.00    -0.550 OA
ENDBRANCH  14  15
ENDBRANCH  13  14
ENDBRANCH  12  13
ENDBRANCH  11  12
ENDBRANCH  10  11
ENDBRANCH   9  10
ENDBRANCH   8   9
ENDBRANCH   7   8
ENDBRANCH   6   7
ENDBRANCH   5   6
ENDBRANCH   4   5
ENDBRANCH   3   4
ENDBRANCH   2   3
ENDBRANCH   1   2
BRANCH   1  18
ATOM     18  C   UNL     1     -92.611 145.893 240.353  1.00  0.00     0.000 C 
BRANCH  18  19
ATOM     19  C   UNL     1     -92.878 147.157 241.194  1.00  0.00     0.000 C 
BRANCH  19  20
ATOM     20  C   UNL     1     -94.364 147.458 241.475  1.00  0.00     0.000 C 
BRANCH  20  21
ATOM     21  C   UNL     1     -94.949 146.764 242.720  1.00  0.00     0.000 C 
BRANCH  21  22
ATOM     22  C   UNL     1     -96.069 145.769 242.383  1.00  0.00     0.000 C 
BRANCH  22  23
ATOM     23  C   UNL     1     -96.720 146.113 241.035  1.00  0.00     0.000 C 
BRANCH  23  24
ATOM     24  C   UNL     1     -98.220 146.440 241.156  1.00  0.00    -0.000 C 
BRANCH  24  25
ATOM     25  C   UNL     1     -98.643 147.809 240.589  1.00  0.00    -0.000 C 
BRANCH  25  26
ATOM     26  C   UNL     1     -97.714 148.955 241.029  1.00  0.00    -0.000 C 
BRANCH  26  27
ATOM     27  C   UNL     1     -98.216 149.669 242.294  1.00  0.00    -0.000 C 
BRANCH  27  28
ATOM     28  C   UNL     1     -97.379 149.336 243.538  1.00  0.00    -0.000 C 
BRANCH  28  29
ATOM     29  C   UNL     1     -98.050 148.228 244.365  1.00  0.00    -0.000 C 
BRANCH  29  30
ATOM     30  C   UNL     1     -97.573 148.205 245.827  1.00  0.00    -0.000 C 
BRANCH  30  31
ATOM     31  C   UNL     1     -97.946 149.485 246.590  1.00  0.00    -0.003 C 
ATOM     32  C   UNL     1     -99.459 149.677 246.631  1.00  0.00     0.004 C 
ENDBRANCH  30  31
ENDBRANCH  29  30
ENDBRANCH  28  29
ENDBRANCH  27  28
ENDBRANCH  26  27
ENDBRANCH  25  26
ENDBRANCH  24  25
ENDBRANCH  23  24
ENDBRANCH  22  23
ENDBRANCH  21  22
ENDBRANCH  20  21
ENDBRANCH  19  20
ENDBRANCH  18  19
ENDBRANCH   1  18
TORSDOF 28
ENDMDL
