MODEL 1
REMARK VINA RESULT:    -3.791      0.000      0.000
REMARK INTER + INTRA:         -12.762
REMARK INTER:                  -8.666
REMARK INTRA:                  -4.096
REMARK UNBOUND:                -4.096
REMARK SMILES CCCCCCCCCCCCCCCCCCCCCCCC(=O)[O-]
REMARK SMILES IDX 13 1 14 2 15 3 16 4 17 5 18 6 19 7 20 8 21 9 22 10 23 11
REMARK SMILES IDX 24 12 25 13 26 14 12 15 11 16 10 17 9 18 8 19 7 20 6 21 5 22
REMARK SMILES IDX 4 23 3 24 2 25 1 26
REMARK H PARENT
REMARK Flexibility Score: inf
ROOT
ATOM      1  C   UNL     1      83.906 124.342 126.520  1.00  0.00     0.000 C 
ENDROOT
BRANCH   1   2
ATOM      2  C   UNL     1      82.959 123.605 127.481  1.00  0.00     0.000 C 
BRANCH   2   3
ATOM      3  C   UNL     1      83.729 122.798 128.538  1.00  0.00     0.000 C 
BRANCH   3   4
ATOM      4  C   UNL     1      82.817 122.282 129.677  1.00  0.00     0.000 C 
BRANCH   4   5
ATOM      5  C   UNL     1      82.796 123.229 130.884  1.00  0.00     0.000 C 
BRANCH   5   6
ATOM      6  C   UNL     1      83.234 122.499 132.161  1.00  0.00     0.000 C 
BRANCH   6   7
ATOM      7  C   UNL     1      84.105 123.403 133.044  1.00  0.00     0.000 C 
BRANCH   7   8
ATOM      8  C   UNL     1      85.610 123.149 132.849  1.00  0.00     0.000 C 
BRANCH   8   9
ATOM      9  C   UNL     1      86.375 124.405 132.396  1.00  0.00     0.000 C 
BRANCH   9  10
ATOM     10  C   UNL     1      85.981 124.874 130.984  1.00  0.00     0.006 C 
BRANCH  10  11
ATOM     11  C   UNL     1      85.149 126.170 130.959  1.00  0.00     0.053 C 
BRANCH  11  12
ATOM     12  C   UNL     1      84.617 126.488 129.593  1.00  0.00     0.041 C 
ATOM     13  O   UNL     1      83.374 126.492 129.381  1.00  0.00    -0.550 OA
ATOM     14  O   UNL     1      85.490 126.801 128.558  1.00  0.00    -0.550 OA
ENDBRANCH  11  12
ENDBRANCH  10  11
ENDBRANCH   9  10
ENDBRANCH   8   9
ENDBRANCH   7   8
ENDBRANCH   6   7
ENDBRANCH   5   6
ENDBRANCH   4   5
ENDBRANCH   3   4
ENDBRANCH   2   3
ENDBRANCH   1   2
BRANCH   1  15
ATOM     15  C   UNL     1      83.774 123.846 125.067  1.00  0.00     0.000 C 
BRANCH  15  16
ATOM     16  C   UNL     1      84.108 122.350 124.863  1.00  0.00     0.000 C 
BRANCH  16  17
ATOM     17  C   UNL     1      83.052 121.526 124.096  1.00  0.00     0.000 C 
BRANCH  17  18
ATOM     18  C   UNL     1      82.820 120.106 124.644  1.00  0.00    -0.000 C 
BRANCH  18  19
ATOM     19  C   UNL     1      82.727 120.077 126.178  1.00  0.00    -0.000 C 
BRANCH  19  20
ATOM     20  C   UNL     1      83.740 119.106 126.813  1.00  0.00    -0.000 C 
BRANCH  20  21
ATOM     21  C   UNL     1      83.617 118.938 128.345  1.00  0.00    -0.000 C 
BRANCH  21  22
ATOM     22  C   UNL     1      84.949 118.875 129.119  1.00  0.00    -0.000 C 
BRANCH  22  23
ATOM     23  C   UNL     1      84.845 119.456 130.536  1.00  0.00    -0.000 C 
BRANCH  23  24
ATOM     24  C   UNL     1      86.214 119.963 131.019  1.00  0.00    -0.000 C 
BRANCH  24  25
ATOM     25  C   UNL     1      86.778 121.074 130.121  1.00  0.00    -0.003 C 
ATOM     26  C   UNL     1      88.189 121.505 130.527  1.00  0.00     0.004 C 
ENDBRANCH  24  25
ENDBRANCH  23  24
ENDBRANCH  22  23
ENDBRANCH  21  22
ENDBRANCH  20  21
ENDBRANCH  19  20
ENDBRANCH  18  19
ENDBRANCH  17  18
ENDBRANCH  16  17
ENDBRANCH  15  16
ENDBRANCH   1  15
TORSDOF 22
ENDMDL
MODEL 2
REMARK VINA RESULT:    -3.732      2.236      5.186
REMARK INTER + INTRA:         -12.629
REMARK INTER:                  -9.289
REMARK INTRA:                  -3.340
REMARK UNBOUND:                -4.096
REMARK SMILES CCCCCCCCCCCCCCCCCCCCCCCC(=O)[O-]
REMARK SMILES IDX 13 1 14 2 15 3 16 4 17 5 18 6 19 7 20 8 21 9 22 10 23 11
REMARK SMILES IDX 24 12 25 13 26 14 12 15 11 16 10 17 9 18 8 19 7 20 6 21 5 22
REMARK SMILES IDX 4 23 3 24 2 25 1 26
REMARK H PARENT
REMARK Flexibility Score: inf
ROOT
ATOM      1  C   UNL     1      85.889 125.193 128.602  1.00  0.00     0.000 C 
ENDROOT
BRANCH   1   2
ATOM      2  C   UNL     1      85.699 125.938 129.933  1.00  0.00     0.000 C 
BRANCH   2   3
ATOM      3  C   UNL     1      84.474 126.865 129.901  1.00  0.00     0.000 C 
BRANCH   3   4
ATOM      4  C   UNL     1      83.307 126.342 130.773  1.00  0.00     0.000 C 
BRANCH   4   5
ATOM      5  C   UNL     1      83.504 126.655 132.263  1.00  0.00     0.000 C 
BRANCH   5   6
ATOM      6  C   UNL     1      83.229 125.414 133.123  1.00  0.00     0.000 C 
BRANCH   6   7
ATOM      7  C   UNL     1      83.075 124.160 132.253  1.00  0.00     0.000 C 
BRANCH   7   8
ATOM      8  C   UNL     1      83.551 122.882 132.965  1.00  0.00     0.000 C 
BRANCH   8   9
ATOM      9  C   UNL     1      85.061 122.633 132.803  1.00  0.00     0.000 C 
BRANCH   9  10
ATOM     10  C   UNL     1      85.498 122.513 131.332  1.00  0.00     0.006 C 
BRANCH  10  11
ATOM     11  C   UNL     1      86.425 121.317 131.044  1.00  0.00     0.053 C 
BRANCH  11  12
ATOM     12  C   UNL     1      87.758 121.737 130.501  1.00  0.00     0.041 C 
ATOM     13  O   UNL     1      87.845 122.737 129.737  1.00  0.00    -0.550 OA
ATOM     14  O   UNL     1      88.908 121.040 130.853  1.00  0.00    -0.550 OA
ENDBRANCH  11  12
ENDBRANCH  10  11
ENDBRANCH   9  10
ENDBRANCH   8   9
ENDBRANCH   7   8
ENDBRANCH   6   7
ENDBRANCH   5   6
ENDBRANCH   4   5
ENDBRANCH   3   4
ENDBRANCH   2   3
ENDBRANCH   1   2
BRANCH   1  15
ATOM     15  C   UNL     1      84.855 125.612 127.540  1.00  0.00     0.000 C 
BRANCH  15  16
ATOM     16  C   UNL     1      83.993 124.454 126.987  1.00  0.00     0.000 C 
BRANCH  16  17
ATOM     17  C   UNL     1      82.933 123.885 127.956  1.00  0.00     0.000 C 
BRANCH  17  18
ATOM     18  C   UNL     1      83.182 122.433 128.402  1.00  0.00    -0.000 C 
BRANCH  18  19
ATOM     19  C   UNL     1      84.446 121.832 127.767  1.00  0.00    -0.000 C 
BRANCH  19  20
ATOM     20  C   UNL     1      84.192 120.448 127.141  1.00  0.00    -0.000 C 
BRANCH  20  21
ATOM     21  C   UNL     1      83.456 120.468 125.783  1.00  0.00    -0.000 C 
BRANCH  21  22
ATOM     22  C   UNL     1      83.893 121.576 124.803  1.00  0.00    -0.000 C 
BRANCH  22  23
ATOM     23  C   UNL     1      82.802 121.939 123.786  1.00  0.00    -0.000 C 
BRANCH  23  24
ATOM     24  C   UNL     1      82.031 120.685 123.342  1.00  0.00    -0.000 C 
BRANCH  24  25
ATOM     25  C   UNL     1      82.539 120.128 122.003  1.00  0.00    -0.003 C 
ATOM     26  C   UNL     1      82.427 121.139 120.860  1.00  0.00     0.004 C 
ENDBRANCH  24  25
ENDBRANCH  23  24
ENDBRANCH  22  23
ENDBRANCH  21  22
ENDBRANCH  20  21
ENDBRANCH  19  20
ENDBRANCH  18  19
ENDBRANCH  17  18
ENDBRANCH  16  17
ENDBRANCH  15  16
ENDBRANCH   1  15
TORSDOF 22
ENDMDL
MODEL 3
REMARK VINA RESULT:    -3.553      2.725      6.201
REMARK INTER + INTRA:         -12.219
REMARK INTER:                  -8.470
REMARK INTRA:                  -3.749
REMARK UNBOUND:                -4.096
REMARK SMILES CCCCCCCCCCCCCCCCCCCCCCCC(=O)[O-]
REMARK SMILES IDX 13 1 14 2 15 3 16 4 17 5 18 6 19 7 20 8 21 9 22 10 23 11
REMARK SMILES IDX 24 12 25 13 26 14 12 15 11 16 10 17 9 18 8 19 7 20 6 21 5 22
REMARK SMILES IDX 4 23 3 24 2 25 1 26
REMARK H PARENT
REMARK Flexibility Score: inf
ROOT
ATOM      1  C   UNL     1      85.108 125.643 128.021  1.00  0.00     0.000 C 
ENDROOT
BRANCH   1   2
ATOM      2  C   UNL     1      83.650 125.196 128.211  1.00  0.00     0.000 C 
BRANCH   2   3
ATOM      3  C   UNL     1      83.274 124.046 127.263  1.00  0.00     0.000 C 
BRANCH   3   4
ATOM      4  C   UNL     1      82.134 123.162 127.822  1.00  0.00     0.000 C 
BRANCH   4   5
ATOM      5  C   UNL     1      82.660 121.978 128.645  1.00  0.00     0.000 C 
BRANCH   5   6
ATOM      6  C   UNL     1      84.174 121.810 128.455  1.00  0.00     0.000 C 
BRANCH   6   7
ATOM      7  C   UNL     1      84.504 120.453 127.819  1.00  0.00     0.000 C 
BRANCH   7   8
ATOM      8  C   UNL     1      84.174 120.406 126.317  1.00  0.00     0.000 C 
BRANCH   8   9
ATOM      9  C   UNL     1      83.022 119.441 125.988  1.00  0.00     0.000 C 
BRANCH   9  10
ATOM     10  C   UNL     1      81.974 120.055 125.041  1.00  0.00     0.006 C 
BRANCH  10  11
ATOM     11  C   UNL     1      82.276 119.844 123.545  1.00  0.00     0.053 C 
BRANCH  11  12
ATOM     12  C   UNL     1      82.385 121.135 122.791  1.00  0.00     0.041 C 
ATOM     13  O   UNL     1      82.290 122.236 123.399  1.00  0.00    -0.550 OA
ATOM     14  O   UNL     1      82.612 121.127 121.419  1.00  0.00    -0.550 OA
ENDBRANCH  11  12
ENDBRANCH  10  11
ENDBRANCH   9  10
ENDBRANCH   8   9
ENDBRANCH   7   8
ENDBRANCH   6   7
ENDBRANCH   5   6
ENDBRANCH   4   5
ENDBRANCH   3   4
ENDBRANCH   2   3
ENDBRANCH   1   2
BRANCH   1  15
ATOM     15  C   UNL     1      86.112 124.671 128.671  1.00  0.00     0.000 C 
BRANCH  15  16
ATOM     16  C   UNL     1      86.303 124.863 130.193  1.00  0.00     0.000 C 
BRANCH  16  17
ATOM     17  C   UNL     1      87.144 123.781 130.905  1.00  0.00     0.000 C 
BRANCH  17  18
ATOM     18  C   UNL     1      87.625 122.637 129.994  1.00  0.00    -0.000 C 
BRANCH  18  19
ATOM     19  C   UNL     1      87.797 121.313 130.755  1.00  0.00    -0.000 C 
BRANCH  19  20
ATOM     20  C   UNL     1      86.484 120.515 130.857  1.00  0.00    -0.000 C 
BRANCH  20  21
ATOM     21  C   UNL     1      85.571 120.901 132.043  1.00  0.00    -0.000 C 
BRANCH  21  22
ATOM     22  C   UNL     1      84.065 120.636 131.841  1.00  0.00    -0.000 C 
BRANCH  22  23
ATOM     23  C   UNL     1      83.177 121.689 132.519  1.00  0.00    -0.000 C 
BRANCH  23  24
ATOM     24  C   UNL     1      83.761 123.098 132.331  1.00  0.00    -0.000 C 
BRANCH  24  25
ATOM     25  C   UNL     1      82.744 124.079 131.729  1.00  0.00    -0.003 C 
ATOM     26  C   UNL     1      83.207 125.536 131.808  1.00  0.00     0.004 C 
ENDBRANCH  24  25
ENDBRANCH  23  24
ENDBRANCH  22  23
ENDBRANCH  21  22
ENDBRANCH  20  21
ENDBRANCH  19  20
ENDBRANCH  18  19
ENDBRANCH  17  18
ENDBRANCH  16  17
ENDBRANCH  15  16
ENDBRANCH   1  15
TORSDOF 22
ENDMDL
MODEL 4
REMARK VINA RESULT:    -3.442      3.458      7.543
REMARK INTER + INTRA:         -11.964
REMARK INTER:                  -9.523
REMARK INTRA:                  -2.441
REMARK UNBOUND:                -4.096
REMARK SMILES CCCCCCCCCCCCCCCCCCCCCCCC(=O)[O-]
REMARK SMILES IDX 13 1 14 2 15 3 16 4 17 5 18 6 19 7 20 8 21 9 22 10 23 11
REMARK SMILES IDX 24 12 25 13 26 14 12 15 11 16 10 17 9 18 8 19 7 20 6 21 5 22
REMARK SMILES IDX 4 23 3 24 2 25 1 26
REMARK H PARENT
REMARK Flexibility Score: inf
ROOT
ATOM      1  C   UNL     1      86.907 123.150 129.403  1.00  0.00     0.000 C 
ENDROOT
BRANCH   1   2
ATOM      2  C   UNL     1      86.610 123.659 130.822  1.00  0.00     0.000 C 
BRANCH   2   3
ATOM      3  C   UNL     1      85.417 122.927 131.457  1.00  0.00     0.000 C 
BRANCH   3   4
ATOM      4  C   UNL     1      85.848 121.702 132.298  1.00  0.00     0.000 C 
BRANCH   4   5
ATOM      5  C   UNL     1      86.113 120.462 131.433  1.00  0.00     0.000 C 
BRANCH   5   6
ATOM      6  C   UNL     1      84.817 119.674 131.193  1.00  0.00     0.000 C 
BRANCH   6   7
ATOM      7  C   UNL     1      84.343 119.819 129.741  1.00  0.00     0.000 C 
BRANCH   7   8
ATOM      8  C   UNL     1      83.064 120.665 129.617  1.00  0.00     0.000 C 
BRANCH   8   9
ATOM      9  C   UNL     1      82.907 121.312 128.230  1.00  0.00     0.000 C 
BRANCH   9  10
ATOM     10  C   UNL     1      83.161 120.329 127.073  1.00  0.00     0.006 C 
BRANCH  10  11
ATOM     11  C   UNL     1      84.399 120.665 126.220  1.00  0.00     0.053 C 
BRANCH  11  12
ATOM     12  C   UNL     1      84.066 121.509 125.026  1.00  0.00     0.041 C 
ATOM     13  O   UNL     1      84.689 122.584 124.815  1.00  0.00    -0.550 OA
ATOM     14  O   UNL     1      83.082 121.100 124.134  1.00  0.00    -0.550 OA
ENDBRANCH  11  12
ENDBRANCH  10  11
ENDBRANCH   9  10
ENDBRANCH   8   9
ENDBRANCH   7   8
ENDBRANCH   6   7
ENDBRANCH   5   6
ENDBRANCH   4   5
ENDBRANCH   3   4
ENDBRANCH   2   3
ENDBRANCH   1   2
BRANCH   1  15
ATOM     15  C   UNL     1      86.609 124.208 128.323  1.00  0.00     0.000 C 
BRANCH  15  16
ATOM     16  C   UNL     1      85.201 124.107 127.693  1.00  0.00     0.000 C 
BRANCH  16  17
ATOM     17  C   UNL     1      84.082 124.876 128.427  1.00  0.00     0.000 C 
BRANCH  17  18
ATOM     18  C   UNL     1      84.531 126.194 129.085  1.00  0.00    -0.000 C 
BRANCH  18  19
ATOM     19  C   UNL     1      83.457 126.781 130.015  1.00  0.00    -0.000 C 
BRANCH  19  20
ATOM     20  C   UNL     1      83.812 126.616 131.505  1.00  0.00    -0.000 C 
BRANCH  20  21
ATOM     21  C   UNL     1      83.409 127.802 132.411  1.00  0.00    -0.000 C 
BRANCH  21  22
ATOM     22  C   UNL     1      82.905 129.061 131.676  1.00  0.00    -0.000 C 
BRANCH  22  23
ATOM     23  C   UNL     1      82.764 130.278 132.602  1.00  0.00    -0.000 C 
BRANCH  23  24
ATOM     24  C   UNL     1      83.957 131.233 132.432  1.00  0.00    -0.000 C 
BRANCH  24  25
ATOM     25  C   UNL     1      83.587 132.693 132.734  1.00  0.00    -0.003 C 
ATOM     26  C   UNL     1      82.645 133.294 131.689  1.00  0.00     0.004 C 
ENDBRANCH  24  25
ENDBRANCH  23  24
ENDBRANCH  22  23
ENDBRANCH  21  22
ENDBRANCH  20  21
ENDBRANCH  19  20
ENDBRANCH  18  19
ENDBRANCH  17  18
ENDBRANCH  16  17
ENDBRANCH  15  16
ENDBRANCH   1  15
TORSDOF 22
ENDMDL
MODEL 5
REMARK VINA RESULT:    -3.298      1.296      2.863
REMARK INTER + INTRA:         -11.636
REMARK INTER:                  -7.829
REMARK INTRA:                  -3.807
REMARK UNBOUND:                -4.096
REMARK SMILES CCCCCCCCCCCCCCCCCCCCCCCC(=O)[O-]
REMARK SMILES IDX 13 1 14 2 15 3 16 4 17 5 18 6 19 7 20 8 21 9 22 10 23 11
REMARK SMILES IDX 24 12 25 13 26 14 12 15 11 16 10 17 9 18 8 19 7 20 6 21 5 22
REMARK SMILES IDX 4 23 3 24 2 25 1 26
REMARK H PARENT
REMARK Flexibility Score: inf
ROOT
ATOM      1  C   UNL     1      84.505 122.415 125.268  1.00  0.00     0.000 C 
ENDROOT
BRANCH   1   2
ATOM      2  C   UNL     1      83.657 123.695 125.233  1.00  0.00     0.000 C 
BRANCH   2   3
ATOM      3  C   UNL     1      82.261 123.476 125.838  1.00  0.00     0.000 C 
BRANCH   3   4
ATOM      4  C   UNL     1      81.875 124.572 126.861  1.00  0.00     0.000 C 
BRANCH   4   5
ATOM      5  C   UNL     1      82.693 124.477 128.156  1.00  0.00     0.000 C 
BRANCH   5   6
ATOM      6  C   UNL     1      82.591 123.073 128.767  1.00  0.00     0.000 C 
BRANCH   6   7
ATOM      7  C   UNL     1      82.419 123.144 130.291  1.00  0.00     0.000 C 
BRANCH   7   8
ATOM      8  C   UNL     1      83.732 122.878 131.048  1.00  0.00     0.000 C 
BRANCH   8   9
ATOM      9  C   UNL     1      83.751 123.508 132.452  1.00  0.00     0.000 C 
BRANCH   9  10
ATOM     10  C   UNL     1      84.454 124.877 132.489  1.00  0.00     0.006 C 
BRANCH  10  11
ATOM     11  C   UNL     1      83.550 126.062 132.100  1.00  0.00     0.053 C 
BRANCH  11  12
ATOM     12  C   UNL     1      83.987 126.730 130.830  1.00  0.00     0.041 C 
ATOM     13  O   UNL     1      85.140 126.517 130.366  1.00  0.00    -0.550 OA
ATOM     14  O   UNL     1      83.117 127.571 130.147  1.00  0.00    -0.550 OA
ENDBRANCH  11  12
ENDBRANCH  10  11
ENDBRANCH   9  10
ENDBRANCH   8   9
ENDBRANCH   7   8
ENDBRANCH   6   7
ENDBRANCH   5   6
ENDBRANCH   4   5
ENDBRANCH   3   4
ENDBRANCH   2   3
ENDBRANCH   1   2
BRANCH   1  15
ATOM     15  C   UNL     1      83.673 121.149 124.986  1.00  0.00     0.000 C 
BRANCH  15  16
ATOM     16  C   UNL     1      83.641 120.126 126.145  1.00  0.00     0.000 C 
BRANCH  16  17
ATOM     17  C   UNL     1      82.254 119.867 126.773  1.00  0.00     0.000 C 
BRANCH  17  18
ATOM     18  C   UNL     1      82.291 119.309 128.208  1.00  0.00    -0.000 C 
BRANCH  18  19
ATOM     19  C   UNL     1      83.723 119.037 128.696  1.00  0.00    -0.000 C 
BRANCH  19  20
ATOM     20  C   UNL     1      83.925 119.419 130.174  1.00  0.00    -0.000 C 
BRANCH  20  21
ATOM     21  C   UNL     1      85.394 119.420 130.656  1.00  0.00    -0.000 C 
BRANCH  21  22
ATOM     22  C   UNL     1      86.329 120.419 129.943  1.00  0.00    -0.000 C 
BRANCH  22  23
ATOM     23  C   UNL     1      87.161 121.260 130.921  1.00  0.00    -0.000 C 
BRANCH  23  24
ATOM     24  C   UNL     1      87.868 122.410 130.186  1.00  0.00    -0.000 C 
BRANCH  24  25
ATOM     25  C   UNL     1      86.947 123.620 129.966  1.00  0.00    -0.003 C 
ATOM     26  C   UNL     1      86.320 123.641 128.570  1.00  0.00     0.004 C 
ENDBRANCH  24  25
ENDBRANCH  23  24
ENDBRANCH  22  23
ENDBRANCH  21  22
ENDBRANCH  20  21
ENDBRANCH  19  20
ENDBRANCH  18  19
ENDBRANCH  17  18
ENDBRANCH  16  17
ENDBRANCH  15  16
ENDBRANCH   1  15
TORSDOF 22
ENDMDL
MODEL 6
REMARK VINA RESULT:    -3.196     11.776     14.388
REMARK INTER + INTRA:         -11.402
REMARK INTER:                  -8.963
REMARK INTRA:                  -2.439
REMARK UNBOUND:                -4.096
REMARK SMILES CCCCCCCCCCCCCCCCCCCCCCCC(=O)[O-]
REMARK SMILES IDX 13 1 14 2 15 3 16 4 17 5 18 6 19 7 20 8 21 9 22 10 23 11
REMARK SMILES IDX 24 12 25 13 26 14 12 15 11 16 10 17 9 18 8 19 7 20 6 21 5 22
REMARK SMILES IDX 4 23 3 24 2 25 1 26
REMARK H PARENT
REMARK Flexibility Score: inf
ROOT
ATOM      1  C   UNL     1      92.448 123.470 123.119  1.00  0.00     0.000 C 
ENDROOT
BRANCH   1   2
ATOM      2  C   UNL     1      93.469 123.994 124.141  1.00  0.00     0.000 C 
BRANCH   2   3
ATOM      3  C   UNL     1      93.897 122.904 125.136  1.00  0.00     0.000 C 
BRANCH   3   4
ATOM      4  C   UNL     1      95.433 122.730 125.208  1.00  0.00     0.000 C 
BRANCH   4   5
ATOM      5  C   UNL     1      96.154 123.415 124.038  1.00  0.00     0.000 C 
BRANCH   5   6
ATOM      6  C   UNL     1      96.933 124.646 124.521  1.00  0.00     0.000 C 
BRANCH   6   7
ATOM      7  C   UNL     1      97.228 124.559 126.025  1.00  0.00     0.000 C 
BRANCH   7   8
ATOM      8  C   UNL     1      98.645 124.038 126.322  1.00  0.00     0.000 C 
BRANCH   8   9
ATOM      9  C   UNL     1      98.663 122.555 126.734  1.00  0.00     0.000 C 
BRANCH   9  10
ATOM     10  C   UNL     1      99.434 121.663 125.744  1.00  0.00     0.006 C 
BRANCH  10  11
ATOM     11  C   UNL     1      99.883 120.311 126.330  1.00  0.00     0.053 C 
BRANCH  11  12
ATOM     12  C   UNL     1     101.047 119.720 125.592  1.00  0.00     0.041 C 
ATOM     13  O   UNL     1     102.125 119.475 126.198  1.00  0.00    -0.550 OA
ATOM     14  O   UNL     1     100.937 119.420 124.239  1.00  0.00    -0.550 OA
ENDBRANCH  11  12
ENDBRANCH  10  11
ENDBRANCH   9  10
ENDBRANCH   8   9
ENDBRANCH   7   8
ENDBRANCH   6   7
ENDBRANCH   5   6
ENDBRANCH   4   5
ENDBRANCH   3   4
ENDBRANCH   2   3
ENDBRANCH   1   2
BRANCH   1  15
ATOM     15  C   UNL     1      92.689 121.993 122.751  1.00  0.00     0.000 C 
BRANCH  15  16
ATOM     16  C   UNL     1      92.890 121.729 121.241  1.00  0.00     0.000 C 
BRANCH  16  17
ATOM     17  C   UNL     1      93.934 122.623 120.538  1.00  0.00     0.000 C 
BRANCH  17  18
ATOM     18  C   UNL     1      95.210 121.890 120.085  1.00  0.00    -0.000 C 
BRANCH  18  19
ATOM     19  C   UNL     1      94.904 120.677 119.191  1.00  0.00    -0.000 C 
BRANCH  19  20
ATOM     20  C   UNL     1      94.664 121.071 117.721  1.00  0.00    -0.000 C 
BRANCH  20  21
ATOM     21  C   UNL     1      93.420 120.431 117.065  1.00  0.00    -0.000 C 
BRANCH  21  22
ATOM     22  C   UNL     1      92.059 120.878 117.635  1.00  0.00    -0.000 C 
BRANCH  22  23
ATOM     23  C   UNL     1      91.917 122.405 117.714  1.00  0.00    -0.000 C 
BRANCH  23  24
ATOM     24  C   UNL     1      92.210 123.051 116.350  1.00  0.00    -0.000 C 
BRANCH  24  25
ATOM     25  C   UNL     1      92.318 124.581 116.436  1.00  0.00    -0.003 C 
ATOM     26  C   UNL     1      93.543 125.044 117.228  1.00  0.00     0.004 C 
ENDBRANCH  24  25
ENDBRANCH  23  24
ENDBRANCH  22  23
ENDBRANCH  21  22
ENDBRANCH  20  21
ENDBRANCH  19  20
ENDBRANCH  18  19
ENDBRANCH  17  18
ENDBRANCH  16  17
ENDBRANCH  15  16
ENDBRANCH   1  15
TORSDOF 22
ENDMDL
MODEL 7
REMARK VINA RESULT:    -2.986      1.622      3.072
REMARK INTER + INTRA:         -10.923
REMARK INTER:                  -7.689
REMARK INTRA:                  -3.234
REMARK UNBOUND:                -4.096
REMARK SMILES CCCCCCCCCCCCCCCCCCCCCCCC(=O)[O-]
REMARK SMILES IDX 13 1 14 2 15 3 16 4 17 5 18 6 19 7 20 8 21 9 22 10 23 11
REMARK SMILES IDX 24 12 25 13 26 14 12 15 11 16 10 17 9 18 8 19 7 20 6 21 5 22
REMARK SMILES IDX 4 23 3 24 2 25 1 26
REMARK H PARENT
REMARK Flexibility Score: inf
ROOT
ATOM      1  C   UNL     1      84.558 122.566 125.606  1.00  0.00     0.000 C 
ENDROOT
BRANCH   1   2
ATOM      2  C   UNL     1      83.567 123.611 125.069  1.00  0.00     0.000 C 
BRANCH   2   3
ATOM      3  C   UNL     1      82.181 123.475 125.719  1.00  0.00     0.000 C 
BRANCH   3   4
ATOM      4  C   UNL     1      81.878 124.613 126.722  1.00  0.00     0.000 C 
BRANCH   4   5
ATOM      5  C   UNL     1      82.671 124.469 128.028  1.00  0.00     0.000 C 
BRANCH   5   6
ATOM      6  C   UNL     1      82.301 123.167 128.752  1.00  0.00     0.000 C 
BRANCH   6   7
ATOM      7  C   UNL     1      82.007 123.424 130.237  1.00  0.00     0.000 C 
BRANCH   7   8
ATOM      8  C   UNL     1      83.265 123.813 131.032  1.00  0.00     0.000 C 
BRANCH   8   9
ATOM      9  C   UNL     1      83.024 124.985 131.999  1.00  0.00     0.000 C 
BRANCH   9  10
ATOM     10  C   UNL     1      84.156 126.028 131.976  1.00  0.00     0.006 C 
BRANCH  10  11
ATOM     11  C   UNL     1      84.881 126.143 130.622  1.00  0.00     0.053 C 
BRANCH  11  12
ATOM     12  C   UNL     1      86.052 125.211 130.514  1.00  0.00     0.041 C 
ATOM     13  O   UNL     1      86.386 124.739 129.394  1.00  0.00    -0.550 OA
ATOM     14  O   UNL     1      86.787 124.879 131.646  1.00  0.00    -0.550 OA
ENDBRANCH  11  12
ENDBRANCH  10  11
ENDBRANCH   9  10
ENDBRANCH   8   9
ENDBRANCH   7   8
ENDBRANCH   6   7
ENDBRANCH   5   6
ENDBRANCH   4   5
ENDBRANCH   3   4
ENDBRANCH   2   3
ENDBRANCH   1   2
BRANCH   1  15
ATOM     15  C   UNL     1      84.035 121.125 125.453  1.00  0.00     0.000 C 
BRANCH  15  16
ATOM     16  C   UNL     1      84.083 120.279 126.746  1.00  0.00     0.000 C 
BRANCH  16  17
ATOM     17  C   UNL     1      82.905 119.303 126.954  1.00  0.00     0.000 C 
BRANCH  17  18
ATOM     18  C   UNL     1      82.370 119.237 128.397  1.00  0.00    -0.000 C 
BRANCH  18  19
ATOM     19  C   UNL     1      83.427 119.651 129.434  1.00  0.00    -0.000 C 
BRANCH  19  20
ATOM     20  C   UNL     1      83.036 119.247 130.868  1.00  0.00    -0.000 C 
BRANCH  20  21
ATOM     21  C   UNL     1      83.000 120.408 131.889  1.00  0.00    -0.000 C 
BRANCH  21  22
ATOM     22  C   UNL     1      83.938 120.256 133.104  1.00  0.00    -0.000 C 
BRANCH  22  23
ATOM     23  C   UNL     1      85.422 120.221 132.714  1.00  0.00    -0.000 C 
BRANCH  23  24
ATOM     24  C   UNL     1      85.828 121.522 132.002  1.00  0.00    -0.000 C 
BRANCH  24  25
ATOM     25  C   UNL     1      86.419 121.267 130.607  1.00  0.00    -0.003 C 
ATOM     26  C   UNL     1      87.878 121.714 130.490  1.00  0.00     0.004 C 
ENDBRANCH  24  25
ENDBRANCH  23  24
ENDBRANCH  22  23
ENDBRANCH  21  22
ENDBRANCH  20  21
ENDBRANCH  19  20
ENDBRANCH  18  19
ENDBRANCH  17  18
ENDBRANCH  16  17
ENDBRANCH  15  16
ENDBRANCH   1  15
TORSDOF 22
ENDMDL
MODEL 8
REMARK VINA RESULT:    -2.957     11.433     13.754
REMARK INTER + INTRA:         -10.856
REMARK INTER:                  -9.463
REMARK INTRA:                  -1.393
REMARK UNBOUND:                -4.096
REMARK SMILES CCCCCCCCCCCCCCCCCCCCCCCC(=O)[O-]
REMARK SMILES IDX 13 1 14 2 15 3 16 4 17 5 18 6 19 7 20 8 21 9 22 10 23 11
REMARK SMILES IDX 24 12 25 13 26 14 12 15 11 16 10 17 9 18 8 19 7 20 6 21 5 22
REMARK SMILES IDX 4 23 3 24 2 25 1 26
REMARK H PARENT
REMARK Flexibility Score: inf
ROOT
ATOM      1  C   UNL     1      95.250 123.309 124.948  1.00  0.00     0.000 C 
ENDROOT
BRANCH   1   2
ATOM      2  C   UNL     1      96.764 123.367 124.694  1.00  0.00     0.000 C 
BRANCH   2   3
ATOM      3  C   UNL     1      97.570 123.225 125.995  1.00  0.00     0.000 C 
BRANCH   3   4
ATOM      4  C   UNL     1      98.332 124.519 126.370  1.00  0.00     0.000 C 
BRANCH   4   5
ATOM      5  C   UNL     1      97.598 125.785 125.906  1.00  0.00     0.000 C 
BRANCH   5   6
ATOM      6  C   UNL     1      97.247 126.682 127.101  1.00  0.00     0.000 C 
BRANCH   6   7
ATOM      7  C   UNL     1      97.183 128.158 126.684  1.00  0.00     0.000 C 
BRANCH   7   8
ATOM      8  C   UNL     1      97.391 129.118 127.869  1.00  0.00     0.000 C 
BRANCH   8   9
ATOM      9  C   UNL     1      96.180 130.035 128.115  1.00  0.00     0.000 C 
BRANCH   9  10
ATOM     10  C   UNL     1      96.534 131.294 128.928  1.00  0.00     0.006 C 
BRANCH  10  11
ATOM     11  C   UNL     1      97.875 131.205 129.679  1.00  0.00     0.053 C 
BRANCH  11  12
ATOM     12  C   UNL     1      97.734 131.476 131.147  1.00  0.00     0.041 C 
ATOM     13  O   UNL     1      98.737 131.396 131.907  1.00  0.00    -0.550 OA
ATOM     14  O   UNL     1      96.500 131.837 131.676  1.00  0.00    -0.550 OA
ENDBRANCH  11  12
ENDBRANCH  10  11
ENDBRANCH   9  10
ENDBRANCH   8   9
ENDBRANCH   7   8
ENDBRANCH   6   7
ENDBRANCH   5   6
ENDBRANCH   4   5
ENDBRANCH   3   4
ENDBRANCH   2   3
ENDBRANCH   1   2
BRANCH   1  15
ATOM     15  C   UNL     1      94.479 124.388 124.164  1.00  0.00     0.000 C 
BRANCH  15  16
ATOM     16  C   UNL     1      93.049 123.981 123.741  1.00  0.00     0.000 C 
BRANCH  16  17
ATOM     17  C   UNL     1      92.813 122.468 123.546  1.00  0.00     0.000 C 
BRANCH  17  18
ATOM     18  C   UNL     1      92.785 122.005 122.077  1.00  0.00    -0.000 C 
BRANCH  18  19
ATOM     19  C   UNL     1      93.980 122.538 121.271  1.00  0.00    -0.000 C 
BRANCH  19  20
ATOM     20  C   UNL     1      94.426 121.565 120.163  1.00  0.00    -0.000 C 
BRANCH  20  21
ATOM     21  C   UNL     1      94.671 122.214 118.781  1.00  0.00    -0.000 C 
BRANCH  21  22
ATOM     22  C   UNL     1      93.523 123.092 118.243  1.00  0.00    -0.000 C 
BRANCH  22  23
ATOM     23  C   UNL     1      92.159 122.387 118.291  1.00  0.00    -0.000 C 
BRANCH  23  24
ATOM     24  C   UNL     1      92.130 121.191 117.326  1.00  0.00    -0.000 C 
BRANCH  24  25
ATOM     25  C   UNL     1      92.418 121.600 115.874  1.00  0.00    -0.003 C 
ATOM     26  C   UNL     1      93.081 120.485 115.064  1.00  0.00     0.004 C 
ENDBRANCH  24  25
ENDBRANCH  23  24
ENDBRANCH  22  23
ENDBRANCH  21  22
ENDBRANCH  20  21
ENDBRANCH  19  20
ENDBRANCH  18  19
ENDBRANCH  17  18
ENDBRANCH  16  17
ENDBRANCH  15  16
ENDBRANCH   1  15
TORSDOF 22
ENDMDL
MODEL 9
REMARK VINA RESULT:    -2.901     11.322     13.630
REMARK INTER + INTRA:         -10.729
REMARK INTER:                  -9.393
REMARK INTRA:                  -1.336
REMARK UNBOUND:                -4.096
REMARK SMILES CCCCCCCCCCCCCCCCCCCCCCCC(=O)[O-]
REMARK SMILES IDX 13 1 14 2 15 3 16 4 17 5 18 6 19 7 20 8 21 9 22 10 23 11
REMARK SMILES IDX 24 12 25 13 26 14 12 15 11 16 10 17 9 18 8 19 7 20 6 21 5 22
REMARK SMILES IDX 4 23 3 24 2 25 1 26
REMARK H PARENT
REMARK Flexibility Score: inf
ROOT
ATOM      1  C   UNL     1      94.161 123.975 124.450  1.00  0.00     0.000 C 
ENDROOT
BRANCH   1   2
ATOM      2  C   UNL     1      95.118 123.049 125.216  1.00  0.00     0.000 C 
BRANCH   2   3
ATOM      3  C   UNL     1      96.577 123.238 124.773  1.00  0.00     0.000 C 
BRANCH   3   4
ATOM      4  C   UNL     1      97.559 123.318 125.967  1.00  0.00     0.000 C 
BRANCH   4   5
ATOM      5  C   UNL     1      97.998 124.757 126.268  1.00  0.00     0.000 C 
BRANCH   5   6
ATOM      6  C   UNL     1      97.485 125.723 125.190  1.00  0.00     0.000 C 
BRANCH   6   7
ATOM      7  C   UNL     1      97.747 127.182 125.586  1.00  0.00     0.000 C 
BRANCH   7   8
ATOM      8  C   UNL     1      97.114 127.553 126.938  1.00  0.00     0.000 C 
BRANCH   8   9
ATOM      9  C   UNL     1      97.317 129.032 127.309  1.00  0.00     0.000 C 
BRANCH   9  10
ATOM     10  C   UNL     1      96.208 129.582 128.224  1.00  0.00     0.006 C 
BRANCH  10  11
ATOM     11  C   UNL     1      96.371 131.069 128.591  1.00  0.00     0.053 C 
BRANCH  11  12
ATOM     12  C   UNL     1      97.167 131.271 129.845  1.00  0.00     0.041 C 
ATOM     13  O   UNL     1      98.424 131.164 129.823  1.00  0.00    -0.550 OA
ATOM     14  O   UNL     1      96.527 131.597 131.035  1.00  0.00    -0.550 OA
ENDBRANCH  11  12
ENDBRANCH  10  11
ENDBRANCH   9  10
ENDBRANCH   8   9
ENDBRANCH   7   8
ENDBRANCH   6   7
ENDBRANCH   5   6
ENDBRANCH   4   5
ENDBRANCH   3   4
ENDBRANCH   2   3
ENDBRANCH   1   2
BRANCH   1  15
ATOM     15  C   UNL     1      92.861 123.262 124.031  1.00  0.00     0.000 C 
BRANCH  15  16
ATOM     16  C   UNL     1      93.029 122.235 122.888  1.00  0.00     0.000 C 
BRANCH  16  17
ATOM     17  C   UNL     1      93.021 122.816 121.457  1.00  0.00     0.000 C 
BRANCH  17  18
ATOM     18  C   UNL     1      93.082 121.764 120.334  1.00  0.00    -0.000 C 
BRANCH  18  19
ATOM     19  C   UNL     1      94.525 121.393 119.956  1.00  0.00    -0.000 C 
BRANCH  19  20
ATOM     20  C   UNL     1      94.661 120.984 118.477  1.00  0.00    -0.000 C 
BRANCH  20  21
ATOM     21  C   UNL     1      93.352 120.513 117.803  1.00  0.00    -0.000 C 
BRANCH  21  22
ATOM     22  C   UNL     1      93.234 120.808 116.294  1.00  0.00    -0.000 C 
BRANCH  22  23
ATOM     23  C   UNL     1      92.394 122.058 115.994  1.00  0.00    -0.000 C 
BRANCH  23  24
ATOM     24  C   UNL     1      91.975 122.759 117.297  1.00  0.00    -0.000 C 
BRANCH  24  25
ATOM     25  C   UNL     1      92.801 124.024 117.573  1.00  0.00    -0.003 C 
ATOM     26  C   UNL     1      92.783 125.012 116.404  1.00  0.00     0.004 C 
ENDBRANCH  24  25
ENDBRANCH  23  24
ENDBRANCH  22  23
ENDBRANCH  21  22
ENDBRANCH  20  21
ENDBRANCH  19  20
ENDBRANCH  18  19
ENDBRANCH  17  18
ENDBRANCH  16  17
ENDBRANCH  15  16
ENDBRANCH   1  15
TORSDOF 22
ENDMDL
