MODEL 1
REMARK VINA RESULT:    -3.902      0.000      0.000
REMARK INTER + INTRA:         -13.314
REMARK INTER:                  -8.921
REMARK INTRA:                  -4.394
REMARK UNBOUND:                -4.394
REMARK SMILES CCCCCCCCCCCCCCCCCCCCCCCC(=O)[O-]
REMARK SMILES IDX 13 1 14 2 15 3 16 4 17 5 18 6 19 7 20 8 21 9 22 10 23 11
REMARK SMILES IDX 24 12 25 13 26 14 12 15 11 16 10 17 9 18 8 19 7 20 6 21 5 22
REMARK SMILES IDX 4 23 3 24 2 25 1 26
REMARK H PARENT
REMARK Flexibility Score: inf
ROOT
ATOM      1  C   UNL     1      -4.635  44.484  19.140  1.00  0.00     0.000 C 
ENDROOT
BRANCH   1   2
ATOM      2  C   UNL     1      -5.159  43.419  20.120  1.00  0.00     0.000 C 
BRANCH   2   3
ATOM      3  C   UNL     1      -5.069  41.992  19.538  1.00  0.00     0.000 C 
BRANCH   3   4
ATOM      4  C   UNL     1      -5.254  40.877  20.581  1.00  0.00     0.000 C 
BRANCH   4   5
ATOM      5  C   UNL     1      -5.637  41.411  21.973  1.00  0.00     0.000 C 
BRANCH   5   6
ATOM      6  C   UNL     1      -4.621  41.022  23.069  1.00  0.00     0.000 C 
BRANCH   6   7
ATOM      7  C   UNL     1      -3.161  40.966  22.580  1.00  0.00     0.000 C 
BRANCH   7   8
ATOM      8  C   UNL     1      -2.353  39.747  23.064  1.00  0.00     0.000 C 
BRANCH   8   9
ATOM      9  C   UNL     1      -0.928  40.062  23.563  1.00  0.00     0.000 C 
BRANCH   9  10
ATOM     10  C   UNL     1      -0.666  39.740  25.048  1.00  0.00     0.006 C 
BRANCH  10  11
ATOM     11  C   UNL     1      -1.903  39.252  25.819  1.00  0.00     0.053 C 
BRANCH  11  12
ATOM     12  C   UNL     1      -1.764  37.836  26.286  1.00  0.00     0.041 C 
ATOM     13  O   UNL     1      -0.640  37.392  26.641  1.00  0.00    -0.550 OA
ATOM     14  O   UNL     1      -2.885  37.018  26.375  1.00  0.00    -0.550 OA
ENDBRANCH  11  12
ENDBRANCH  10  11
ENDBRANCH   9  10
ENDBRANCH   8   9
ENDBRANCH   7   8
ENDBRANCH   6   7
ENDBRANCH   5   6
ENDBRANCH   4   5
ENDBRANCH   3   4
ENDBRANCH   2   3
ENDBRANCH   1   2
BRANCH   1  15
ATOM     15  C   UNL     1      -3.312  45.118  19.605  1.00  0.00     0.000 C 
BRANCH  15  16
ATOM     16  C   UNL     1      -2.269  44.062  20.011  1.00  0.00     0.000 C 
BRANCH  16  17
ATOM     17  C   UNL     1      -1.739  44.264  21.439  1.00  0.00     0.000 C 
BRANCH  17  18
ATOM     18  C   UNL     1      -0.403  43.542  21.680  1.00  0.00    -0.000 C 
BRANCH  18  19
ATOM     19  C   UNL     1       0.032  43.558  23.156  1.00  0.00    -0.000 C 
BRANCH  19  20
ATOM     20  C   UNL     1      -0.947  44.255  24.125  1.00  0.00    -0.000 C 
BRANCH  20  21
ATOM     21  C   UNL     1      -1.507  43.364  25.252  1.00  0.00    -0.000 C 
BRANCH  21  22
ATOM     22  C   UNL     1      -3.042  43.320  25.347  1.00  0.00    -0.000 C 
BRANCH  22  23
ATOM     23  C   UNL     1      -3.694  44.696  25.146  1.00  0.00    -0.000 C 
BRANCH  23  24
ATOM     24  C   UNL     1      -4.835  44.614  24.125  1.00  0.00    -0.000 C 
BRANCH  24  25
ATOM     25  C   UNL     1      -4.710  45.718  23.068  1.00  0.00    -0.003 C 
ATOM     26  C   UNL     1      -3.867  46.880  23.586  1.00  0.00     0.004 C 
ENDBRANCH  24  25
ENDBRANCH  23  24
ENDBRANCH  22  23
ENDBRANCH  21  22
ENDBRANCH  20  21
ENDBRANCH  19  20
ENDBRANCH  18  19
ENDBRANCH  17  18
ENDBRANCH  16  17
ENDBRANCH  15  16
ENDBRANCH   1  15
TORSDOF 22
ENDMDL
MODEL 2
REMARK VINA RESULT:    -3.877      4.452      6.717
REMARK INTER + INTRA:         -13.257
REMARK INTER:                 -10.344
REMARK INTRA:                  -2.913
REMARK UNBOUND:                -4.394
REMARK SMILES CCCCCCCCCCCCCCCCCCCCCCCC(=O)[O-]
REMARK SMILES IDX 13 1 14 2 15 3 16 4 17 5 18 6 19 7 20 8 21 9 22 10 23 11
REMARK SMILES IDX 24 12 25 13 26 14 12 15 11 16 10 17 9 18 8 19 7 20 6 21 5 22
REMARK SMILES IDX 4 23 3 24 2 25 1 26
REMARK H PARENT
REMARK Flexibility Score: inf
ROOT
ATOM      1  C   UNL     1      -2.035  42.499  17.861  1.00  0.00     0.000 C 
ENDROOT
BRANCH   1   2
ATOM      2  C   UNL     1      -3.554  42.680  18.030  1.00  0.00     0.000 C 
BRANCH   2   3
ATOM      3  C   UNL     1      -4.014  44.115  17.696  1.00  0.00     0.000 C 
BRANCH   3   4
ATOM      4  C   UNL     1      -4.053  45.058  18.911  1.00  0.00     0.000 C 
BRANCH   4   5
ATOM      5  C   UNL     1      -3.842  44.328  20.249  1.00  0.00     0.000 C 
BRANCH   5   6
ATOM      6  C   UNL     1      -2.636  44.870  21.047  1.00  0.00     0.000 C 
BRANCH   6   7
ATOM      7  C   UNL     1      -1.429  43.914  21.087  1.00  0.00     0.000 C 
BRANCH   7   8
ATOM      8  C   UNL     1      -0.784  43.728  22.473  1.00  0.00     0.000 C 
BRANCH   8   9
ATOM      9  C   UNL     1      -1.395  44.587  23.600  1.00  0.00     0.000 C 
BRANCH   9  10
ATOM     10  C   UNL     1      -2.239  43.811  24.630  1.00  0.00     0.006 C 
BRANCH  10  11
ATOM     11  C   UNL     1      -3.671  43.493  24.168  1.00  0.00     0.053 C 
BRANCH  11  12
ATOM     12  C   UNL     1      -4.632  44.597  24.487  1.00  0.00     0.041 C 
ATOM     13  O   UNL     1      -4.949  44.838  25.682  1.00  0.00    -0.550 OA
ATOM     14  O   UNL     1      -5.144  45.391  23.466  1.00  0.00    -0.550 OA
ENDBRANCH  11  12
ENDBRANCH  10  11
ENDBRANCH   9  10
ENDBRANCH   8   9
ENDBRANCH   7   8
ENDBRANCH   6   7
ENDBRANCH   5   6
ENDBRANCH   4   5
ENDBRANCH   3   4
ENDBRANCH   2   3
ENDBRANCH   1   2
BRANCH   1  15
ATOM     15  C   UNL     1      -1.416  43.539  16.911  1.00  0.00     0.000 C 
BRANCH  15  16
ATOM     16  C   UNL     1      -0.221  44.271  17.546  1.00  0.00     0.000 C 
BRANCH  16  17
ATOM     17  C   UNL     1       0.709  44.912  16.503  1.00  0.00     0.000 C 
BRANCH  17  18
ATOM     18  C   UNL     1       2.195  44.650  16.798  1.00  0.00    -0.000 C 
BRANCH  18  19
ATOM     19  C   UNL     1       3.108  45.813  16.369  1.00  0.00    -0.000 C 
BRANCH  19  20
ATOM     20  C   UNL     1       2.706  47.201  16.909  1.00  0.00    -0.000 C 
BRANCH  20  21
ATOM     21  C   UNL     1       3.575  47.738  18.065  1.00  0.00    -0.000 C 
BRANCH  21  22
ATOM     22  C   UNL     1       4.693  46.790  18.534  1.00  0.00    -0.000 C 
BRANCH  22  23
ATOM     23  C   UNL     1       4.403  46.152  19.900  1.00  0.00    -0.000 C 
BRANCH  23  24
ATOM     24  C   UNL     1       4.451  44.622  19.807  1.00  0.00    -0.000 C 
BRANCH  24  25
ATOM     25  C   UNL     1       3.577  43.976  20.888  1.00  0.00    -0.003 C 
ATOM     26  C   UNL     1       2.278  43.438  20.293  1.00  0.00     0.004 C 
ENDBRANCH  24  25
ENDBRANCH  23  24
ENDBRANCH  22  23
ENDBRANCH  21  22
ENDBRANCH  20  21
ENDBRANCH  19  20
ENDBRANCH  18  19
ENDBRANCH  17  18
ENDBRANCH  16  17
ENDBRANCH  15  16
ENDBRANCH   1  15
TORSDOF 22
ENDMDL
MODEL 3
REMARK VINA RESULT:    -3.807      2.686      3.876
REMARK INTER + INTRA:         -13.097
REMARK INTER:                  -9.145
REMARK INTRA:                  -3.952
REMARK UNBOUND:                -4.394
REMARK SMILES CCCCCCCCCCCCCCCCCCCCCCCC(=O)[O-]
REMARK SMILES IDX 13 1 14 2 15 3 16 4 17 5 18 6 19 7 20 8 21 9 22 10 23 11
REMARK SMILES IDX 24 12 25 13 26 14 12 15 11 16 10 17 9 18 8 19 7 20 6 21 5 22
REMARK SMILES IDX 4 23 3 24 2 25 1 26
REMARK H PARENT
REMARK Flexibility Score: inf
ROOT
ATOM      1  C   UNL     1      -0.674  43.896  18.247  1.00  0.00     0.000 C 
ENDROOT
BRANCH   1   2
ATOM      2  C   UNL     1      -1.620  43.507  17.097  1.00  0.00     0.000 C 
BRANCH   2   3
ATOM      3  C   UNL     1      -2.960  42.938  17.608  1.00  0.00     0.000 C 
BRANCH   3   4
ATOM      4  C   UNL     1      -4.149  43.903  17.458  1.00  0.00     0.000 C 
BRANCH   4   5
ATOM      5  C   UNL     1      -4.211  44.962  18.572  1.00  0.00     0.000 C 
BRANCH   5   6
ATOM      6  C   UNL     1      -4.272  44.346  19.987  1.00  0.00     0.000 C 
BRANCH   6   7
ATOM      7  C   UNL     1      -5.572  43.573  20.279  1.00  0.00     0.000 C 
BRANCH   7   8
ATOM      8  C   UNL     1      -5.380  42.178  20.904  1.00  0.00     0.000 C 
BRANCH   8   9
ATOM      9  C   UNL     1      -3.917  41.700  21.001  1.00  0.00     0.000 C 
BRANCH   9  10
ATOM     10  C   UNL     1      -3.714  40.357  21.732  1.00  0.00     0.006 C 
BRANCH  10  11
ATOM     11  C   UNL     1      -5.015  39.680  22.190  1.00  0.00     0.053 C 
BRANCH  11  12
ATOM     12  C   UNL     1      -5.470  38.615  21.240  1.00  0.00     0.041 C 
ATOM     13  O   UNL     1      -4.628  37.879  20.660  1.00  0.00    -0.550 OA
ATOM     14  O   UNL     1      -6.828  38.403  21.030  1.00  0.00    -0.550 OA
ENDBRANCH  11  12
ENDBRANCH  10  11
ENDBRANCH   9  10
ENDBRANCH   8   9
ENDBRANCH   7   8
ENDBRANCH   6   7
ENDBRANCH   5   6
ENDBRANCH   4   5
ENDBRANCH   3   4
ENDBRANCH   2   3
ENDBRANCH   1   2
BRANCH   1  15
ATOM     15  C   UNL     1      -0.715  42.893  19.413  1.00  0.00     0.000 C 
BRANCH  15  16
ATOM     16  C   UNL     1      -0.785  43.592  20.783  1.00  0.00     0.000 C 
BRANCH  16  17
ATOM     17  C   UNL     1       0.399  43.237  21.697  1.00  0.00     0.000 C 
BRANCH  17  18
ATOM     18  C   UNL     1       0.103  43.516  23.179  1.00  0.00    -0.000 C 
BRANCH  18  19
ATOM     19  C   UNL     1      -1.214  44.282  23.396  1.00  0.00    -0.000 C 
BRANCH  19  20
ATOM     20  C   UNL     1      -2.004  43.890  24.662  1.00  0.00    -0.000 C 
BRANCH  20  21
ATOM     21  C   UNL     1      -3.085  42.810  24.458  1.00  0.00    -0.000 C 
BRANCH  21  22
ATOM     22  C   UNL     1      -4.525  43.341  24.344  1.00  0.00    -0.000 C 
BRANCH  22  23
ATOM     23  C   UNL     1      -4.615  44.865  24.509  1.00  0.00    -0.000 C 
BRANCH  23  24
ATOM     24  C   UNL     1      -4.953  45.538  23.173  1.00  0.00    -0.000 C 
BRANCH  24  25
ATOM     25  C   UNL     1      -4.509  47.005  23.167  1.00  0.00    -0.003 C 
ATOM     26  C   UNL     1      -3.369  47.238  24.155  1.00  0.00     0.004 C 
ENDBRANCH  24  25
ENDBRANCH  23  24
ENDBRANCH  22  23
ENDBRANCH  21  22
ENDBRANCH  20  21
ENDBRANCH  19  20
ENDBRANCH  18  19
ENDBRANCH  17  18
ENDBRANCH  16  17
ENDBRANCH  15  16
ENDBRANCH   1  15
TORSDOF 22
ENDMDL
MODEL 4
REMARK VINA RESULT:    -3.752      1.442      4.122
REMARK INTER + INTRA:         -12.972
REMARK INTER:                  -8.980
REMARK INTRA:                  -3.992
REMARK UNBOUND:                -4.394
REMARK SMILES CCCCCCCCCCCCCCCCCCCCCCCC(=O)[O-]
REMARK SMILES IDX 13 1 14 2 15 3 16 4 17 5 18 6 19 7 20 8 21 9 22 10 23 11
REMARK SMILES IDX 24 12 25 13 26 14 12 15 11 16 10 17 9 18 8 19 7 20 6 21 5 22
REMARK SMILES IDX 4 23 3 24 2 25 1 26
REMARK H PARENT
REMARK Flexibility Score: inf
ROOT
ATOM      1  C   UNL     1      -2.504  44.636  21.322  1.00  0.00     0.000 C 
ENDROOT
BRANCH   1   2
ATOM      2  C   UNL     1      -2.311  44.267  19.840  1.00  0.00     0.000 C 
BRANCH   2   3
ATOM      3  C   UNL     1      -3.357  44.943  18.927  1.00  0.00     0.000 C 
BRANCH   3   4
ATOM      4  C   UNL     1      -4.357  43.963  18.290  1.00  0.00     0.000 C 
BRANCH   4   5
ATOM      5  C   UNL     1      -3.949  42.489  18.459  1.00  0.00     0.000 C 
BRANCH   5   6
ATOM      6  C   UNL     1      -4.970  41.671  19.279  1.00  0.00     0.000 C 
BRANCH   6   7
ATOM      7  C   UNL     1      -5.431  42.361  20.577  1.00  0.00     0.000 C 
BRANCH   7   8
ATOM      8  C   UNL     1      -4.938  41.705  21.879  1.00  0.00     0.000 C 
BRANCH   8   9
ATOM      9  C   UNL     1      -3.490  41.176  21.839  1.00  0.00     0.000 C 
BRANCH   9  10
ATOM     10  C   UNL     1      -3.235  39.899  22.665  1.00  0.00     0.006 C 
BRANCH  10  11
ATOM     11  C   UNL     1      -1.793  39.751  23.178  1.00  0.00     0.053 C 
BRANCH  11  12
ATOM     12  C   UNL     1      -1.737  39.328  24.613  1.00  0.00     0.041 C 
ATOM     13  O   UNL     1      -2.720  38.745  25.143  1.00  0.00    -0.550 OA
ATOM     14  O   UNL     1      -0.580  39.536  25.356  1.00  0.00    -0.550 OA
ENDBRANCH  11  12
ENDBRANCH  10  11
ENDBRANCH   9  10
ENDBRANCH   8   9
ENDBRANCH   7   8
ENDBRANCH   6   7
ENDBRANCH   5   6
ENDBRANCH   4   5
ENDBRANCH   3   4
ENDBRANCH   2   3
ENDBRANCH   1   2
BRANCH   1  15
ATOM     15  C   UNL     1      -3.627  45.666  21.535  1.00  0.00     0.000 C 
BRANCH  15  16
ATOM     16  C   UNL     1      -4.495  45.338  22.763  1.00  0.00     0.000 C 
BRANCH  16  17
ATOM     17  C   UNL     1      -3.996  46.020  24.047  1.00  0.00     0.000 C 
BRANCH  17  18
ATOM     18  C   UNL     1      -4.001  45.073  25.257  1.00  0.00    -0.000 C 
BRANCH  18  19
ATOM     19  C   UNL     1      -4.099  43.589  24.860  1.00  0.00    -0.000 C 
BRANCH  19  20
ATOM     20  C   UNL     1      -2.843  42.743  25.156  1.00  0.00    -0.000 C 
BRANCH  20  21
ATOM     21  C   UNL     1      -1.499  43.491  25.039  1.00  0.00    -0.000 C 
BRANCH  21  22
ATOM     22  C   UNL     1      -0.710  43.214  23.746  1.00  0.00    -0.000 C 
BRANCH  22  23
ATOM     23  C   UNL     1       0.788  43.523  23.882  1.00  0.00    -0.000 C 
BRANCH  23  24
ATOM     24  C   UNL     1       1.490  43.415  22.523  1.00  0.00    -0.000 C 
BRANCH  24  25
ATOM     25  C   UNL     1       2.927  43.945  22.602  1.00  0.00    -0.003 C 
ATOM     26  C   UNL     1       3.370  44.116  24.052  1.00  0.00     0.004 C 
ENDBRANCH  24  25
ENDBRANCH  23  24
ENDBRANCH  22  23
ENDBRANCH  21  22
ENDBRANCH  20  21
ENDBRANCH  19  20
ENDBRANCH  18  19
ENDBRANCH  17  18
ENDBRANCH  16  17
ENDBRANCH  15  16
ENDBRANCH   1  15
TORSDOF 22
ENDMDL
MODEL 5
REMARK VINA RESULT:    -3.734      2.753      5.959
REMARK INTER + INTRA:         -12.931
REMARK INTER:                  -8.262
REMARK INTRA:                  -4.668
REMARK UNBOUND:                -4.394
REMARK SMILES CCCCCCCCCCCCCCCCCCCCCCCC(=O)[O-]
REMARK SMILES IDX 13 1 14 2 15 3 16 4 17 5 18 6 19 7 20 8 21 9 22 10 23 11
REMARK SMILES IDX 24 12 25 13 26 14 12 15 11 16 10 17 9 18 8 19 7 20 6 21 5 22
REMARK SMILES IDX 4 23 3 24 2 25 1 26
REMARK H PARENT
REMARK Flexibility Score: inf
ROOT
ATOM      1  C   UNL     1      -3.607  45.222  21.547  1.00  0.00     0.000 C 
ENDROOT
BRANCH   1   2
ATOM      2  C   UNL     1      -2.277  44.578  21.979  1.00  0.00     0.000 C 
BRANCH   2   3
ATOM      3  C   UNL     1      -1.961  44.832  23.468  1.00  0.00     0.000 C 
BRANCH   3   4
ATOM      4  C   UNL     1      -0.670  44.155  23.959  1.00  0.00     0.000 C 
BRANCH   4   5
ATOM      5  C   UNL     1      -0.932  42.960  24.892  1.00  0.00     0.000 C 
BRANCH   5   6
ATOM      6  C   UNL     1      -0.863  41.600  24.165  1.00  0.00     0.000 C 
BRANCH   6   7
ATOM      7  C   UNL     1      -2.240  40.985  23.851  1.00  0.00     0.000 C 
BRANCH   7   8
ATOM      8  C   UNL     1      -3.441  41.698  24.501  1.00  0.00     0.000 C 
BRANCH   8   9
ATOM      9  C   UNL     1      -4.605  42.025  23.544  1.00  0.00     0.000 C 
BRANCH   9  10
ATOM     10  C   UNL     1      -4.535  41.336  22.166  1.00  0.00     0.006 C 
BRANCH  10  11
ATOM     11  C   UNL     1      -5.875  41.280  21.415  1.00  0.00     0.053 C 
BRANCH  11  12
ATOM     12  C   UNL     1      -6.707  40.101  21.817  1.00  0.00     0.041 C 
ATOM     13  O   UNL     1      -7.557  40.208  22.741  1.00  0.00    -0.550 OA
ATOM     14  O   UNL     1      -6.576  38.893  21.139  1.00  0.00    -0.550 OA
ENDBRANCH  11  12
ENDBRANCH  10  11
ENDBRANCH   9  10
ENDBRANCH   8   9
ENDBRANCH   7   8
ENDBRANCH   6   7
ENDBRANCH   5   6
ENDBRANCH   4   5
ENDBRANCH   3   4
ENDBRANCH   2   3
ENDBRANCH   1   2
BRANCH   1  15
ATOM     15  C   UNL     1      -4.257  44.497  20.356  1.00  0.00     0.000 C 
BRANCH  15  16
ATOM     16  C   UNL     1      -3.847  45.110  19.005  1.00  0.00     0.000 C 
BRANCH  16  17
ATOM     17  C   UNL     1      -4.386  44.319  17.802  1.00  0.00     0.000 C 
BRANCH  17  18
ATOM     18  C   UNL     1      -4.238  42.800  17.981  1.00  0.00    -0.000 C 
BRANCH  18  19
ATOM     19  C   UNL     1      -3.471  42.129  16.827  1.00  0.00    -0.000 C 
BRANCH  19  20
ATOM     20  C   UNL     1      -2.465  43.036  16.089  1.00  0.00    -0.000 C 
BRANCH  20  21
ATOM     21  C   UNL     1      -1.016  42.980  16.612  1.00  0.00    -0.000 C 
BRANCH  21  22
ATOM     22  C   UNL     1      -0.642  44.084  17.617  1.00  0.00    -0.000 C 
BRANCH  22  23
ATOM     23  C   UNL     1      -0.312  43.535  19.013  1.00  0.00    -0.000 C 
BRANCH  23  24
ATOM     24  C   UNL     1      -0.463  42.009  19.047  1.00  0.00    -0.000 C 
BRANCH  24  25
ATOM     25  C   UNL     1      -1.524  41.583  20.068  1.00  0.00    -0.003 C 
ATOM     26  C   UNL     1      -2.006  40.160  19.797  1.00  0.00     0.004 C 
ENDBRANCH  24  25
ENDBRANCH  23  24
ENDBRANCH  22  23
ENDBRANCH  21  22
ENDBRANCH  20  21
ENDBRANCH  19  20
ENDBRANCH  18  19
ENDBRANCH  17  18
ENDBRANCH  16  17
ENDBRANCH  15  16
ENDBRANCH   1  15
TORSDOF 22
ENDMDL
MODEL 6
REMARK VINA RESULT:    -3.718      3.002      5.515
REMARK INTER + INTRA:         -12.893
REMARK INTER:                  -8.413
REMARK INTRA:                  -4.480
REMARK UNBOUND:                -4.394
REMARK SMILES CCCCCCCCCCCCCCCCCCCCCCCC(=O)[O-]
REMARK SMILES IDX 13 1 14 2 15 3 16 4 17 5 18 6 19 7 20 8 21 9 22 10 23 11
REMARK SMILES IDX 24 12 25 13 26 14 12 15 11 16 10 17 9 18 8 19 7 20 6 21 5 22
REMARK SMILES IDX 4 23 3 24 2 25 1 26
REMARK H PARENT
REMARK Flexibility Score: inf
ROOT
ATOM      1  C   UNL     1      -2.844  44.555  19.196  1.00  0.00     0.000 C 
ENDROOT
BRANCH   1   2
ATOM      2  C   UNL     1      -1.916  43.724  18.291  1.00  0.00     0.000 C 
BRANCH   2   3
ATOM      3  C   UNL     1      -0.562  43.416  18.966  1.00  0.00     0.000 C 
BRANCH   3   4
ATOM      4  C   UNL     1      -0.583  43.546  20.499  1.00  0.00     0.000 C 
BRANCH   4   5
ATOM      5  C   UNL     1       0.385  42.577  21.199  1.00  0.00     0.000 C 
BRANCH   5   6
ATOM      6  C   UNL     1       1.484  43.300  22.007  1.00  0.00     0.000 C 
BRANCH   6   7
ATOM      7  C   UNL     1       1.117  43.552  23.481  1.00  0.00     0.000 C 
BRANCH   7   8
ATOM      8  C   UNL     1      -0.064  42.720  24.014  1.00  0.00     0.000 C 
BRANCH   8   9
ATOM      9  C   UNL     1      -1.259  43.541  24.541  1.00  0.00     0.000 C 
BRANCH   9  10
ATOM     10  C   UNL     1      -1.548  44.846  23.772  1.00  0.00     0.006 C 
BRANCH  10  11
ATOM     11  C   UNL     1      -2.898  44.863  23.035  1.00  0.00     0.053 C 
BRANCH  11  12
ATOM     12  C   UNL     1      -3.923  45.696  23.741  1.00  0.00     0.041 C 
ATOM     13  O   UNL     1      -4.453  46.679  23.158  1.00  0.00    -0.550 OA
ATOM     14  O   UNL     1      -4.328  45.359  25.028  1.00  0.00    -0.550 OA
ENDBRANCH  11  12
ENDBRANCH  10  11
ENDBRANCH   9  10
ENDBRANCH   8   9
ENDBRANCH   7   8
ENDBRANCH   6   7
ENDBRANCH   5   6
ENDBRANCH   4   5
ENDBRANCH   3   4
ENDBRANCH   2   3
ENDBRANCH   1   2
BRANCH   1  15
ATOM     15  C   UNL     1      -4.333  44.252  18.955  1.00  0.00     0.000 C 
BRANCH  15  16
ATOM     16  C   UNL     1      -5.151  44.270  20.258  1.00  0.00     0.000 C 
BRANCH  16  17
ATOM     17  C   UNL     1      -5.227  42.891  20.934  1.00  0.00     0.000 C 
BRANCH  17  18
ATOM     18  C   UNL     1      -4.905  41.741  19.966  1.00  0.00    -0.000 C 
BRANCH  18  19
ATOM     19  C   UNL     1      -3.786  40.818  20.480  1.00  0.00    -0.000 C 
BRANCH  19  20
ATOM     20  C   UNL     1      -3.001  41.348  21.698  1.00  0.00    -0.000 C 
BRANCH  20  21
ATOM     21  C   UNL     1      -2.559  40.278  22.717  1.00  0.00    -0.000 C 
BRANCH  21  22
ATOM     22  C   UNL     1      -3.347  40.273  24.039  1.00  0.00    -0.000 C 
BRANCH  22  23
ATOM     23  C   UNL     1      -4.204  41.533  24.230  1.00  0.00    -0.000 C 
BRANCH  23  24
ATOM     24  C   UNL     1      -5.697  41.192  24.153  1.00  0.00    -0.000 C 
BRANCH  24  25
ATOM     25  C   UNL     1      -5.928  39.687  24.333  1.00  0.00    -0.003 C 
ATOM     26  C   UNL     1      -6.543  39.386  25.697  1.00  0.00     0.004 C 
ENDBRANCH  24  25
ENDBRANCH  23  24
ENDBRANCH  22  23
ENDBRANCH  21  22
ENDBRANCH  20  21
ENDBRANCH  19  20
ENDBRANCH  18  19
ENDBRANCH  17  18
ENDBRANCH  16  17
ENDBRANCH  15  16
ENDBRANCH   1  15
TORSDOF 22
ENDMDL
MODEL 7
REMARK VINA RESULT:    -3.687      3.011      4.018
REMARK INTER + INTRA:         -12.823
REMARK INTER:                  -8.712
REMARK INTRA:                  -4.111
REMARK UNBOUND:                -4.394
REMARK SMILES CCCCCCCCCCCCCCCCCCCCCCCC(=O)[O-]
REMARK SMILES IDX 13 1 14 2 15 3 16 4 17 5 18 6 19 7 20 8 21 9 22 10 23 11
REMARK SMILES IDX 24 12 25 13 26 14 12 15 11 16 10 17 9 18 8 19 7 20 6 21 5 22
REMARK SMILES IDX 4 23 3 24 2 25 1 26
REMARK H PARENT
REMARK Flexibility Score: inf
ROOT
ATOM      1  C   UNL     1      -5.362  43.520  20.652  1.00  0.00     0.000 C 
ENDROOT
BRANCH   1   2
ATOM      2  C   UNL     1      -5.488  41.986  20.629  1.00  0.00     0.000 C 
BRANCH   2   3
ATOM      3  C   UNL     1      -4.321  41.292  21.365  1.00  0.00     0.000 C 
BRANCH   3   4
ATOM      4  C   UNL     1      -3.565  40.262  20.509  1.00  0.00     0.000 C 
BRANCH   4   5
ATOM      5  C   UNL     1      -2.419  40.883  19.691  1.00  0.00     0.000 C 
BRANCH   5   6
ATOM      6  C   UNL     1      -1.031  40.328  20.078  1.00  0.00     0.000 C 
BRANCH   6   7
ATOM      7  C   UNL     1      -0.826  40.153  21.595  1.00  0.00     0.000 C 
BRANCH   7   8
ATOM      8  C   UNL     1       0.601  39.763  22.023  1.00  0.00     0.000 C 
BRANCH   8   9
ATOM      9  C   UNL     1       1.397  40.875  22.736  1.00  0.00     0.000 C 
BRANCH   9  10
ATOM     10  C   UNL     1       2.191  41.812  21.805  1.00  0.00     0.006 C 
BRANCH  10  11
ATOM     11  C   UNL     1       3.491  42.361  22.414  1.00  0.00     0.053 C 
BRANCH  11  12
ATOM     12  C   UNL     1       3.339  43.763  22.920  1.00  0.00     0.041 C 
ATOM     13  O   UNL     1       3.569  44.741  22.161  1.00  0.00    -0.550 OA
ATOM     14  O   UNL     1       2.896  43.989  24.219  1.00  0.00    -0.550 OA
ENDBRANCH  11  12
ENDBRANCH  10  11
ENDBRANCH   9  10
ENDBRANCH   8   9
ENDBRANCH   7   8
ENDBRANCH   6   7
ENDBRANCH   5   6
ENDBRANCH   4   5
ENDBRANCH   3   4
ENDBRANCH   2   3
ENDBRANCH   1   2
BRANCH   1  15
ATOM     15  C   UNL     1      -4.750  44.084  19.358  1.00  0.00     0.000 C 
BRANCH  15  16
ATOM     16  C   UNL     1      -3.574  45.037  19.634  1.00  0.00     0.000 C 
BRANCH  16  17
ATOM     17  C   UNL     1      -2.312  44.305  20.118  1.00  0.00     0.000 C 
BRANCH  17  18
ATOM     18  C   UNL     1      -1.923  44.688  21.555  1.00  0.00    -0.000 C 
BRANCH  18  19
ATOM     19  C   UNL     1      -1.064  43.617  22.252  1.00  0.00    -0.000 C 
BRANCH  19  20
ATOM     20  C   UNL     1      -0.641  43.950  23.698  1.00  0.00    -0.000 C 
BRANCH  20  21
ATOM     21  C   UNL     1      -1.688  43.631  24.783  1.00  0.00    -0.000 C 
BRANCH  21  22
ATOM     22  C   UNL     1      -2.837  42.712  24.330  1.00  0.00    -0.000 C 
BRANCH  22  23
ATOM     23  C   UNL     1      -4.205  43.410  24.351  1.00  0.00    -0.000 C 
BRANCH  23  24
ATOM     24  C   UNL     1      -4.045  44.913  24.613  1.00  0.00    -0.000 C 
BRANCH  24  25
ATOM     25  C   UNL     1      -4.787  45.738  23.556  1.00  0.00    -0.003 C 
ATOM     26  C   UNL     1      -4.023  47.017  23.223  1.00  0.00     0.004 C 
ENDBRANCH  24  25
ENDBRANCH  23  24
ENDBRANCH  22  23
ENDBRANCH  21  22
ENDBRANCH  20  21
ENDBRANCH  19  20
ENDBRANCH  18  19
ENDBRANCH  17  18
ENDBRANCH  16  17
ENDBRANCH  15  16
ENDBRANCH   1  15
TORSDOF 22
ENDMDL
MODEL 8
REMARK VINA RESULT:    -3.684      2.340      4.401
REMARK INTER + INTRA:         -12.816
REMARK INTER:                  -8.569
REMARK INTRA:                  -4.247
REMARK UNBOUND:                -4.394
REMARK SMILES CCCCCCCCCCCCCCCCCCCCCCCC(=O)[O-]
REMARK SMILES IDX 13 1 14 2 15 3 16 4 17 5 18 6 19 7 20 8 21 9 22 10 23 11
REMARK SMILES IDX 24 12 25 13 26 14 12 15 11 16 10 17 9 18 8 19 7 20 6 21 5 22
REMARK SMILES IDX 4 23 3 24 2 25 1 26
REMARK H PARENT
REMARK Flexibility Score: inf
ROOT
ATOM      1  C   UNL     1      -3.104  45.006  19.383  1.00  0.00     0.000 C 
ENDROOT
BRANCH   1   2
ATOM      2  C   UNL     1      -4.465  44.625  18.771  1.00  0.00     0.000 C 
BRANCH   2   3
ATOM      3  C   UNL     1      -4.326  44.045  17.348  1.00  0.00     0.000 C 
BRANCH   3   4
ATOM      4  C   UNL     1      -3.095  43.143  17.156  1.00  0.00     0.000 C 
BRANCH   4   5
ATOM      5  C   UNL     1      -3.449  41.647  17.079  1.00  0.00     0.000 C 
BRANCH   5   6
ATOM      6  C   UNL     1      -3.424  40.950  18.457  1.00  0.00     0.000 C 
BRANCH   6   7
ATOM      7  C   UNL     1      -4.801  40.861  19.141  1.00  0.00     0.000 C 
BRANCH   7   8
ATOM      8  C   UNL     1      -4.865  41.444  20.565  1.00  0.00     0.000 C 
BRANCH   8   9
ATOM      9  C   UNL     1      -3.574  41.287  21.395  1.00  0.00     0.000 C 
BRANCH   9  10
ATOM     10  C   UNL     1      -3.790  40.988  22.892  1.00  0.00     0.006 C 
BRANCH  10  11
ATOM     11  C   UNL     1      -5.121  41.509  23.459  1.00  0.00     0.053 C 
BRANCH  11  12
ATOM     12  C   UNL     1      -5.934  40.424  24.097  1.00  0.00     0.041 C 
ATOM     13  O   UNL     1      -5.592  39.945  25.210  1.00  0.00    -0.550 OA
ATOM     14  O   UNL     1      -7.098  39.975  23.483  1.00  0.00    -0.550 OA
ENDBRANCH  11  12
ENDBRANCH  10  11
ENDBRANCH   9  10
ENDBRANCH   8   9
ENDBRANCH   7   8
ENDBRANCH   6   7
ENDBRANCH   5   6
ENDBRANCH   4   5
ENDBRANCH   3   4
ENDBRANCH   2   3
ENDBRANCH   1   2
BRANCH   1  15
ATOM     15  C   UNL     1      -3.011  44.665  20.880  1.00  0.00     0.000 C 
BRANCH  15  16
ATOM     16  C   UNL     1      -3.697  45.721  21.764  1.00  0.00     0.000 C 
BRANCH  16  17
ATOM     17  C   UNL     1      -4.410  45.110  22.981  1.00  0.00     0.000 C 
BRANCH  17  18
ATOM     18  C   UNL     1      -3.724  45.472  24.308  1.00  0.00    -0.000 C 
BRANCH  18  19
ATOM     19  C   UNL     1      -3.549  44.262  25.244  1.00  0.00    -0.000 C 
BRANCH  19  20
ATOM     20  C   UNL     1      -2.196  43.529  25.127  1.00  0.00    -0.000 C 
BRANCH  20  21
ATOM     21  C   UNL     1      -1.184  44.162  24.152  1.00  0.00    -0.000 C 
BRANCH  21  22
ATOM     22  C   UNL     1      -0.622  43.206  23.084  1.00  0.00    -0.000 C 
BRANCH  22  23
ATOM     23  C   UNL     1       0.805  43.569  22.646  1.00  0.00    -0.000 C 
BRANCH  23  24
ATOM     24  C   UNL     1       1.228  42.738  21.429  1.00  0.00    -0.000 C 
BRANCH  24  25
ATOM     25  C   UNL     1       0.018  42.384  20.556  1.00  0.00    -0.003 C 
ATOM     26  C   UNL     1       0.009  43.207  19.271  1.00  0.00     0.004 C 
ENDBRANCH  24  25
ENDBRANCH  23  24
ENDBRANCH  22  23
ENDBRANCH  21  22
ENDBRANCH  20  21
ENDBRANCH  19  20
ENDBRANCH  18  19
ENDBRANCH  17  18
ENDBRANCH  16  17
ENDBRANCH  15  16
ENDBRANCH   1  15
TORSDOF 22
ENDMDL
MODEL 9
REMARK VINA RESULT:    -3.646      4.086      6.467
REMARK INTER + INTRA:         -12.729
REMARK INTER:                  -8.961
REMARK INTRA:                  -3.769
REMARK UNBOUND:                -4.394
REMARK SMILES CCCCCCCCCCCCCCCCCCCCCCCC(=O)[O-]
REMARK SMILES IDX 13 1 14 2 15 3 16 4 17 5 18 6 19 7 20 8 21 9 22 10 23 11
REMARK SMILES IDX 24 12 25 13 26 14 12 15 11 16 10 17 9 18 8 19 7 20 6 21 5 22
REMARK SMILES IDX 4 23 3 24 2 25 1 26
REMARK H PARENT
REMARK Flexibility Score: inf
ROOT
ATOM      1  C   UNL     1      -1.590  41.870  19.215  1.00  0.00     0.000 C 
ENDROOT
BRANCH   1   2
ATOM      2  C   UNL     1      -2.242  41.277  20.477  1.00  0.00     0.000 C 
BRANCH   2   3
ATOM      3  C   UNL     1      -1.829  42.032  21.759  1.00  0.00     0.000 C 
BRANCH   3   4
ATOM      4  C   UNL     1      -0.666  41.377  22.524  1.00  0.00     0.000 C 
BRANCH   4   5
ATOM      5  C   UNL     1       0.637  42.192  22.454  1.00  0.00     0.000 C 
BRANCH   5   6
ATOM      6  C   UNL     1       0.700  43.320  23.507  1.00  0.00     0.000 C 
BRANCH   6   7
ATOM      7  C   UNL     1       2.117  43.875  23.749  1.00  0.00     0.000 C 
BRANCH   7   8
ATOM      8  C   UNL     1       3.179  43.431  22.726  1.00  0.00     0.000 C 
BRANCH   8   9
ATOM      9  C   UNL     1       3.884  44.578  21.974  1.00  0.00     0.000 C 
BRANCH   9  10
ATOM     10  C   UNL     1       4.115  44.331  20.469  1.00  0.00     0.006 C 
BRANCH  10  11
ATOM     11  C   UNL     1       2.871  43.848  19.707  1.00  0.00     0.053 C 
BRANCH  11  12
ATOM     12  C   UNL     1       2.860  44.309  18.282  1.00  0.00     0.041 C 
ATOM     13  O   UNL     1       1.794  44.275  17.611  1.00  0.00    -0.550 OA
ATOM     14  O   UNL     1       4.017  44.822  17.707  1.00  0.00    -0.550 OA
ENDBRANCH  11  12
ENDBRANCH  10  11
ENDBRANCH   9  10
ENDBRANCH   8   9
ENDBRANCH   7   8
ENDBRANCH   6   7
ENDBRANCH   5   6
ENDBRANCH   4   5
ENDBRANCH   3   4
ENDBRANCH   2   3
ENDBRANCH   1   2
BRANCH   1  15
ATOM     15  C   UNL     1      -1.139  43.329  19.410  1.00  0.00     0.000 C 
BRANCH  15  16
ATOM     16  C   UNL     1      -1.686  44.260  18.313  1.00  0.00     0.000 C 
BRANCH  16  17
ATOM     17  C   UNL     1      -2.566  43.525  17.289  1.00  0.00     0.000 C 
BRANCH  17  18
ATOM     18  C   UNL     1      -4.045  43.929  17.385  1.00  0.00    -0.000 C 
BRANCH  18  19
ATOM     19  C   UNL     1      -4.384  44.665  18.694  1.00  0.00    -0.000 C 
BRANCH  19  20
ATOM     20  C   UNL     1      -5.020  43.790  19.795  1.00  0.00    -0.000 C 
BRANCH  20  21
ATOM     21  C   UNL     1      -4.809  44.289  21.239  1.00  0.00    -0.000 C 
BRANCH  21  22
ATOM     22  C   UNL     1      -3.605  45.228  21.435  1.00  0.00    -0.000 C 
BRANCH  22  23
ATOM     23  C   UNL     1      -3.519  45.803  22.857  1.00  0.00    -0.000 C 
BRANCH  23  24
ATOM     24  C   UNL     1      -2.538  44.993  23.712  1.00  0.00    -0.000 C 
BRANCH  24  25
ATOM     25  C   UNL     1      -3.283  44.023  24.637  1.00  0.00    -0.003 C 
ATOM     26  C   UNL     1      -2.316  43.314  25.581  1.00  0.00     0.004 C 
ENDBRANCH  24  25
ENDBRANCH  23  24
ENDBRANCH  22  23
ENDBRANCH  21  22
ENDBRANCH  20  21
ENDBRANCH  19  20
ENDBRANCH  18  19
ENDBRANCH  17  18
ENDBRANCH  16  17
ENDBRANCH  15  16
ENDBRANCH   1  15
TORSDOF 22
ENDMDL
