MODEL 1
REMARK VINA RESULT:    -3.772      0.000      0.000
REMARK INTER + INTRA:          -9.047
REMARK INTER:                  -6.859
REMARK INTRA:                  -2.187
REMARK UNBOUND:                -2.187
REMARK SMILES CCCCCCCCCCCCCCCC(=O)[O-]
REMARK SMILES IDX 9 1 10 2 11 3 12 4 13 5 14 6 15 7 16 8 17 9 18 10 8 11 7 12
REMARK SMILES IDX 6 13 5 14 4 15 3 16 2 17 1 18
REMARK H PARENT
REMARK Flexibility Score: inf
ROOT
ATOM      1  C   UNL     1      27.765  26.351 -15.576  1.00  0.00     0.000 C 
ENDROOT
BRANCH   1   2
ATOM      2  C   UNL     1      28.331  27.039 -16.832  1.00  0.00     0.000 C 
BRANCH   2   3
ATOM      3  C   UNL     1      29.810  27.430 -16.685  1.00  0.00     0.000 C 
BRANCH   3   4
ATOM      4  C   UNL     1      30.393  27.051 -15.312  1.00  0.00     0.000 C 
BRANCH   4   5
ATOM      5  C   UNL     1      31.857  26.568 -15.338  1.00  0.00     0.000 C 
BRANCH   5   6
ATOM      6  C   UNL     1      32.236  25.691 -16.550  1.00  0.00     0.006 C 
BRANCH   6   7
ATOM      7  C   UNL     1      33.515  26.132 -17.279  1.00  0.00     0.053 C 
BRANCH   7   8
ATOM      8  C   UNL     1      33.379  26.017 -18.766  1.00  0.00     0.041 C 
ATOM      9  O   UNL     1      33.963  26.838 -19.521  1.00  0.00    -0.550 OA
ATOM     10  O   UNL     1      32.579  25.024 -19.318  1.00  0.00    -0.550 OA
ENDBRANCH   7   8
ENDBRANCH   6   7
ENDBRANCH   5   6
ENDBRANCH   4   5
ENDBRANCH   3   4
ENDBRANCH   2   3
ENDBRANCH   1   2
BRANCH   1  11
ATOM     11  C   UNL     1      27.167  24.951 -15.814  1.00  0.00     0.000 C 
BRANCH  11  12
ATOM     12  C   UNL     1      28.216  23.829 -15.729  1.00  0.00    -0.000 C 
BRANCH  12  13
ATOM     13  C   UNL     1      28.388  23.080 -17.061  1.00  0.00    -0.000 C 
BRANCH  13  14
ATOM     14  C   UNL     1      29.568  23.609 -17.890  1.00  0.00    -0.000 C 
BRANCH  14  15
ATOM     15  C   UNL     1      29.124  23.948 -19.321  1.00  0.00    -0.000 C 
BRANCH  15  16
ATOM     16  C   UNL     1      27.771  23.316 -19.695  1.00  0.00    -0.000 C 
BRANCH  16  17
ATOM     17  C   UNL     1      26.745  24.289 -20.303  1.00  0.00    -0.003 C 
ATOM     18  C   UNL     1      25.996  25.104 -19.250  1.00  0.00     0.004 C 
ENDBRANCH  16  17
ENDBRANCH  15  16
ENDBRANCH  14  15
ENDBRANCH  13  14
ENDBRANCH  12  13
ENDBRANCH  11  12
ENDBRANCH   1  11
TORSDOF 14
ENDMDL
MODEL 2
REMARK VINA RESULT:    -3.764      2.216      4.559
REMARK INTER + INTRA:          -9.032
REMARK INTER:                  -7.609
REMARK INTRA:                  -1.423
REMARK UNBOUND:                -2.187
REMARK SMILES CCCCCCCCCCCCCCCC(=O)[O-]
REMARK SMILES IDX 9 1 10 2 11 3 12 4 13 5 14 6 15 7 16 8 17 9 18 10 8 11 7 12
REMARK SMILES IDX 6 13 5 14 4 15 3 16 2 17 1 18
REMARK H PARENT
REMARK Flexibility Score: inf
ROOT
ATOM      1  C   UNL     1      26.627  25.529 -18.226  1.00  0.00     0.000 C 
ENDROOT
BRANCH   1   2
ATOM      2  C   UNL     1      26.477  24.187 -18.966  1.00  0.00     0.000 C 
BRANCH   2   3
ATOM      3  C   UNL     1      27.297  24.126 -20.266  1.00  0.00     0.000 C 
BRANCH   3   4
ATOM      4  C   UNL     1      28.370  23.023 -20.242  1.00  0.00     0.000 C 
BRANCH   4   5
ATOM      5  C   UNL     1      29.088  22.844 -18.889  1.00  0.00     0.000 C 
BRANCH   5   6
ATOM      6  C   UNL     1      30.621  22.691 -18.977  1.00  0.00     0.006 C 
BRANCH   6   7
ATOM      7  C   UNL     1      31.398  24.015 -18.893  1.00  0.00     0.053 C 
BRANCH   7   8
ATOM      8  C   UNL     1      32.180  24.285 -20.142  1.00  0.00     0.041 C 
ATOM      9  O   UNL     1      33.029  25.214 -20.168  1.00  0.00    -0.550 OA
ATOM     10  O   UNL     1      31.946  23.534 -21.287  1.00  0.00    -0.550 OA
ENDBRANCH   7   8
ENDBRANCH   6   7
ENDBRANCH   5   6
ENDBRANCH   4   5
ENDBRANCH   3   4
ENDBRANCH   2   3
ENDBRANCH   1   2
BRANCH   1  11
ATOM     11  C   UNL     1      27.119  25.418 -16.770  1.00  0.00     0.000 C 
BRANCH  11  12
ATOM     12  C   UNL     1      28.593  25.827 -16.603  1.00  0.00    -0.000 C 
BRANCH  12  13
ATOM     13  C   UNL     1      28.750  27.242 -16.023  1.00  0.00    -0.000 C 
BRANCH  13  14
ATOM     14  C   UNL     1      29.275  28.250 -17.056  1.00  0.00    -0.000 C 
BRANCH  14  15
ATOM     15  C   UNL     1      28.333  29.459 -17.169  1.00  0.00    -0.000 C 
BRANCH  15  16
ATOM     16  C   UNL     1      27.076  29.165 -18.006  1.00  0.00    -0.000 C 
BRANCH  16  17
ATOM     17  C   UNL     1      26.454  30.391 -18.697  1.00  0.00    -0.003 C 
ATOM     18  C   UNL     1      27.190  30.796 -19.973  1.00  0.00     0.004 C 
ENDBRANCH  16  17
ENDBRANCH  15  16
ENDBRANCH  14  15
ENDBRANCH  13  14
ENDBRANCH  12  13
ENDBRANCH  11  12
ENDBRANCH   1  11
TORSDOF 14
ENDMDL
MODEL 3
REMARK VINA RESULT:    -3.695      2.713      4.417
REMARK INTER + INTRA:          -8.906
REMARK INTER:                  -6.780
REMARK INTRA:                  -2.125
REMARK UNBOUND:                -2.187
REMARK SMILES CCCCCCCCCCCCCCCC(=O)[O-]
REMARK SMILES IDX 9 1 10 2 11 3 12 4 13 5 14 6 15 7 16 8 17 9 18 10 8 11 7 12
REMARK SMILES IDX 6 13 5 14 4 15 3 16 2 17 1 18
REMARK H PARENT
REMARK Flexibility Score: inf
ROOT
ATOM      1  C   UNL     1      30.580  27.264 -15.739  1.00  0.00     0.000 C 
ENDROOT
BRANCH   1   2
ATOM      2  C   UNL     1      29.510  27.773 -16.723  1.00  0.00     0.000 C 
BRANCH   2   3
ATOM      3  C   UNL     1      28.076  27.461 -16.263  1.00  0.00     0.000 C 
BRANCH   3   4
ATOM      4  C   UNL     1      27.422  26.331 -17.078  1.00  0.00     0.000 C 
BRANCH   4   5
ATOM      5  C   UNL     1      26.788  25.206 -16.236  1.00  0.00     0.000 C 
BRANCH   5   6
ATOM      6  C   UNL     1      27.323  25.085 -14.793  1.00  0.00     0.006 C 
BRANCH   6   7
ATOM      7  C   UNL     1      28.502  24.113 -14.633  1.00  0.00     0.053 C 
BRANCH   7   8
ATOM      8  C   UNL     1      28.083  22.689 -14.833  1.00  0.00     0.041 C 
ATOM      9  O   UNL     1      27.494  22.066 -13.911  1.00  0.00    -0.550 OA
ATOM     10  O   UNL     1      28.374  22.038 -16.026  1.00  0.00    -0.550 OA
ENDBRANCH   7   8
ENDBRANCH   6   7
ENDBRANCH   5   6
ENDBRANCH   4   5
ENDBRANCH   3   4
ENDBRANCH   2   3
ENDBRANCH   1   2
BRANCH   1  11
ATOM     11  C   UNL     1      31.254  25.938 -16.138  1.00  0.00     0.000 C 
BRANCH  11  12
ATOM     12  C   UNL     1      31.136  25.635 -17.642  1.00  0.00    -0.000 C 
BRANCH  12  13
ATOM     13  C   UNL     1      30.194  24.455 -17.935  1.00  0.00    -0.000 C 
BRANCH  13  14
ATOM     14  C   UNL     1      30.539  23.733 -19.245  1.00  0.00    -0.000 C 
BRANCH  14  15
ATOM     15  C   UNL     1      29.390  22.810 -19.681  1.00  0.00    -0.000 C 
BRANCH  15  16
ATOM     16  C   UNL     1      28.003  23.364 -19.313  1.00  0.00    -0.000 C 
BRANCH  16  17
ATOM     17  C   UNL     1      27.267  24.085 -20.457  1.00  0.00    -0.003 C 
ATOM     18  C   UNL     1      26.064  24.896 -19.979  1.00  0.00     0.004 C 
ENDBRANCH  16  17
ENDBRANCH  15  16
ENDBRANCH  14  15
ENDBRANCH  13  14
ENDBRANCH  12  13
ENDBRANCH  11  12
ENDBRANCH   1  11
TORSDOF 14
ENDMDL
MODEL 4
REMARK VINA RESULT:    -3.576      2.976      5.461
REMARK INTER + INTRA:          -8.690
REMARK INTER:                  -7.218
REMARK INTRA:                  -1.472
REMARK UNBOUND:                -2.187
REMARK SMILES CCCCCCCCCCCCCCCC(=O)[O-]
REMARK SMILES IDX 9 1 10 2 11 3 12 4 13 5 14 6 15 7 16 8 17 9 18 10 8 11 7 12
REMARK SMILES IDX 6 13 5 14 4 15 3 16 2 17 1 18
REMARK H PARENT
REMARK Flexibility Score: inf
ROOT
ATOM      1  C   UNL     1      32.033  25.657 -16.390  1.00  0.00     0.000 C 
ENDROOT
BRANCH   1   2
ATOM      2  C   UNL     1      31.663  24.176 -16.587  1.00  0.00     0.000 C 
BRANCH   2   3
ATOM      3  C   UNL     1      30.890  23.588 -15.395  1.00  0.00     0.000 C 
BRANCH   3   4
ATOM      4  C   UNL     1      29.367  23.588 -15.615  1.00  0.00     0.000 C 
BRANCH   4   5
ATOM      5  C   UNL     1      28.827  22.390 -16.421  1.00  0.00     0.000 C 
BRANCH   5   6
ATOM      6  C   UNL     1      28.318  22.730 -17.838  1.00  0.00     0.006 C 
BRANCH   6   7
ATOM      7  C   UNL     1      27.936  24.205 -18.038  1.00  0.00     0.053 C 
BRANCH   7   8
ATOM      8  C   UNL     1      26.841  24.367 -19.047  1.00  0.00     0.041 C 
ATOM      9  O   UNL     1      27.030  24.038 -20.247  1.00  0.00    -0.550 OA
ATOM     10  O   UNL     1      25.621  24.914 -18.669  1.00  0.00    -0.550 OA
ENDBRANCH   7   8
ENDBRANCH   6   7
ENDBRANCH   5   6
ENDBRANCH   4   5
ENDBRANCH   3   4
ENDBRANCH   2   3
ENDBRANCH   1   2
BRANCH   1  11
ATOM     11  C   UNL     1      30.964  26.663 -16.858  1.00  0.00     0.000 C 
BRANCH  11  12
ATOM     12  C   UNL     1      30.217  27.331 -15.690  1.00  0.00    -0.000 C 
BRANCH  12  13
ATOM     13  C   UNL     1      28.695  27.127 -15.770  1.00  0.00    -0.000 C 
BRANCH  13  14
ATOM     14  C   UNL     1      28.075  27.778 -17.015  1.00  0.00    -0.000 C 
BRANCH  14  15
ATOM     15  C   UNL     1      28.515  29.245 -17.143  1.00  0.00    -0.000 C 
BRANCH  15  16
ATOM     16  C   UNL     1      27.346  30.197 -17.456  1.00  0.00    -0.000 C 
BRANCH  16  17
ATOM     17  C   UNL     1      26.622  29.919 -18.786  1.00  0.00    -0.003 C 
ATOM     18  C   UNL     1      27.073  30.843 -19.917  1.00  0.00     0.004 C 
ENDBRANCH  16  17
ENDBRANCH  15  16
ENDBRANCH  14  15
ENDBRANCH  13  14
ENDBRANCH  12  13
ENDBRANCH  11  12
ENDBRANCH   1  11
TORSDOF 14
ENDMDL
MODEL 5
REMARK VINA RESULT:    -3.567      3.257      6.234
REMARK INTER + INTRA:          -8.673
REMARK INTER:                  -6.543
REMARK INTRA:                  -2.130
REMARK UNBOUND:                -2.187
REMARK SMILES CCCCCCCCCCCCCCCC(=O)[O-]
REMARK SMILES IDX 9 1 10 2 11 3 12 4 13 5 14 6 15 7 16 8 17 9 18 10 8 11 7 12
REMARK SMILES IDX 6 13 5 14 4 15 3 16 2 17 1 18
REMARK H PARENT
REMARK Flexibility Score: inf
ROOT
ATOM      1  C   UNL     1      29.136  23.694 -19.598  1.00  0.00     0.000 C 
ENDROOT
BRANCH   1   2
ATOM      2  C   UNL     1      27.653  23.283 -19.529  1.00  0.00     0.000 C 
BRANCH   2   3
ATOM      3  C   UNL     1      26.693  24.457 -19.779  1.00  0.00     0.000 C 
BRANCH   3   4
ATOM      4  C   UNL     1      26.113  25.040 -18.479  1.00  0.00     0.000 C 
BRANCH   4   5
ATOM      5  C   UNL     1      26.989  26.114 -17.800  1.00  0.00     0.000 C 
BRANCH   5   6
ATOM      6  C   UNL     1      27.237  25.900 -16.292  1.00  0.00     0.006 C 
BRANCH   6   7
ATOM      7  C   UNL     1      27.302  24.426 -15.863  1.00  0.00     0.053 C 
BRANCH   7   8
ATOM      8  C   UNL     1      26.538  24.177 -14.599  1.00  0.00     0.041 C 
ATOM      9  O   UNL     1      27.025  23.445 -13.698  1.00  0.00    -0.550 OA
ATOM     10  O   UNL     1      25.273  24.726 -14.429  1.00  0.00    -0.550 OA
ENDBRANCH   7   8
ENDBRANCH   6   7
ENDBRANCH   5   6
ENDBRANCH   4   5
ENDBRANCH   3   4
ENDBRANCH   2   3
ENDBRANCH   1   2
BRANCH   1  11
ATOM     11  C   UNL     1      29.955  23.390 -18.329  1.00  0.00     0.000 C 
BRANCH  11  12
ATOM     12  C   UNL     1      31.100  24.392 -18.101  1.00  0.00    -0.000 C 
BRANCH  12  13
ATOM     13  C   UNL     1      30.900  25.239 -16.833  1.00  0.00    -0.000 C 
BRANCH  13  14
ATOM     14  C   UNL     1      30.656  26.723 -17.145  1.00  0.00    -0.000 C 
BRANCH  14  15
ATOM     15  C   UNL     1      30.530  27.541 -15.850  1.00  0.00    -0.000 C 
BRANCH  15  16
ATOM     16  C   UNL     1      30.867  26.724 -14.589  1.00  0.00    -0.000 C 
BRANCH  16  17
ATOM     17  C   UNL     1      29.694  26.525 -13.613  1.00  0.00    -0.003 C 
ATOM     18  C   UNL     1      30.141  26.401 -12.157  1.00  0.00     0.004 C 
ENDBRANCH  16  17
ENDBRANCH  15  16
ENDBRANCH  14  15
ENDBRANCH  13  14
ENDBRANCH  12  13
ENDBRANCH  11  12
ENDBRANCH   1  11
TORSDOF 14
ENDMDL
MODEL 6
REMARK VINA RESULT:    -3.549      2.517      5.145
REMARK INTER + INTRA:          -8.642
REMARK INTER:                  -6.396
REMARK INTRA:                  -2.245
REMARK UNBOUND:                -2.187
REMARK SMILES CCCCCCCCCCCCCCCC(=O)[O-]
REMARK SMILES IDX 9 1 10 2 11 3 12 4 13 5 14 6 15 7 16 8 17 9 18 10 8 11 7 12
REMARK SMILES IDX 6 13 5 14 4 15 3 16 2 17 1 18
REMARK H PARENT
REMARK Flexibility Score: inf
ROOT
ATOM      1  C   UNL     1      31.526  26.009 -16.044  1.00  0.00     0.000 C 
ENDROOT
BRANCH   1   2
ATOM      2  C   UNL     1      30.533  26.525 -17.102  1.00  0.00     0.000 C 
BRANCH   2   3
ATOM      3  C   UNL     1      29.819  27.817 -16.672  1.00  0.00     0.000 C 
BRANCH   3   4
ATOM      4  C   UNL     1      28.285  27.699 -16.736  1.00  0.00     0.000 C 
BRANCH   4   5
ATOM      5  C   UNL     1      27.706  26.416 -16.106  1.00  0.00     0.000 C 
BRANCH   5   6
ATOM      6  C   UNL     1      26.935  25.499 -17.079  1.00  0.00     0.006 C 
BRANCH   6   7
ATOM      7  C   UNL     1      27.726  24.271 -17.555  1.00  0.00     0.053 C 
BRANCH   7   8
ATOM      8  C   UNL     1      27.698  24.131 -19.047  1.00  0.00     0.041 C 
ATOM      9  O   UNL     1      28.753  23.855 -19.677  1.00  0.00    -0.550 OA
ATOM     10  O   UNL     1      26.515  24.340 -19.744  1.00  0.00    -0.550 OA
ENDBRANCH   7   8
ENDBRANCH   6   7
ENDBRANCH   5   6
ENDBRANCH   4   5
ENDBRANCH   3   4
ENDBRANCH   2   3
ENDBRANCH   1   2
BRANCH   1  11
ATOM     11  C   UNL     1      31.503  26.769 -14.704  1.00  0.00     0.000 C 
BRANCH  11  12
ATOM     12  C   UNL     1      31.088  25.881 -13.518  1.00  0.00    -0.000 C 
BRANCH  12  13
ATOM     13  C   UNL     1      29.752  26.318 -12.893  1.00  0.00    -0.000 C 
BRANCH  13  14
ATOM     14  C   UNL     1      28.926  25.132 -12.373  1.00  0.00    -0.000 C 
BRANCH  14  15
ATOM     15  C   UNL     1      28.752  24.065 -13.465  1.00  0.00    -0.000 C 
BRANCH  15  16
ATOM     16  C   UNL     1      27.281  23.678 -13.696  1.00  0.00    -0.000 C 
BRANCH  16  17
ATOM     17  C   UNL     1      26.252  24.595 -13.011  1.00  0.00    -0.003 C 
ATOM     18  C   UNL     1      25.081  24.966 -13.920  1.00  0.00     0.004 C 
ENDBRANCH  16  17
ENDBRANCH  15  16
ENDBRANCH  14  15
ENDBRANCH  13  14
ENDBRANCH  12  13
ENDBRANCH  11  12
ENDBRANCH   1  11
TORSDOF 14
ENDMDL
MODEL 7
REMARK VINA RESULT:    -3.525      2.838      4.388
REMARK INTER + INTRA:          -8.597
REMARK INTER:                  -6.698
REMARK INTRA:                  -1.900
REMARK UNBOUND:                -2.187
REMARK SMILES CCCCCCCCCCCCCCCC(=O)[O-]
REMARK SMILES IDX 9 1 10 2 11 3 12 4 13 5 14 6 15 7 16 8 17 9 18 10 8 11 7 12
REMARK SMILES IDX 6 13 5 14 4 15 3 16 2 17 1 18
REMARK H PARENT
REMARK Flexibility Score: inf
ROOT
ATOM      1  C   UNL     1      30.739  24.581 -15.042  1.00  0.00     0.000 C 
ENDROOT
BRANCH   1   2
ATOM      2  C   UNL     1      31.613  25.818 -15.315  1.00  0.00     0.000 C 
BRANCH   2   3
ATOM      3  C   UNL     1      30.815  27.132 -15.294  1.00  0.00     0.000 C 
BRANCH   3   4
ATOM      4  C   UNL     1      30.225  27.493 -16.669  1.00  0.00     0.000 C 
BRANCH   4   5
ATOM      5  C   UNL     1      28.720  27.828 -16.663  1.00  0.00     0.000 C 
BRANCH   5   6
ATOM      6  C   UNL     1      27.777  26.607 -16.629  1.00  0.00     0.006 C 
BRANCH   6   7
ATOM      7  C   UNL     1      27.373  26.156 -15.217  1.00  0.00     0.053 C 
BRANCH   7   8
ATOM      8  C   UNL     1      26.730  24.803 -15.225  1.00  0.00     0.041 C 
ATOM      9  O   UNL     1      27.318  23.825 -15.759  1.00  0.00    -0.550 OA
ATOM     10  O   UNL     1      25.468  24.627 -14.673  1.00  0.00    -0.550 OA
ENDBRANCH   7   8
ENDBRANCH   6   7
ENDBRANCH   5   6
ENDBRANCH   4   5
ENDBRANCH   3   4
ENDBRANCH   2   3
ENDBRANCH   1   2
BRANCH   1  11
ATOM     11  C   UNL     1      30.747  23.519 -16.158  1.00  0.00     0.000 C 
BRANCH  11  12
ATOM     12  C   UNL     1      31.187  24.084 -17.520  1.00  0.00    -0.000 C 
BRANCH  12  13
ATOM     13  C   UNL     1      30.003  24.310 -18.475  1.00  0.00    -0.000 C 
BRANCH  13  14
ATOM     14  C   UNL     1      30.021  23.353 -19.676  1.00  0.00    -0.000 C 
BRANCH  14  15
ATOM     15  C   UNL     1      28.626  22.758 -19.922  1.00  0.00    -0.000 C 
BRANCH  15  16
ATOM     16  C   UNL     1      27.591  23.812 -20.353  1.00  0.00    -0.000 C 
BRANCH  16  17
ATOM     17  C   UNL     1      26.575  24.208 -19.266  1.00  0.00    -0.003 C 
ATOM     18  C   UNL     1      25.769  25.455 -19.624  1.00  0.00     0.004 C 
ENDBRANCH  16  17
ENDBRANCH  15  16
ENDBRANCH  14  15
ENDBRANCH  13  14
ENDBRANCH  12  13
ENDBRANCH  11  12
ENDBRANCH   1  11
TORSDOF 14
ENDMDL
MODEL 8
REMARK VINA RESULT:    -3.523      2.586      5.230
REMARK INTER + INTRA:          -8.594
REMARK INTER:                  -6.125
REMARK INTRA:                  -2.470
REMARK UNBOUND:                -2.187
REMARK SMILES CCCCCCCCCCCCCCCC(=O)[O-]
REMARK SMILES IDX 9 1 10 2 11 3 12 4 13 5 14 6 15 7 16 8 17 9 18 10 8 11 7 12
REMARK SMILES IDX 6 13 5 14 4 15 3 16 2 17 1 18
REMARK H PARENT
REMARK Flexibility Score: inf
ROOT
ATOM      1  C   UNL     1      26.342  24.645 -14.522  1.00  0.00     0.000 C 
ENDROOT
BRANCH   1   2
ATOM      2  C   UNL     1      27.212  23.577 -13.833  1.00  0.00     0.000 C 
BRANCH   2   3
ATOM      3  C   UNL     1      27.769  22.533 -14.814  1.00  0.00     0.000 C 
BRANCH   3   4
ATOM      4  C   UNL     1      29.249  22.773 -15.162  1.00  0.00     0.000 C 
BRANCH   4   5
ATOM      5  C   UNL     1      29.512  23.210 -16.617  1.00  0.00     0.000 C 
BRANCH   5   6
ATOM      6  C   UNL     1      28.273  23.205 -17.537  1.00  0.00     0.006 C 
BRANCH   6   7
ATOM      7  C   UNL     1      28.038  24.522 -18.293  1.00  0.00     0.053 C 
BRANCH   7   8
ATOM      8  C   UNL     1      26.768  24.493 -19.086  1.00  0.00     0.041 C 
ATOM      9  O   UNL     1      25.672  24.779 -18.537  1.00  0.00    -0.550 OA
ATOM     10  O   UNL     1      26.789  24.116 -20.423  1.00  0.00    -0.550 OA
ENDBRANCH   7   8
ENDBRANCH   6   7
ENDBRANCH   5   6
ENDBRANCH   4   5
ENDBRANCH   3   4
ENDBRANCH   2   3
ENDBRANCH   1   2
BRANCH   1  11
ATOM     11  C   UNL     1      27.033  26.005 -14.741  1.00  0.00     0.000 C 
BRANCH  11  12
ATOM     12  C   UNL     1      28.267  26.202 -13.844  1.00  0.00    -0.000 C 
BRANCH  12  13
ATOM     13  C   UNL     1      29.563  26.375 -14.653  1.00  0.00    -0.000 C 
BRANCH  13  14
ATOM     14  C   UNL     1      29.399  27.342 -15.834  1.00  0.00    -0.000 C 
BRANCH  14  15
ATOM     15  C   UNL     1      30.361  26.980 -16.977  1.00  0.00    -0.000 C 
BRANCH  15  16
ATOM     16  C   UNL     1      31.606  26.217 -16.493  1.00  0.00    -0.000 C 
BRANCH  16  17
ATOM     17  C   UNL     1      32.665  25.949 -17.577  1.00  0.00    -0.003 C 
ATOM     18  C   UNL     1      32.259  24.844 -18.552  1.00  0.00     0.004 C 
ENDBRANCH  16  17
ENDBRANCH  15  16
ENDBRANCH  14  15
ENDBRANCH  13  14
ENDBRANCH  12  13
ENDBRANCH  11  12
ENDBRANCH   1  11
TORSDOF 14
ENDMDL
MODEL 9
REMARK VINA RESULT:    -3.481      2.478      5.082
REMARK INTER + INTRA:          -8.517
REMARK INTER:                  -5.991
REMARK INTRA:                  -2.526
REMARK UNBOUND:                -2.187
REMARK SMILES CCCCCCCCCCCCCCCC(=O)[O-]
REMARK SMILES IDX 9 1 10 2 11 3 12 4 13 5 14 6 15 7 16 8 17 9 18 10 8 11 7 12
REMARK SMILES IDX 6 13 5 14 4 15 3 16 2 17 1 18
REMARK H PARENT
REMARK Flexibility Score: inf
ROOT
ATOM      1  C   UNL     1      29.500  27.948 -16.766  1.00  0.00     0.000 C 
ENDROOT
BRANCH   1   2
ATOM      2  C   UNL     1      30.501  27.179 -15.885  1.00  0.00     0.000 C 
BRANCH   2   3
ATOM      3  C   UNL     1      31.289  26.113 -16.663  1.00  0.00     0.000 C 
BRANCH   3   4
ATOM      4  C   UNL     1      31.265  24.735 -15.976  1.00  0.00     0.000 C 
BRANCH   4   5
ATOM      5  C   UNL     1      30.980  23.546 -16.915  1.00  0.00     0.000 C 
BRANCH   5   6
ATOM      6  C   UNL     1      30.077  23.867 -18.125  1.00  0.00     0.006 C 
BRANCH   6   7
ATOM      7  C   UNL     1      28.816  22.996 -18.225  1.00  0.00     0.053 C 
BRANCH   7   8
ATOM      8  C   UNL     1      28.177  23.090 -19.577  1.00  0.00     0.041 C 
ATOM      9  O   UNL     1      28.679  22.481 -20.558  1.00  0.00    -0.550 OA
ATOM     10  O   UNL     1      27.048  23.878 -19.761  1.00  0.00    -0.550 OA
ENDBRANCH   7   8
ENDBRANCH   6   7
ENDBRANCH   5   6
ENDBRANCH   4   5
ENDBRANCH   3   4
ENDBRANCH   2   3
ENDBRANCH   1   2
BRANCH   1  11
ATOM     11  C   UNL     1      28.018  27.604 -16.520  1.00  0.00     0.000 C 
BRANCH  11  12
ATOM     12  C   UNL     1      27.592  26.280 -17.179  1.00  0.00    -0.000 C 
BRANCH  12  13
ATOM     13  C   UNL     1      26.814  25.366 -16.217  1.00  0.00    -0.000 C 
BRANCH  13  14
ATOM     14  C   UNL     1      27.687  24.835 -15.070  1.00  0.00    -0.000 C 
BRANCH  14  15
ATOM     15  C   UNL     1      27.225  25.406 -13.721  1.00  0.00    -0.000 C 
BRANCH  15  16
ATOM     16  C   UNL     1      28.302  26.262 -13.032  1.00  0.00    -0.000 C 
BRANCH  16  17
ATOM     17  C   UNL     1      29.625  25.531 -12.740  1.00  0.00    -0.003 C 
ATOM     18  C   UNL     1      30.706  26.451 -12.175  1.00  0.00     0.004 C 
ENDBRANCH  16  17
ENDBRANCH  15  16
ENDBRANCH  14  15
ENDBRANCH  13  14
ENDBRANCH  12  13
ENDBRANCH  11  12
ENDBRANCH   1  11
TORSDOF 14
ENDMDL
