MODEL 1
REMARK VINA RESULT:    -5.480      0.000      0.000
REMARK INTER + INTRA:          -7.127
REMARK INTER:                  -6.762
REMARK INTRA:                  -0.365
REMARK UNBOUND:                -0.365
REMARK SMILES Oc1cc(O)c2cc(O)c(-c3cc(O)c(O)c(O)c3)[o+]c2c1
REMARK SMILES IDX 10 1 20 2 21 3 22 4 2 5 3 6 4 7 6 8 7 9 8 10 11 11 12 12
REMARK SMILES IDX 13 13 19 14 15 15 17 16 14 17 16 19 18 21 9 23 1 25 5 27
REMARK H PARENT 14 18 16 20 18 22 9 24 1 26 5 28
REMARK Flexibility Score: inf
ROOT
ATOM      1  C   UNL     1      48.846  13.856  -4.660  1.00  0.00     0.402 A 
ATOM      2  O   UNL     1      49.823  13.094  -5.142  1.00  0.00    -0.202 OA
ATOM      3  C   UNL     1      50.957  13.584  -5.632  1.00  0.00     0.368 A 
ATOM      4  C   UNL     1      51.924  12.701  -6.120  1.00  0.00     0.162 A 
ATOM      5  C   UNL     1      53.123  13.188  -6.644  1.00  0.00     0.128 A 
ATOM      6  C   UNL     1      53.358  14.567  -6.683  1.00  0.00     0.093 A 
ATOM      7  C   UNL     1      52.403  15.472  -6.200  1.00  0.00     0.136 A 
ATOM      8  C   UNL     1      51.185  14.981  -5.665  1.00  0.00     0.125 A 
ATOM      9  C   UNL     1      50.178  15.812  -5.148  1.00  0.00     0.078 A 
ATOM     10  C   UNL     1      49.005  15.255  -4.632  1.00  0.00     0.223 A 
ENDROOT
BRANCH   1  11
ATOM     11  C   UNL     1      47.625  13.192  -4.150  1.00  0.00     0.091 A 
ATOM     12  C   UNL     1      47.655  12.563  -2.896  1.00  0.00     0.068 A 
ATOM     13  C   UNL     1      46.519  11.911  -2.398  1.00  0.00     0.162 A 
ATOM     14  C   UNL     1      46.451  13.126  -4.919  1.00  0.00     0.068 A 
ATOM     15  C   UNL     1      45.346  11.866  -3.161  1.00  0.00     0.200 A 
ATOM     16  C   UNL     1      45.312  12.472  -4.428  1.00  0.00     0.162 A 
BRANCH  13  17
ATOM     17  O   UNL     1      46.551  11.301  -1.145  1.00  0.00    -0.504 OA
ATOM     18  H   UNL     1      46.270  11.796  -0.306  1.00  0.00     0.293 HD
ENDBRANCH  13  17
BRANCH  15  19
ATOM     19  O   UNL     1      44.224  11.214  -2.648  1.00  0.00    -0.502 OA
ATOM     20  H   UNL     1      44.291  10.530  -1.904  1.00  0.00     0.293 HD
ENDBRANCH  15  19
BRANCH  16  21
ATOM     21  O   UNL     1      44.150  12.418  -5.196  1.00  0.00    -0.504 OA
ATOM     22  H   UNL     1      44.034  12.991  -6.025  1.00  0.00     0.293 HD
ENDBRANCH  16  21
ENDBRANCH   1  11
BRANCH  10  23
ATOM     23  O   UNL     1      48.026  16.076  -4.073  1.00  0.00    -0.500 OA
ATOM     24  H   UNL     1      47.456  16.690  -4.645  1.00  0.00     0.294 HD
ENDBRANCH  10  23
BRANCH   5  25
ATOM     25  O   UNL     1      54.075  12.292  -7.124  1.00  0.00    -0.507 OA
ATOM     26  H   UNL     1      53.899  11.293  -7.145  1.00  0.00     0.293 HD
ENDBRANCH   5  25
BRANCH   7  27
ATOM     27  O   UNL     1      52.711  16.833  -6.278  1.00  0.00    -0.507 OA
ATOM     28  H   UNL     1      53.424  17.289  -5.727  1.00  0.00     0.293 HD
ENDBRANCH   7  27
TORSDOF 7
ENDMDL
MODEL 2
REMARK VINA RESULT:    -5.335      3.582      4.448
REMARK INTER + INTRA:          -6.948
REMARK INTER:                  -6.655
REMARK INTRA:                  -0.292
REMARK UNBOUND:                -0.365
REMARK SMILES Oc1cc(O)c2cc(O)c(-c3cc(O)c(O)c(O)c3)[o+]c2c1
REMARK SMILES IDX 10 1 20 2 21 3 22 4 2 5 3 6 4 7 6 8 7 9 8 10 11 11 12 12
REMARK SMILES IDX 13 13 19 14 15 15 17 16 14 17 16 19 18 21 9 23 1 25 5 27
REMARK H PARENT 14 18 16 20 18 22 9 24 1 26 5 28
REMARK Flexibility Score: inf
ROOT
ATOM      1  C   UNL     1      45.513  16.214  -4.447  1.00  0.00     0.402 A 
ATOM      2  O   UNL     1      46.543  15.432  -4.139  1.00  0.00    -0.202 OA
ATOM      3  C   UNL     1      47.756  15.583  -4.661  1.00  0.00     0.368 A 
ATOM      4  C   UNL     1      48.775  14.707  -4.276  1.00  0.00     0.162 A 
ATOM      5  C   UNL     1      50.057  14.838  -4.811  1.00  0.00     0.128 A 
ATOM      6  C   UNL     1      50.325  15.851  -5.739  1.00  0.00     0.093 A 
ATOM      7  C   UNL     1      49.320  16.741  -6.141  1.00  0.00     0.136 A 
ATOM      8  C   UNL     1      48.016  16.612  -5.598  1.00  0.00     0.125 A 
ATOM      9  C   UNL     1      46.952  17.465  -5.932  1.00  0.00     0.078 A 
ATOM     10  C   UNL     1      45.694  17.279  -5.350  1.00  0.00     0.223 A 
ENDROOT
BRANCH   1  11
ATOM     11  C   UNL     1      44.207  15.941  -3.805  1.00  0.00     0.091 A 
ATOM     12  C   UNL     1      43.751  16.787  -2.782  1.00  0.00     0.068 A 
ATOM     13  C   UNL     1      42.528  16.539  -2.144  1.00  0.00     0.162 A 
ATOM     14  C   UNL     1      43.439  14.818  -4.156  1.00  0.00     0.068 A 
ATOM     15  C   UNL     1      41.758  15.430  -2.513  1.00  0.00     0.200 A 
ATOM     16  C   UNL     1      42.217  14.563  -3.520  1.00  0.00     0.162 A 
BRANCH  13  17
ATOM     17  O   UNL     1      42.073  17.392  -1.140  1.00  0.00    -0.504 OA
ATOM     18  H   UNL     1      41.279  17.153  -0.559  1.00  0.00     0.293 HD
ENDBRANCH  13  17
BRANCH  15  19
ATOM     19  O   UNL     1      40.542  15.200  -1.869  1.00  0.00    -0.502 OA
ATOM     20  H   UNL     1      39.757  15.835  -1.955  1.00  0.00     0.293 HD
ENDBRANCH  15  19
BRANCH  16  21
ATOM     21  O   UNL     1      41.458  13.449  -3.880  1.00  0.00    -0.504 OA
ATOM     22  H   UNL     1      40.536  13.545  -4.289  1.00  0.00     0.293 HD
ENDBRANCH  16  21
ENDBRANCH   1  11
BRANCH  10  23
ATOM     23  O   UNL     1      44.650  18.156  -5.644  1.00  0.00    -0.500 OA
ATOM     24  H   UNL     1      44.726  18.845  -6.384  1.00  0.00     0.294 HD
ENDBRANCH  10  23
BRANCH   5  25
ATOM     25  O   UNL     1      51.059  13.956  -4.415  1.00  0.00    -0.507 OA
ATOM     26  H   UNL     1      52.041  14.187  -4.522  1.00  0.00     0.293 HD
ENDBRANCH   5  25
BRANCH   7  27
ATOM     27  O   UNL     1      49.666  17.723  -7.074  1.00  0.00    -0.507 OA
ATOM     28  H   UNL     1      49.174  18.596  -7.193  1.00  0.00     0.293 HD
ENDBRANCH   7  27
TORSDOF 7
ENDMDL
MODEL 3
REMARK VINA RESULT:    -5.281      4.182      5.512
REMARK INTER + INTRA:          -6.882
REMARK INTER:                  -7.098
REMARK INTRA:                   0.216
REMARK UNBOUND:                -0.365
REMARK SMILES Oc1cc(O)c2cc(O)c(-c3cc(O)c(O)c(O)c3)[o+]c2c1
REMARK SMILES IDX 10 1 20 2 21 3 22 4 2 5 3 6 4 7 6 8 7 9 8 10 11 11 12 12
REMARK SMILES IDX 13 13 19 14 15 15 17 16 14 17 16 19 18 21 9 23 1 25 5 27
REMARK H PARENT 14 18 16 20 18 22 9 24 1 26 5 28
REMARK Flexibility Score: inf
ROOT
ATOM      1  C   UNL     1      45.487  16.031  -3.788  1.00  0.00     0.402 A 
ATOM      2  O   UNL     1      46.027  14.995  -3.155  1.00  0.00    -0.202 OA
ATOM      3  C   UNL     1      47.155  14.409  -3.544  1.00  0.00     0.368 A 
ATOM      4  C   UNL     1      47.643  13.322  -2.813  1.00  0.00     0.162 A 
ATOM      5  C   UNL     1      48.822  12.684  -3.201  1.00  0.00     0.128 A 
ATOM      6  C   UNL     1      49.520  13.135  -4.327  1.00  0.00     0.093 A 
ATOM      7  C   UNL     1      49.051  14.222  -5.076  1.00  0.00     0.136 A 
ATOM      8  C   UNL     1      47.854  14.874  -4.684  1.00  0.00     0.125 A 
ATOM      9  C   UNL     1      47.316  15.977  -5.365  1.00  0.00     0.078 A 
ATOM     10  C   UNL     1      46.134  16.571  -4.916  1.00  0.00     0.223 A 
ENDROOT
BRANCH   1  11
ATOM     11  C   UNL     1      44.221  16.592  -3.263  1.00  0.00     0.091 A 
ATOM     12  C   UNL     1      43.989  17.974  -3.354  1.00  0.00     0.068 A 
ATOM     13  C   UNL     1      42.808  18.533  -2.847  1.00  0.00     0.162 A 
ATOM     14  C   UNL     1      43.269  15.780  -2.622  1.00  0.00     0.068 A 
ATOM     15  C   UNL     1      41.855  17.715  -2.228  1.00  0.00     0.200 A 
ATOM     16  C   UNL     1      42.088  16.334  -2.111  1.00  0.00     0.162 A 
BRANCH  13  17
ATOM     17  O   UNL     1      42.577  19.903  -2.953  1.00  0.00    -0.504 OA
ATOM     18  H   UNL     1      41.665  20.271  -3.199  1.00  0.00     0.293 HD
ENDBRANCH  13  17
BRANCH  15  19
ATOM     19  O   UNL     1      40.684  18.289  -1.731  1.00  0.00    -0.502 OA
ATOM     20  H   UNL     1      40.087  18.876  -2.302  1.00  0.00     0.293 HD
ENDBRANCH  15  19
BRANCH  16  21
ATOM     21  O   UNL     1      41.147  15.519  -1.483  1.00  0.00    -0.504 OA
ATOM     22  H   UNL     1      40.786  14.684  -1.930  1.00  0.00     0.293 HD
ENDBRANCH  16  21
ENDBRANCH   1  11
BRANCH  10  23
ATOM     23  O   UNL     1      45.626  17.698  -5.563  1.00  0.00    -0.500 OA
ATOM     24  H   UNL     1      45.022  18.358  -5.087  1.00  0.00     0.294 HD
ENDBRANCH  10  23
BRANCH   5  25
ATOM     25  O   UNL     1      49.292  11.603  -2.459  1.00  0.00    -0.507 OA
ATOM     26  H   UNL     1      49.475  11.683  -1.464  1.00  0.00     0.293 HD
ENDBRANCH   5  25
BRANCH   7  27
ATOM     27  O   UNL     1      49.803  14.608  -6.189  1.00  0.00    -0.507 OA
ATOM     28  H   UNL     1      50.288  13.968  -6.800  1.00  0.00     0.293 HD
ENDBRANCH   7  27
TORSDOF 7
ENDMDL
MODEL 4
REMARK VINA RESULT:    -5.266      4.174      5.418
REMARK INTER + INTRA:          -6.863
REMARK INTER:                  -7.062
REMARK INTRA:                   0.199
REMARK UNBOUND:                -0.365
REMARK SMILES Oc1cc(O)c2cc(O)c(-c3cc(O)c(O)c(O)c3)[o+]c2c1
REMARK SMILES IDX 10 1 20 2 21 3 22 4 2 5 3 6 4 7 6 8 7 9 8 10 11 11 12 12
REMARK SMILES IDX 13 13 19 14 15 15 17 16 14 17 16 19 18 21 9 23 1 25 5 27
REMARK H PARENT 14 18 16 20 18 22 9 24 1 26 5 28
REMARK Flexibility Score: inf
ROOT
ATOM      1  C   UNL     1      45.501  16.052  -3.775  1.00  0.00     0.402 A 
ATOM      2  O   UNL     1      46.036  15.019  -3.132  1.00  0.00    -0.202 OA
ATOM      3  C   UNL     1      47.156  14.417  -3.521  1.00  0.00     0.368 A 
ATOM      4  C   UNL     1      47.639  13.335  -2.780  1.00  0.00     0.162 A 
ATOM      5  C   UNL     1      48.810  12.682  -3.167  1.00  0.00     0.128 A 
ATOM      6  C   UNL     1      49.504  13.111  -4.304  1.00  0.00     0.093 A 
ATOM      7  C   UNL     1      49.040  14.194  -5.063  1.00  0.00     0.136 A 
ATOM      8  C   UNL     1      47.851  14.861  -4.672  1.00  0.00     0.125 A 
ATOM      9  C   UNL     1      47.320  15.961  -5.363  1.00  0.00     0.078 A 
ATOM     10  C   UNL     1      46.145  16.572  -4.914  1.00  0.00     0.223 A 
ENDROOT
BRANCH   1  11
ATOM     11  C   UNL     1      44.244  16.631  -3.248  1.00  0.00     0.091 A 
ATOM     12  C   UNL     1      43.300  15.791  -2.639  1.00  0.00     0.068 A 
ATOM     13  C   UNL     1      42.094  16.311  -2.149  1.00  0.00     0.162 A 
ATOM     14  C   UNL     1      43.948  17.997  -3.397  1.00  0.00     0.068 A 
ATOM     15  C   UNL     1      41.814  17.676  -2.283  1.00  0.00     0.200 A 
ATOM     16  C   UNL     1      42.742  18.522  -2.913  1.00  0.00     0.162 A 
BRANCH  13  17
ATOM     17  O   UNL     1      41.167  15.474  -1.531  1.00  0.00    -0.504 OA
ATOM     18  H   UNL     1      41.096  15.412  -0.522  1.00  0.00     0.293 HD
ENDBRANCH  13  17
BRANCH  15  19
ATOM     19  O   UNL     1      40.609  18.176  -1.788  1.00  0.00    -0.502 OA
ATOM     20  H   UNL     1      40.220  19.057  -2.104  1.00  0.00     0.293 HD
ENDBRANCH  15  19
BRANCH  16  21
ATOM     21  O   UNL     1      42.461  19.880  -3.060  1.00  0.00    -0.504 OA
ATOM     22  H   UNL     1      43.078  20.498  -3.575  1.00  0.00     0.293 HD
ENDBRANCH  16  21
ENDBRANCH   1  11
BRANCH  10  23
ATOM     23  O   UNL     1      45.644  17.695  -5.571  1.00  0.00    -0.500 OA
ATOM     24  H   UNL     1      45.594  17.742  -6.583  1.00  0.00     0.294 HD
ENDBRANCH  10  23
BRANCH   5  25
ATOM     25  O   UNL     1      49.275  11.606  -2.415  1.00  0.00    -0.507 OA
ATOM     26  H   UNL     1      50.096  11.080  -2.695  1.00  0.00     0.293 HD
ENDBRANCH   5  25
BRANCH   7  27
ATOM     27  O   UNL     1      49.788  14.559  -6.186  1.00  0.00    -0.507 OA
ATOM     28  H   UNL     1      50.096  15.499  -6.386  1.00  0.00     0.293 HD
ENDBRANCH   7  27
TORSDOF 7
ENDMDL
MODEL 5
REMARK VINA RESULT:    -5.238      3.881      7.760
REMARK INTER + INTRA:          -6.828
REMARK INTER:                  -7.094
REMARK INTRA:                   0.266
REMARK UNBOUND:                -0.365
REMARK SMILES Oc1cc(O)c2cc(O)c(-c3cc(O)c(O)c(O)c3)[o+]c2c1
REMARK SMILES IDX 10 1 20 2 21 3 22 4 2 5 3 6 4 7 6 8 7 9 8 10 11 11 12 12
REMARK SMILES IDX 13 13 19 14 15 15 17 16 14 17 16 19 18 21 9 23 1 25 5 27
REMARK H PARENT 14 18 16 20 18 22 9 24 1 26 5 28
REMARK Flexibility Score: inf
ROOT
ATOM      1  C   UNL     1      46.587  16.637  -5.000  1.00  0.00     0.402 A 
ATOM      2  O   UNL     1      45.803  16.218  -4.012  1.00  0.00    -0.202 OA
ATOM      3  C   UNL     1      44.566  16.668  -3.821  1.00  0.00     0.368 A 
ATOM      4  C   UNL     1      43.820  16.169  -2.750  1.00  0.00     0.162 A 
ATOM      5  C   UNL     1      42.520  16.626  -2.523  1.00  0.00     0.128 A 
ATOM      6  C   UNL     1      41.962  17.588  -3.371  1.00  0.00     0.093 A 
ATOM      7  C   UNL     1      42.690  18.104  -4.451  1.00  0.00     0.136 A 
ATOM      8  C   UNL     1      44.010  17.641  -4.686  1.00  0.00     0.125 A 
ATOM      9  C   UNL     1      44.809  18.090  -5.750  1.00  0.00     0.078 A 
ATOM     10  C   UNL     1      46.100  17.583  -5.922  1.00  0.00     0.223 A 
ENDROOT
BRANCH   1  11
ATOM     11  C   UNL     1      47.950  16.067  -5.103  1.00  0.00     0.091 A 
ATOM     12  C   UNL     1      48.248  14.868  -4.438  1.00  0.00     0.068 A 
ATOM     13  C   UNL     1      49.536  14.317  -4.503  1.00  0.00     0.162 A 
ATOM     14  C   UNL     1      48.971  16.731  -5.805  1.00  0.00     0.068 A 
ATOM     15  C   UNL     1      50.542  14.974  -5.221  1.00  0.00     0.200 A 
ATOM     16  C   UNL     1      50.261  16.188  -5.871  1.00  0.00     0.162 A 
BRANCH  13  17
ATOM     17  O   UNL     1      49.821  13.119  -3.854  1.00  0.00    -0.504 OA
ATOM     18  H   UNL     1      50.041  13.089  -2.865  1.00  0.00     0.293 HD
ENDBRANCH  13  17
BRANCH  15  19
ATOM     19  O   UNL     1      51.818  14.411  -5.277  1.00  0.00    -0.502 OA
ATOM     20  H   UNL     1      51.966  13.409  -5.265  1.00  0.00     0.293 HD
ENDBRANCH  15  19
BRANCH  16  21
ATOM     21  O   UNL     1      51.265  16.851  -6.575  1.00  0.00    -0.504 OA
ATOM     22  H   UNL     1      52.201  16.948  -6.200  1.00  0.00     0.293 HD
ENDBRANCH  16  21
ENDBRANCH   1  11
BRANCH  10  23
ATOM     23  O   UNL     1      46.875  17.993  -7.006  1.00  0.00    -0.500 OA
ATOM     24  H   UNL     1      47.136  17.351  -7.747  1.00  0.00     0.294 HD
ENDBRANCH  10  23
BRANCH   5  25
ATOM     25  O   UNL     1      41.792  16.116  -1.451  1.00  0.00    -0.507 OA
ATOM     26  H   UNL     1      42.207  16.013  -0.531  1.00  0.00     0.293 HD
ENDBRANCH   5  25
BRANCH   7  27
ATOM     27  O   UNL     1      42.063  19.065  -5.250  1.00  0.00    -0.507 OA
ATOM     28  H   UNL     1      42.486  19.502  -6.055  1.00  0.00     0.293 HD
ENDBRANCH   7  27
TORSDOF 7
ENDMDL
MODEL 6
REMARK VINA RESULT:    -5.215      3.534      4.517
REMARK INTER + INTRA:          -6.800
REMARK INTER:                  -6.488
REMARK INTRA:                  -0.312
REMARK UNBOUND:                -0.365
REMARK SMILES Oc1cc(O)c2cc(O)c(-c3cc(O)c(O)c(O)c3)[o+]c2c1
REMARK SMILES IDX 10 1 20 2 21 3 22 4 2 5 3 6 4 7 6 8 7 9 8 10 11 11 12 12
REMARK SMILES IDX 13 13 19 14 15 15 17 16 14 17 16 19 18 21 9 23 1 25 5 27
REMARK H PARENT 14 18 16 20 18 22 9 24 1 26 5 28
REMARK Flexibility Score: inf
ROOT
ATOM      1  C   UNL     1      45.609  16.202  -4.466  1.00  0.00     0.402 A 
ATOM      2  O   UNL     1      46.632  15.405  -4.170  1.00  0.00    -0.202 OA
ATOM      3  C   UNL     1      47.842  15.543  -4.704  1.00  0.00     0.368 A 
ATOM      4  C   UNL     1      48.853  14.653  -4.333  1.00  0.00     0.162 A 
ATOM      5  C   UNL     1      50.132  14.771  -4.879  1.00  0.00     0.128 A 
ATOM      6  C   UNL     1      50.404  15.785  -5.804  1.00  0.00     0.093 A 
ATOM      7  C   UNL     1      49.406  16.689  -6.193  1.00  0.00     0.136 A 
ATOM      8  C   UNL     1      48.106  16.573  -5.638  1.00  0.00     0.125 A 
ATOM      9  C   UNL     1      47.049  17.441  -5.958  1.00  0.00     0.078 A 
ATOM     10  C   UNL     1      45.795  17.268  -5.366  1.00  0.00     0.223 A 
ENDROOT
BRANCH   1  11
ATOM     11  C   UNL     1      44.306  15.941  -3.813  1.00  0.00     0.091 A 
ATOM     12  C   UNL     1      43.502  14.888  -4.274  1.00  0.00     0.068 A 
ATOM     13  C   UNL     1      42.255  14.632  -3.686  1.00  0.00     0.162 A 
ATOM     14  C   UNL     1      43.828  16.762  -2.777  1.00  0.00     0.068 A 
ATOM     15  C   UNL     1      41.794  15.442  -2.641  1.00  0.00     0.200 A 
ATOM     16  C   UNL     1      42.582  16.514  -2.187  1.00  0.00     0.162 A 
BRANCH  13  17
ATOM     17  O   UNL     1      41.468  13.575  -4.139  1.00  0.00    -0.504 OA
ATOM     18  H   UNL     1      41.807  12.620  -4.137  1.00  0.00     0.293 HD
ENDBRANCH  13  17
BRANCH  15  19
ATOM     19  O   UNL     1      40.552  15.171  -2.066  1.00  0.00    -0.502 OA
ATOM     20  H   UNL     1      40.158  14.238  -2.049  1.00  0.00     0.293 HD
ENDBRANCH  15  19
BRANCH  16  21
ATOM     21  O   UNL     1      42.120  17.330  -1.155  1.00  0.00    -0.504 OA
ATOM     22  H   UNL     1      41.712  18.240  -1.341  1.00  0.00     0.293 HD
ENDBRANCH  16  21
ENDBRANCH   1  11
BRANCH  10  23
ATOM     23  O   UNL     1      44.759  18.159  -5.646  1.00  0.00    -0.500 OA
ATOM     24  H   UNL     1      43.983  17.901  -6.245  1.00  0.00     0.294 HD
ENDBRANCH  10  23
BRANCH   5  25
ATOM     25  O   UNL     1      51.127  13.875  -4.496  1.00  0.00    -0.507 OA
ATOM     26  H   UNL     1      51.798  13.511  -5.163  1.00  0.00     0.293 HD
ENDBRANCH   5  25
BRANCH   7  27
ATOM     27  O   UNL     1      49.756  17.671  -7.125  1.00  0.00    -0.507 OA
ATOM     28  H   UNL     1      50.582  18.247  -7.064  1.00  0.00     0.293 HD
ENDBRANCH   7  27
TORSDOF 7
ENDMDL
MODEL 7
REMARK VINA RESULT:    -5.203      3.024      4.531
REMARK INTER + INTRA:          -6.786
REMARK INTER:                  -6.443
REMARK INTRA:                  -0.343
REMARK UNBOUND:                -0.365
REMARK SMILES Oc1cc(O)c2cc(O)c(-c3cc(O)c(O)c(O)c3)[o+]c2c1
REMARK SMILES IDX 10 1 20 2 21 3 22 4 2 5 3 6 4 7 6 8 7 9 8 10 11 11 12 12
REMARK SMILES IDX 13 13 19 14 15 15 17 16 14 17 16 19 18 21 9 23 1 25 5 27
REMARK H PARENT 14 18 16 20 18 22 9 24 1 26 5 28
REMARK Flexibility Score: inf
ROOT
ATOM      1  C   UNL     1      46.132  15.024  -3.890  1.00  0.00     0.402 A 
ATOM      2  O   UNL     1      46.668  15.930  -4.701  1.00  0.00    -0.202 OA
ATOM      3  C   UNL     1      47.953  15.938  -5.041  1.00  0.00     0.368 A 
ATOM      4  C   UNL     1      48.424  16.936  -5.898  1.00  0.00     0.162 A 
ATOM      5  C   UNL     1      49.769  16.971  -6.268  1.00  0.00     0.128 A 
ATOM      6  C   UNL     1      50.652  16.003  -5.778  1.00  0.00     0.093 A 
ATOM      7  C   UNL     1      50.205  14.993  -4.916  1.00  0.00     0.136 A 
ATOM      8  C   UNL     1      48.838  14.953  -4.540  1.00  0.00     0.125 A 
ATOM      9  C   UNL     1      48.298  13.971  -3.693  1.00  0.00     0.078 A 
ATOM     10  C   UNL     1      46.938  13.993  -3.370  1.00  0.00     0.223 A 
ENDROOT
BRANCH   1  11
ATOM     11  C   UNL     1      44.688  15.126  -3.579  1.00  0.00     0.091 A 
ATOM     12  C   UNL     1      43.775  14.313  -4.268  1.00  0.00     0.068 A 
ATOM     13  C   UNL     1      42.401  14.404  -4.007  1.00  0.00     0.162 A 
ATOM     14  C   UNL     1      44.203  16.062  -2.650  1.00  0.00     0.068 A 
ATOM     15  C   UNL     1      41.927  15.325  -3.065  1.00  0.00     0.200 A 
ATOM     16  C   UNL     1      42.830  16.160  -2.386  1.00  0.00     0.162 A 
BRANCH  13  17
ATOM     17  O   UNL     1      41.501  13.583  -4.683  1.00  0.00    -0.504 OA
ATOM     18  H   UNL     1      41.629  13.345  -5.660  1.00  0.00     0.293 HD
ENDBRANCH  13  17
BRANCH  15  19
ATOM     19  O   UNL     1      40.556  15.400  -2.816  1.00  0.00    -0.502 OA
ATOM     20  H   UNL     1      40.177  15.923  -2.036  1.00  0.00     0.293 HD
ENDBRANCH  15  19
BRANCH  16  21
ATOM     21  O   UNL     1      42.360  17.087  -1.457  1.00  0.00    -0.504 OA
ATOM     22  H   UNL     1      42.191  16.832  -0.491  1.00  0.00     0.293 HD
ENDBRANCH  16  21
ENDBRANCH   1  11
BRANCH  10  23
ATOM     23  O   UNL     1      46.392  12.990  -2.569  1.00  0.00    -0.500 OA
ATOM     24  H   UNL     1      46.621  12.912  -1.584  1.00  0.00     0.294 HD
ENDBRANCH  10  23
BRANCH   5  25
ATOM     25  O   UNL     1      50.218  17.974  -7.125  1.00  0.00    -0.507 OA
ATOM     26  H   UNL     1      50.164  18.953  -6.868  1.00  0.00     0.293 HD
ENDBRANCH   5  25
BRANCH   7  27
ATOM     27  O   UNL     1      51.149  14.066  -4.467  1.00  0.00    -0.507 OA
ATOM     28  H   UNL     1      51.861  14.264  -3.779  1.00  0.00     0.293 HD
ENDBRANCH   7  27
TORSDOF 7
ENDMDL
MODEL 8
REMARK VINA RESULT:    -5.134      3.816      5.338
REMARK INTER + INTRA:          -6.700
REMARK INTER:                  -6.656
REMARK INTRA:                  -0.044
REMARK UNBOUND:                -0.365
REMARK SMILES Oc1cc(O)c2cc(O)c(-c3cc(O)c(O)c(O)c3)[o+]c2c1
REMARK SMILES IDX 10 1 20 2 21 3 22 4 2 5 3 6 4 7 6 8 7 9 8 10 11 11 12 12
REMARK SMILES IDX 13 13 19 14 15 15 17 16 14 17 16 19 18 21 9 23 1 25 5 27
REMARK H PARENT 14 18 16 20 18 22 9 24 1 26 5 28
REMARK Flexibility Score: inf
ROOT
ATOM      1  C   UNL     1      46.053  15.591  -3.925  1.00  0.00     0.402 A 
ATOM      2  O   UNL     1      47.166  16.120  -4.426  1.00  0.00    -0.202 OA
ATOM      3  C   UNL     1      48.305  15.445  -4.546  1.00  0.00     0.368 A 
ATOM      4  C   UNL     1      49.423  16.089  -5.081  1.00  0.00     0.162 A 
ATOM      5  C   UNL     1      50.633  15.406  -5.215  1.00  0.00     0.128 A 
ATOM      6  C   UNL     1      50.728  14.070  -4.810  1.00  0.00     0.093 A 
ATOM      7  C   UNL     1      49.621  13.403  -4.270  1.00  0.00     0.136 A 
ATOM      8  C   UNL     1      48.389  14.093  -4.134  1.00  0.00     0.125 A 
ATOM      9  C   UNL     1      47.226  13.501  -3.616  1.00  0.00     0.078 A 
ATOM     10  C   UNL     1      46.045  14.244  -3.518  1.00  0.00     0.223 A 
ENDROOT
BRANCH   1  11
ATOM     11  C   UNL     1      44.849  16.448  -3.835  1.00  0.00     0.091 A 
ATOM     12  C   UNL     1      44.517  17.287  -4.909  1.00  0.00     0.068 A 
ATOM     13  C   UNL     1      43.394  18.123  -4.841  1.00  0.00     0.162 A 
ATOM     14  C   UNL     1      44.061  16.484  -2.671  1.00  0.00     0.068 A 
ATOM     15  C   UNL     1      42.602  18.138  -3.687  1.00  0.00     0.200 A 
ATOM     16  C   UNL     1      42.938  17.319  -2.596  1.00  0.00     0.162 A 
BRANCH  13  17
ATOM     17  O   UNL     1      43.061  18.942  -5.918  1.00  0.00    -0.504 OA
ATOM     18  H   UNL     1      43.097  19.953  -5.848  1.00  0.00     0.293 HD
ENDBRANCH  13  17
BRANCH  15  19
ATOM     19  O   UNL     1      41.486  18.974  -3.638  1.00  0.00    -0.502 OA
ATOM     20  H   UNL     1      41.467  19.816  -3.075  1.00  0.00     0.293 HD
ENDBRANCH  15  19
BRANCH  16  21
ATOM     21  O   UNL     1      42.159  17.343  -1.440  1.00  0.00    -0.504 OA
ATOM     22  H   UNL     1      41.742  16.498  -1.064  1.00  0.00     0.293 HD
ENDBRANCH  16  21
ENDBRANCH   1  11
BRANCH  10  23
ATOM     23  O   UNL     1      44.877  13.643  -3.050  1.00  0.00    -0.500 OA
ATOM     24  H   UNL     1      43.962  13.925  -3.385  1.00  0.00     0.294 HD
ENDBRANCH  10  23
BRANCH   5  25
ATOM     25  O   UNL     1      51.736  16.066  -5.752  1.00  0.00    -0.507 OA
ATOM     26  H   UNL     1      52.050  16.958  -5.386  1.00  0.00     0.293 HD
ENDBRANCH   5  25
BRANCH   7  27
ATOM     27  O   UNL     1      49.798  12.070  -3.886  1.00  0.00    -0.507 OA
ATOM     28  H   UNL     1      50.593  11.504  -4.141  1.00  0.00     0.293 HD
ENDBRANCH   7  27
TORSDOF 7
ENDMDL
MODEL 9
REMARK VINA RESULT:    -4.999      3.107      8.108
REMARK INTER + INTRA:          -6.533
REMARK INTER:                  -6.192
REMARK INTRA:                  -0.342
REMARK UNBOUND:                -0.365
REMARK SMILES Oc1cc(O)c2cc(O)c(-c3cc(O)c(O)c(O)c3)[o+]c2c1
REMARK SMILES IDX 10 1 20 2 21 3 22 4 2 5 3 6 4 7 6 8 7 9 8 10 11 11 12 12
REMARK SMILES IDX 13 13 19 14 15 15 17 16 14 17 16 19 18 21 9 23 1 25 5 27
REMARK H PARENT 14 18 16 20 18 22 9 24 1 26 5 28
REMARK Flexibility Score: inf
ROOT
ATOM      1  C   UNL     1      46.468  15.360  -4.939  1.00  0.00     0.402 A 
ATOM      2  O   UNL     1      45.857  16.052  -3.982  1.00  0.00    -0.202 OA
ATOM      3  C   UNL     1      44.574  15.892  -3.671  1.00  0.00     0.368 A 
ATOM      4  C   UNL     1      44.020  16.669  -2.651  1.00  0.00     0.162 A 
ATOM      5  C   UNL     1      42.675  16.525  -2.306  1.00  0.00     0.128 A 
ATOM      6  C   UNL     1      41.877  15.598  -2.986  1.00  0.00     0.093 A 
ATOM      7  C   UNL     1      42.409  14.808  -4.013  1.00  0.00     0.136 A 
ATOM      8  C   UNL     1      43.776  14.950  -4.365  1.00  0.00     0.125 A 
ATOM      9  C   UNL     1      44.397  14.192  -5.370  1.00  0.00     0.078 A 
ATOM     10  C   UNL     1      45.752  14.385  -5.658  1.00  0.00     0.223 A 
ENDROOT
BRANCH   1  11
ATOM     11  C   UNL     1      47.900  15.636  -5.198  1.00  0.00     0.091 A 
ATOM     12  C   UNL     1      48.258  16.739  -5.987  1.00  0.00     0.068 A 
ATOM     13  C   UNL     1      49.605  17.011  -6.264  1.00  0.00     0.162 A 
ATOM     14  C   UNL     1      48.908  14.783  -4.718  1.00  0.00     0.068 A 
ATOM     15  C   UNL     1      50.605  16.169  -5.766  1.00  0.00     0.200 A 
ATOM     16  C   UNL     1      50.257  15.048  -4.994  1.00  0.00     0.162 A 
BRANCH  13  17
ATOM     17  O   UNL     1      49.954  18.117  -7.036  1.00  0.00    -0.504 OA
ATOM     18  H   UNL     1      49.999  19.049  -6.641  1.00  0.00     0.293 HD
ENDBRANCH  13  17
BRANCH  15  19
ATOM     19  O   UNL     1      51.941  16.456  -6.050  1.00  0.00    -0.502 OA
ATOM     20  H   UNL     1      52.221  16.946  -6.891  1.00  0.00     0.293 HD
ENDBRANCH  15  19
BRANCH  16  21
ATOM     21  O   UNL     1      51.251  14.199  -4.507  1.00  0.00    -0.504 OA
ATOM     22  H   UNL     1      51.226  13.842  -3.559  1.00  0.00     0.293 HD
ENDBRANCH  16  21
ENDBRANCH   1  11
BRANCH  10  23
ATOM     23  O   UNL     1      46.382  13.598  -6.622  1.00  0.00    -0.500 OA
ATOM     24  H   UNL     1      46.163  12.615  -6.733  1.00  0.00     0.294 HD
ENDBRANCH  10  23
BRANCH   5  25
ATOM     25  O   UNL     1      42.141  17.308  -1.285  1.00  0.00    -0.507 OA
ATOM     26  H   UNL     1      42.416  18.277  -1.162  1.00  0.00     0.293 HD
ENDBRANCH   5  25
BRANCH   7  27
ATOM     27  O   UNL     1      41.546  13.909  -4.646  1.00  0.00    -0.507 OA
ATOM     28  H   UNL     1      40.653  13.618  -4.276  1.00  0.00     0.293 HD
ENDBRANCH   7  27
TORSDOF 7
ENDMDL
