MODEL 1
REMARK VINA RESULT:    -6.376      0.000      0.000
REMARK INTER + INTRA:         -17.191
REMARK INTER:                 -14.577
REMARK INTRA:                  -2.614
REMARK UNBOUND:                -2.614
REMARK SMILES CCCCCCCCCCCCCCCCCCCCCCCC(=O)[O-]
REMARK SMILES IDX 13 1 14 2 15 3 16 4 17 5 18 6 19 7 20 8 21 9 22 10 23 11
REMARK SMILES IDX 24 12 25 13 26 14 12 15 11 16 10 17 9 18 8 19 7 20 6 21 5 22
REMARK SMILES IDX 4 23 3 24 2 25 1 26
REMARK H PARENT
REMARK Flexibility Score: inf
ROOT
ATOM      1  C   UNL     1       1.979   5.084  18.148  1.00  0.00     0.000 C 
ENDROOT
BRANCH   1   2
ATOM      2  C   UNL     1       2.613   4.565  19.450  1.00  0.00     0.000 C 
BRANCH   2   3
ATOM      3  C   UNL     1       2.586   3.033  19.620  1.00  0.00     0.000 C 
BRANCH   3   4
ATOM      4  C   UNL     1       3.455   2.245  18.618  1.00  0.00     0.000 C 
BRANCH   4   5
ATOM      5  C   UNL     1       4.194   1.034  19.215  1.00  0.00     0.000 C 
BRANCH   5   6
ATOM      6  C   UNL     1       5.245   0.446  18.258  1.00  0.00     0.000 C 
BRANCH   6   7
ATOM      7  C   UNL     1       4.904  -0.983  17.803  1.00  0.00     0.000 C 
BRANCH   7   8
ATOM      8  C   UNL     1       5.198  -1.279  16.319  1.00  0.00     0.000 C 
BRANCH   8   9
ATOM      9  C   UNL     1       5.137  -0.055  15.383  1.00  0.00     0.000 C 
BRANCH   9  10
ATOM     10  C   UNL     1       3.995  -0.081  14.348  1.00  0.00     0.006 C 
BRANCH  10  11
ATOM     11  C   UNL     1       2.714   0.639  14.798  1.00  0.00     0.053 C 
BRANCH  11  12
ATOM     12  C   UNL     1       1.540  -0.288  14.855  1.00  0.00     0.041 C 
ATOM     13  O   UNL     1       0.368   0.168  14.770  1.00  0.00    -0.550 OA
ATOM     14  O   UNL     1       1.736  -1.653  15.028  1.00  0.00    -0.550 OA
ENDBRANCH  11  12
ENDBRANCH  10  11
ENDBRANCH   9  10
ENDBRANCH   8   9
ENDBRANCH   7   8
ENDBRANCH   6   7
ENDBRANCH   5   6
ENDBRANCH   4   5
ENDBRANCH   3   4
ENDBRANCH   2   3
ENDBRANCH   1   2
BRANCH   1  15
ATOM     15  C   UNL     1       3.011   5.289  17.026  1.00  0.00     0.000 C 
BRANCH  15  16
ATOM     16  C   UNL     1       2.855   4.268  15.887  1.00  0.00     0.000 C 
BRANCH  16  17
ATOM     17  C   UNL     1       4.166   4.047  15.111  1.00  0.00     0.000 C 
BRANCH  17  18
ATOM     18  C   UNL     1       3.956   4.023  13.589  1.00  0.00    -0.000 C 
BRANCH  18  19
ATOM     19  C   UNL     1       4.416   5.319  12.905  1.00  0.00    -0.000 C 
BRANCH  19  20
ATOM     20  C   UNL     1       5.264   6.172  13.860  1.00  0.00    -0.000 C 
BRANCH  20  21
ATOM     21  C   UNL     1       5.358   7.648  13.427  1.00  0.00    -0.000 C 
BRANCH  21  22
ATOM     22  C   UNL     1       4.926   8.668  14.496  1.00  0.00    -0.000 C 
BRANCH  22  23
ATOM     23  C   UNL     1       4.712   8.031  15.880  1.00  0.00    -0.000 C 
BRANCH  23  24
ATOM     24  C   UNL     1       4.278   9.051  16.947  1.00  0.00    -0.000 C 
BRANCH  24  25
ATOM     25  C   UNL     1       2.919   8.753  17.606  1.00  0.00    -0.003 C 
ATOM     26  C   UNL     1       2.690   9.546  18.893  1.00  0.00     0.004 C 
ENDBRANCH  24  25
ENDBRANCH  23  24
ENDBRANCH  22  23
ENDBRANCH  21  22
ENDBRANCH  20  21
ENDBRANCH  19  20
ENDBRANCH  18  19
ENDBRANCH  17  18
ENDBRANCH  16  17
ENDBRANCH  15  16
ENDBRANCH   1  15
TORSDOF 22
ENDMDL
MODEL 2
REMARK VINA RESULT:    -6.373      2.898      7.601
REMARK INTER + INTRA:         -17.184
REMARK INTER:                 -14.690
REMARK INTRA:                  -2.494
REMARK UNBOUND:                -2.614
REMARK SMILES CCCCCCCCCCCCCCCCCCCCCCCC(=O)[O-]
REMARK SMILES IDX 13 1 14 2 15 3 16 4 17 5 18 6 19 7 20 8 21 9 22 10 23 11
REMARK SMILES IDX 24 12 25 13 26 14 12 15 11 16 10 17 9 18 8 19 7 20 6 21 5 22
REMARK SMILES IDX 4 23 3 24 2 25 1 26
REMARK H PARENT
REMARK Flexibility Score: inf
ROOT
ATOM      1  C   UNL     1       3.055   4.258  16.256  1.00  0.00     0.000 C 
ENDROOT
BRANCH   1   2
ATOM      2  C   UNL     1       3.177   3.036  17.185  1.00  0.00     0.000 C 
BRANCH   2   3
ATOM      3  C   UNL     1       3.014   3.345  18.687  1.00  0.00     0.000 C 
BRANCH   3   4
ATOM      4  C   UNL     1       1.858   4.302  19.039  1.00  0.00     0.000 C 
BRANCH   4   5
ATOM      5  C   UNL     1       2.295   5.659  19.620  1.00  0.00     0.000 C 
BRANCH   5   6
ATOM      6  C   UNL     1       2.146   6.814  18.615  1.00  0.00     0.000 C 
BRANCH   6   7
ATOM      7  C   UNL     1       2.193   8.198  19.286  1.00  0.00     0.000 C 
BRANCH   7   8
ATOM      8  C   UNL     1       2.922   9.287  18.475  1.00  0.00     0.000 C 
BRANCH   8   9
ATOM      9  C   UNL     1       3.135   8.961  16.983  1.00  0.00     0.000 C 
BRANCH   9  10
ATOM     10  C   UNL     1       4.605   8.774  16.559  1.00  0.00     0.006 C 
BRANCH  10  11
ATOM     11  C   UNL     1       4.858   7.545  15.673  1.00  0.00     0.053 C 
BRANCH  11  12
ATOM     12  C   UNL     1       5.320   7.928  14.300  1.00  0.00     0.041 C 
ATOM     13  O   UNL     1       5.939   7.096  13.585  1.00  0.00    -0.550 OA
ATOM     14  O   UNL     1       5.091   9.212  13.821  1.00  0.00    -0.550 OA
ENDBRANCH  11  12
ENDBRANCH  10  11
ENDBRANCH   9  10
ENDBRANCH   8   9
ENDBRANCH   7   8
ENDBRANCH   6   7
ENDBRANCH   5   6
ENDBRANCH   4   5
ENDBRANCH   3   4
ENDBRANCH   2   3
ENDBRANCH   1   2
BRANCH   1  15
ATOM     15  C   UNL     1       2.848   3.864  14.784  1.00  0.00     0.000 C 
BRANCH  15  16
ATOM     16  C   UNL     1       4.100   4.114  13.926  1.00  0.00     0.000 C 
BRANCH  16  17
ATOM     17  C   UNL     1       4.540   2.859  13.150  1.00  0.00     0.000 C 
BRANCH  17  18
ATOM     18  C   UNL     1       4.727   1.635  14.061  1.00  0.00    -0.000 C 
BRANCH  18  19
ATOM     19  C   UNL     1       3.772   0.484  13.712  1.00  0.00    -0.000 C 
BRANCH  19  20
ATOM     20  C   UNL     1       2.840   0.167  14.891  1.00  0.00    -0.000 C 
BRANCH  20  21
ATOM     21  C   UNL     1       3.011  -1.268  15.425  1.00  0.00    -0.000 C 
BRANCH  21  22
ATOM     22  C   UNL     1       4.465  -1.770  15.484  1.00  0.00    -0.000 C 
BRANCH  22  23
ATOM     23  C   UNL     1       5.120  -1.552  16.859  1.00  0.00    -0.000 C 
BRANCH  23  24
ATOM     24  C   UNL     1       4.853  -0.148  17.432  1.00  0.00    -0.000 C 
BRANCH  24  25
ATOM     25  C   UNL     1       4.904  -0.059  18.968  1.00  0.00    -0.003 C 
ATOM     26  C   UNL     1       6.072  -0.836  19.575  1.00  0.00     0.004 C 
ENDBRANCH  24  25
ENDBRANCH  23  24
ENDBRANCH  22  23
ENDBRANCH  21  22
ENDBRANCH  20  21
ENDBRANCH  19  20
ENDBRANCH  18  19
ENDBRANCH  17  18
ENDBRANCH  16  17
ENDBRANCH  15  16
ENDBRANCH   1  15
TORSDOF 22
ENDMDL
MODEL 3
REMARK VINA RESULT:    -6.250      3.094      7.828
REMARK INTER + INTRA:         -16.901
REMARK INTER:                 -13.700
REMARK INTRA:                  -3.201
REMARK UNBOUND:                -2.614
REMARK SMILES CCCCCCCCCCCCCCCCCCCCCCCC(=O)[O-]
REMARK SMILES IDX 13 1 14 2 15 3 16 4 17 5 18 6 19 7 20 8 21 9 22 10 23 11
REMARK SMILES IDX 24 12 25 13 26 14 12 15 11 16 10 17 9 18 8 19 7 20 6 21 5 22
REMARK SMILES IDX 4 23 3 24 2 25 1 26
REMARK H PARENT
REMARK Flexibility Score: inf
ROOT
ATOM      1  C   UNL     1       2.648   5.156  17.200  1.00  0.00     0.000 C 
ENDROOT
BRANCH   1   2
ATOM      2  C   UNL     1       2.909   4.053  16.159  1.00  0.00     0.000 C 
BRANCH   2   3
ATOM      3  C   UNL     1       4.180   4.253  15.308  1.00  0.00     0.000 C 
BRANCH   3   4
ATOM      4  C   UNL     1       3.931   4.549  13.816  1.00  0.00     0.000 C 
BRANCH   4   5
ATOM      5  C   UNL     1       5.101   5.236  13.088  1.00  0.00     0.000 C 
BRANCH   5   6
ATOM      6  C   UNL     1       4.958   6.766  13.042  1.00  0.00     0.000 C 
BRANCH   6   7
ATOM      7  C   UNL     1       6.114   7.495  13.751  1.00  0.00     0.000 C 
BRANCH   7   8
ATOM      8  C   UNL     1       5.985   7.576  15.285  1.00  0.00     0.000 C 
BRANCH   8   9
ATOM      9  C   UNL     1       4.544   7.723  15.815  1.00  0.00     0.000 C 
BRANCH   9  10
ATOM     10  C   UNL     1       4.362   8.773  16.929  1.00  0.00     0.006 C 
BRANCH  10  11
ATOM     11  C   UNL     1       2.911   8.953  17.401  1.00  0.00     0.053 C 
BRANCH  11  12
ATOM     12  C   UNL     1       2.833   9.304  18.854  1.00  0.00     0.041 C 
ATOM     13  O   UNL     1       1.994   8.732  19.600  1.00  0.00    -0.550 OA
ATOM     14  O   UNL     1       3.668  10.282  19.382  1.00  0.00    -0.550 OA
ENDBRANCH  11  12
ENDBRANCH  10  11
ENDBRANCH   9  10
ENDBRANCH   8   9
ENDBRANCH   7   8
ENDBRANCH   6   7
ENDBRANCH   5   6
ENDBRANCH   4   5
ENDBRANCH   3   4
ENDBRANCH   2   3
ENDBRANCH   1   2
BRANCH   1  15
ATOM     15  C   UNL     1       2.358   4.591  18.602  1.00  0.00     0.000 C 
BRANCH  15  16
ATOM     16  C   UNL     1       2.390   3.054  18.635  1.00  0.00     0.000 C 
BRANCH  16  17
ATOM     17  C   UNL     1       3.700   2.507  19.229  1.00  0.00     0.000 C 
BRANCH  17  18
ATOM     18  C   UNL     1       3.994   1.065  18.786  1.00  0.00    -0.000 C 
BRANCH  18  19
ATOM     19  C   UNL     1       4.748   0.997  17.449  1.00  0.00    -0.000 C 
BRANCH  19  20
ATOM     20  C   UNL     1       4.965  -0.461  17.015  1.00  0.00    -0.000 C 
BRANCH  20  21
ATOM     21  C   UNL     1       5.423  -0.592  15.550  1.00  0.00    -0.000 C 
BRANCH  21  22
ATOM     22  C   UNL     1       5.387   0.716  14.739  1.00  0.00    -0.000 C 
BRANCH  22  23
ATOM     23  C   UNL     1       4.117   0.855  13.882  1.00  0.00    -0.000 C 
BRANCH  23  24
ATOM     24  C   UNL     1       3.322  -0.458  13.775  1.00  0.00    -0.000 C 
BRANCH  24  25
ATOM     25  C   UNL     1       1.913  -0.408  14.392  1.00  0.00    -0.003 C 
ATOM     26  C   UNL     1       1.664   0.854  15.218  1.00  0.00     0.004 C 
ENDBRANCH  24  25
ENDBRANCH  23  24
ENDBRANCH  22  23
ENDBRANCH  21  22
ENDBRANCH  20  21
ENDBRANCH  19  20
ENDBRANCH  18  19
ENDBRANCH  17  18
ENDBRANCH  16  17
ENDBRANCH  15  16
ENDBRANCH   1  15
TORSDOF 22
ENDMDL
MODEL 4
REMARK VINA RESULT:    -6.231      1.990      4.690
REMARK INTER + INTRA:         -16.857
REMARK INTER:                 -14.269
REMARK INTRA:                  -2.588
REMARK UNBOUND:                -2.614
REMARK SMILES CCCCCCCCCCCCCCCCCCCCCCCC(=O)[O-]
REMARK SMILES IDX 13 1 14 2 15 3 16 4 17 5 18 6 19 7 20 8 21 9 22 10 23 11
REMARK SMILES IDX 24 12 25 13 26 14 12 15 11 16 10 17 9 18 8 19 7 20 6 21 5 22
REMARK SMILES IDX 4 23 3 24 2 25 1 26
REMARK H PARENT
REMARK Flexibility Score: inf
ROOT
ATOM      1  C   UNL     1       2.844   2.909  16.928  1.00  0.00     0.000 C 
ENDROOT
BRANCH   1   2
ATOM      2  C   UNL     1       3.342   4.116  16.112  1.00  0.00     0.000 C 
BRANCH   2   3
ATOM      3  C   UNL     1       3.045   4.045  14.601  1.00  0.00     0.000 C 
BRANCH   3   4
ATOM      4  C   UNL     1       4.250   4.325  13.681  1.00  0.00     0.000 C 
BRANCH   4   5
ATOM      5  C   UNL     1       4.785   3.096  12.924  1.00  0.00     0.000 C 
BRANCH   5   6
ATOM      6  C   UNL     1       4.481   1.773  13.646  1.00  0.00     0.000 C 
BRANCH   6   7
ATOM      7  C   UNL     1       5.751   1.065  14.153  1.00  0.00     0.000 C 
BRANCH   7   8
ATOM      8  C   UNL     1       5.566  -0.425  14.504  1.00  0.00     0.000 C 
BRANCH   8   9
ATOM      9  C   UNL     1       4.175  -0.801  15.053  1.00  0.00     0.000 C 
BRANCH   9  10
ATOM     10  C   UNL     1       4.110  -1.008  16.579  1.00  0.00     0.006 C 
BRANCH  10  11
ATOM     11  C   UNL     1       5.468  -1.286  17.240  1.00  0.00     0.053 C 
BRANCH  11  12
ATOM     12  C   UNL     1       5.468  -0.929  18.695  1.00  0.00     0.041 C 
ATOM     13  O   UNL     1       4.511  -0.272  19.185  1.00  0.00    -0.550 OA
ATOM     14  O   UNL     1       6.536  -1.297  19.504  1.00  0.00    -0.550 OA
ENDBRANCH  11  12
ENDBRANCH  10  11
ENDBRANCH   9  10
ENDBRANCH   8   9
ENDBRANCH   7   8
ENDBRANCH   6   7
ENDBRANCH   5   6
ENDBRANCH   4   5
ENDBRANCH   3   4
ENDBRANCH   2   3
ENDBRANCH   1   2
BRANCH   1  15
ATOM     15  C   UNL     1       3.498   2.822  18.317  1.00  0.00     0.000 C 
BRANCH  15  16
ATOM     16  C   UNL     1       2.483   3.006  19.458  1.00  0.00     0.000 C 
BRANCH  16  17
ATOM     17  C   UNL     1       1.640   4.283  19.293  1.00  0.00     0.000 C 
BRANCH  17  18
ATOM     18  C   UNL     1       2.471   5.566  19.454  1.00  0.00    -0.000 C 
BRANCH  18  19
ATOM     19  C   UNL     1       2.029   6.683  18.497  1.00  0.00    -0.000 C 
BRANCH  19  20
ATOM     20  C   UNL     1       2.241   8.065  19.133  1.00  0.00    -0.000 C 
BRANCH  20  21
ATOM     21  C   UNL     1       2.618   9.150  18.106  1.00  0.00    -0.000 C 
BRANCH  21  22
ATOM     22  C   UNL     1       4.058   9.063  17.568  1.00  0.00    -0.000 C 
BRANCH  22  23
ATOM     23  C   UNL     1       4.122   8.648  16.088  1.00  0.00    -0.000 C 
BRANCH  23  24
ATOM     24  C   UNL     1       5.142   7.526  15.825  1.00  0.00    -0.000 C 
BRANCH  24  25
ATOM     25  C   UNL     1       6.021   7.734  14.579  1.00  0.00    -0.003 C 
ATOM     26  C   UNL     1       5.209   7.940  13.300  1.00  0.00     0.004 C 
ENDBRANCH  24  25
ENDBRANCH  23  24
ENDBRANCH  22  23
ENDBRANCH  21  22
ENDBRANCH  20  21
ENDBRANCH  19  20
ENDBRANCH  18  19
ENDBRANCH  17  18
ENDBRANCH  16  17
ENDBRANCH  15  16
ENDBRANCH   1  15
TORSDOF 22
ENDMDL
MODEL 5
REMARK VINA RESULT:    -6.159      1.695      2.182
REMARK INTER + INTRA:         -16.694
REMARK INTER:                 -14.033
REMARK INTRA:                  -2.660
REMARK UNBOUND:                -2.614
REMARK SMILES CCCCCCCCCCCCCCCCCCCCCCCC(=O)[O-]
REMARK SMILES IDX 13 1 14 2 15 3 16 4 17 5 18 6 19 7 20 8 21 9 22 10 23 11
REMARK SMILES IDX 24 12 25 13 26 14 12 15 11 16 10 17 9 18 8 19 7 20 6 21 5 22
REMARK SMILES IDX 4 23 3 24 2 25 1 26
REMARK H PARENT
REMARK Flexibility Score: inf
ROOT
ATOM      1  C   UNL     1       2.742   4.624  17.927  1.00  0.00     0.000 C 
ENDROOT
BRANCH   1   2
ATOM      2  C   UNL     1       3.056   3.482  18.910  1.00  0.00     0.000 C 
BRANCH   2   3
ATOM      3  C   UNL     1       3.607   2.198  18.258  1.00  0.00     0.000 C 
BRANCH   3   4
ATOM      4  C   UNL     1       4.150   1.143  19.243  1.00  0.00     0.000 C 
BRANCH   4   5
ATOM      5  C   UNL     1       5.262   0.242  18.678  1.00  0.00     0.000 C 
BRANCH   5   6
ATOM      6  C   UNL     1       5.150   0.039  17.157  1.00  0.00     0.000 C 
BRANCH   6   7
ATOM      7  C   UNL     1       4.538  -1.321  16.780  1.00  0.00     0.000 C 
BRANCH   7   8
ATOM      8  C   UNL     1       3.386  -1.253  15.757  1.00  0.00     0.000 C 
BRANCH   8   9
ATOM      9  C   UNL     1       3.125   0.143  15.158  1.00  0.00     0.000 C 
BRANCH   9  10
ATOM     10  C   UNL     1       3.003   0.181  13.621  1.00  0.00     0.006 C 
BRANCH  10  11
ATOM     11  C   UNL     1       4.174   0.877  12.909  1.00  0.00     0.053 C 
BRANCH  11  12
ATOM     12  C   UNL     1       5.500   0.348  13.362  1.00  0.00     0.041 C 
ATOM     13  O   UNL     1       6.327   1.112  13.927  1.00  0.00    -0.550 OA
ATOM     14  O   UNL     1       5.834  -0.982  13.136  1.00  0.00    -0.550 OA
ENDBRANCH  11  12
ENDBRANCH  10  11
ENDBRANCH   9  10
ENDBRANCH   8   9
ENDBRANCH   7   8
ENDBRANCH   6   7
ENDBRANCH   5   6
ENDBRANCH   4   5
ENDBRANCH   3   4
ENDBRANCH   2   3
ENDBRANCH   1   2
BRANCH   1  15
ATOM     15  C   UNL     1       2.640   4.140  16.470  1.00  0.00     0.000 C 
BRANCH  15  16
ATOM     16  C   UNL     1       3.810   4.633  15.602  1.00  0.00     0.000 C 
BRANCH  16  17
ATOM     17  C   UNL     1       3.605   4.323  14.109  1.00  0.00     0.000 C 
BRANCH  17  18
ATOM     18  C   UNL     1       4.781   4.794  13.239  1.00  0.00    -0.000 C 
BRANCH  18  19
ATOM     19  C   UNL     1       4.692   6.284  12.878  1.00  0.00    -0.000 C 
BRANCH  19  20
ATOM     20  C   UNL     1       5.789   7.089  13.590  1.00  0.00    -0.000 C 
BRANCH  20  21
ATOM     21  C   UNL     1       5.234   8.254  14.430  1.00  0.00    -0.000 C 
BRANCH  21  22
ATOM     22  C   UNL     1       4.826   7.882  15.868  1.00  0.00    -0.000 C 
BRANCH  22  23
ATOM     23  C   UNL     1       3.797   8.854  16.469  1.00  0.00    -0.000 C 
BRANCH  23  24
ATOM     24  C   UNL     1       3.089   8.282  17.711  1.00  0.00    -0.000 C 
BRANCH  24  25
ATOM     25  C   UNL     1       2.571   9.341  18.701  1.00  0.00    -0.003 C 
ATOM     26  C   UNL     1       3.669  10.278  19.206  1.00  0.00     0.004 C 
ENDBRANCH  24  25
ENDBRANCH  23  24
ENDBRANCH  22  23
ENDBRANCH  21  22
ENDBRANCH  20  21
ENDBRANCH  19  20
ENDBRANCH  18  19
ENDBRANCH  17  18
ENDBRANCH  16  17
ENDBRANCH  15  16
ENDBRANCH   1  15
TORSDOF 22
ENDMDL
MODEL 6
REMARK VINA RESULT:    -6.152      3.215      7.415
REMARK INTER + INTRA:         -16.679
REMARK INTER:                 -14.382
REMARK INTRA:                  -2.297
REMARK UNBOUND:                -2.614
REMARK SMILES CCCCCCCCCCCCCCCCCCCCCCCC(=O)[O-]
REMARK SMILES IDX 13 1 14 2 15 3 16 4 17 5 18 6 19 7 20 8 21 9 22 10 23 11
REMARK SMILES IDX 24 12 25 13 26 14 12 15 11 16 10 17 9 18 8 19 7 20 6 21 5 22
REMARK SMILES IDX 4 23 3 24 2 25 1 26
REMARK H PARENT
REMARK Flexibility Score: inf
ROOT
ATOM      1  C   UNL     1       3.392   2.855  19.246  1.00  0.00     0.000 C 
ENDROOT
BRANCH   1   2
ATOM      2  C   UNL     1       1.859   2.986  19.275  1.00  0.00     0.000 C 
BRANCH   2   3
ATOM      3  C   UNL     1       1.325   4.414  19.045  1.00  0.00     0.000 C 
BRANCH   3   4
ATOM      4  C   UNL     1       2.268   5.548  19.498  1.00  0.00     0.000 C 
BRANCH   4   5
ATOM      5  C   UNL     1       2.152   6.849  18.683  1.00  0.00     0.000 C 
BRANCH   5   6
ATOM      6  C   UNL     1       2.173   8.108  19.566  1.00  0.00     0.000 C 
BRANCH   6   7
ATOM      7  C   UNL     1       2.691   9.350  18.820  1.00  0.00     0.000 C 
BRANCH   7   8
ATOM      8  C   UNL     1       2.944   9.143  17.313  1.00  0.00     0.000 C 
BRANCH   8   9
ATOM      9  C   UNL     1       4.397   8.793  16.935  1.00  0.00     0.000 C 
BRANCH   9  10
ATOM     10  C   UNL     1       4.546   7.799  15.766  1.00  0.00     0.006 C 
BRANCH  10  11
ATOM     11  C   UNL     1       5.996   7.560  15.317  1.00  0.00     0.053 C 
BRANCH  11  12
ATOM     12  C   UNL     1       6.306   8.255  14.027  1.00  0.00     0.041 C 
ATOM     13  O   UNL     1       7.452   8.156  13.514  1.00  0.00    -0.550 OA
ATOM     14  O   UNL     1       5.338   9.034  13.404  1.00  0.00    -0.550 OA
ENDBRANCH  11  12
ENDBRANCH  10  11
ENDBRANCH   9  10
ENDBRANCH   8   9
ENDBRANCH   7   8
ENDBRANCH   6   7
ENDBRANCH   5   6
ENDBRANCH   4   5
ENDBRANCH   3   4
ENDBRANCH   2   3
ENDBRANCH   1   2
BRANCH   1  15
ATOM     15  C   UNL     1       3.870   1.671  18.387  1.00  0.00     0.000 C 
BRANCH  15  16
ATOM     16  C   UNL     1       4.563   0.580  19.222  1.00  0.00     0.000 C 
BRANCH  16  17
ATOM     17  C   UNL     1       5.070  -0.588  18.357  1.00  0.00     0.000 C 
BRANCH  17  18
ATOM     18  C   UNL     1       4.749  -0.402  16.866  1.00  0.00    -0.000 C 
BRANCH  18  19
ATOM     19  C   UNL     1       4.470  -1.732  16.149  1.00  0.00    -0.000 C 
BRANCH  19  20
ATOM     20  C   UNL     1       4.234  -1.507  14.648  1.00  0.00    -0.000 C 
BRANCH  20  21
ATOM     21  C   UNL     1       3.624  -0.128  14.333  1.00  0.00    -0.000 C 
BRANCH  21  22
ATOM     22  C   UNL     1       4.138   0.529  13.039  1.00  0.00    -0.000 C 
BRANCH  22  23
ATOM     23  C   UNL     1       4.586   1.987  13.245  1.00  0.00    -0.000 C 
BRANCH  23  24
ATOM     24  C   UNL     1       4.186   2.547  14.622  1.00  0.00    -0.000 C 
BRANCH  24  25
ATOM     25  C   UNL     1       3.551   3.948  14.586  1.00  0.00    -0.003 C 
ATOM     26  C   UNL     1       3.218   4.492  15.976  1.00  0.00     0.004 C 
ENDBRANCH  24  25
ENDBRANCH  23  24
ENDBRANCH  22  23
ENDBRANCH  21  22
ENDBRANCH  20  21
ENDBRANCH  19  20
ENDBRANCH  18  19
ENDBRANCH  17  18
ENDBRANCH  16  17
ENDBRANCH  15  16
ENDBRANCH   1  15
TORSDOF 22
ENDMDL
MODEL 7
REMARK VINA RESULT:    -6.122      1.048      6.209
REMARK INTER + INTRA:         -16.609
REMARK INTER:                 -14.136
REMARK INTRA:                  -2.473
REMARK UNBOUND:                -2.614
REMARK SMILES CCCCCCCCCCCCCCCCCCCCCCCC(=O)[O-]
REMARK SMILES IDX 13 1 14 2 15 3 16 4 17 5 18 6 19 7 20 8 21 9 22 10 23 11
REMARK SMILES IDX 24 12 25 13 26 14 12 15 11 16 10 17 9 18 8 19 7 20 6 21 5 22
REMARK SMILES IDX 4 23 3 24 2 25 1 26
REMARK H PARENT
REMARK Flexibility Score: inf
ROOT
ATOM      1  C   UNL     1       4.683   7.528  15.873  1.00  0.00     0.000 C 
ENDROOT
BRANCH   1   2
ATOM      2  C   UNL     1       6.051   7.860  15.252  1.00  0.00     0.000 C 
BRANCH   2   3
ATOM      3  C   UNL     1       6.054   7.981  13.715  1.00  0.00     0.000 C 
BRANCH   3   4
ATOM      4  C   UNL     1       4.952   7.181  12.992  1.00  0.00     0.000 C 
BRANCH   4   5
ATOM      5  C   UNL     1       5.179   5.659  12.950  1.00  0.00     0.000 C 
BRANCH   5   6
ATOM      6  C   UNL     1       3.894   4.857  13.221  1.00  0.00     0.000 C 
BRANCH   6   7
ATOM      7  C   UNL     1       4.000   3.967  14.472  1.00  0.00     0.000 C 
BRANCH   7   8
ATOM      8  C   UNL     1       4.901   2.727  14.312  1.00  0.00     0.000 C 
BRANCH   8   9
ATOM      9  C   UNL     1       4.409   1.687  13.285  1.00  0.00     0.000 C 
BRANCH   9  10
ATOM     10  C   UNL     1       3.849   0.385  13.891  1.00  0.00     0.006 C 
BRANCH  10  11
ATOM     11  C   UNL     1       2.635   0.584  14.810  1.00  0.00     0.053 C 
BRANCH  11  12
ATOM     12  C   UNL     1       1.881  -0.692  15.029  1.00  0.00     0.041 C 
ATOM     13  O   UNL     1       2.485  -1.724  15.427  1.00  0.00    -0.550 OA
ATOM     14  O   UNL     1       0.518  -0.751  14.767  1.00  0.00    -0.550 OA
ENDBRANCH  11  12
ENDBRANCH  10  11
ENDBRANCH   9  10
ENDBRANCH   8   9
ENDBRANCH   7   8
ENDBRANCH   6   7
ENDBRANCH   5   6
ENDBRANCH   4   5
ENDBRANCH   3   4
ENDBRANCH   2   3
ENDBRANCH   1   2
BRANCH   1  15
ATOM     15  C   UNL     1       3.882   8.786  16.251  1.00  0.00     0.000 C 
BRANCH  15  16
ATOM     16  C   UNL     1       3.959   9.104  17.754  1.00  0.00     0.000 C 
BRANCH  16  17
ATOM     17  C   UNL     1       2.570   9.153  18.415  1.00  0.00     0.000 C 
BRANCH  17  18
ATOM     18  C   UNL     1       2.280   7.914  19.276  1.00  0.00    -0.000 C 
BRANCH  18  19
ATOM     19  C   UNL     1       1.973   6.666  18.436  1.00  0.00    -0.000 C 
BRANCH  19  20
ATOM     20  C   UNL     1       2.458   5.393  19.146  1.00  0.00    -0.000 C 
BRANCH  20  21
ATOM     21  C   UNL     1       2.615   4.193  18.192  1.00  0.00    -0.000 C 
BRANCH  21  22
ATOM     22  C   UNL     1       3.265   2.946  18.819  1.00  0.00    -0.000 C 
BRANCH  22  23
ATOM     23  C   UNL     1       3.850   1.984  17.771  1.00  0.00    -0.000 C 
BRANCH  23  24
ATOM     24  C   UNL     1       4.603   0.799  18.401  1.00  0.00    -0.000 C 
BRANCH  24  25
ATOM     25  C   UNL     1       5.381  -0.074  17.401  1.00  0.00    -0.003 C 
ATOM     26  C   UNL     1       5.369  -1.559  17.763  1.00  0.00     0.004 C 
ENDBRANCH  24  25
ENDBRANCH  23  24
ENDBRANCH  22  23
ENDBRANCH  21  22
ENDBRANCH  20  21
ENDBRANCH  19  20
ENDBRANCH  18  19
ENDBRANCH  17  18
ENDBRANCH  16  17
ENDBRANCH  15  16
ENDBRANCH   1  15
TORSDOF 22
ENDMDL
MODEL 8
REMARK VINA RESULT:    -6.083      2.072      4.601
REMARK INTER + INTRA:         -16.520
REMARK INTER:                 -14.092
REMARK INTRA:                  -2.427
REMARK UNBOUND:                -2.614
REMARK SMILES CCCCCCCCCCCCCCCCCCCCCCCC(=O)[O-]
REMARK SMILES IDX 13 1 14 2 15 3 16 4 17 5 18 6 19 7 20 8 21 9 22 10 23 11
REMARK SMILES IDX 24 12 25 13 26 14 12 15 11 16 10 17 9 18 8 19 7 20 6 21 5 22
REMARK SMILES IDX 4 23 3 24 2 25 1 26
REMARK H PARENT
REMARK Flexibility Score: inf
ROOT
ATOM      1  C   UNL     1       2.548   4.677  16.973  1.00  0.00     0.000 C 
ENDROOT
BRANCH   1   2
ATOM      2  C   UNL     1       2.947   3.578  15.972  1.00  0.00     0.000 C 
BRANCH   2   3
ATOM      3  C   UNL     1       4.185   2.752  16.375  1.00  0.00     0.000 C 
BRANCH   3   4
ATOM      4  C   UNL     1       4.976   2.139  15.201  1.00  0.00     0.000 C 
BRANCH   4   5
ATOM      5  C   UNL     1       4.172   1.965  13.900  1.00  0.00     0.000 C 
BRANCH   5   6
ATOM      6  C   UNL     1       3.817   0.497  13.611  1.00  0.00     0.000 C 
BRANCH   6   7
ATOM      7  C   UNL     1       2.454   0.087  14.195  1.00  0.00     0.000 C 
BRANCH   7   8
ATOM      8  C   UNL     1       2.462  -1.230  14.997  1.00  0.00     0.000 C 
BRANCH   8   9
ATOM      9  C   UNL     1       3.860  -1.765  15.364  1.00  0.00     0.000 C 
BRANCH   9  10
ATOM     10  C   UNL     1       4.210  -1.704  16.864  1.00  0.00     0.006 C 
BRANCH  10  11
ATOM     11  C   UNL     1       5.310  -0.692  17.219  1.00  0.00     0.053 C 
BRANCH  11  12
ATOM     12  C   UNL     1       5.384  -0.437  18.693  1.00  0.00     0.041 C 
ATOM     13  O   UNL     1       6.197  -1.082  19.407  1.00  0.00    -0.550 OA
ATOM     14  O   UNL     1       4.537   0.493  19.284  1.00  0.00    -0.550 OA
ENDBRANCH  11  12
ENDBRANCH  10  11
ENDBRANCH   9  10
ENDBRANCH   8   9
ENDBRANCH   7   8
ENDBRANCH   6   7
ENDBRANCH   5   6
ENDBRANCH   4   5
ENDBRANCH   3   4
ENDBRANCH   2   3
ENDBRANCH   1   2
BRANCH   1  15
ATOM     15  C   UNL     1       2.739   4.243  18.437  1.00  0.00     0.000 C 
BRANCH  15  16
ATOM     16  C   UNL     1       2.509   5.396  19.427  1.00  0.00     0.000 C 
BRANCH  16  17
ATOM     17  C   UNL     1       1.863   6.624  18.759  1.00  0.00     0.000 C 
BRANCH  17  18
ATOM     18  C   UNL     1       2.187   7.935  19.491  1.00  0.00    -0.000 C 
BRANCH  18  19
ATOM     19  C   UNL     1       2.302   9.134  18.539  1.00  0.00    -0.000 C 
BRANCH  19  20
ATOM     20  C   UNL     1       3.710   9.221  17.932  1.00  0.00    -0.000 C 
BRANCH  20  21
ATOM     21  C   UNL     1       3.763   8.763  16.462  1.00  0.00    -0.000 C 
BRANCH  21  22
ATOM     22  C   UNL     1       5.063   8.048  16.051  1.00  0.00    -0.000 C 
BRANCH  22  23
ATOM     23  C   UNL     1       4.830   6.917  15.035  1.00  0.00    -0.000 C 
BRANCH  23  24
ATOM     24  C   UNL     1       5.838   6.939  13.873  1.00  0.00    -0.000 C 
BRANCH  24  25
ATOM     25  C   UNL     1       6.423   8.327  13.556  1.00  0.00    -0.003 C 
ATOM     26  C   UNL     1       5.411   9.270  12.905  1.00  0.00     0.004 C 
ENDBRANCH  24  25
ENDBRANCH  23  24
ENDBRANCH  22  23
ENDBRANCH  21  22
ENDBRANCH  20  21
ENDBRANCH  19  20
ENDBRANCH  18  19
ENDBRANCH  17  18
ENDBRANCH  16  17
ENDBRANCH  15  16
ENDBRANCH   1  15
TORSDOF 22
ENDMDL
