MODEL 1
REMARK VINA RESULT:    -3.654      0.000      0.000
REMARK INTER + INTRA:         -11.136
REMARK INTER:                  -8.354
REMARK INTRA:                  -2.781
REMARK UNBOUND:                -2.781
REMARK SMILES CCCCCCCCCCCCCCCCCCCCCCCC(=O)[O-]
REMARK SMILES IDX 13 1 14 2 15 3 16 4 17 5 18 6 19 7 20 8 21 9 22 10 23 11
REMARK SMILES IDX 24 12 25 13 26 14 12 15 11 16 10 17 9 18 8 19 7 20 6 21 5 22
REMARK SMILES IDX 4 23 3 24 2 25 1 26
REMARK H PARENT
REMARK Flexibility Score: inf
ROOT
ATOM      1  C   UNL     1      64.422  30.118  58.802  1.00  0.00     0.000 C 
ENDROOT
BRANCH   1   2
ATOM      2  C   UNL     1      65.468  29.952  57.682  1.00  0.00     0.000 C 
BRANCH   2   3
ATOM      3  C   UNL     1      66.613  29.005  58.083  1.00  0.00     0.000 C 
BRANCH   3   4
ATOM      4  C   UNL     1      68.006  29.621  57.866  1.00  0.00     0.000 C 
BRANCH   4   5
ATOM      5  C   UNL     1      69.093  29.132  58.839  1.00  0.00     0.000 C 
BRANCH   5   6
ATOM      6  C   UNL     1      68.576  28.979  60.279  1.00  0.00     0.000 C 
BRANCH   6   7
ATOM      7  C   UNL     1      69.571  29.496  61.335  1.00  0.00     0.000 C 
BRANCH   7   8
ATOM      8  C   UNL     1      71.058  29.392  60.941  1.00  0.00     0.000 C 
BRANCH   8   9
ATOM      9  C   UNL     1      71.964  30.350  61.732  1.00  0.00     0.000 C 
BRANCH   9  10
ATOM     10  C   UNL     1      72.767  31.252  60.783  1.00  0.00     0.006 C 
BRANCH  10  11
ATOM     11  C   UNL     1      71.956  31.654  59.541  1.00  0.00     0.053 C 
BRANCH  11  12
ATOM     12  C   UNL     1      71.495  33.081  59.595  1.00  0.00     0.041 C 
ATOM     13  O   UNL     1      71.243  33.708  58.531  1.00  0.00    -0.550 OA
ATOM     14  O   UNL     1      71.311  33.707  60.821  1.00  0.00    -0.550 OA
ENDBRANCH  11  12
ENDBRANCH  10  11
ENDBRANCH   9  10
ENDBRANCH   8   9
ENDBRANCH   7   8
ENDBRANCH   6   7
ENDBRANCH   5   6
ENDBRANCH   4   5
ENDBRANCH   3   4
ENDBRANCH   2   3
ENDBRANCH   1   2
BRANCH   1  15
ATOM     15  C   UNL     1      65.087  30.324  60.175  1.00  0.00     0.000 C 
BRANCH  15  16
ATOM     16  C   UNL     1      64.134  30.050  61.347  1.00  0.00     0.000 C 
BRANCH  16  17
ATOM     17  C   UNL     1      62.658  29.992  60.913  1.00  0.00     0.000 C 
BRANCH  17  18
ATOM     18  C   UNL     1      61.710  30.402  62.056  1.00  0.00    -0.000 C 
BRANCH  18  19
ATOM     19  C   UNL     1      60.594  31.364  61.601  1.00  0.00    -0.000 C 
BRANCH  19  20
ATOM     20  C   UNL     1      60.915  32.070  60.265  1.00  0.00    -0.000 C 
BRANCH  20  21
ATOM     21  C   UNL     1      61.721  33.371  60.439  1.00  0.00    -0.000 C 
BRANCH  21  22
ATOM     22  C   UNL     1      62.792  33.612  59.359  1.00  0.00    -0.000 C 
BRANCH  22  23
ATOM     23  C   UNL     1      64.192  33.837  59.955  1.00  0.00    -0.000 C 
BRANCH  23  24
ATOM     24  C   UNL     1      64.099  34.349  61.397  1.00  0.00    -0.000 C 
BRANCH  24  25
ATOM     25  C   UNL     1      64.855  35.673  61.596  1.00  0.00    -0.003 C 
ATOM     26  C   UNL     1      63.909  36.872  61.708  1.00  0.00     0.004 C 
ENDBRANCH  24  25
ENDBRANCH  23  24
ENDBRANCH  22  23
ENDBRANCH  21  22
ENDBRANCH  20  21
ENDBRANCH  19  20
ENDBRANCH  18  19
ENDBRANCH  17  18
ENDBRANCH  16  17
ENDBRANCH  15  16
ENDBRANCH   1  15
TORSDOF 22
ENDMDL
MODEL 2
REMARK VINA RESULT:    -3.636     11.103     15.119
REMARK INTER + INTRA:         -11.093
REMARK INTER:                  -7.277
REMARK INTRA:                  -3.816
REMARK UNBOUND:                -2.781
REMARK SMILES CCCCCCCCCCCCCCCCCCCCCCCC(=O)[O-]
REMARK SMILES IDX 13 1 14 2 15 3 16 4 17 5 18 6 19 7 20 8 21 9 22 10 23 11
REMARK SMILES IDX 24 12 25 13 26 14 12 15 11 16 10 17 9 18 8 19 7 20 6 21 5 22
REMARK SMILES IDX 4 23 3 24 2 25 1 26
REMARK H PARENT
REMARK Flexibility Score: inf
ROOT
ATOM      1  C   UNL     1      57.884  28.115  51.496  1.00  0.00     0.000 C 
ENDROOT
BRANCH   1   2
ATOM      2  C   UNL     1      56.600  27.342  51.859  1.00  0.00     0.000 C 
BRANCH   2   3
ATOM      3  C   UNL     1      56.325  26.173  50.896  1.00  0.00     0.000 C 
BRANCH   3   4
ATOM      4  C   UNL     1      55.322  26.533  49.786  1.00  0.00     0.000 C 
BRANCH   4   5
ATOM      5  C   UNL     1      53.870  26.720  50.257  1.00  0.00     0.000 C 
BRANCH   5   6
ATOM      6  C   UNL     1      53.232  28.012  49.720  1.00  0.00     0.000 C 
BRANCH   6   7
ATOM      7  C   UNL     1      53.904  29.287  50.264  1.00  0.00     0.000 C 
BRANCH   7   8
ATOM      8  C   UNL     1      53.777  29.496  51.786  1.00  0.00     0.000 C 
BRANCH   8   9
ATOM      9  C   UNL     1      54.198  30.903  52.242  1.00  0.00     0.000 C 
BRANCH   9  10
ATOM     10  C   UNL     1      55.123  30.827  53.466  1.00  0.00     0.006 C 
BRANCH  10  11
ATOM     11  C   UNL     1      56.540  31.332  53.154  1.00  0.00     0.053 C 
BRANCH  11  12
ATOM     12  C   UNL     1      56.812  32.681  53.748  1.00  0.00     0.041 C 
ATOM     13  O   UNL     1      56.280  33.013  54.842  1.00  0.00    -0.550 OA
ATOM     14  O   UNL     1      57.681  33.560  53.113  1.00  0.00    -0.550 OA
ENDBRANCH  11  12
ENDBRANCH  10  11
ENDBRANCH   9  10
ENDBRANCH   8   9
ENDBRANCH   7   8
ENDBRANCH   6   7
ENDBRANCH   5   6
ENDBRANCH   4   5
ENDBRANCH   3   4
ENDBRANCH   2   3
ENDBRANCH   1   2
BRANCH   1  15
ATOM     15  C   UNL     1      57.623  29.168  50.404  1.00  0.00     0.000 C 
BRANCH  15  16
ATOM     16  C   UNL     1      58.720  29.198  49.330  1.00  0.00     0.000 C 
BRANCH  16  17
ATOM     17  C   UNL     1      59.531  27.890  49.271  1.00  0.00     0.000 C 
BRANCH  17  18
ATOM     18  C   UNL     1      61.043  28.148  49.423  1.00  0.00    -0.000 C 
BRANCH  18  19
ATOM     19  C   UNL     1      61.494  28.246  50.895  1.00  0.00    -0.000 C 
BRANCH  19  20
ATOM     20  C   UNL     1      62.580  27.211  51.262  1.00  0.00    -0.000 C 
BRANCH  20  21
ATOM     21  C   UNL     1      62.643  26.020  50.287  1.00  0.00    -0.000 C 
BRANCH  21  22
ATOM     22  C   UNL     1      62.146  24.685  50.874  1.00  0.00    -0.000 C 
BRANCH  22  23
ATOM     23  C   UNL     1      60.982  24.083  50.069  1.00  0.00    -0.000 C 
BRANCH  23  24
ATOM     24  C   UNL     1      59.636  24.631  50.556  1.00  0.00    -0.000 C 
BRANCH  24  25
ATOM     25  C   UNL     1      59.612  24.852  52.078  1.00  0.00    -0.003 C 
ATOM     26  C   UNL     1      58.651  23.896  52.789  1.00  0.00     0.004 C 
ENDBRANCH  24  25
ENDBRANCH  23  24
ENDBRANCH  22  23
ENDBRANCH  21  22
ENDBRANCH  20  21
ENDBRANCH  19  20
ENDBRANCH  18  19
ENDBRANCH  17  18
ENDBRANCH  16  17
ENDBRANCH  15  16
ENDBRANCH   1  15
TORSDOF 22
ENDMDL
MODEL 3
REMARK VINA RESULT:    -3.590      3.053      6.260
REMARK INTER + INTRA:         -10.989
REMARK INTER:                  -7.159
REMARK INTRA:                  -3.830
REMARK UNBOUND:                -2.781
REMARK SMILES CCCCCCCCCCCCCCCCCCCCCCCC(=O)[O-]
REMARK SMILES IDX 13 1 14 2 15 3 16 4 17 5 18 6 19 7 20 8 21 9 22 10 23 11
REMARK SMILES IDX 24 12 25 13 26 14 12 15 11 16 10 17 9 18 8 19 7 20 6 21 5 22
REMARK SMILES IDX 4 23 3 24 2 25 1 26
REMARK H PARENT
REMARK Flexibility Score: inf
ROOT
ATOM      1  C   UNL     1      63.705  33.069  58.521  1.00  0.00     0.000 C 
ENDROOT
BRANCH   1   2
ATOM      2  C   UNL     1      62.731  31.916  58.202  1.00  0.00     0.000 C 
BRANCH   2   3
ATOM      3  C   UNL     1      61.257  32.335  58.348  1.00  0.00     0.000 C 
BRANCH   3   4
ATOM      4  C   UNL     1      60.489  31.481  59.371  1.00  0.00     0.000 C 
BRANCH   4   5
ATOM      5  C   UNL     1      60.576  31.974  60.826  1.00  0.00     0.000 C 
BRANCH   5   6
ATOM      6  C   UNL     1      61.156  30.916  61.779  1.00  0.00     0.000 C 
BRANCH   6   7
ATOM      7  C   UNL     1      61.524  29.600  61.067  1.00  0.00     0.000 C 
BRANCH   7   8
ATOM      8  C   UNL     1      62.910  29.028  61.423  1.00  0.00     0.000 C 
BRANCH   8   9
ATOM      9  C   UNL     1      63.944  29.197  60.298  1.00  0.00     0.000 C 
BRANCH   9  10
ATOM     10  C   UNL     1      65.279  28.541  60.679  1.00  0.00     0.006 C 
BRANCH  10  11
ATOM     11  C   UNL     1      66.482  29.437  60.344  1.00  0.00     0.053 C 
BRANCH  11  12
ATOM     12  C   UNL     1      67.766  28.909  60.910  1.00  0.00     0.041 C 
ATOM     13  O   UNL     1      68.738  28.648  60.150  1.00  0.00    -0.550 OA
ATOM     14  O   UNL     1      67.902  28.737  62.283  1.00  0.00    -0.550 OA
ENDBRANCH  11  12
ENDBRANCH  10  11
ENDBRANCH   9  10
ENDBRANCH   8   9
ENDBRANCH   7   8
ENDBRANCH   6   7
ENDBRANCH   5   6
ENDBRANCH   4   5
ENDBRANCH   3   4
ENDBRANCH   2   3
ENDBRANCH   1   2
BRANCH   1  15
ATOM     15  C   UNL     1      64.503  32.798  59.810  1.00  0.00     0.000 C 
BRANCH  15  16
ATOM     16  C   UNL     1      63.873  33.449  61.049  1.00  0.00     0.000 C 
BRANCH  16  17
ATOM     17  C   UNL     1      64.395  34.875  61.304  1.00  0.00     0.000 C 
BRANCH  17  18
ATOM     18  C   UNL     1      63.307  35.936  61.049  1.00  0.00    -0.000 C 
BRANCH  18  19
ATOM     19  C   UNL     1      61.902  35.328  60.862  1.00  0.00    -0.000 C 
BRANCH  19  20
ATOM     20  C   UNL     1      61.222  35.778  59.550  1.00  0.00    -0.000 C 
BRANCH  20  21
ATOM     21  C   UNL     1      59.908  36.550  59.777  1.00  0.00    -0.000 C 
BRANCH  21  22
ATOM     22  C   UNL     1      58.858  36.371  58.664  1.00  0.00    -0.000 C 
BRANCH  22  23
ATOM     23  C   UNL     1      58.944  34.992  57.988  1.00  0.00    -0.000 C 
BRANCH  23  24
ATOM     24  C   UNL     1      58.646  35.096  56.487  1.00  0.00    -0.000 C 
BRANCH  24  25
ATOM     25  C   UNL     1      59.813  35.718  55.702  1.00  0.00    -0.003 C 
ATOM     26  C   UNL     1      61.028  34.790  55.635  1.00  0.00     0.004 C 
ENDBRANCH  24  25
ENDBRANCH  23  24
ENDBRANCH  22  23
ENDBRANCH  21  22
ENDBRANCH  20  21
ENDBRANCH  19  20
ENDBRANCH  18  19
ENDBRANCH  17  18
ENDBRANCH  16  17
ENDBRANCH  15  16
ENDBRANCH   1  15
TORSDOF 22
ENDMDL
MODEL 4
REMARK VINA RESULT:    -3.562      4.184      7.198
REMARK INTER + INTRA:         -10.924
REMARK INTER:                  -6.197
REMARK INTRA:                  -4.727
REMARK UNBOUND:                -2.781
REMARK SMILES CCCCCCCCCCCCCCCCCCCCCCCC(=O)[O-]
REMARK SMILES IDX 13 1 14 2 15 3 16 4 17 5 18 6 19 7 20 8 21 9 22 10 23 11
REMARK SMILES IDX 24 12 25 13 26 14 12 15 11 16 10 17 9 18 8 19 7 20 6 21 5 22
REMARK SMILES IDX 4 23 3 24 2 25 1 26
REMARK H PARENT
REMARK Flexibility Score: inf
ROOT
ATOM      1  C   UNL     1      63.736  33.584  60.950  1.00  0.00     0.000 C 
ENDROOT
BRANCH   1   2
ATOM      2  C   UNL     1      64.481  34.907  61.215  1.00  0.00     0.000 C 
BRANCH   2   3
ATOM      3  C   UNL     1      63.523  36.104  61.355  1.00  0.00     0.000 C 
BRANCH   3   4
ATOM      4  C   UNL     1      62.048  35.718  61.147  1.00  0.00     0.000 C 
BRANCH   4   5
ATOM      5  C   UNL     1      61.130  36.871  60.703  1.00  0.00     0.000 C 
BRANCH   5   6
ATOM      6  C   UNL     1      60.160  36.460  59.583  1.00  0.00     0.000 C 
BRANCH   6   7
ATOM      7  C   UNL     1      60.549  35.133  58.904  1.00  0.00     0.000 C 
BRANCH   7   8
ATOM      8  C   UNL     1      61.266  35.277  57.548  1.00  0.00     0.000 C 
BRANCH   8   9
ATOM      9  C   UNL     1      62.785  35.057  57.638  1.00  0.00     0.000 C 
BRANCH   9  10
ATOM     10  C   UNL     1      63.528  36.399  57.721  1.00  0.00     0.006 C 
BRANCH  10  11
ATOM     11  C   UNL     1      64.883  36.358  56.997  1.00  0.00     0.053 C 
BRANCH  11  12
ATOM     12  C   UNL     1      65.958  35.726  57.829  1.00  0.00     0.041 C 
ATOM     13  O   UNL     1      66.472  36.358  58.791  1.00  0.00    -0.550 OA
ATOM     14  O   UNL     1      66.369  34.425  57.565  1.00  0.00    -0.550 OA
ENDBRANCH  11  12
ENDBRANCH  10  11
ENDBRANCH   9  10
ENDBRANCH   8   9
ENDBRANCH   7   8
ENDBRANCH   6   7
ENDBRANCH   5   6
ENDBRANCH   4   5
ENDBRANCH   3   4
ENDBRANCH   2   3
ENDBRANCH   1   2
BRANCH   1  15
ATOM     15  C   UNL     1      64.507  32.686  59.966  1.00  0.00     0.000 C 
BRANCH  15  16
ATOM     16  C   UNL     1      64.572  31.221  60.420  1.00  0.00     0.000 C 
BRANCH  16  17
ATOM     17  C   UNL     1      63.643  30.925  61.612  1.00  0.00     0.000 C 
BRANCH  17  18
ATOM     18  C   UNL     1      62.631  29.809  61.284  1.00  0.00    -0.000 C 
BRANCH  18  19
ATOM     19  C   UNL     1      61.164  30.267  61.414  1.00  0.00    -0.000 C 
BRANCH  19  20
ATOM     20  C   UNL     1      60.901  31.640  60.757  1.00  0.00    -0.000 C 
BRANCH  20  21
ATOM     21  C   UNL     1      59.985  31.561  59.521  1.00  0.00    -0.000 C 
BRANCH  21  22
ATOM     22  C   UNL     1      60.524  30.680  58.378  1.00  0.00    -0.000 C 
BRANCH  22  23
ATOM     23  C   UNL     1      61.860  31.194  57.815  1.00  0.00    -0.000 C 
BRANCH  23  24
ATOM     24  C   UNL     1      62.833  30.036  57.565  1.00  0.00    -0.000 C 
BRANCH  24  25
ATOM     25  C   UNL     1      63.987  30.435  56.630  1.00  0.00    -0.003 C 
ATOM     26  C   UNL     1      64.054  31.948  56.403  1.00  0.00     0.004 C 
ENDBRANCH  24  25
ENDBRANCH  23  24
ENDBRANCH  22  23
ENDBRANCH  21  22
ENDBRANCH  20  21
ENDBRANCH  19  20
ENDBRANCH  18  19
ENDBRANCH  17  18
ENDBRANCH  16  17
ENDBRANCH  15  16
ENDBRANCH   1  15
TORSDOF 22
ENDMDL
MODEL 5
REMARK VINA RESULT:    -3.537     10.656     13.910
REMARK INTER + INTRA:         -10.867
REMARK INTER:                  -6.996
REMARK INTRA:                  -3.870
REMARK UNBOUND:                -2.781
REMARK SMILES CCCCCCCCCCCCCCCCCCCCCCCC(=O)[O-]
REMARK SMILES IDX 13 1 14 2 15 3 16 4 17 5 18 6 19 7 20 8 21 9 22 10 23 11
REMARK SMILES IDX 24 12 25 13 26 14 12 15 11 16 10 17 9 18 8 19 7 20 6 21 5 22
REMARK SMILES IDX 4 23 3 24 2 25 1 26
REMARK H PARENT
REMARK Flexibility Score: inf
ROOT
ATOM      1  C   UNL     1      53.298  29.379  50.695  1.00  0.00     0.000 C 
ENDROOT
BRANCH   1   2
ATOM      2  C   UNL     1      53.190  28.958  52.174  1.00  0.00     0.000 C 
BRANCH   2   3
ATOM      3  C   UNL     1      54.183  29.715  53.074  1.00  0.00     0.000 C 
BRANCH   3   4
ATOM      4  C   UNL     1      54.831  30.921  52.372  1.00  0.00     0.000 C 
BRANCH   4   5
ATOM      5  C   UNL     1      55.966  31.600  53.159  1.00  0.00     0.000 C 
BRANCH   5   6
ATOM      6  C   UNL     1      57.148  30.655  53.433  1.00  0.00     0.000 C 
BRANCH   6   7
ATOM      7  C   UNL     1      58.483  31.399  53.624  1.00  0.00     0.000 C 
BRANCH   7   8
ATOM      8  C   UNL     1      59.649  30.886  52.756  1.00  0.00     0.000 C 
BRANCH   8   9
ATOM      9  C   UNL     1      60.661  31.984  52.390  1.00  0.00     0.000 C 
BRANCH   9  10
ATOM     10  C   UNL     1      61.889  31.384  51.689  1.00  0.00     0.006 C 
BRANCH  10  11
ATOM     11  C   UNL     1      61.714  31.323  50.163  1.00  0.00     0.053 C 
BRANCH  11  12
ATOM     12  C   UNL     1      62.517  32.371  49.452  1.00  0.00     0.041 C 
ATOM     13  O   UNL     1      62.010  33.496  49.194  1.00  0.00    -0.550 OA
ATOM     14  O   UNL     1      63.839  32.118  49.105  1.00  0.00    -0.550 OA
ENDBRANCH  11  12
ENDBRANCH  10  11
ENDBRANCH   9  10
ENDBRANCH   8   9
ENDBRANCH   7   8
ENDBRANCH   6   7
ENDBRANCH   5   6
ENDBRANCH   4   5
ENDBRANCH   3   4
ENDBRANCH   2   3
ENDBRANCH   1   2
BRANCH   1  15
ATOM     15  C   UNL     1      53.145  28.174  49.749  1.00  0.00     0.000 C 
BRANCH  15  16
ATOM     16  C   UNL     1      53.351  26.828  50.460  1.00  0.00     0.000 C 
BRANCH  16  17
ATOM     17  C   UNL     1      54.194  25.840  49.632  1.00  0.00     0.000 C 
BRANCH  17  18
ATOM     18  C   UNL     1      55.675  26.262  49.575  1.00  0.00    -0.000 C 
BRANCH  18  19
ATOM     19  C   UNL     1      56.355  26.272  50.960  1.00  0.00    -0.000 C 
BRANCH  19  20
ATOM     20  C   UNL     1      56.813  27.681  51.396  1.00  0.00    -0.000 C 
BRANCH  20  21
ATOM     21  C   UNL     1      56.845  28.698  50.239  1.00  0.00    -0.000 C 
BRANCH  21  22
ATOM     22  C   UNL     1      58.231  29.309  49.960  1.00  0.00    -0.000 C 
BRANCH  22  23
ATOM     23  C   UNL     1      59.210  28.295  49.344  1.00  0.00    -0.000 C 
BRANCH  23  24
ATOM     24  C   UNL     1      60.362  27.988  50.308  1.00  0.00    -0.000 C 
BRANCH  24  25
ATOM     25  C   UNL     1      60.958  26.589  50.079  1.00  0.00    -0.003 C 
ATOM     26  C   UNL     1      59.884  25.498  50.047  1.00  0.00     0.004 C 
ENDBRANCH  24  25
ENDBRANCH  23  24
ENDBRANCH  22  23
ENDBRANCH  21  22
ENDBRANCH  20  21
ENDBRANCH  19  20
ENDBRANCH  18  19
ENDBRANCH  17  18
ENDBRANCH  16  17
ENDBRANCH  15  16
ENDBRANCH   1  15
TORSDOF 22
ENDMDL
MODEL 6
REMARK VINA RESULT:    -3.498      6.368      8.989
REMARK INTER + INTRA:         -10.779
REMARK INTER:                  -6.304
REMARK INTRA:                  -4.475
REMARK UNBOUND:                -2.781
REMARK SMILES CCCCCCCCCCCCCCCCCCCCCCCC(=O)[O-]
REMARK SMILES IDX 13 1 14 2 15 3 16 4 17 5 18 6 19 7 20 8 21 9 22 10 23 11
REMARK SMILES IDX 24 12 25 13 26 14 12 15 11 16 10 17 9 18 8 19 7 20 6 21 5 22
REMARK SMILES IDX 4 23 3 24 2 25 1 26
REMARK H PARENT
REMARK Flexibility Score: inf
ROOT
ATOM      1  C   UNL     1      61.634  32.421  60.960  1.00  0.00     0.000 C 
ENDROOT
BRANCH   1   2
ATOM      2  C   UNL     1      60.957  31.272  61.734  1.00  0.00     0.000 C 
BRANCH   2   3
ATOM      3  C   UNL     1      61.831  30.006  61.789  1.00  0.00     0.000 C 
BRANCH   3   4
ATOM      4  C   UNL     1      61.193  28.805  61.070  1.00  0.00     0.000 C 
BRANCH   4   5
ATOM      5  C   UNL     1      62.048  28.186  59.951  1.00  0.00     0.000 C 
BRANCH   5   6
ATOM      6  C   UNL     1      61.613  28.643  58.548  1.00  0.00     0.000 C 
BRANCH   6   7
ATOM      7  C   UNL     1      60.243  29.346  58.541  1.00  0.00     0.000 C 
BRANCH   7   8
ATOM      8  C   UNL     1      60.172  30.636  57.701  1.00  0.00     0.000 C 
BRANCH   8   9
ATOM      9  C   UNL     1      59.377  31.762  58.383  1.00  0.00     0.000 C 
BRANCH   9  10
ATOM     10  C   UNL     1      58.595  32.584  57.348  1.00  0.00     0.006 C 
BRANCH  10  11
ATOM     11  C   UNL     1      57.162  32.888  57.812  1.00  0.00     0.053 C 
BRANCH  11  12
ATOM     12  C   UNL     1      56.187  31.828  57.393  1.00  0.00     0.041 C 
ATOM     13  O   UNL     1      55.533  31.188  58.260  1.00  0.00    -0.550 OA
ATOM     14  O   UNL     1      55.975  31.572  56.044  1.00  0.00    -0.550 OA
ENDBRANCH  11  12
ENDBRANCH  10  11
ENDBRANCH   9  10
ENDBRANCH   8   9
ENDBRANCH   7   8
ENDBRANCH   6   7
ENDBRANCH   5   6
ENDBRANCH   4   5
ENDBRANCH   3   4
ENDBRANCH   2   3
ENDBRANCH   1   2
BRANCH   1  15
ATOM     15  C   UNL     1      62.868  31.931  60.181  1.00  0.00     0.000 C 
BRANCH  15  16
ATOM     16  C   UNL     1      64.086  32.849  60.355  1.00  0.00     0.000 C 
BRANCH  16  17
ATOM     17  C   UNL     1      63.744  34.162  61.082  1.00  0.00     0.000 C 
BRANCH  17  18
ATOM     18  C   UNL     1      64.728  35.290  60.718  1.00  0.00    -0.000 C 
BRANCH  18  19
ATOM     19  C   UNL     1      64.108  36.697  60.839  1.00  0.00    -0.000 C 
BRANCH  19  20
ATOM     20  C   UNL     1      62.700  36.681  61.474  1.00  0.00    -0.000 C 
BRANCH  20  21
ATOM     21  C   UNL     1      61.582  37.080  60.492  1.00  0.00    -0.000 C 
BRANCH  21  22
ATOM     22  C   UNL     1      60.477  36.022  60.313  1.00  0.00    -0.000 C 
BRANCH  22  23
ATOM     23  C   UNL     1      60.637  35.217  59.012  1.00  0.00    -0.000 C 
BRANCH  23  24
ATOM     24  C   UNL     1      61.571  35.936  58.032  1.00  0.00    -0.000 C 
BRANCH  24  25
ATOM     25  C   UNL     1      62.728  35.038  57.562  1.00  0.00    -0.003 C 
ATOM     26  C   UNL     1      62.235  33.703  56.997  1.00  0.00     0.004 C 
ENDBRANCH  24  25
ENDBRANCH  23  24
ENDBRANCH  22  23
ENDBRANCH  21  22
ENDBRANCH  20  21
ENDBRANCH  19  20
ENDBRANCH  18  19
ENDBRANCH  17  18
ENDBRANCH  16  17
ENDBRANCH  15  16
ENDBRANCH   1  15
TORSDOF 22
ENDMDL
MODEL 7
REMARK VINA RESULT:    -3.487      3.790      6.718
REMARK INTER + INTRA:         -10.754
REMARK INTER:                  -6.237
REMARK INTRA:                  -4.517
REMARK UNBOUND:                -2.781
REMARK SMILES CCCCCCCCCCCCCCCCCCCCCCCC(=O)[O-]
REMARK SMILES IDX 13 1 14 2 15 3 16 4 17 5 18 6 19 7 20 8 21 9 22 10 23 11
REMARK SMILES IDX 24 12 25 13 26 14 12 15 11 16 10 17 9 18 8 19 7 20 6 21 5 22
REMARK SMILES IDX 4 23 3 24 2 25 1 26
REMARK H PARENT
REMARK Flexibility Score: inf
ROOT
ATOM      1  C   UNL     1      61.852  33.154  59.356  1.00  0.00     0.000 C 
ENDROOT
BRANCH   1   2
ATOM      2  C   UNL     1      62.918  32.228  58.738  1.00  0.00     0.000 C 
BRANCH   2   3
ATOM      3  C   UNL     1      62.358  31.371  57.589  1.00  0.00     0.000 C 
BRANCH   3   4
ATOM      4  C   UNL     1      61.876  29.985  58.054  1.00  0.00     0.000 C 
BRANCH   4   5
ATOM      5  C   UNL     1      60.393  29.913  58.455  1.00  0.00     0.000 C 
BRANCH   5   6
ATOM      6  C   UNL     1      60.184  29.320  59.858  1.00  0.00     0.000 C 
BRANCH   6   7
ATOM      7  C   UNL     1      60.079  30.395  60.957  1.00  0.00     0.000 C 
BRANCH   7   8
ATOM      8  C   UNL     1      61.343  30.574  61.821  1.00  0.00     0.000 C 
BRANCH   8   9
ATOM      9  C   UNL     1      62.309  29.380  61.740  1.00  0.00     0.000 C 
BRANCH   9  10
ATOM     10  C   UNL     1      63.719  29.843  61.345  1.00  0.00     0.006 C 
BRANCH  10  11
ATOM     11  C   UNL     1      64.405  28.858  60.385  1.00  0.00     0.053 C 
BRANCH  11  12
ATOM     12  C   UNL     1      65.638  29.436  59.756  1.00  0.00     0.041 C 
ATOM     13  O   UNL     1      65.644  29.739  58.532  1.00  0.00    -0.550 OA
ATOM     14  O   UNL     1      66.768  29.672  60.528  1.00  0.00    -0.550 OA
ENDBRANCH  11  12
ENDBRANCH  10  11
ENDBRANCH   9  10
ENDBRANCH   8   9
ENDBRANCH   7   8
ENDBRANCH   6   7
ENDBRANCH   5   6
ENDBRANCH   4   5
ENDBRANCH   3   4
ENDBRANCH   2   3
ENDBRANCH   1   2
BRANCH   1  15
ATOM     15  C   UNL     1      62.385  33.880  60.604  1.00  0.00     0.000 C 
BRANCH  15  16
ATOM     16  C   UNL     1      61.887  35.329  60.709  1.00  0.00     0.000 C 
BRANCH  16  17
ATOM     17  C   UNL     1      62.925  36.270  61.348  1.00  0.00     0.000 C 
BRANCH  17  18
ATOM     18  C   UNL     1      64.262  35.551  61.613  1.00  0.00    -0.000 C 
BRANCH  18  19
ATOM     19  C   UNL     1      65.485  36.338  61.100  1.00  0.00    -0.000 C 
BRANCH  19  20
ATOM     20  C   UNL     1      65.416  36.638  59.586  1.00  0.00    -0.000 C 
BRANCH  20  21
ATOM     21  C   UNL     1      65.321  35.370  58.716  1.00  0.00    -0.000 C 
BRANCH  21  22
ATOM     22  C   UNL     1      64.208  35.404  57.651  1.00  0.00    -0.000 C 
BRANCH  22  23
ATOM     23  C   UNL     1      63.475  36.755  57.607  1.00  0.00    -0.000 C 
BRANCH  23  24
ATOM     24  C   UNL     1      61.966  36.556  57.420  1.00  0.00    -0.000 C 
BRANCH  24  25
ATOM     25  C   UNL     1      61.608  36.120  55.989  1.00  0.00    -0.003 C 
ATOM     26  C   UNL     1      61.263  34.631  55.905  1.00  0.00     0.004 C 
ENDBRANCH  24  25
ENDBRANCH  23  24
ENDBRANCH  22  23
ENDBRANCH  21  22
ENDBRANCH  20  21
ENDBRANCH  19  20
ENDBRANCH  18  19
ENDBRANCH  17  18
ENDBRANCH  16  17
ENDBRANCH  15  16
ENDBRANCH   1  15
TORSDOF 22
ENDMDL
MODEL 8
REMARK VINA RESULT:    -3.487      5.496      8.570
REMARK INTER + INTRA:         -10.753
REMARK INTER:                  -5.903
REMARK INTRA:                  -4.850
REMARK UNBOUND:                -2.781
REMARK SMILES CCCCCCCCCCCCCCCCCCCCCCCC(=O)[O-]
REMARK SMILES IDX 13 1 14 2 15 3 16 4 17 5 18 6 19 7 20 8 21 9 22 10 23 11
REMARK SMILES IDX 24 12 25 13 26 14 12 15 11 16 10 17 9 18 8 19 7 20 6 21 5 22
REMARK SMILES IDX 4 23 3 24 2 25 1 26
REMARK H PARENT
REMARK Flexibility Score: inf
ROOT
ATOM      1  C   UNL     1      64.160  31.120  58.378  1.00  0.00     0.000 C 
ENDROOT
BRANCH   1   2
ATOM      2  C   UNL     1      64.817  31.833  59.577  1.00  0.00     0.000 C 
BRANCH   2   3
ATOM      3  C   UNL     1      64.500  33.339  59.612  1.00  0.00     0.000 C 
BRANCH   3   4
ATOM      4  C   UNL     1      64.092  33.834  61.010  1.00  0.00     0.000 C 
BRANCH   4   5
ATOM      5  C   UNL     1      64.430  35.306  61.303  1.00  0.00     0.000 C 
BRANCH   5   6
ATOM      6  C   UNL     1      63.260  36.256  61.000  1.00  0.00     0.000 C 
BRANCH   6   7
ATOM      7  C   UNL     1      61.895  35.543  60.975  1.00  0.00     0.000 C 
BRANCH   7   8
ATOM      8  C   UNL     1      61.031  35.824  59.729  1.00  0.00     0.000 C 
BRANCH   8   9
ATOM      9  C   UNL     1      61.567  35.152  58.454  1.00  0.00     0.000 C 
BRANCH   9  10
ATOM     10  C   UNL     1      60.436  34.914  57.444  1.00  0.00     0.006 C 
BRANCH  10  11
ATOM     11  C   UNL     1      59.052  34.915  58.112  1.00  0.00     0.053 C 
BRANCH  11  12
ATOM     12  C   UNL     1      58.070  35.794  57.395  1.00  0.00     0.041 C 
ATOM     13  O   UNL     1      57.364  35.328  56.460  1.00  0.00    -0.550 OA
ATOM     14  O   UNL     1      57.908  37.118  57.784  1.00  0.00    -0.550 OA
ENDBRANCH  11  12
ENDBRANCH  10  11
ENDBRANCH   9  10
ENDBRANCH   8   9
ENDBRANCH   7   8
ENDBRANCH   6   7
ENDBRANCH   5   6
ENDBRANCH   4   5
ENDBRANCH   3   4
ENDBRANCH   2   3
ENDBRANCH   1   2
BRANCH   1  15
ATOM     15  C   UNL     1      63.694  32.123  57.307  1.00  0.00     0.000 C 
BRANCH  15  16
ATOM     16  C   UNL     1      62.281  31.824  56.785  1.00  0.00     0.000 C 
BRANCH  16  17
ATOM     17  C   UNL     1      61.555  30.747  57.612  1.00  0.00     0.000 C 
BRANCH  17  18
ATOM     18  C   UNL     1      60.208  31.257  58.158  1.00  0.00    -0.000 C 
BRANCH  18  19
ATOM     19  C   UNL     1      60.030  30.999  59.668  1.00  0.00    -0.000 C 
BRANCH  19  20
ATOM     20  C   UNL     1      60.743  32.051  60.547  1.00  0.00    -0.000 C 
BRANCH  20  21
ATOM     21  C   UNL     1      61.619  31.431  61.652  1.00  0.00    -0.000 C 
BRANCH  21  22
ATOM     22  C   UNL     1      61.589  29.892  61.707  1.00  0.00    -0.000 C 
BRANCH  22  23
ATOM     23  C   UNL     1      62.949  29.263  61.357  1.00  0.00    -0.000 C 
BRANCH  23  24
ATOM     24  C   UNL     1      62.799  28.211  60.252  1.00  0.00    -0.000 C 
BRANCH  24  25
ATOM     25  C   UNL     1      61.482  27.425  60.368  1.00  0.00    -0.003 C 
ATOM     26  C   UNL     1      60.705  27.394  59.049  1.00  0.00     0.004 C 
ENDBRANCH  24  25
ENDBRANCH  23  24
ENDBRANCH  22  23
ENDBRANCH  21  22
ENDBRANCH  20  21
ENDBRANCH  19  20
ENDBRANCH  18  19
ENDBRANCH  17  18
ENDBRANCH  16  17
ENDBRANCH  15  16
ENDBRANCH   1  15
TORSDOF 22
ENDMDL
MODEL 9
REMARK VINA RESULT:    -3.479      5.087      8.167
REMARK INTER + INTRA:         -10.734
REMARK INTER:                  -5.830
REMARK INTRA:                  -4.903
REMARK UNBOUND:                -2.781
REMARK SMILES CCCCCCCCCCCCCCCCCCCCCCCC(=O)[O-]
REMARK SMILES IDX 13 1 14 2 15 3 16 4 17 5 18 6 19 7 20 8 21 9 22 10 23 11
REMARK SMILES IDX 24 12 25 13 26 14 12 15 11 16 10 17 9 18 8 19 7 20 6 21 5 22
REMARK SMILES IDX 4 23 3 24 2 25 1 26
REMARK H PARENT
REMARK Flexibility Score: inf
ROOT
ATOM      1  C   UNL     1      61.011  35.420  60.631  1.00  0.00     0.000 C 
ENDROOT
BRANCH   1   2
ATOM      2  C   UNL     1      61.699  36.779  60.391  1.00  0.00     0.000 C 
BRANCH   2   3
ATOM      3  C   UNL     1      62.958  36.961  61.257  1.00  0.00     0.000 C 
BRANCH   3   4
ATOM      4  C   UNL     1      63.705  35.642  61.516  1.00  0.00     0.000 C 
BRANCH   4   5
ATOM      5  C   UNL     1      64.918  35.390  60.604  1.00  0.00     0.000 C 
BRANCH   5   6
ATOM      6  C   UNL     1      64.554  34.601  59.335  1.00  0.00     0.000 C 
BRANCH   6   7
ATOM      7  C   UNL     1      64.634  35.451  58.053  1.00  0.00     0.000 C 
BRANCH   7   8
ATOM      8  C   UNL     1      63.462  35.266  57.069  1.00  0.00     0.000 C 
BRANCH   8   9
ATOM      9  C   UNL     1      63.357  33.836  56.513  1.00  0.00     0.000 C 
BRANCH   9  10
ATOM     10  C   UNL     1      62.069  33.661  55.694  1.00  0.00     0.006 C 
BRANCH  10  11
ATOM     11  C   UNL     1      61.249  34.958  55.618  1.00  0.00     0.053 C 
BRANCH  11  12
ATOM     12  C   UNL     1      59.776  34.714  55.759  1.00  0.00     0.041 C 
ATOM     13  O   UNL     1      58.955  35.653  55.575  1.00  0.00    -0.550 OA
ATOM     14  O   UNL     1      59.307  33.441  56.058  1.00  0.00    -0.550 OA
ENDBRANCH  11  12
ENDBRANCH  10  11
ENDBRANCH   9  10
ENDBRANCH   8   9
ENDBRANCH   7   8
ENDBRANCH   6   7
ENDBRANCH   5   6
ENDBRANCH   4   5
ENDBRANCH   3   4
ENDBRANCH   2   3
ENDBRANCH   1   2
BRANCH   1  15
ATOM     15  C   UNL     1      60.713  34.693  59.308  1.00  0.00     0.000 C 
BRANCH  15  16
ATOM     16  C   UNL     1      61.039  33.194  59.364  1.00  0.00     0.000 C 
BRANCH  16  17
ATOM     17  C   UNL     1      61.578  32.752  60.737  1.00  0.00     0.000 C 
BRANCH  17  18
ATOM     18  C   UNL     1      60.828  31.520  61.276  1.00  0.00    -0.000 C 
BRANCH  18  19
ATOM     19  C   UNL     1      61.772  30.405  61.769  1.00  0.00    -0.000 C 
BRANCH  19  20
ATOM     20  C   UNL     1      63.264  30.794  61.676  1.00  0.00    -0.000 C 
BRANCH  20  21
ATOM     21  C   UNL     1      64.122  29.753  60.933  1.00  0.00    -0.000 C 
BRANCH  21  22
ATOM     22  C   UNL     1      64.906  30.309  59.729  1.00  0.00    -0.000 C 
BRANCH  22  23
ATOM     23  C   UNL     1      63.987  30.894  58.645  1.00  0.00    -0.000 C 
BRANCH  23  24
ATOM     24  C   UNL     1      63.277  29.780  57.867  1.00  0.00    -0.000 C 
BRANCH  24  25
ATOM     25  C   UNL     1      61.751  29.817  58.055  1.00  0.00    -0.003 C 
ATOM     26  C   UNL     1      61.023  30.314  56.804  1.00  0.00     0.004 C 
ENDBRANCH  24  25
ENDBRANCH  23  24
ENDBRANCH  22  23
ENDBRANCH  21  22
ENDBRANCH  20  21
ENDBRANCH  19  20
ENDBRANCH  18  19
ENDBRANCH  17  18
ENDBRANCH  16  17
ENDBRANCH  15  16
ENDBRANCH   1  15
TORSDOF 22
ENDMDL
