MODEL 1
REMARK VINA RESULT:    -7.100      0.000      0.000
REMARK INTER + INTRA:          -7.307
REMARK INTER:                  -7.307
REMARK INTRA:                   0.000
REMARK UNBOUND:                 0.000
REMARK SMILES O=c1ccc2ccc(O)cc2o1
REMARK SMILES IDX 6 1 7 2 8 3 10 4 11 5 5 6 4 7 3 8 2 9 1 10 12 11 9 12
REMARK H PARENT 9 13
REMARK Flexibility Score: inf
ROOT
ATOM      1  C   UNL     1       9.871  71.933  -5.054  1.00  0.00     0.016 A 
ATOM      2  C   UNL     1       9.487  71.123  -3.980  1.00  0.00     0.047 A 
ATOM      3  C   UNL     1      10.208  71.155  -2.776  1.00  0.00     0.119 A 
ATOM      4  C   UNL     1      11.315  72.001  -2.648  1.00  0.00     0.094 A 
ATOM      5  C   UNL     1      11.708  72.814  -3.716  1.00  0.00     0.142 A 
ATOM      6  C   UNL     1      10.981  72.780  -4.928  1.00  0.00     0.018 A 
ATOM      7  C   UNL     1      11.397  73.605  -5.977  1.00  0.00     0.019 A 
ATOM      8  C   UNL     1      12.507  74.430  -5.802  1.00  0.00     0.094 A 
ATOM      9  C   UNL     1      13.178  74.411  -4.574  1.00  0.00     0.336 A 
ATOM     10  O   UNL     1      14.183  75.149  -4.395  1.00  0.00    -0.246 OA
ATOM     11  O   UNL     1      12.762  73.617  -3.591  1.00  0.00    -0.423 OA
ENDROOT
BRANCH   3  12
ATOM     12  O   UNL     1       9.831  70.351  -1.703  1.00  0.00    -0.508 OA
ATOM     13  H   UNL     1      10.515  69.976  -1.055  1.00  0.00     0.293 HD
ENDBRANCH   3  12
TORSDOF 1
ENDMDL
MODEL 2
REMARK VINA RESULT:    -6.701      3.056      3.444
REMARK INTER + INTRA:          -6.897
REMARK INTER:                  -6.897
REMARK INTRA:                   0.000
REMARK UNBOUND:                 0.000
REMARK SMILES O=c1ccc2ccc(O)cc2o1
REMARK SMILES IDX 6 1 7 2 8 3 10 4 11 5 5 6 4 7 3 8 2 9 1 10 12 11 9 12
REMARK H PARENT 9 13
REMARK Flexibility Score: inf
ROOT
ATOM      1  C   UNL     1       9.514  72.085  -5.018  1.00  0.00     0.016 A 
ATOM      2  C   UNL     1       9.836  71.112  -4.067  1.00  0.00     0.047 A 
ATOM      3  C   UNL     1       9.685  71.383  -2.698  1.00  0.00     0.119 A 
ATOM      4  C   UNL     1       9.208  72.631  -2.282  1.00  0.00     0.094 A 
ATOM      5  C   UNL     1       8.883  73.611  -3.225  1.00  0.00     0.142 A 
ATOM      6  C   UNL     1       9.037  73.338  -4.603  1.00  0.00     0.018 A 
ATOM      7  C   UNL     1       8.704  74.337  -5.522  1.00  0.00     0.019 A 
ATOM      8  C   UNL     1       8.234  75.565  -5.059  1.00  0.00     0.094 A 
ATOM      9  C   UNL     1       8.107  75.765  -3.680  1.00  0.00     0.336 A 
ATOM     10  O   UNL     1       7.683  76.867  -3.241  1.00  0.00    -0.246 OA
ATOM     11  O   UNL     1       8.431  74.798  -2.826  1.00  0.00    -0.423 OA
ENDROOT
BRANCH   3  12
ATOM     12  O   UNL     1      10.004  70.418  -1.746  1.00  0.00    -0.508 OA
ATOM     13  H   UNL     1      10.351  70.674  -0.827  1.00  0.00     0.293 HD
ENDBRANCH   3  12
TORSDOF 1
ENDMDL
MODEL 3
REMARK VINA RESULT:    -6.614      0.832      4.224
REMARK INTER + INTRA:          -6.807
REMARK INTER:                  -6.807
REMARK INTRA:                   0.000
REMARK UNBOUND:                 0.000
REMARK SMILES O=c1ccc2ccc(O)cc2o1
REMARK SMILES IDX 6 1 7 2 8 3 10 4 11 5 5 6 4 7 3 8 2 9 1 10 12 11 9 12
REMARK H PARENT 9 13
REMARK Flexibility Score: inf
ROOT
ATOM      1  C   UNL     1      11.518  73.900  -6.065  1.00  0.00     0.016 A 
ATOM      2  C   UNL     1      12.654  74.674  -5.804  1.00  0.00     0.047 A 
ATOM      3  C   UNL     1      13.319  74.561  -4.573  1.00  0.00     0.119 A 
ATOM      4  C   UNL     1      12.847  73.670  -3.602  1.00  0.00     0.094 A 
ATOM      5  C   UNL     1      11.712  72.892  -3.854  1.00  0.00     0.142 A 
ATOM      6  C   UNL     1      11.042  73.007  -5.093  1.00  0.00     0.018 A 
ATOM      7  C   UNL     1       9.912  72.215  -5.316  1.00  0.00     0.019 A 
ATOM      8  C   UNL     1       9.479  71.343  -4.318  1.00  0.00     0.094 A 
ATOM      9  C   UNL     1      10.192  71.282  -3.116  1.00  0.00     0.336 A 
ATOM     10  O   UNL     1       9.817  70.500  -2.202  1.00  0.00    -0.246 OA
ATOM     11  O   UNL     1      11.265  72.046  -2.929  1.00  0.00    -0.423 OA
ENDROOT
BRANCH   3  12
ATOM     12  O   UNL     1      14.450  75.329  -4.307  1.00  0.00    -0.508 OA
ATOM     13  H   UNL     1      14.577  76.246  -4.720  1.00  0.00     0.293 HD
ENDBRANCH   3  12
TORSDOF 1
ENDMDL
MODEL 4
REMARK VINA RESULT:    -6.550      1.745      2.636
REMARK INTER + INTRA:          -6.742
REMARK INTER:                  -6.742
REMARK INTRA:                   0.000
REMARK UNBOUND:                 0.000
REMARK SMILES O=c1ccc2ccc(O)cc2o1
REMARK SMILES IDX 6 1 7 2 8 3 10 4 11 5 5 6 4 7 3 8 2 9 1 10 12 11 9 12
REMARK H PARENT 9 13
REMARK Flexibility Score: inf
ROOT
ATOM      1  C   UNL     1      10.396  71.463  -2.951  1.00  0.00     0.016 A 
ATOM      2  C   UNL     1       9.535  71.193  -4.018  1.00  0.00     0.047 A 
ATOM      3  C   UNL     1       9.820  71.688  -5.300  1.00  0.00     0.119 A 
ATOM      4  C   UNL     1      10.972  72.454  -5.513  1.00  0.00     0.094 A 
ATOM      5  C   UNL     1      11.840  72.729  -4.451  1.00  0.00     0.142 A 
ATOM      6  C   UNL     1      11.551  72.231  -3.161  1.00  0.00     0.018 A 
ATOM      7  C   UNL     1      12.438  72.523  -2.120  1.00  0.00     0.019 A 
ATOM      8  C   UNL     1      13.571  73.291  -2.381  1.00  0.00     0.094 A 
ATOM      9  C   UNL     1      13.793  73.750  -3.684  1.00  0.00     0.336 A 
ATOM     10  O   UNL     1      14.812  74.445  -3.940  1.00  0.00    -0.246 OA
ATOM     11  O   UNL     1      12.934  73.459  -4.657  1.00  0.00    -0.423 OA
ENDROOT
BRANCH   3  12
ATOM     12  O   UNL     1       8.966  71.423  -6.368  1.00  0.00    -0.508 OA
ATOM     13  H   UNL     1       9.225  70.779  -7.108  1.00  0.00     0.293 HD
ENDBRANCH   3  12
TORSDOF 1
ENDMDL
MODEL 5
REMARK VINA RESULT:    -6.516      1.828      4.466
REMARK INTER + INTRA:          -6.706
REMARK INTER:                  -6.706
REMARK INTRA:                   0.000
REMARK UNBOUND:                 0.000
REMARK SMILES O=c1ccc2ccc(O)cc2o1
REMARK SMILES IDX 6 1 7 2 8 3 10 4 11 5 5 6 4 7 3 8 2 9 1 10 12 11 9 12
REMARK H PARENT 9 13
REMARK Flexibility Score: inf
ROOT
ATOM      1  C   UNL     1      12.541  72.962  -2.357  1.00  0.00     0.016 A 
ATOM      2  C   UNL     1      13.566  73.844  -2.715  1.00  0.00     0.047 A 
ATOM      3  C   UNL     1      13.680  74.295  -4.039  1.00  0.00     0.119 A 
ATOM      4  C   UNL     1      12.765  73.864  -5.006  1.00  0.00     0.094 A 
ATOM      5  C   UNL     1      11.737  72.982  -4.658  1.00  0.00     0.142 A 
ATOM      6  C   UNL     1      11.623  72.528  -3.325  1.00  0.00     0.018 A 
ATOM      7  C   UNL     1      10.584  71.647  -3.007  1.00  0.00     0.019 A 
ATOM      8  C   UNL     1       9.698  71.245  -4.005  1.00  0.00     0.094 A 
ATOM      9  C   UNL     1       9.872  71.736  -5.304  1.00  0.00     0.336 A 
ATOM     10  O   UNL     1       9.081  71.385  -6.219  1.00  0.00    -0.246 OA
ATOM     11  O   UNL     1      10.868  72.573  -5.580  1.00  0.00    -0.423 OA
ENDROOT
BRANCH   3  12
ATOM     12  O   UNL     1      14.699  75.173  -4.402  1.00  0.00    -0.508 OA
ATOM     13  H   UNL     1      15.540  75.270  -3.843  1.00  0.00     0.293 HD
ENDBRANCH   3  12
TORSDOF 1
ENDMDL
MODEL 6
REMARK VINA RESULT:    -6.416      3.043      4.611
REMARK INTER + INTRA:          -6.604
REMARK INTER:                  -6.604
REMARK INTRA:                   0.000
REMARK UNBOUND:                 0.000
REMARK SMILES O=c1ccc2ccc(O)cc2o1
REMARK SMILES IDX 6 1 7 2 8 3 10 4 11 5 5 6 4 7 3 8 2 9 1 10 12 11 9 12
REMARK H PARENT 9 13
REMARK Flexibility Score: inf
ROOT
ATOM      1  C   UNL     1       8.746  74.295  -5.884  1.00  0.00     0.016 A 
ATOM      2  C   UNL     1       8.221  75.530  -5.490  1.00  0.00     0.047 A 
ATOM      3  C   UNL     1       7.985  75.798  -4.133  1.00  0.00     0.119 A 
ATOM      4  C   UNL     1       8.277  74.827  -3.168  1.00  0.00     0.094 A 
ATOM      5  C   UNL     1       8.802  73.589  -3.552  1.00  0.00     0.142 A 
ATOM      6  C   UNL     1       9.039  73.320  -4.919  1.00  0.00     0.018 A 
ATOM      7  C   UNL     1       9.564  72.073  -5.271  1.00  0.00     0.019 A 
ATOM      8  C   UNL     1       9.838  71.139  -4.274  1.00  0.00     0.094 A 
ATOM      9  C   UNL     1       9.579  71.475  -2.941  1.00  0.00     0.336 A 
ATOM     10  O   UNL     1       9.820  70.644  -2.025  1.00  0.00    -0.246 OA
ATOM     11  O   UNL     1       9.078  72.668  -2.631  1.00  0.00    -0.423 OA
ENDROOT
BRANCH   3  12
ATOM     12  O   UNL     1       7.463  77.026  -3.734  1.00  0.00    -0.508 OA
ATOM     13  H   UNL     1       7.917  77.900  -3.976  1.00  0.00     0.293 HD
ENDBRANCH   3  12
TORSDOF 1
ENDMDL
MODEL 7
REMARK VINA RESULT:    -6.413      2.543      4.095
REMARK INTER + INTRA:          -6.600
REMARK INTER:                  -6.600
REMARK INTRA:                   0.000
REMARK UNBOUND:                 0.000
REMARK SMILES O=c1ccc2ccc(O)cc2o1
REMARK SMILES IDX 6 1 7 2 8 3 10 4 11 5 5 6 4 7 3 8 2 9 1 10 12 11 9 12
REMARK H PARENT 9 13
REMARK Flexibility Score: inf
ROOT
ATOM      1  C   UNL     1       9.093  71.872  -5.584  1.00  0.00     0.016 A 
ATOM      2  C   UNL     1       8.774  72.931  -6.441  1.00  0.00     0.047 A 
ATOM      3  C   UNL     1       8.948  74.258  -6.019  1.00  0.00     0.119 A 
ATOM      4  C   UNL     1       9.443  74.525  -4.738  1.00  0.00     0.094 A 
ATOM      5  C   UNL     1       9.765  73.473  -3.874  1.00  0.00     0.142 A 
ATOM      6  C   UNL     1       9.589  72.137  -4.299  1.00  0.00     0.018 A 
ATOM      7  C   UNL     1       9.920  71.107  -3.414  1.00  0.00     0.019 A 
ATOM      8  C   UNL     1      10.409  71.423  -2.147  1.00  0.00     0.094 A 
ATOM      9  C   UNL     1      10.557  72.770  -1.795  1.00  0.00     0.336 A 
ATOM     10  O   UNL     1      10.998  73.076  -0.656  1.00  0.00    -0.246 OA
ATOM     11  O   UNL     1      10.235  73.731  -2.656  1.00  0.00    -0.423 OA
ENDROOT
BRANCH   3  12
ATOM     12  O   UNL     1       8.631  75.317  -6.867  1.00  0.00    -0.508 OA
ATOM     13  H   UNL     1       9.132  75.469  -7.736  1.00  0.00     0.293 HD
ENDBRANCH   3  12
TORSDOF 1
ENDMDL
MODEL 8
REMARK VINA RESULT:    -6.156      2.348      3.456
REMARK INTER + INTRA:          -6.336
REMARK INTER:                  -6.336
REMARK INTRA:                   0.000
REMARK UNBOUND:                 0.000
REMARK SMILES O=c1ccc2ccc(O)cc2o1
REMARK SMILES IDX 6 1 7 2 8 3 10 4 11 5 5 6 4 7 3 8 2 9 1 10 12 11 9 12
REMARK H PARENT 9 13
REMARK Flexibility Score: inf
ROOT
ATOM      1  C   UNL     1      10.878  71.318  -2.188  1.00  0.00     0.016 A 
ATOM      2  C   UNL     1      11.758  71.956  -1.308  1.00  0.00     0.047 A 
ATOM      3  C   UNL     1      12.222  73.251  -1.587  1.00  0.00     0.119 A 
ATOM      4  C   UNL     1      11.801  73.909  -2.749  1.00  0.00     0.094 A 
ATOM      5  C   UNL     1      10.921  73.279  -3.634  1.00  0.00     0.142 A 
ATOM      6  C   UNL     1      10.456  71.975  -3.354  1.00  0.00     0.018 A 
ATOM      7  C   UNL     1       9.576  71.372  -4.258  1.00  0.00     0.019 A 
ATOM      8  C   UNL     1       9.187  72.067  -5.402  1.00  0.00     0.094 A 
ATOM      9  C   UNL     1       9.688  73.356  -5.615  1.00  0.00     0.336 A 
ATOM     10  O   UNL     1       9.348  74.000  -6.642  1.00  0.00    -0.246 OA
ATOM     11  O   UNL     1      10.524  73.908  -4.739  1.00  0.00    -0.423 OA
ENDROOT
BRANCH   3  12
ATOM     12  O   UNL     1      13.099  73.892  -0.715  1.00  0.00    -0.508 OA
ATOM     13  H   UNL     1      12.762  74.483   0.037  1.00  0.00     0.293 HD
ENDBRANCH   3  12
TORSDOF 1
ENDMDL
MODEL 9
REMARK VINA RESULT:    -6.038      2.243      3.135
REMARK INTER + INTRA:          -6.215
REMARK INTER:                  -6.215
REMARK INTRA:                   0.000
REMARK UNBOUND:                 0.000
REMARK SMILES O=c1ccc2ccc(O)cc2o1
REMARK SMILES IDX 6 1 7 2 8 3 10 4 11 5 5 6 4 7 3 8 2 9 1 10 12 11 9 12
REMARK H PARENT 9 13
REMARK Flexibility Score: inf
ROOT
ATOM      1  C   UNL     1      12.651  73.263  -3.381  1.00  0.00     0.016 A 
ATOM      2  C   UNL     1      12.603  72.502  -2.209  1.00  0.00     0.047 A 
ATOM      3  C   UNL     1      11.449  71.771  -1.887  1.00  0.00     0.119 A 
ATOM      4  C   UNL     1      10.341  71.802  -2.742  1.00  0.00     0.094 A 
ATOM      5  C   UNL     1      10.380  72.562  -3.916  1.00  0.00     0.142 A 
ATOM      6  C   UNL     1      11.542  73.298  -4.239  1.00  0.00     0.018 A 
ATOM      7  C   UNL     1      11.551  74.047  -5.419  1.00  0.00     0.019 A 
ATOM      8  C   UNL     1      10.422  74.047  -6.238  1.00  0.00     0.094 A 
ATOM      9  C   UNL     1       9.307  73.294  -5.855  1.00  0.00     0.336 A 
ATOM     10  O   UNL     1       8.278  73.282  -6.581  1.00  0.00    -0.246 OA
ATOM     11  O   UNL     1       9.324  72.590  -4.727  1.00  0.00    -0.423 OA
ENDROOT
BRANCH   3  12
ATOM     12  O   UNL     1      11.394  71.010  -0.722  1.00  0.00    -0.508 OA
ATOM     13  H   UNL     1      10.675  70.310  -0.578  1.00  0.00     0.293 HD
ENDBRANCH   3  12
TORSDOF 1
ENDMDL
