MODEL 1
REMARK VINA RESULT:    -7.525      0.000      0.000
REMARK INTER + INTRA:          -8.589
REMARK INTER:                  -8.844
REMARK INTRA:                   0.256
REMARK UNBOUND:                 0.256
REMARK SMILES O=c1c(O)c(-c2ccc(O)cc2)oc2cc(O)cc(O)c12
REMARK SMILES IDX 5 1 3 2 2 3 1 4 21 5 19 6 18 7 16 8 15 9 14 10 13 11 6 12
REMARK SMILES IDX 7 13 8 14 9 15 12 16 11 17 10 18 4 20 20 22 17 24
REMARK H PARENT 10 19 4 21 20 23 17 25
REMARK Flexibility Score: inf
ROOT
ATOM      1  C   UNL     1     -12.954 -29.761  -9.887  1.00  0.00     0.180 A 
ATOM      2  C   UNL     1     -13.270 -28.455 -10.299  1.00  0.00     0.208 A 
ATOM      3  C   UNL     1     -14.191 -28.275 -11.343  1.00  0.00     0.238 A 
ATOM      4  O   UNL     1     -14.429 -27.106 -11.744  1.00  0.00    -0.285 OA
ATOM      5  C   UNL     1     -14.797 -29.401 -11.951  1.00  0.00     0.111 A 
ATOM      6  C   UNL     1     -15.773 -29.334 -12.989  1.00  0.00     0.134 A 
ATOM      7  C   UNL     1     -16.207 -30.514 -13.607  1.00  0.00     0.093 A 
ATOM      8  C   UNL     1     -15.750 -31.760 -13.179  1.00  0.00     0.123 A 
ATOM      9  C   UNL     1     -14.840 -31.841 -12.124  1.00  0.00     0.094 A 
ATOM     10  C   UNL     1     -14.361 -30.679 -11.514  1.00  0.00     0.146 A 
ATOM     11  O   UNL     1     -13.488 -30.799 -10.521  1.00  0.00    -0.452 OA
ENDROOT
BRANCH   1  12
ATOM     12  C   UNL     1     -12.011 -30.030  -8.776  1.00  0.00     0.021 A 
ATOM     13  C   UNL     1     -11.274 -31.227  -8.770  1.00  0.00     0.016 A 
ATOM     14  C   UNL     1     -10.395 -31.511  -7.720  1.00  0.00     0.047 A 
ATOM     15  C   UNL     1     -10.255 -30.615  -6.657  1.00  0.00     0.115 A 
ATOM     16  C   UNL     1     -11.880 -29.141  -7.694  1.00  0.00     0.016 A 
ATOM     17  C   UNL     1     -11.001 -29.429  -6.645  1.00  0.00     0.047 A 
BRANCH  15  18
ATOM     18  O   UNL     1      -9.375 -30.911  -5.618  1.00  0.00    -0.508 OA
ATOM     19  H   UNL     1      -9.659 -30.840  -4.648  1.00  0.00     0.293 HD
ENDBRANCH  15  18
ENDBRANCH   1  12
BRANCH   2  20
ATOM     20  O   UNL     1     -12.644 -27.358  -9.700  1.00  0.00    -0.502 OA
ATOM     21  H   UNL     1     -11.850 -27.458  -9.078  1.00  0.00     0.293 HD
ENDBRANCH   2  20
BRANCH   6  22
ATOM     22  O   UNL     1     -16.364 -28.146 -13.430  1.00  0.00    -0.507 OA
ATOM     23  H   UNL     1     -16.763 -28.008 -14.346  1.00  0.00     0.293 HD
ENDBRANCH   6  22
BRANCH   8  24
ATOM     24  O   UNL     1     -16.215 -32.914 -13.806  1.00  0.00    -0.508 OA
ATOM     25  H   UNL     1     -17.186 -33.016 -14.078  1.00  0.00     0.293 HD
ENDBRANCH   8  24
TORSDOF 5
ENDMDL
MODEL 2
REMARK VINA RESULT:    -7.325      1.576      3.270
REMARK INTER + INTRA:          -8.354
REMARK INTER:                  -8.162
REMARK INTRA:                  -0.192
REMARK UNBOUND:                 0.256
REMARK SMILES O=c1c(O)c(-c2ccc(O)cc2)oc2cc(O)cc(O)c12
REMARK SMILES IDX 5 1 3 2 2 3 1 4 21 5 19 6 18 7 16 8 15 9 14 10 13 11 6 12
REMARK SMILES IDX 7 13 8 14 9 15 12 16 11 17 10 18 4 20 20 22 17 24
REMARK H PARENT 10 19 4 21 20 23 17 25
REMARK Flexibility Score: inf
ROOT
ATOM      1  C   UNL     1     -13.236 -29.381 -10.272  1.00  0.00     0.180 A 
ATOM      2  C   UNL     1     -14.225 -30.328 -10.590  1.00  0.00     0.208 A 
ATOM      3  C   UNL     1     -15.092 -30.071 -11.664  1.00  0.00     0.238 A 
ATOM      4  O   UNL     1     -16.010 -30.896 -11.909  1.00  0.00    -0.285 OA
ATOM      5  C   UNL     1     -14.949 -28.880 -12.417  1.00  0.00     0.111 A 
ATOM      6  C   UNL     1     -15.746 -28.538 -13.550  1.00  0.00     0.134 A 
ATOM      7  C   UNL     1     -15.604 -27.275 -14.138  1.00  0.00     0.093 A 
ATOM      8  C   UNL     1     -14.649 -26.370 -13.677  1.00  0.00     0.123 A 
ATOM      9  C   UNL     1     -13.823 -26.717 -12.606  1.00  0.00     0.094 A 
ATOM     10  C   UNL     1     -13.967 -27.956 -11.976  1.00  0.00     0.146 A 
ATOM     11  O   UNL     1     -13.169 -28.244 -10.956  1.00  0.00    -0.452 OA
ENDROOT
BRANCH   1  12
ATOM     12  C   UNL     1     -12.268 -29.592  -9.170  1.00  0.00     0.021 A 
ATOM     13  C   UNL     1     -12.299 -28.742  -8.052  1.00  0.00     0.016 A 
ATOM     14  C   UNL     1     -11.380 -28.909  -7.011  1.00  0.00     0.047 A 
ATOM     15  C   UNL     1     -10.412 -29.915  -7.081  1.00  0.00     0.115 A 
ATOM     16  C   UNL     1     -11.278 -30.590  -9.244  1.00  0.00     0.016 A 
ATOM     17  C   UNL     1     -10.361 -30.753  -8.202  1.00  0.00     0.047 A 
BRANCH  15  18
ATOM     18  O   UNL     1      -9.504 -30.070  -6.035  1.00  0.00    -0.508 OA
ATOM     19  H   UNL     1      -9.739 -29.802  -5.087  1.00  0.00     0.293 HD
ENDBRANCH  15  18
ENDBRANCH   1  12
BRANCH   2  20
ATOM     20  O   UNL     1     -14.362 -31.486  -9.820  1.00  0.00    -0.502 OA
ATOM     21  H   UNL     1     -15.052 -31.570  -9.082  1.00  0.00     0.293 HD
ENDBRANCH   2  20
BRANCH   6  22
ATOM     22  O   UNL     1     -16.666 -29.405 -14.148  1.00  0.00    -0.507 OA
ATOM     23  H   UNL     1     -17.668 -29.333 -14.055  1.00  0.00     0.293 HD
ENDBRANCH   6  22
BRANCH   8  24
ATOM     24  O   UNL     1     -14.524 -25.128 -14.296  1.00  0.00    -0.508 OA
ATOM     25  H   UNL     1     -14.868 -24.966 -15.235  1.00  0.00     0.293 HD
ENDBRANCH   8  24
TORSDOF 5
ENDMDL
MODEL 3
REMARK VINA RESULT:    -7.302      1.420      6.570
REMARK INTER + INTRA:          -8.327
REMARK INTER:                  -8.415
REMARK INTRA:                   0.088
REMARK UNBOUND:                 0.256
REMARK SMILES O=c1c(O)c(-c2ccc(O)cc2)oc2cc(O)cc(O)c12
REMARK SMILES IDX 5 1 3 2 2 3 1 4 21 5 19 6 18 7 16 8 15 9 14 10 13 11 6 12
REMARK SMILES IDX 7 13 8 14 9 15 12 16 11 17 10 18 4 20 20 22 17 24
REMARK H PARENT 10 19 4 21 20 23 17 25
REMARK Flexibility Score: inf
ROOT
ATOM      1  C   UNL     1     -13.185 -29.477  -9.858  1.00  0.00     0.180 A 
ATOM      2  C   UNL     1     -13.040 -28.206  -9.274  1.00  0.00     0.208 A 
ATOM      3  C   UNL     1     -12.016 -28.002  -8.335  1.00  0.00     0.238 A 
ATOM      4  O   UNL     1     -11.925 -26.878  -7.775  1.00  0.00    -0.285 OA
ATOM      5  C   UNL     1     -11.141 -29.065  -8.003  1.00  0.00     0.111 A 
ATOM      6  C   UNL     1     -10.046 -28.958  -7.095  1.00  0.00     0.134 A 
ATOM      7  C   UNL     1      -9.327 -30.108  -6.743  1.00  0.00     0.093 A 
ATOM      8  C   UNL     1      -9.621 -31.344  -7.315  1.00  0.00     0.123 A 
ATOM      9  C   UNL     1     -10.653 -31.449  -8.250  1.00  0.00     0.094 A 
ATOM     10  C   UNL     1     -11.411 -30.327  -8.593  1.00  0.00     0.146 A 
ATOM     11  O   UNL     1     -12.390 -30.470  -9.478  1.00  0.00    -0.452 OA
ENDROOT
BRANCH   1  12
ATOM     12  C   UNL     1     -14.224 -29.762 -10.875  1.00  0.00     0.021 A 
ATOM     13  C   UNL     1     -14.932 -30.975 -10.818  1.00  0.00     0.016 A 
ATOM     14  C   UNL     1     -15.901 -31.274 -11.780  1.00  0.00     0.047 A 
ATOM     15  C   UNL     1     -16.163 -30.376 -12.819  1.00  0.00     0.115 A 
ATOM     16  C   UNL     1     -14.478 -28.871 -11.934  1.00  0.00     0.016 A 
ATOM     17  C   UNL     1     -15.447 -29.175 -12.895  1.00  0.00     0.047 A 
BRANCH  15  18
ATOM     18  O   UNL     1     -17.132 -30.688 -13.770  1.00  0.00    -0.508 OA
ATOM     19  H   UNL     1     -18.088 -30.368 -13.675  1.00  0.00     0.293 HD
ENDBRANCH  15  18
ENDBRANCH   1  12
BRANCH   2  20
ATOM     20  O   UNL     1     -13.929 -27.177  -9.599  1.00  0.00    -0.502 OA
ATOM     21  H   UNL     1     -13.635 -26.339 -10.086  1.00  0.00     0.293 HD
ENDBRANCH   2  20
BRANCH   6  22
ATOM     22  O   UNL     1      -9.608 -27.753  -6.537  1.00  0.00    -0.507 OA
ATOM     23  H   UNL     1      -9.982 -26.845  -6.766  1.00  0.00     0.293 HD
ENDBRANCH   6  22
BRANCH   8  24
ATOM     24  O   UNL     1      -8.875 -32.464  -6.953  1.00  0.00    -0.508 OA
ATOM     25  H   UNL     1      -7.958 -32.640  -7.346  1.00  0.00     0.293 HD
ENDBRANCH   8  24
TORSDOF 5
ENDMDL
MODEL 4
REMARK VINA RESULT:    -7.053      3.771      6.231
REMARK INTER + INTRA:          -8.034
REMARK INTER:                  -7.777
REMARK INTRA:                  -0.257
REMARK UNBOUND:                 0.256
REMARK SMILES O=c1c(O)c(-c2ccc(O)cc2)oc2cc(O)cc(O)c12
REMARK SMILES IDX 5 1 3 2 2 3 1 4 21 5 19 6 18 7 16 8 15 9 14 10 13 11 6 12
REMARK SMILES IDX 7 13 8 14 9 15 12 16 11 17 10 18 4 20 20 22 17 24
REMARK H PARENT 10 19 4 21 20 23 17 25
REMARK Flexibility Score: inf
ROOT
ATOM      1  C   UNL     1     -14.768 -31.130 -13.258  1.00  0.00     0.180 A 
ATOM      2  C   UNL     1     -14.896 -30.709 -11.923  1.00  0.00     0.208 A 
ATOM      3  C   UNL     1     -14.817 -29.337 -11.631  1.00  0.00     0.238 A 
ATOM      4  O   UNL     1     -14.877 -28.971 -10.429  1.00  0.00    -0.285 OA
ATOM      5  C   UNL     1     -14.627 -28.404 -12.679  1.00  0.00     0.111 A 
ATOM      6  C   UNL     1     -14.572 -26.989 -12.503  1.00  0.00     0.134 A 
ATOM      7  C   UNL     1     -14.250 -26.169 -13.592  1.00  0.00     0.093 A 
ATOM      8  C   UNL     1     -14.045 -26.707 -14.861  1.00  0.00     0.123 A 
ATOM      9  C   UNL     1     -14.156 -28.085 -15.058  1.00  0.00     0.094 A 
ATOM     10  C   UNL     1     -14.439 -28.931 -13.983  1.00  0.00     0.146 A 
ATOM     11  O   UNL     1     -14.526 -30.236 -14.210  1.00  0.00    -0.452 OA
ENDROOT
BRANCH   1  12
ATOM     12  C   UNL     1     -14.867 -32.556 -13.646  1.00  0.00     0.021 A 
ATOM     13  C   UNL     1     -13.702 -33.257 -14.003  1.00  0.00     0.016 A 
ATOM     14  C   UNL     1     -13.775 -34.598 -14.394  1.00  0.00     0.047 A 
ATOM     15  C   UNL     1     -15.011 -35.248 -14.451  1.00  0.00     0.115 A 
ATOM     16  C   UNL     1     -16.110 -33.211 -13.725  1.00  0.00     0.016 A 
ATOM     17  C   UNL     1     -16.179 -34.551 -14.118  1.00  0.00     0.047 A 
BRANCH  15  18
ATOM     18  O   UNL     1     -15.067 -36.585 -14.842  1.00  0.00    -0.508 OA
ATOM     19  H   UNL     1     -15.846 -36.945 -15.380  1.00  0.00     0.293 HD
ENDBRANCH  15  18
ENDBRANCH   1  12
BRANCH   2  20
ATOM     20  O   UNL     1     -15.061 -31.649 -10.902  1.00  0.00    -0.502 OA
ATOM     21  H   UNL     1     -15.849 -32.285 -10.870  1.00  0.00     0.293 HD
ENDBRANCH   2  20
BRANCH   6  22
ATOM     22  O   UNL     1     -14.850 -26.341 -11.295  1.00  0.00    -0.507 OA
ATOM     23  H   UNL     1     -14.588 -25.391 -11.079  1.00  0.00     0.293 HD
ENDBRANCH   6  22
BRANCH   8  24
ATOM     24  O   UNL     1     -13.742 -25.861 -15.926  1.00  0.00    -0.508 OA
ATOM     25  H   UNL     1     -14.247 -24.995 -16.076  1.00  0.00     0.293 HD
ENDBRANCH   8  24
TORSDOF 5
ENDMDL
MODEL 5
REMARK VINA RESULT:    -6.968      1.749      6.552
REMARK INTER + INTRA:          -7.934
REMARK INTER:                  -7.982
REMARK INTRA:                   0.048
REMARK UNBOUND:                 0.256
REMARK SMILES O=c1c(O)c(-c2ccc(O)cc2)oc2cc(O)cc(O)c12
REMARK SMILES IDX 5 1 3 2 2 3 1 4 21 5 19 6 18 7 16 8 15 9 14 10 13 11 6 12
REMARK SMILES IDX 7 13 8 14 9 15 12 16 11 17 10 18 4 20 20 22 17 24
REMARK H PARENT 10 19 4 21 20 23 17 25
REMARK Flexibility Score: inf
ROOT
ATOM      1  C   UNL     1     -12.435 -29.733  -9.470  1.00  0.00     0.180 A 
ATOM      2  C   UNL     1     -12.012 -28.983  -8.358  1.00  0.00     0.208 A 
ATOM      3  C   UNL     1     -11.122 -29.568  -7.443  1.00  0.00     0.238 A 
ATOM      4  O   UNL     1     -10.789 -28.912  -6.421  1.00  0.00    -0.285 OA
ATOM      5  C   UNL     1     -10.655 -30.888  -7.658  1.00  0.00     0.111 A 
ATOM      6  C   UNL     1      -9.721 -31.563  -6.817  1.00  0.00     0.134 A 
ATOM      7  C   UNL     1      -9.431 -32.913  -7.052  1.00  0.00     0.093 A 
ATOM      8  C   UNL     1      -9.988 -33.590  -8.135  1.00  0.00     0.123 A 
ATOM      9  C   UNL     1     -10.856 -32.922  -9.000  1.00  0.00     0.094 A 
ATOM     10  C   UNL     1     -11.194 -31.587  -8.769  1.00  0.00     0.146 A 
ATOM     11  O   UNL     1     -12.031 -30.990  -9.609  1.00  0.00    -0.452 OA
ENDROOT
BRANCH   1  12
ATOM     12  C   UNL     1     -13.352 -29.176 -10.492  1.00  0.00     0.021 A 
ATOM     13  C   UNL     1     -14.421 -29.958 -10.961  1.00  0.00     0.016 A 
ATOM     14  C   UNL     1     -15.285 -29.461 -11.941  1.00  0.00     0.047 A 
ATOM     15  C   UNL     1     -15.082 -28.185 -12.477  1.00  0.00     0.115 A 
ATOM     16  C   UNL     1     -13.141 -27.901 -11.049  1.00  0.00     0.016 A 
ATOM     17  C   UNL     1     -14.007 -27.407 -12.030  1.00  0.00     0.047 A 
BRANCH  15  18
ATOM     18  O   UNL     1     -15.952 -27.703 -13.453  1.00  0.00    -0.508 OA
ATOM     19  H   UNL     1     -15.651 -27.572 -14.411  1.00  0.00     0.293 HD
ENDBRANCH  15  18
ENDBRANCH   1  12
BRANCH   2  20
ATOM     20  O   UNL     1     -12.502 -27.691  -8.154  1.00  0.00    -0.502 OA
ATOM     21  H   UNL     1     -11.954 -26.863  -8.357  1.00  0.00     0.293 HD
ENDBRANCH   2  20
BRANCH   6  22
ATOM     22  O   UNL     1      -9.037 -30.953  -5.761  1.00  0.00    -0.507 OA
ATOM     23  H   UNL     1      -9.329 -30.978  -4.796  1.00  0.00     0.293 HD
ENDBRANCH   6  22
BRANCH   8  24
ATOM     24  O   UNL     1      -9.664 -34.929  -8.350  1.00  0.00    -0.508 OA
ATOM     25  H   UNL     1      -8.751 -35.205  -8.694  1.00  0.00     0.293 HD
ENDBRANCH   8  24
TORSDOF 5
ENDMDL
MODEL 6
REMARK VINA RESULT:    -6.770      1.375      2.355
REMARK INTER + INTRA:          -7.701
REMARK INTER:                  -7.833
REMARK INTRA:                   0.132
REMARK UNBOUND:                 0.256
REMARK SMILES O=c1c(O)c(-c2ccc(O)cc2)oc2cc(O)cc(O)c12
REMARK SMILES IDX 5 1 3 2 2 3 1 4 21 5 19 6 18 7 16 8 15 9 14 10 13 11 6 12
REMARK SMILES IDX 7 13 8 14 9 15 12 16 11 17 10 18 4 20 20 22 17 24
REMARK H PARENT 10 19 4 21 20 23 17 25
REMARK Flexibility Score: inf
ROOT
ATOM      1  C   UNL     1     -11.788 -30.190  -8.752  1.00  0.00     0.180 A 
ATOM      2  C   UNL     1     -11.449 -28.870  -9.094  1.00  0.00     0.208 A 
ATOM      3  C   UNL     1     -12.209 -28.202 -10.068  1.00  0.00     0.238 A 
ATOM      4  O   UNL     1     -11.868 -27.040 -10.409  1.00  0.00    -0.285 OA
ATOM      5  C   UNL     1     -13.307 -28.858 -10.676  1.00  0.00     0.111 A 
ATOM      6  C   UNL     1     -14.170 -28.263 -11.645  1.00  0.00     0.134 A 
ATOM      7  C   UNL     1     -15.144 -29.047 -12.276  1.00  0.00     0.093 A 
ATOM      8  C   UNL     1     -15.330 -30.383 -11.926  1.00  0.00     0.123 A 
ATOM      9  C   UNL     1     -14.531 -30.959 -10.936  1.00  0.00     0.094 A 
ATOM     10  C   UNL     1     -13.527 -30.212 -10.316  1.00  0.00     0.146 A 
ATOM     11  O   UNL     1     -12.782 -30.800  -9.388  1.00  0.00    -0.452 OA
ENDROOT
BRANCH   1  12
ATOM     12  C   UNL     1     -11.050 -30.950  -7.716  1.00  0.00     0.021 A 
ATOM     13  C   UNL     1     -10.715 -30.320  -6.505  1.00  0.00     0.016 A 
ATOM     14  C   UNL     1     -10.000 -31.012  -5.523  1.00  0.00     0.047 A 
ATOM     15  C   UNL     1      -9.595 -32.332  -5.744  1.00  0.00     0.115 A 
ATOM     16  C   UNL     1     -10.623 -32.272  -7.941  1.00  0.00     0.016 A 
ATOM     17  C   UNL     1      -9.907 -32.960  -6.957  1.00  0.00     0.047 A 
BRANCH  15  18
ATOM     18  O   UNL     1      -8.884 -33.008  -4.755  1.00  0.00    -0.508 OA
ATOM     19  H   UNL     1      -8.190 -32.537  -4.187  1.00  0.00     0.293 HD
ENDBRANCH  15  18
ENDBRANCH   1  12
BRANCH   2  20
ATOM     20  O   UNL     1     -10.348 -28.249  -8.497  1.00  0.00    -0.502 OA
ATOM     21  H   UNL     1     -10.395 -27.825  -7.578  1.00  0.00     0.293 HD
ENDBRANCH   2  20
BRANCH   6  22
ATOM     22  O   UNL     1     -14.129 -26.911 -12.001  1.00  0.00    -0.507 OA
ATOM     23  H   UNL     1     -14.064 -26.568 -12.948  1.00  0.00     0.293 HD
ENDBRANCH   6  22
BRANCH   8  24
ATOM     24  O   UNL     1     -16.319 -31.129 -12.563  1.00  0.00    -0.508 OA
ATOM     25  H   UNL     1     -17.295 -31.052 -12.298  1.00  0.00     0.293 HD
ENDBRANCH   8  24
TORSDOF 5
ENDMDL
MODEL 7
REMARK VINA RESULT:    -6.629      2.225      7.446
REMARK INTER + INTRA:          -7.535
REMARK INTER:                  -7.475
REMARK INTRA:                  -0.060
REMARK UNBOUND:                 0.256
REMARK SMILES O=c1c(O)c(-c2ccc(O)cc2)oc2cc(O)cc(O)c12
REMARK SMILES IDX 5 1 3 2 2 3 1 4 21 5 19 6 18 7 16 8 15 9 14 10 13 11 6 12
REMARK SMILES IDX 7 13 8 14 9 15 12 16 11 17 10 18 4 20 20 22 17 24
REMARK H PARENT 10 19 4 21 20 23 17 25
REMARK Flexibility Score: inf
ROOT
ATOM      1  C   UNL     1     -11.809 -30.270  -9.010  1.00  0.00     0.180 A 
ATOM      2  C   UNL     1     -11.508 -31.600  -9.354  1.00  0.00     0.208 A 
ATOM      3  C   UNL     1     -10.749 -32.377  -8.464  1.00  0.00     0.238 A 
ATOM      4  O   UNL     1     -10.436 -33.549  -8.801  1.00  0.00    -0.285 OA
ATOM      5  C   UNL     1     -10.314 -31.821  -7.236  1.00  0.00     0.111 A 
ATOM      6  C   UNL     1      -9.575 -32.530  -6.242  1.00  0.00     0.134 A 
ATOM      7  C   UNL     1      -9.086 -31.843  -5.124  1.00  0.00     0.093 A 
ATOM      8  C   UNL     1      -9.365 -30.491  -4.932  1.00  0.00     0.123 A 
ATOM      9  C   UNL     1     -10.138 -29.801  -5.867  1.00  0.00     0.094 A 
ATOM     10  C   UNL     1     -10.608 -30.451  -7.011  1.00  0.00     0.146 A 
ATOM     11  O   UNL     1     -11.332 -29.758  -7.881  1.00  0.00    -0.452 OA
ENDROOT
BRANCH   1  12
ATOM     12  C   UNL     1     -12.626 -29.397  -9.885  1.00  0.00     0.021 A 
ATOM     13  C   UNL     1     -12.130 -28.136 -10.258  1.00  0.00     0.016 A 
ATOM     14  C   UNL     1     -12.893 -27.286 -11.065  1.00  0.00     0.047 A 
ATOM     15  C   UNL     1     -14.165 -27.677 -11.493  1.00  0.00     0.115 A 
ATOM     16  C   UNL     1     -13.914 -29.776 -10.302  1.00  0.00     0.016 A 
ATOM     17  C   UNL     1     -14.675 -28.923 -11.108  1.00  0.00     0.047 A 
BRANCH  15  18
ATOM     18  O   UNL     1     -14.914 -26.820 -12.297  1.00  0.00    -0.508 OA
ATOM     19  H   UNL     1     -14.471 -26.201 -12.966  1.00  0.00     0.293 HD
ENDBRANCH  15  18
ENDBRANCH   1  12
BRANCH   2  20
ATOM     20  O   UNL     1     -11.928 -32.121 -10.580  1.00  0.00    -0.502 OA
ATOM     21  H   UNL     1     -11.441 -31.929 -11.448  1.00  0.00     0.293 HD
ENDBRANCH   2  20
BRANCH   6  22
ATOM     22  O   UNL     1      -9.318 -33.904  -6.292  1.00  0.00    -0.507 OA
ATOM     23  H   UNL     1      -8.629 -34.339  -6.887  1.00  0.00     0.293 HD
ENDBRANCH   6  22
BRANCH   8  24
ATOM     24  O   UNL     1      -8.875 -29.843  -3.800  1.00  0.00    -0.508 OA
ATOM     25  H   UNL     1      -8.312 -30.329  -3.112  1.00  0.00     0.293 HD
ENDBRANCH   8  24
TORSDOF 5
ENDMDL
MODEL 8
REMARK VINA RESULT:    -6.470      1.396      6.242
REMARK INTER + INTRA:          -7.349
REMARK INTER:                  -7.205
REMARK INTRA:                  -0.144
REMARK UNBOUND:                 0.256
REMARK SMILES O=c1c(O)c(-c2ccc(O)cc2)oc2cc(O)cc(O)c12
REMARK SMILES IDX 5 1 3 2 2 3 1 4 21 5 19 6 18 7 16 8 15 9 14 10 13 11 6 12
REMARK SMILES IDX 7 13 8 14 9 15 12 16 11 17 10 18 4 20 20 22 17 24
REMARK H PARENT 10 19 4 21 20 23 17 25
REMARK Flexibility Score: inf
ROOT
ATOM      1  C   UNL     1     -14.064 -30.063 -10.926  1.00  0.00     0.180 A 
ATOM      2  C   UNL     1     -14.592 -28.761 -10.887  1.00  0.00     0.208 A 
ATOM      3  C   UNL     1     -14.056 -27.836  -9.976  1.00  0.00     0.238 A 
ATOM      4  O   UNL     1     -14.568 -26.689  -9.908  1.00  0.00    -0.285 OA
ATOM      5  C   UNL     1     -12.989 -28.220  -9.128  1.00  0.00     0.111 A 
ATOM      6  C   UNL     1     -12.343 -27.353  -8.196  1.00  0.00     0.134 A 
ATOM      7  C   UNL     1     -11.387 -27.875  -7.315  1.00  0.00     0.093 A 
ATOM      8  C   UNL     1     -11.007 -29.214  -7.378  1.00  0.00     0.123 A 
ATOM      9  C   UNL     1     -11.589 -30.058  -8.326  1.00  0.00     0.094 A 
ATOM     10  C   UNL     1     -12.572 -29.575  -9.192  1.00  0.00     0.146 A 
ATOM     11  O   UNL     1     -13.108 -30.412 -10.072  1.00  0.00    -0.452 OA
ENDROOT
BRANCH   1  12
ATOM     12  C   UNL     1     -14.559 -31.086 -11.877  1.00  0.00     0.021 A 
ATOM     13  C   UNL     1     -15.109 -32.281 -11.381  1.00  0.00     0.016 A 
ATOM     14  C   UNL     1     -15.562 -33.269 -12.261  1.00  0.00     0.047 A 
ATOM     15  C   UNL     1     -15.456 -33.084 -13.643  1.00  0.00     0.115 A 
ATOM     16  C   UNL     1     -14.437 -30.914 -13.268  1.00  0.00     0.016 A 
ATOM     17  C   UNL     1     -14.890 -31.905 -14.144  1.00  0.00     0.047 A 
BRANCH  15  18
ATOM     18  O   UNL     1     -15.913 -34.077 -14.507  1.00  0.00    -0.508 OA
ATOM     19  H   UNL     1     -15.713 -34.047 -15.500  1.00  0.00     0.293 HD
ENDBRANCH  15  18
ENDBRANCH   1  12
BRANCH   2  20
ATOM     20  O   UNL     1     -15.659 -28.410 -11.718  1.00  0.00    -0.502 OA
ATOM     21  H   UNL     1     -15.771 -27.476 -12.095  1.00  0.00     0.293 HD
ENDBRANCH   2  20
BRANCH   6  22
ATOM     22  O   UNL     1     -12.583 -25.978  -8.113  1.00  0.00    -0.507 OA
ATOM     23  H   UNL     1     -12.897 -25.499  -7.283  1.00  0.00     0.293 HD
ENDBRANCH   6  22
BRANCH   8  24
ATOM     24  O   UNL     1     -10.041 -29.696  -6.497  1.00  0.00    -0.508 OA
ATOM     25  H   UNL     1      -9.125 -29.987  -6.821  1.00  0.00     0.293 HD
ENDBRANCH   8  24
TORSDOF 5
ENDMDL
MODEL 9
REMARK VINA RESULT:    -6.427      2.085      6.219
REMARK INTER + INTRA:          -7.298
REMARK INTER:                  -7.155
REMARK INTRA:                  -0.144
REMARK UNBOUND:                 0.256
REMARK SMILES O=c1c(O)c(-c2ccc(O)cc2)oc2cc(O)cc(O)c12
REMARK SMILES IDX 5 1 3 2 2 3 1 4 21 5 19 6 18 7 16 8 15 9 14 10 13 11 6 12
REMARK SMILES IDX 7 13 8 14 9 15 12 16 11 17 10 18 4 20 20 22 17 24
REMARK H PARENT 10 19 4 21 20 23 17 25
REMARK Flexibility Score: inf
ROOT
ATOM      1  C   UNL     1     -14.850 -31.614 -12.411  1.00  0.00     0.180 A 
ATOM      2  C   UNL     1     -15.535 -30.522 -12.973  1.00  0.00     0.208 A 
ATOM      3  C   UNL     1     -15.383 -29.252 -12.393  1.00  0.00     0.238 A 
ATOM      4  O   UNL     1     -16.041 -28.289 -12.866  1.00  0.00    -0.285 OA
ATOM      5  C   UNL     1     -14.538 -29.087 -11.269  1.00  0.00     0.111 A 
ATOM      6  C   UNL     1     -14.279 -27.839 -10.626  1.00  0.00     0.134 A 
ATOM      7  C   UNL     1     -13.530 -27.814  -9.443  1.00  0.00     0.093 A 
ATOM      8  C   UNL     1     -12.975 -28.979  -8.918  1.00  0.00     0.123 A 
ATOM      9  C   UNL     1     -13.171 -30.198  -9.571  1.00  0.00     0.094 A 
ATOM     10  C   UNL     1     -13.946 -30.259 -10.732  1.00  0.00     0.146 A 
ATOM     11  O   UNL     1     -14.117 -31.439 -11.317  1.00  0.00    -0.452 OA
ENDROOT
BRANCH   1  12
ATOM     12  C   UNL     1     -14.940 -32.978 -12.982  1.00  0.00     0.021 A 
ATOM     13  C   UNL     1     -15.442 -34.026 -12.191  1.00  0.00     0.016 A 
ATOM     14  C   UNL     1     -15.514 -35.325 -12.703  1.00  0.00     0.047 A 
ATOM     15  C   UNL     1     -15.071 -35.597 -14.000  1.00  0.00     0.115 A 
ATOM     16  C   UNL     1     -14.477 -33.261 -14.280  1.00  0.00     0.016 A 
ATOM     17  C   UNL     1     -14.550 -34.562 -14.787  1.00  0.00     0.047 A 
BRANCH  15  18
ATOM     18  O   UNL     1     -15.151 -36.897 -14.497  1.00  0.00    -0.508 OA
ATOM     19  H   UNL     1     -16.001 -37.250 -14.920  1.00  0.00     0.293 HD
ENDBRANCH  15  18
ENDBRANCH   1  12
BRANCH   2  20
ATOM     20  O   UNL     1     -16.382 -30.712 -14.068  1.00  0.00    -0.502 OA
ATOM     21  H   UNL     1     -17.391 -30.723 -13.980  1.00  0.00     0.293 HD
ENDBRANCH   2  20
BRANCH   6  22
ATOM     22  O   UNL     1     -14.710 -26.603 -11.119  1.00  0.00    -0.507 OA
ATOM     23  H   UNL     1     -14.221 -26.061 -11.815  1.00  0.00     0.293 HD
ENDBRANCH   6  22
BRANCH   8  24
ATOM     24  O   UNL     1     -12.221 -28.915  -7.748  1.00  0.00    -0.508 OA
ATOM     25  H   UNL     1     -12.287 -28.125  -7.117  1.00  0.00     0.293 HD
ENDBRANCH   8  24
TORSDOF 5
ENDMDL
