MODEL 1
REMARK VINA RESULT:    -6.767      0.000      0.000
REMARK INTER + INTRA:          -8.248
REMARK INTER:                  -7.954
REMARK INTRA:                  -0.294
REMARK UNBOUND:                -0.294
REMARK SMILES O=c1cc(-c2ccc(O)c(O)c2)oc2cc(O)cc(O)c12
REMARK SMILES IDX 4 1 3 2 2 3 1 4 21 5 19 6 18 7 16 8 15 9 14 10 13 11 5 12
REMARK SMILES IDX 6 13 7 14 8 15 12 16 10 17 9 18 11 20 20 22 17 24
REMARK H PARENT 9 19 11 21 20 23 17 25
REMARK Flexibility Score: inf
ROOT
ATOM      1  C   UNL     1       4.599 -15.355   7.971  1.00  0.00     0.138 A 
ATOM      2  C   UNL     1       4.485 -14.418   6.930  1.00  0.00     0.100 A 
ATOM      3  C   UNL     1       5.588 -14.164   6.112  1.00  0.00     0.197 A 
ATOM      4  O   UNL     1       5.476 -13.323   5.181  1.00  0.00    -0.289 OA
ATOM      5  C   UNL     1       6.796 -14.852   6.340  1.00  0.00     0.107 A 
ATOM      6  C   UNL     1       7.959 -14.652   5.560  1.00  0.00     0.134 A 
ATOM      7  C   UNL     1       9.123 -15.382   5.848  1.00  0.00     0.093 A 
ATOM      8  C   UNL     1       9.143 -16.306   6.899  1.00  0.00     0.123 A 
ATOM      9  C   UNL     1       7.997 -16.505   7.671  1.00  0.00     0.094 A 
ATOM     10  C   UNL     1       6.828 -15.787   7.401  1.00  0.00     0.146 A 
ATOM     11  O   UNL     1       5.752 -15.995   8.153  1.00  0.00    -0.456 OA
ENDROOT
BRANCH   1  12
ATOM     12  C   UNL     1       3.460 -15.667   8.871  1.00  0.00     0.021 A 
ATOM     13  C   UNL     1       3.512 -16.730   9.792  1.00  0.00     0.016 A 
ATOM     14  C   UNL     1       2.421 -17.007  10.619  1.00  0.00     0.051 A 
ATOM     15  C   UNL     1       1.257 -16.233  10.538  1.00  0.00     0.157 A 
ATOM     16  C   UNL     1       2.282 -14.902   8.787  1.00  0.00     0.062 A 
ATOM     17  C   UNL     1       1.188 -15.177   9.616  1.00  0.00     0.158 A 
BRANCH  15  18
ATOM     18  O   UNL     1       0.172 -16.510  11.367  1.00  0.00    -0.504 OA
ATOM     19  H   UNL     1      -0.449 -15.777  11.692  1.00  0.00     0.293 HD
ENDBRANCH  15  18
BRANCH  17  20
ATOM     20  O   UNL     1       0.042 -14.389   9.507  1.00  0.00    -0.504 OA
ATOM     21  H   UNL     1      -0.119 -13.780   8.714  1.00  0.00     0.293 HD
ENDBRANCH  17  20
ENDBRANCH   1  12
BRANCH   6  22
ATOM     22  O   UNL     1       7.969 -13.739   4.505  1.00  0.00    -0.507 OA
ATOM     23  H   UNL     1       7.205 -13.091   4.354  1.00  0.00     0.293 HD
ENDBRANCH   6  22
BRANCH   8  24
ATOM     24  O   UNL     1      10.298 -17.031   7.185  1.00  0.00    -0.508 OA
ATOM     25  H   UNL     1      10.253 -17.982   7.533  1.00  0.00     0.293 HD
ENDBRANCH   8  24
TORSDOF 5
ENDMDL
MODEL 2
REMARK VINA RESULT:    -6.454      1.892      3.329
REMARK INTER + INTRA:          -7.879
REMARK INTER:                  -7.566
REMARK INTRA:                  -0.313
REMARK UNBOUND:                -0.294
REMARK SMILES O=c1cc(-c2ccc(O)c(O)c2)oc2cc(O)cc(O)c12
REMARK SMILES IDX 4 1 3 2 2 3 1 4 21 5 19 6 18 7 16 8 15 9 14 10 13 11 5 12
REMARK SMILES IDX 6 13 7 14 8 15 12 16 10 17 9 18 11 20 20 22 17 24
REMARK H PARENT 9 19 11 21 20 23 17 25
REMARK Flexibility Score: inf
ROOT
ATOM      1  C   UNL     1       7.016 -15.636   7.622  1.00  0.00     0.138 A 
ATOM      2  C   UNL     1       7.517 -15.309   6.351  1.00  0.00     0.100 A 
ATOM      3  C   UNL     1       8.849 -15.594   6.045  1.00  0.00     0.197 A 
ATOM      4  O   UNL     1       9.289 -15.298   4.902  1.00  0.00    -0.289 OA
ATOM      5  C   UNL     1       9.670 -16.206   7.012  1.00  0.00     0.107 A 
ATOM      6  C   UNL     1      11.029 -16.525   6.784  1.00  0.00     0.134 A 
ATOM      7  C   UNL     1      11.778 -17.141   7.799  1.00  0.00     0.093 A 
ATOM      8  C   UNL     1      11.193 -17.441   9.035  1.00  0.00     0.123 A 
ATOM      9  C   UNL     1       9.852 -17.126   9.264  1.00  0.00     0.094 A 
ATOM     10  C   UNL     1       9.089 -16.513   8.266  1.00  0.00     0.146 A 
ATOM     11  O   UNL     1       7.815 -16.222   8.510  1.00  0.00    -0.456 OA
ENDROOT
BRANCH   1  12
ATOM     12  C   UNL     1       5.608 -15.358   8.003  1.00  0.00     0.021 A 
ATOM     13  C   UNL     1       4.833 -14.396   7.327  1.00  0.00     0.016 A 
ATOM     14  C   UNL     1       3.514 -14.149   7.714  1.00  0.00     0.051 A 
ATOM     15  C   UNL     1       2.947 -14.851   8.785  1.00  0.00     0.157 A 
ATOM     16  C   UNL     1       5.035 -16.049   9.086  1.00  0.00     0.062 A 
ATOM     17  C   UNL     1       3.713 -15.804   9.475  1.00  0.00     0.158 A 
BRANCH  15  18
ATOM     18  O   UNL     1       1.630 -14.603   9.167  1.00  0.00    -0.504 OA
ATOM     19  H   UNL     1       0.867 -14.645   8.500  1.00  0.00     0.293 HD
ENDBRANCH  15  18
BRANCH  17  20
ATOM     20  O   UNL     1       3.179 -16.517  10.548  1.00  0.00    -0.504 OA
ATOM     21  H   UNL     1       2.566 -17.312  10.414  1.00  0.00     0.293 HD
ENDBRANCH  17  20
ENDBRANCH   1  12
BRANCH   6  22
ATOM     22  O   UNL     1      11.639 -16.239   5.562  1.00  0.00    -0.507 OA
ATOM     23  H   UNL     1      11.098 -16.071   4.723  1.00  0.00     0.293 HD
ENDBRANCH   6  22
BRANCH   8  24
ATOM     24  O   UNL     1      11.936 -18.052  10.043  1.00  0.00    -0.508 OA
ATOM     25  H   UNL     1      12.949 -18.046  10.031  1.00  0.00     0.293 HD
ENDBRANCH   8  24
TORSDOF 5
ENDMDL
MODEL 3
REMARK VINA RESULT:    -6.379      1.409      3.360
REMARK INTER + INTRA:          -7.792
REMARK INTER:                  -7.500
REMARK INTRA:                  -0.292
REMARK UNBOUND:                -0.294
REMARK SMILES O=c1cc(-c2ccc(O)c(O)c2)oc2cc(O)cc(O)c12
REMARK SMILES IDX 4 1 3 2 2 3 1 4 21 5 19 6 18 7 16 8 15 9 14 10 13 11 5 12
REMARK SMILES IDX 6 13 7 14 8 15 12 16 10 17 9 18 11 20 20 22 17 24
REMARK H PARENT 9 19 11 21 20 23 17 25
REMARK Flexibility Score: inf
ROOT
ATOM      1  C   UNL     1       3.404 -15.657   9.162  1.00  0.00     0.138 A 
ATOM      2  C   UNL     1       4.446 -16.339   9.811  1.00  0.00     0.100 A 
ATOM      3  C   UNL     1       5.736 -16.284   9.283  1.00  0.00     0.197 A 
ATOM      4  O   UNL     1       6.665 -16.899   9.873  1.00  0.00    -0.289 OA
ATOM      5  C   UNL     1       5.976 -15.543   8.109  1.00  0.00     0.107 A 
ATOM      6  C   UNL     1       7.252 -15.437   7.507  1.00  0.00     0.134 A 
ATOM      7  C   UNL     1       7.410 -14.673   6.340  1.00  0.00     0.093 A 
ATOM      8  C   UNL     1       6.315 -14.015   5.766  1.00  0.00     0.123 A 
ATOM      9  C   UNL     1       5.054 -14.118   6.357  1.00  0.00     0.094 A 
ATOM     10  C   UNL     1       4.877 -14.875   7.519  1.00  0.00     0.146 A 
ATOM     11  O   UNL     1       3.666 -14.958   8.060  1.00  0.00    -0.456 OA
ENDROOT
BRANCH   1  12
ATOM     12  C   UNL     1       2.012 -15.679   9.679  1.00  0.00     0.021 A 
ATOM     13  C   UNL     1       1.050 -14.742   9.257  1.00  0.00     0.016 A 
ATOM     14  C   UNL     1      -0.250 -14.781   9.768  1.00  0.00     0.051 A 
ATOM     15  C   UNL     1      -0.611 -15.750  10.713  1.00  0.00     0.157 A 
ATOM     16  C   UNL     1       1.645 -16.641  10.637  1.00  0.00     0.062 A 
ATOM     17  C   UNL     1       0.343 -16.682  11.150  1.00  0.00     0.158 A 
BRANCH  15  18
ATOM     18  O   UNL     1      -1.909 -15.786  11.218  1.00  0.00    -0.504 OA
ATOM     19  H   UNL     1      -2.110 -16.163  12.137  1.00  0.00     0.293 HD
ENDBRANCH  15  18
BRANCH  17  20
ATOM     20  O   UNL     1       0.017 -17.658  12.092  1.00  0.00    -0.504 OA
ATOM     21  H   UNL     1       0.692 -18.341  12.415  1.00  0.00     0.293 HD
ENDBRANCH  17  20
ENDBRANCH   1  12
BRANCH   6  22
ATOM     22  O   UNL     1       8.362 -16.080   8.057  1.00  0.00    -0.507 OA
ATOM     23  H   UNL     1       9.197 -15.571   8.320  1.00  0.00     0.293 HD
ENDBRANCH   6  22
BRANCH   8  24
ATOM     24  O   UNL     1       6.470 -13.257   4.608  1.00  0.00    -0.508 OA
ATOM     25  H   UNL     1       7.202 -12.560   4.525  1.00  0.00     0.293 HD
ENDBRANCH   8  24
TORSDOF 5
ENDMDL
MODEL 4
REMARK VINA RESULT:    -6.364      1.898      2.412
REMARK INTER + INTRA:          -7.774
REMARK INTER:                  -7.486
REMARK INTRA:                  -0.288
REMARK UNBOUND:                -0.294
REMARK SMILES O=c1cc(-c2ccc(O)c(O)c2)oc2cc(O)cc(O)c12
REMARK SMILES IDX 4 1 3 2 2 3 1 4 21 5 19 6 18 7 16 8 15 9 14 10 13 11 5 12
REMARK SMILES IDX 6 13 7 14 8 15 12 16 10 17 9 18 11 20 20 22 17 24
REMARK H PARENT 9 19 11 21 20 23 17 25
REMARK Flexibility Score: inf
ROOT
ATOM      1  C   UNL     1       5.618 -15.902   8.508  1.00  0.00     0.138 A 
ATOM      2  C   UNL     1       5.039 -14.978   7.623  1.00  0.00     0.100 A 
ATOM      3  C   UNL     1       5.798 -14.474   6.565  1.00  0.00     0.197 A 
ATOM      4  O   UNL     1       5.269 -13.646   5.775  1.00  0.00    -0.289 OA
ATOM      5  C   UNL     1       7.130 -14.900   6.399  1.00  0.00     0.107 A 
ATOM      6  C   UNL     1       7.967 -14.438   5.356  1.00  0.00     0.134 A 
ATOM      7  C   UNL     1       9.283 -14.916   5.256  1.00  0.00     0.093 A 
ATOM      8  C   UNL     1       9.774 -15.848   6.179  1.00  0.00     0.123 A 
ATOM      9  C   UNL     1       8.951 -16.306   7.209  1.00  0.00     0.094 A 
ATOM     10  C   UNL     1       7.638 -15.841   7.326  1.00  0.00     0.146 A 
ATOM     11  O   UNL     1       6.876 -16.292   8.318  1.00  0.00    -0.456 OA
ENDROOT
BRANCH   1  12
ATOM     12  C   UNL     1       4.859 -16.473   9.650  1.00  0.00     0.021 A 
ATOM     13  C   UNL     1       3.571 -17.017   9.485  1.00  0.00     0.016 A 
ATOM     14  C   UNL     1       2.876 -17.538  10.580  1.00  0.00     0.051 A 
ATOM     15  C   UNL     1       3.450 -17.520  11.857  1.00  0.00     0.157 A 
ATOM     16  C   UNL     1       5.423 -16.447  10.938  1.00  0.00     0.062 A 
ATOM     17  C   UNL     1       4.729 -16.969  12.036  1.00  0.00     0.158 A 
BRANCH  15  18
ATOM     18  O   UNL     1       2.755 -18.043  12.945  1.00  0.00    -0.504 OA
ATOM     19  H   UNL     1       2.303 -18.949  12.901  1.00  0.00     0.293 HD
ENDBRANCH  15  18
BRANCH  17  20
ATOM     20  O   UNL     1       5.328 -16.932  13.295  1.00  0.00    -0.504 OA
ATOM     21  H   UNL     1       6.283 -16.622  13.428  1.00  0.00     0.293 HD
ENDBRANCH  17  20
ENDBRANCH   1  12
BRANCH   6  22
ATOM     22  O   UNL     1       7.504 -13.510   4.422  1.00  0.00    -0.507 OA
ATOM     23  H   UNL     1       7.880 -13.469   3.482  1.00  0.00     0.293 HD
ENDBRANCH   6  22
BRANCH   8  24
ATOM     24  O   UNL     1      11.080 -16.324   6.080  1.00  0.00    -0.508 OA
ATOM     25  H   UNL     1      11.510 -16.850   6.832  1.00  0.00     0.293 HD
ENDBRANCH   8  24
TORSDOF 5
ENDMDL
MODEL 5
REMARK VINA RESULT:    -6.362      3.962      9.414
REMARK INTER + INTRA:          -7.772
REMARK INTER:                  -7.454
REMARK INTRA:                  -0.318
REMARK UNBOUND:                -0.294
REMARK SMILES O=c1cc(-c2ccc(O)c(O)c2)oc2cc(O)cc(O)c12
REMARK SMILES IDX 4 1 3 2 2 3 1 4 21 5 19 6 18 7 16 8 15 9 14 10 13 11 5 12
REMARK SMILES IDX 6 13 7 14 8 15 12 16 10 17 9 18 11 20 20 22 17 24
REMARK H PARENT 9 19 11 21 20 23 17 25
REMARK Flexibility Score: inf
ROOT
ATOM      1  C   UNL     1      11.628 -16.121   6.881  1.00  0.00     0.138 A 
ATOM      2  C   UNL     1      10.985 -16.894   7.861  1.00  0.00     0.100 A 
ATOM      3  C   UNL     1       9.597 -16.819   7.994  1.00  0.00     0.197 A 
ATOM      4  O   UNL     1       9.029 -17.518   8.875  1.00  0.00    -0.289 OA
ATOM      5  C   UNL     1       8.862 -15.971   7.142  1.00  0.00     0.107 A 
ATOM      6  C   UNL     1       7.456 -15.835   7.211  1.00  0.00     0.134 A 
ATOM      7  C   UNL     1       6.796 -14.972   6.322  1.00  0.00     0.093 A 
ATOM      8  C   UNL     1       7.518 -14.246   5.367  1.00  0.00     0.123 A 
ATOM      9  C   UNL     1       8.906 -14.378   5.296  1.00  0.00     0.094 A 
ATOM     10  C   UNL     1       9.581 -15.231   6.174  1.00  0.00     0.146 A 
ATOM     11  O   UNL     1      10.903 -15.337   6.086  1.00  0.00    -0.456 OA
ENDROOT
BRANCH   1  12
ATOM     12  C   UNL     1      13.100 -16.161   6.693  1.00  0.00     0.021 A 
ATOM     13  C   UNL     1      13.919 -17.033   7.438  1.00  0.00     0.016 A 
ATOM     14  C   UNL     1      15.303 -17.042   7.247  1.00  0.00     0.051 A 
ATOM     15  C   UNL     1      15.895 -16.179   6.317  1.00  0.00     0.157 A 
ATOM     16  C   UNL     1      13.705 -15.289   5.771  1.00  0.00     0.062 A 
ATOM     17  C   UNL     1      15.091 -15.297   5.577  1.00  0.00     0.158 A 
BRANCH  15  18
ATOM     18  O   UNL     1      17.275 -16.193   6.128  1.00  0.00    -0.504 OA
ATOM     19  H   UNL     1      17.919 -16.135   6.909  1.00  0.00     0.293 HD
ENDBRANCH  15  18
BRANCH  17  20
ATOM     20  O   UNL     1      15.650 -14.422   4.645  1.00  0.00    -0.504 OA
ATOM     21  H   UNL     1      15.632 -13.417   4.773  1.00  0.00     0.293 HD
ENDBRANCH  17  20
ENDBRANCH   1  12
BRANCH   6  22
ATOM     22  O   UNL     1       6.710 -16.547   8.152  1.00  0.00    -0.507 OA
ATOM     23  H   UNL     1       7.109 -16.843   9.034  1.00  0.00     0.293 HD
ENDBRANCH   6  22
BRANCH   8  24
ATOM     24  O   UNL     1       6.864 -13.390   4.483  1.00  0.00    -0.508 OA
ATOM     25  H   UNL     1       6.436 -12.528   4.801  1.00  0.00     0.293 HD
ENDBRANCH   8  24
TORSDOF 5
ENDMDL
MODEL 6
REMARK VINA RESULT:    -6.277      2.996      6.809
REMARK INTER + INTRA:          -7.672
REMARK INTER:                  -7.385
REMARK INTRA:                  -0.287
REMARK UNBOUND:                -0.294
REMARK SMILES O=c1cc(-c2ccc(O)c(O)c2)oc2cc(O)cc(O)c12
REMARK SMILES IDX 4 1 3 2 2 3 1 4 21 5 19 6 18 7 16 8 15 9 14 10 13 11 5 12
REMARK SMILES IDX 6 13 7 14 8 15 12 16 10 17 9 18 11 20 20 22 17 24
REMARK H PARENT 9 19 11 21 20 23 17 25
REMARK Flexibility Score: inf
ROOT
ATOM      1  C   UNL     1       9.046 -16.500   8.463  1.00  0.00     0.138 A 
ATOM      2  C   UNL     1       9.612 -16.253   7.201  1.00  0.00     0.100 A 
ATOM      3  C   UNL     1       8.882 -15.540   6.249  1.00  0.00     0.197 A 
ATOM      4  O   UNL     1       9.398 -15.321   5.121  1.00  0.00    -0.289 OA
ATOM      5  C   UNL     1       7.590 -15.076   6.567  1.00  0.00     0.107 A 
ATOM      6  C   UNL     1       6.783 -14.349   5.661  1.00  0.00     0.134 A 
ATOM      7  C   UNL     1       5.508 -13.917   6.058  1.00  0.00     0.093 A 
ATOM      8  C   UNL     1       5.027 -14.200   7.342  1.00  0.00     0.123 A 
ATOM      9  C   UNL     1       5.820 -14.918   8.238  1.00  0.00     0.094 A 
ATOM     10  C   UNL     1       7.093 -15.357   7.862  1.00  0.00     0.146 A 
ATOM     11  O   UNL     1       7.827 -16.040   8.735  1.00  0.00    -0.456 OA
ENDROOT
BRANCH   1  12
ATOM     12  C   UNL     1       9.777 -17.252   9.514  1.00  0.00     0.021 A 
ATOM     13  C   UNL     1       9.099 -17.964  10.522  1.00  0.00     0.016 A 
ATOM     14  C   UNL     1       9.812 -18.654  11.505  1.00  0.00     0.051 A 
ATOM     15  C   UNL     1      11.213 -18.640  11.505  1.00  0.00     0.157 A 
ATOM     16  C   UNL     1      11.183 -17.233   9.529  1.00  0.00     0.062 A 
ATOM     17  C   UNL     1      11.900 -17.924  10.512  1.00  0.00     0.158 A 
BRANCH  15  18
ATOM     18  O   UNL     1      11.921 -19.332  12.485  1.00  0.00    -0.504 OA
ATOM     19  H   UNL     1      11.629 -19.324  13.456  1.00  0.00     0.293 HD
ENDBRANCH  15  18
BRANCH  17  20
ATOM     20  O   UNL     1      13.294 -17.887  10.485  1.00  0.00    -0.504 OA
ATOM     21  H   UNL     1      13.860 -18.603  10.925  1.00  0.00     0.293 HD
ENDBRANCH  17  20
ENDBRANCH   1  12
BRANCH   6  22
ATOM     22  O   UNL     1       7.236 -14.052   4.375  1.00  0.00    -0.507 OA
ATOM     23  H   UNL     1       7.769 -13.213   4.179  1.00  0.00     0.293 HD
ENDBRANCH   6  22
BRANCH   8  24
ATOM     24  O   UNL     1       3.761 -13.771   7.736  1.00  0.00    -0.508 OA
ATOM     25  H   UNL     1       3.559 -13.536   8.701  1.00  0.00     0.293 HD
ENDBRANCH   8  24
TORSDOF 5
ENDMDL
MODEL 7
REMARK VINA RESULT:    -6.245      1.625      7.523
REMARK INTER + INTRA:          -7.634
REMARK INTER:                  -7.339
REMARK INTRA:                  -0.295
REMARK UNBOUND:                -0.294
REMARK SMILES O=c1cc(-c2ccc(O)c(O)c2)oc2cc(O)cc(O)c12
REMARK SMILES IDX 4 1 3 2 2 3 1 4 21 5 19 6 18 7 16 8 15 9 14 10 13 11 5 12
REMARK SMILES IDX 6 13 7 14 8 15 12 16 10 17 9 18 11 20 20 22 17 24
REMARK H PARENT 9 19 11 21 20 23 17 25
REMARK Flexibility Score: inf
ROOT
ATOM      1  C   UNL     1       4.213 -15.747   8.583  1.00  0.00     0.138 A 
ATOM      2  C   UNL     1       4.662 -16.808   9.387  1.00  0.00     0.100 A 
ATOM      3  C   UNL     1       3.811 -17.344  10.354  1.00  0.00     0.197 A 
ATOM      4  O   UNL     1       4.223 -18.297  11.070  1.00  0.00    -0.289 OA
ATOM      5  C   UNL     1       2.514 -16.817  10.510  1.00  0.00     0.107 A 
ATOM      6  C   UNL     1       1.591 -17.300  11.466  1.00  0.00     0.134 A 
ATOM      7  C   UNL     1       0.314 -16.723  11.553  1.00  0.00     0.093 A 
ATOM      8  C   UNL     1      -0.054 -15.674  10.702  1.00  0.00     0.123 A 
ATOM      9  C   UNL     1       0.855 -15.194   9.758  1.00  0.00     0.094 A 
ATOM     10  C   UNL     1       2.132 -15.755   9.655  1.00  0.00     0.146 A 
ATOM     11  O   UNL     1       2.979 -15.278   8.749  1.00  0.00    -0.456 OA
ENDROOT
BRANCH   1  12
ATOM     12  C   UNL     1       5.074 -15.139   7.538  1.00  0.00     0.021 A 
ATOM     13  C   UNL     1       4.588 -14.150   6.661  1.00  0.00     0.016 A 
ATOM     14  C   UNL     1       5.418 -13.602   5.680  1.00  0.00     0.051 A 
ATOM     15  C   UNL     1       6.744 -14.034   5.551  1.00  0.00     0.157 A 
ATOM     16  C   UNL     1       6.403 -15.576   7.394  1.00  0.00     0.062 A 
ATOM     17  C   UNL     1       7.237 -15.028   6.413  1.00  0.00     0.158 A 
BRANCH  15  18
ATOM     18  O   UNL     1       7.569 -13.484   4.573  1.00  0.00    -0.504 OA
ATOM     19  H   UNL     1       7.427 -13.677   3.588  1.00  0.00     0.293 HD
ENDBRANCH  15  18
BRANCH  17  20
ATOM     20  O   UNL     1       8.551 -15.483   6.309  1.00  0.00    -0.504 OA
ATOM     21  H   UNL     1       8.822 -16.197   5.643  1.00  0.00     0.293 HD
ENDBRANCH  17  20
ENDBRANCH   1  12
BRANCH   6  22
ATOM     22  O   UNL     1       1.929 -18.345  12.326  1.00  0.00    -0.507 OA
ATOM     23  H   UNL     1       1.636 -18.353  13.296  1.00  0.00     0.293 HD
ENDBRANCH   6  22
BRANCH   8  24
ATOM     24  O   UNL     1      -1.321 -15.101  10.788  1.00  0.00    -0.508 OA
ATOM     25  H   UNL     1      -2.012 -15.441  11.447  1.00  0.00     0.293 HD
ENDBRANCH   8  24
TORSDOF 5
ENDMDL
MODEL 8
REMARK VINA RESULT:    -6.105      1.479      6.914
REMARK INTER + INTRA:          -7.469
REMARK INTER:                  -7.152
REMARK INTRA:                  -0.318
REMARK UNBOUND:                -0.294
REMARK SMILES O=c1cc(-c2ccc(O)c(O)c2)oc2cc(O)cc(O)c12
REMARK SMILES IDX 4 1 3 2 2 3 1 4 21 5 19 6 18 7 16 8 15 9 14 10 13 11 5 12
REMARK SMILES IDX 6 13 7 14 8 15 12 16 10 17 9 18 11 20 20 22 17 24
REMARK H PARENT 9 19 11 21 20 23 17 25
REMARK Flexibility Score: inf
ROOT
ATOM      1  C   UNL     1       4.271 -15.405   8.239  1.00  0.00     0.138 A 
ATOM      2  C   UNL     1       3.009 -14.793   8.296  1.00  0.00     0.100 A 
ATOM      3  C   UNL     1       2.061 -15.257   9.209  1.00  0.00     0.197 A 
ATOM      4  O   UNL     1       0.931 -14.700   9.254  1.00  0.00    -0.289 OA
ATOM      5  C   UNL     1       2.384 -16.331  10.062  1.00  0.00     0.107 A 
ATOM      6  C   UNL     1       1.482 -16.863  11.013  1.00  0.00     0.134 A 
ATOM      7  C   UNL     1       1.884 -17.932  11.830  1.00  0.00     0.093 A 
ATOM      8  C   UNL     1       3.169 -18.475  11.712  1.00  0.00     0.123 A 
ATOM      9  C   UNL     1       4.061 -17.953  10.774  1.00  0.00     0.094 A 
ATOM     10  C   UNL     1       3.680 -16.889   9.950  1.00  0.00     0.146 A 
ATOM     11  O   UNL     1       4.548 -16.412   9.065  1.00  0.00    -0.456 OA
ENDROOT
BRANCH   1  12
ATOM     12  C   UNL     1       5.319 -14.953   7.289  1.00  0.00     0.021 A 
ATOM     13  C   UNL     1       5.052 -13.993   6.293  1.00  0.00     0.016 A 
ATOM     14  C   UNL     1       6.055 -13.594   5.406  1.00  0.00     0.051 A 
ATOM     15  C   UNL     1       7.338 -14.148   5.492  1.00  0.00     0.157 A 
ATOM     16  C   UNL     1       6.607 -15.514   7.359  1.00  0.00     0.062 A 
ATOM     17  C   UNL     1       7.613 -15.114   6.473  1.00  0.00     0.158 A 
BRANCH  15  18
ATOM     18  O   UNL     1       8.336 -13.745   4.607  1.00  0.00    -0.504 OA
ATOM     19  H   UNL     1       8.115 -13.389   3.684  1.00  0.00     0.293 HD
ENDBRANCH  15  18
BRANCH  17  20
ATOM     20  O   UNL     1       8.879 -15.688   6.583  1.00  0.00    -0.504 OA
ATOM     21  H   UNL     1       9.689 -15.154   6.874  1.00  0.00     0.293 HD
ENDBRANCH  17  20
ENDBRANCH   1  12
BRANCH   6  22
ATOM     22  O   UNL     1       0.196 -16.342  11.153  1.00  0.00    -0.507 OA
ATOM     23  H   UNL     1      -0.236 -16.226  12.062  1.00  0.00     0.293 HD
ENDBRANCH   6  22
BRANCH   8  24
ATOM     24  O   UNL     1       3.568 -19.535  12.523  1.00  0.00    -0.508 OA
ATOM     25  H   UNL     1       3.586 -19.452  13.533  1.00  0.00     0.293 HD
ENDBRANCH   8  24
TORSDOF 5
ENDMDL
MODEL 9
REMARK VINA RESULT:    -6.100      2.090      7.330
REMARK INTER + INTRA:          -7.464
REMARK INTER:                  -7.150
REMARK INTRA:                  -0.314
REMARK UNBOUND:                -0.294
REMARK SMILES O=c1cc(-c2ccc(O)c(O)c2)oc2cc(O)cc(O)c12
REMARK SMILES IDX 4 1 3 2 2 3 1 4 21 5 19 6 18 7 16 8 15 9 14 10 13 11 5 12
REMARK SMILES IDX 6 13 7 14 8 15 12 16 10 17 9 18 11 20 20 22 17 24
REMARK H PARENT 9 19 11 21 20 23 17 25
REMARK Flexibility Score: inf
ROOT
ATOM      1  C   UNL     1       8.198 -15.710   7.533  1.00  0.00     0.138 A 
ATOM      2  C   UNL     1       7.555 -14.764   6.718  1.00  0.00     0.100 A 
ATOM      3  C   UNL     1       6.229 -14.419   6.982  1.00  0.00     0.197 A 
ATOM      4  O   UNL     1       5.661 -13.568   6.246  1.00  0.00    -0.289 OA
ATOM      5  C   UNL     1       5.555 -15.022   8.063  1.00  0.00     0.107 A 
ATOM      6  C   UNL     1       4.212 -14.730   8.398  1.00  0.00     0.134 A 
ATOM      7  C   UNL     1       3.614 -15.371   9.495  1.00  0.00     0.093 A 
ATOM      8  C   UNL     1       4.336 -16.294  10.261  1.00  0.00     0.123 A 
ATOM      9  C   UNL     1       5.661 -16.584   9.933  1.00  0.00     0.094 A 
ATOM     10  C   UNL     1       6.274 -15.958   8.844  1.00  0.00     0.146 A 
ATOM     11  O   UNL     1       7.537 -16.254   8.552  1.00  0.00    -0.456 OA
ENDROOT
BRANCH   1  12
ATOM     12  C   UNL     1       9.608 -16.114   7.301  1.00  0.00     0.021 A 
ATOM     13  C   UNL     1      10.243 -15.909   6.060  1.00  0.00     0.016 A 
ATOM     14  C   UNL     1      11.567 -16.309   5.867  1.00  0.00     0.051 A 
ATOM     15  C   UNL     1      12.279 -16.925   6.904  1.00  0.00     0.157 A 
ATOM     16  C   UNL     1      10.327 -16.745   8.332  1.00  0.00     0.062 A 
ATOM     17  C   UNL     1      11.654 -17.145   8.141  1.00  0.00     0.158 A 
BRANCH  15  18
ATOM     18  O   UNL     1      13.601 -17.320   6.708  1.00  0.00    -0.504 OA
ATOM     19  H   UNL     1      14.044 -18.009   7.305  1.00  0.00     0.293 HD
ENDBRANCH  15  18
BRANCH  17  20
ATOM     20  O   UNL     1      12.334 -17.760   9.193  1.00  0.00    -0.504 OA
ATOM     21  H   UNL     1      12.767 -18.670   9.094  1.00  0.00     0.293 HD
ENDBRANCH  17  20
ENDBRANCH   1  12
BRANCH   6  22
ATOM     22  O   UNL     1       3.469 -13.814   7.653  1.00  0.00    -0.507 OA
ATOM     23  H   UNL     1       3.694 -13.604   6.688  1.00  0.00     0.293 HD
ENDBRANCH   6  22
BRANCH   8  24
ATOM     24  O   UNL     1       3.743 -16.930  11.350  1.00  0.00    -0.508 OA
ATOM     25  H   UNL     1       3.155 -16.424  12.002  1.00  0.00     0.293 HD
ENDBRANCH   8  24
TORSDOF 5
ENDMDL
