MODEL 1
REMARK VINA RESULT:    -1.930      0.000      0.000
REMARK INTER + INTRA:          -7.059
REMARK INTER:                  -5.090
REMARK INTRA:                  -1.969
REMARK UNBOUND:                -1.969
REMARK SMILES CCCCCCCCCCCCCCCCCCCCCCCCCCCCCC(=O)[O-]
REMARK SMILES IDX 16 1 17 2 18 3 19 4 20 5 21 6 22 7 23 8 24 9 25 10 26 11
REMARK SMILES IDX 27 12 28 13 29 14 30 15 31 16 32 17 15 18 14 19 13 20 12 21
REMARK SMILES IDX 11 22 10 23 9 24 8 25 7 26 6 27 5 28 4 29 3 30 2 31 1 32
REMARK H PARENT
REMARK Flexibility Score: inf
ROOT
ATOM      1  C   UNL     1      -1.525 -21.685  15.822  1.00  0.00     0.000 C 
ENDROOT
BRANCH   1   2
ATOM      2  C   UNL     1      -0.245 -22.438  16.212  1.00  0.00     0.000 C 
BRANCH   2   3
ATOM      3  C   UNL     1       0.486 -22.970  14.971  1.00  0.00     0.000 C 
BRANCH   3   4
ATOM      4  C   UNL     1       1.801 -22.221  14.685  1.00  0.00     0.000 C 
BRANCH   4   5
ATOM      5  C   UNL     1       2.925 -23.125  14.134  1.00  0.00     0.000 C 
BRANCH   5   6
ATOM      6  C   UNL     1       4.303 -22.755  14.711  1.00  0.00     0.000 C 
BRANCH   6   7
ATOM      7  C   UNL     1       4.196 -21.878  15.969  1.00  0.00     0.000 C 
BRANCH   7   8
ATOM      8  C   UNL     1       5.286 -22.194  17.002  1.00  0.00     0.000 C 
BRANCH   8   9
ATOM      9  C   UNL     1       6.451 -21.201  16.885  1.00  0.00     0.000 C 
BRANCH   9  10
ATOM     10  C   UNL     1       7.823 -21.897  16.847  1.00  0.00     0.000 C 
BRANCH  10  11
ATOM     11  C   UNL     1       8.474 -21.958  15.451  1.00  0.00     0.000 C 
BRANCH  11  12
ATOM     12  C   UNL     1       7.781 -22.947  14.490  1.00  0.00     0.000 C 
BRANCH  12  13
ATOM     13  C   UNL     1       7.657 -22.380  13.069  1.00  0.00     0.006 C 
BRANCH  13  14
ATOM     14  C   UNL     1       7.575 -20.851  13.088  1.00  0.00     0.053 C 
BRANCH  14  15
ATOM     15  C   UNL     1       8.030 -20.281  11.782  1.00  0.00     0.041 C 
ATOM     16  O   UNL     1       8.786 -20.952  11.029  1.00  0.00    -0.550 OA
ATOM     17  O   UNL     1       7.596 -19.022  11.381  1.00  0.00    -0.550 OA
ENDBRANCH  14  15
ENDBRANCH  13  14
ENDBRANCH  12  13
ENDBRANCH  11  12
ENDBRANCH  10  11
ENDBRANCH   9  10
ENDBRANCH   8   9
ENDBRANCH   7   8
ENDBRANCH   6   7
ENDBRANCH   5   6
ENDBRANCH   4   5
ENDBRANCH   3   4
ENDBRANCH   2   3
ENDBRANCH   1   2
BRANCH   1  18
ATOM     18  C   UNL     1      -2.799 -22.483  16.145  1.00  0.00     0.000 C 
BRANCH  18  19
ATOM     19  C   UNL     1      -4.118 -21.775  15.774  1.00  0.00     0.000 C 
BRANCH  19  20
ATOM     20  C   UNL     1      -5.399 -22.450  16.303  1.00  0.00     0.000 C 
BRANCH  20  21
ATOM     21  C   UNL     1      -5.463 -22.629  17.831  1.00  0.00     0.000 C 
BRANCH  21  22
ATOM     22  C   UNL     1      -6.877 -22.961  18.335  1.00  0.00     0.000 C 
BRANCH  22  23
ATOM     23  C   UNL     1      -7.944 -22.816  17.239  1.00  0.00     0.000 C 
BRANCH  23  24
ATOM     24  C   UNL     1      -9.142 -21.964  17.685  1.00  0.00    -0.000 C 
BRANCH  24  25
ATOM     25  C   UNL     1     -10.405 -22.828  17.829  1.00  0.00    -0.000 C 
BRANCH  25  26
ATOM     26  C   UNL     1     -10.964 -22.838  19.260  1.00  0.00    -0.000 C 
BRANCH  26  27
ATOM     27  C   UNL     1      -9.949 -22.480  20.364  1.00  0.00    -0.000 C 
BRANCH  27  28
ATOM     28  C   UNL     1     -10.580 -22.191  21.742  1.00  0.00    -0.000 C 
BRANCH  28  29
ATOM     29  C   UNL     1     -10.896 -20.698  21.956  1.00  0.00    -0.000 C 
BRANCH  29  30
ATOM     30  C   UNL     1      -9.720 -19.919  22.565  1.00  0.00    -0.000 C 
BRANCH  30  31
ATOM     31  C   UNL     1     -10.047 -18.437  22.858  1.00  0.00    -0.003 C 
ATOM     32  C   UNL     1      -8.870 -17.511  22.555  1.00  0.00     0.004 C 
ENDBRANCH  30  31
ENDBRANCH  29  30
ENDBRANCH  28  29
ENDBRANCH  27  28
ENDBRANCH  26  27
ENDBRANCH  25  26
ENDBRANCH  24  25
ENDBRANCH  23  24
ENDBRANCH  22  23
ENDBRANCH  21  22
ENDBRANCH  20  21
ENDBRANCH  19  20
ENDBRANCH  18  19
ENDBRANCH   1  18
TORSDOF 28
ENDMDL
MODEL 2
REMARK VINA RESULT:    -1.553      1.197      1.924
REMARK INTER + INTRA:          -6.064
REMARK INTER:                  -4.443
REMARK INTRA:                  -1.622
REMARK UNBOUND:                -1.969
REMARK SMILES CCCCCCCCCCCCCCCCCCCCCCCCCCCCCC(=O)[O-]
REMARK SMILES IDX 16 1 17 2 18 3 19 4 20 5 21 6 22 7 23 8 24 9 25 10 26 11
REMARK SMILES IDX 27 12 28 13 29 14 30 15 31 16 32 17 15 18 14 19 13 20 12 21
REMARK SMILES IDX 11 22 10 23 9 24 8 25 7 26 6 27 5 28 4 29 3 30 2 31 1 32
REMARK H PARENT
REMARK Flexibility Score: inf
ROOT
ATOM      1  C   UNL     1      -1.495 -21.543  15.922  1.00  0.00     0.000 C 
ENDROOT
BRANCH   1   2
ATOM      2  C   UNL     1      -0.063 -22.022  16.202  1.00  0.00     0.000 C 
BRANCH   2   3
ATOM      3  C   UNL     1       0.355 -23.125  15.217  1.00  0.00     0.000 C 
BRANCH   3   4
ATOM      4  C   UNL     1       1.640 -22.779  14.442  1.00  0.00     0.000 C 
BRANCH   4   5
ATOM      5  C   UNL     1       2.936 -23.027  15.243  1.00  0.00     0.000 C 
BRANCH   5   6
ATOM      6  C   UNL     1       3.458 -21.745  15.916  1.00  0.00     0.000 C 
BRANCH   6   7
ATOM      7  C   UNL     1       4.993 -21.703  15.987  1.00  0.00     0.000 C 
BRANCH   7   8
ATOM      8  C   UNL     1       5.533 -22.151  17.352  1.00  0.00     0.000 C 
BRANCH   8   9
ATOM      9  C   UNL     1       6.967 -21.644  17.562  1.00  0.00     0.000 C 
BRANCH   9  10
ATOM     10  C   UNL     1       7.663 -21.270  16.241  1.00  0.00     0.000 C 
BRANCH  10  11
ATOM     11  C   UNL     1       8.146 -22.472  15.406  1.00  0.00     0.000 C 
BRANCH  11  12
ATOM     12  C   UNL     1       7.666 -22.437  13.940  1.00  0.00     0.000 C 
BRANCH  12  13
ATOM     13  C   UNL     1       8.315 -21.294  13.147  1.00  0.00     0.006 C 
BRANCH  13  14
ATOM     14  C   UNL     1       8.158 -21.506  11.639  1.00  0.00     0.053 C 
BRANCH  14  15
ATOM     15  C   UNL     1       8.031 -20.194  10.931  1.00  0.00     0.041 C 
ATOM     16  O   UNL     1       8.022 -20.154   9.671  1.00  0.00    -0.550 OA
ATOM     17  O   UNL     1       7.893 -19.019  11.661  1.00  0.00    -0.550 OA
ENDBRANCH  14  15
ENDBRANCH  13  14
ENDBRANCH  12  13
ENDBRANCH  11  12
ENDBRANCH  10  11
ENDBRANCH   9  10
ENDBRANCH   8   9
ENDBRANCH   7   8
ENDBRANCH   6   7
ENDBRANCH   5   6
ENDBRANCH   4   5
ENDBRANCH   3   4
ENDBRANCH   2   3
ENDBRANCH   1   2
BRANCH   1  18
ATOM     18  C   UNL     1      -2.554 -22.574  16.345  1.00  0.00     0.000 C 
BRANCH  18  19
ATOM     19  C   UNL     1      -3.978 -22.007  16.515  1.00  0.00     0.000 C 
BRANCH  19  20
ATOM     20  C   UNL     1      -5.049 -23.033  16.937  1.00  0.00     0.000 C 
BRANCH  20  21
ATOM     21  C   UNL     1      -6.305 -23.075  16.048  1.00  0.00     0.000 C 
BRANCH  21  22
ATOM     22  C   UNL     1      -7.484 -22.287  16.643  1.00  0.00     0.000 C 
BRANCH  22  23
ATOM     23  C   UNL     1      -7.632 -22.500  18.158  1.00  0.00     0.000 C 
BRANCH  23  24
ATOM     24  C   UNL     1      -9.032 -22.137  18.674  1.00  0.00    -0.000 C 
BRANCH  24  25
ATOM     25  C   UNL     1      -9.298 -20.631  18.524  1.00  0.00    -0.000 C 
BRANCH  25  26
ATOM     26  C   UNL     1     -10.644 -20.197  19.127  1.00  0.00    -0.000 C 
BRANCH  26  27
ATOM     27  C   UNL     1     -10.569 -19.023  20.124  1.00  0.00    -0.000 C 
BRANCH  27  28
ATOM     28  C   UNL     1     -10.228 -19.435  21.570  1.00  0.00    -0.000 C 
BRANCH  28  29
ATOM     29  C   UNL     1     -10.887 -20.764  21.987  1.00  0.00    -0.000 C 
BRANCH  29  30
ATOM     30  C   UNL     1      -9.955 -21.658  22.821  1.00  0.00    -0.000 C 
BRANCH  30  31
ATOM     31  C   UNL     1      -9.498 -22.934  22.078  1.00  0.00    -0.003 C 
ATOM     32  C   UNL     1      -7.976 -23.059  22.019  1.00  0.00     0.004 C 
ENDBRANCH  30  31
ENDBRANCH  29  30
ENDBRANCH  28  29
ENDBRANCH  27  28
ENDBRANCH  26  27
ENDBRANCH  25  26
ENDBRANCH  24  25
ENDBRANCH  23  24
ENDBRANCH  22  23
ENDBRANCH  21  22
ENDBRANCH  20  21
ENDBRANCH  19  20
ENDBRANCH  18  19
ENDBRANCH   1  18
TORSDOF 28
ENDMDL
MODEL 3
REMARK VINA RESULT:    -1.516      5.238     15.491
REMARK INTER + INTRA:          -5.968
REMARK INTER:                  -4.131
REMARK INTRA:                  -1.837
REMARK UNBOUND:                -1.969
REMARK SMILES CCCCCCCCCCCCCCCCCCCCCCCCCCCCCC(=O)[O-]
REMARK SMILES IDX 16 1 17 2 18 3 19 4 20 5 21 6 22 7 23 8 24 9 25 10 26 11
REMARK SMILES IDX 27 12 28 13 29 14 30 15 31 16 32 17 15 18 14 19 13 20 12 21
REMARK SMILES IDX 11 22 10 23 9 24 8 25 7 26 6 27 5 28 4 29 3 30 2 31 1 32
REMARK H PARENT
REMARK Flexibility Score: inf
ROOT
ATOM      1  C   UNL     1      -4.568 -22.394  16.434  1.00  0.00     0.000 C 
ENDROOT
BRANCH   1   2
ATOM      2  C   UNL     1      -4.806 -21.205  15.492  1.00  0.00     0.000 C 
BRANCH   2   3
ATOM      3  C   UNL     1      -6.307 -20.942  15.297  1.00  0.00     0.000 C 
BRANCH   3   4
ATOM      4  C   UNL     1      -7.193 -21.963  16.033  1.00  0.00     0.000 C 
BRANCH   4   5
ATOM      5  C   UNL     1      -8.706 -21.685  15.899  1.00  0.00     0.000 C 
BRANCH   5   6
ATOM      6  C   UNL     1      -9.400 -21.576  17.268  1.00  0.00     0.000 C 
BRANCH   6   7
ATOM      7  C   UNL     1      -8.472 -21.967  18.430  1.00  0.00     0.000 C 
BRANCH   7   8
ATOM      8  C   UNL     1      -9.245 -22.456  19.663  1.00  0.00     0.000 C 
BRANCH   8   9
ATOM      9  C   UNL     1      -8.304 -22.609  20.867  1.00  0.00     0.000 C 
BRANCH   9  10
ATOM     10  C   UNL     1      -9.029 -23.124  22.124  1.00  0.00     0.000 C 
BRANCH  10  11
ATOM     11  C   UNL     1      -9.064 -22.127  23.299  1.00  0.00     0.000 C 
BRANCH  11  12
ATOM     12  C   UNL     1     -10.455 -21.504  23.538  1.00  0.00     0.000 C 
BRANCH  12  13
ATOM     13  C   UNL     1     -10.867 -20.558  22.401  1.00  0.00     0.006 C 
BRANCH  13  14
ATOM     14  C   UNL     1     -10.451 -19.115  22.703  1.00  0.00     0.053 C 
BRANCH  14  15
ATOM     15  C   UNL     1     -10.052 -18.407  21.447  1.00  0.00     0.041 C 
ATOM     16  O   UNL     1      -9.284 -17.409  21.501  1.00  0.00    -0.550 OA
ATOM     17  O   UNL     1     -10.504 -18.865  20.214  1.00  0.00    -0.550 OA
ENDBRANCH  14  15
ENDBRANCH  13  14
ENDBRANCH  12  13
ENDBRANCH  11  12
ENDBRANCH  10  11
ENDBRANCH   9  10
ENDBRANCH   8   9
ENDBRANCH   7   8
ENDBRANCH   6   7
ENDBRANCH   5   6
ENDBRANCH   4   5
ENDBRANCH   3   4
ENDBRANCH   2   3
ENDBRANCH   1   2
BRANCH   1  18
ATOM     18  C   UNL     1      -3.142 -22.957  16.321  1.00  0.00     0.000 C 
BRANCH  18  19
ATOM     19  C   UNL     1      -2.125 -22.014  15.647  1.00  0.00     0.000 C 
BRANCH  19  20
ATOM     20  C   UNL     1      -0.722 -21.993  16.288  1.00  0.00     0.000 C 
BRANCH  20  21
ATOM     21  C   UNL     1       0.396 -22.628  15.441  1.00  0.00     0.000 C 
BRANCH  21  22
ATOM     22  C   UNL     1       1.752 -21.927  15.621  1.00  0.00     0.000 C 
BRANCH  22  23
ATOM     23  C   UNL     1       2.929 -22.915  15.649  1.00  0.00     0.000 C 
BRANCH  23  24
ATOM     24  C   UNL     1       4.295 -22.213  15.630  1.00  0.00    -0.000 C 
BRANCH  24  25
ATOM     25  C   UNL     1       4.771 -21.902  17.058  1.00  0.00    -0.000 C 
BRANCH  25  26
ATOM     26  C   UNL     1       6.130 -21.187  17.094  1.00  0.00    -0.000 C 
BRANCH  26  27
ATOM     27  C   UNL     1       7.336 -22.045  16.663  1.00  0.00    -0.000 C 
BRANCH  27  28
ATOM     28  C   UNL     1       8.326 -21.328  15.722  1.00  0.00    -0.000 C 
BRANCH  28  29
ATOM     29  C   UNL     1       8.557 -22.089  14.401  1.00  0.00    -0.000 C 
BRANCH  29  30
ATOM     30  C   UNL     1       7.246 -22.526  13.727  1.00  0.00    -0.000 C 
BRANCH  30  31
ATOM     31  C   UNL     1       6.824 -21.614  12.552  1.00  0.00    -0.003 C 
ATOM     32  C   UNL     1       7.824 -21.655  11.397  1.00  0.00     0.004 C 
ENDBRANCH  30  31
ENDBRANCH  29  30
ENDBRANCH  28  29
ENDBRANCH  27  28
ENDBRANCH  26  27
ENDBRANCH  25  26
ENDBRANCH  24  25
ENDBRANCH  23  24
ENDBRANCH  22  23
ENDBRANCH  21  22
ENDBRANCH  20  21
ENDBRANCH  19  20
ENDBRANCH  18  19
ENDBRANCH   1  18
TORSDOF 28
ENDMDL
MODEL 4
REMARK VINA RESULT:    -1.452      5.216     16.170
REMARK INTER + INTRA:          -5.798
REMARK INTER:                  -4.692
REMARK INTRA:                  -1.106
REMARK UNBOUND:                -1.969
REMARK SMILES CCCCCCCCCCCCCCCCCCCCCCCCCCCCCC(=O)[O-]
REMARK SMILES IDX 16 1 17 2 18 3 19 4 20 5 21 6 22 7 23 8 24 9 25 10 26 11
REMARK SMILES IDX 27 12 28 13 29 14 30 15 31 16 32 17 15 18 14 19 13 20 12 21
REMARK SMILES IDX 11 22 10 23 9 24 8 25 7 26 6 27 5 28 4 29 3 30 2 31 1 32
REMARK H PARENT
REMARK Flexibility Score: inf
ROOT
ATOM      1  C   UNL     1      -2.342 -22.782  15.746  1.00  0.00     0.000 C 
ENDROOT
BRANCH   1   2
ATOM      2  C   UNL     1      -3.625 -21.980  16.009  1.00  0.00     0.000 C 
BRANCH   2   3
ATOM      3  C   UNL     1      -4.452 -22.612  17.139  1.00  0.00     0.000 C 
BRANCH   3   4
ATOM      4  C   UNL     1      -5.862 -23.032  16.686  1.00  0.00     0.000 C 
BRANCH   4   5
ATOM      5  C   UNL     1      -6.914 -23.000  17.815  1.00  0.00     0.000 C 
BRANCH   5   6
ATOM      6  C   UNL     1      -7.690 -21.671  17.849  1.00  0.00     0.000 C 
BRANCH   6   7
ATOM      7  C   UNL     1      -9.094 -21.795  17.235  1.00  0.00     0.000 C 
BRANCH   7   8
ATOM      8  C   UNL     1     -10.204 -21.395  18.216  1.00  0.00     0.000 C 
BRANCH   8   9
ATOM      9  C   UNL     1     -10.774 -22.632  18.925  1.00  0.00     0.000 C 
BRANCH   9  10
ATOM     10  C   UNL     1     -10.000 -22.991  20.206  1.00  0.00     0.000 C 
BRANCH  10  11
ATOM     11  C   UNL     1     -10.828 -22.901  21.503  1.00  0.00     0.000 C 
BRANCH  11  12
ATOM     12  C   UNL     1     -10.557 -21.620  22.320  1.00  0.00     0.000 C 
BRANCH  12  13
ATOM     13  C   UNL     1     -10.282 -20.408  21.419  1.00  0.00     0.006 C 
BRANCH  13  14
ATOM     14  C   UNL     1     -10.724 -19.106  22.093  1.00  0.00     0.053 C 
BRANCH  14  15
ATOM     15  C   UNL     1      -9.597 -18.122  22.130  1.00  0.00     0.041 C 
ATOM     16  O   UNL     1      -8.808 -18.102  23.113  1.00  0.00    -0.550 OA
ATOM     17  O   UNL     1      -9.400 -17.248  21.066  1.00  0.00    -0.550 OA
ENDBRANCH  14  15
ENDBRANCH  13  14
ENDBRANCH  12  13
ENDBRANCH  11  12
ENDBRANCH  10  11
ENDBRANCH   9  10
ENDBRANCH   8   9
ENDBRANCH   7   8
ENDBRANCH   6   7
ENDBRANCH   5   6
ENDBRANCH   4   5
ENDBRANCH   3   4
ENDBRANCH   2   3
ENDBRANCH   1   2
BRANCH   1  18
ATOM     18  C   UNL     1      -1.082 -21.901  15.780  1.00  0.00     0.000 C 
BRANCH  18  19
ATOM     19  C   UNL     1       0.251 -22.678  15.773  1.00  0.00     0.000 C 
BRANCH  19  20
ATOM     20  C   UNL     1       1.061 -22.583  14.464  1.00  0.00     0.000 C 
BRANCH  20  21
ATOM     21  C   UNL     1       2.482 -22.010  14.612  1.00  0.00     0.000 C 
BRANCH  21  22
ATOM     22  C   UNL     1       3.567 -23.100  14.621  1.00  0.00     0.000 C 
BRANCH  22  23
ATOM     23  C   UNL     1       4.390 -23.125  13.323  1.00  0.00     0.000 C 
BRANCH  23  24
ATOM     24  C   UNL     1       5.829 -22.628  13.523  1.00  0.00    -0.000 C 
BRANCH  24  25
ATOM     25  C   UNL     1       6.194 -22.592  15.015  1.00  0.00    -0.000 C 
BRANCH  25  26
ATOM     26  C   UNL     1       7.295 -21.569  15.339  1.00  0.00    -0.000 C 
BRANCH  26  27
ATOM     27  C   UNL     1       8.693 -21.913  14.789  1.00  0.00    -0.000 C 
BRANCH  27  28
ATOM     28  C   UNL     1       8.993 -21.329  13.394  1.00  0.00    -0.000 C 
BRANCH  28  29
ATOM     29  C   UNL     1       9.125 -22.412  12.305  1.00  0.00    -0.000 C 
BRANCH  29  30
ATOM     30  C   UNL     1       8.188 -22.175  11.109  1.00  0.00    -0.000 C 
BRANCH  30  31
ATOM     31  C   UNL     1       8.660 -21.041  10.171  1.00  0.00    -0.003 C 
ATOM     32  C   UNL     1       7.914 -19.731  10.421  1.00  0.00     0.004 C 
ENDBRANCH  30  31
ENDBRANCH  29  30
ENDBRANCH  28  29
ENDBRANCH  27  28
ENDBRANCH  26  27
ENDBRANCH  25  26
ENDBRANCH  24  25
ENDBRANCH  23  24
ENDBRANCH  22  23
ENDBRANCH  21  22
ENDBRANCH  20  21
ENDBRANCH  19  20
ENDBRANCH  18  19
ENDBRANCH   1  18
TORSDOF 28
ENDMDL
MODEL 5
REMARK VINA RESULT:    -1.328      5.496     15.258
REMARK INTER + INTRA:          -5.471
REMARK INTER:                  -3.622
REMARK INTRA:                  -1.850
REMARK UNBOUND:                -1.969
REMARK SMILES CCCCCCCCCCCCCCCCCCCCCCCCCCCCCC(=O)[O-]
REMARK SMILES IDX 16 1 17 2 18 3 19 4 20 5 21 6 22 7 23 8 24 9 25 10 26 11
REMARK SMILES IDX 27 12 28 13 29 14 30 15 31 16 32 17 15 18 14 19 13 20 12 21
REMARK SMILES IDX 11 22 10 23 9 24 8 25 7 26 6 27 5 28 4 29 3 30 2 31 1 32
REMARK H PARENT
REMARK Flexibility Score: inf
ROOT
ATOM      1  C   UNL     1      -6.257 -21.275  16.299  1.00  0.00     0.000 C 
ENDROOT
BRANCH   1   2
ATOM      2  C   UNL     1      -7.333 -21.424  15.214  1.00  0.00     0.000 C 
BRANCH   2   3
ATOM      3  C   UNL     1      -8.465 -20.404  15.411  1.00  0.00     0.000 C 
BRANCH   3   4
ATOM      4  C   UNL     1      -9.468 -20.390  14.243  1.00  0.00     0.000 C 
BRANCH   4   5
ATOM      5  C   UNL     1     -10.924 -20.677  14.669  1.00  0.00     0.000 C 
BRANCH   5   6
ATOM      6  C   UNL     1     -11.064 -22.036  15.379  1.00  0.00     0.000 C 
BRANCH   6   7
ATOM      7  C   UNL     1     -11.125 -21.896  16.908  1.00  0.00     0.000 C 
BRANCH   7   8
ATOM      8  C   UNL     1     -10.031 -22.705  17.618  1.00  0.00     0.000 C 
BRANCH   8   9
ATOM      9  C   UNL     1     -10.217 -22.650  19.141  1.00  0.00     0.000 C 
BRANCH   9  10
ATOM     10  C   UNL     1     -10.915 -21.360  19.608  1.00  0.00     0.000 C 
BRANCH  10  11
ATOM     11  C   UNL     1      -9.958 -20.247  20.078  1.00  0.00     0.000 C 
BRANCH  11  12
ATOM     12  C   UNL     1     -10.212 -18.886  19.395  1.00  0.00     0.000 C 
BRANCH  12  13
ATOM     13  C   UNL     1     -10.572 -17.790  20.407  1.00  0.00     0.006 C 
BRANCH  13  14
ATOM     14  C   UNL     1      -9.335 -17.318  21.176  1.00  0.00     0.053 C 
BRANCH  14  15
ATOM     15  C   UNL     1      -9.401 -17.760  22.604  1.00  0.00     0.041 C 
ATOM     16  O   UNL     1      -8.399 -17.616  23.356  1.00  0.00    -0.550 OA
ATOM     17  O   UNL     1     -10.576 -18.302  23.112  1.00  0.00    -0.550 OA
ENDBRANCH  14  15
ENDBRANCH  13  14
ENDBRANCH  12  13
ENDBRANCH  11  12
ENDBRANCH  10  11
ENDBRANCH   9  10
ENDBRANCH   8   9
ENDBRANCH   7   8
ENDBRANCH   6   7
ENDBRANCH   5   6
ENDBRANCH   4   5
ENDBRANCH   3   4
ENDBRANCH   2   3
ENDBRANCH   1   2
BRANCH   1  18
ATOM     18  C   UNL     1      -6.033 -22.576  17.086  1.00  0.00     0.000 C 
BRANCH  18  19
ATOM     19  C   UNL     1      -4.591 -23.122  17.038  1.00  0.00     0.000 C 
BRANCH  19  20
ATOM     20  C   UNL     1      -3.640 -22.383  16.075  1.00  0.00     0.000 C 
BRANCH  20  21
ATOM     21  C   UNL     1      -2.330 -23.123  15.750  1.00  0.00     0.000 C 
BRANCH  21  22
ATOM     22  C   UNL     1      -1.093 -22.214  15.839  1.00  0.00     0.000 C 
BRANCH  22  23
ATOM     23  C   UNL     1       0.226 -23.001  15.765  1.00  0.00     0.000 C 
BRANCH  23  24
ATOM     24  C   UNL     1       1.396 -22.151  15.248  1.00  0.00    -0.000 C 
BRANCH  24  25
ATOM     25  C   UNL     1       2.259 -22.951  14.259  1.00  0.00    -0.000 C 
BRANCH  25  26
ATOM     26  C   UNL     1       3.766 -22.751  14.482  1.00  0.00    -0.000 C 
BRANCH  26  27
ATOM     27  C   UNL     1       4.567 -22.337  13.231  1.00  0.00    -0.000 C 
BRANCH  27  28
ATOM     28  C   UNL     1       5.882 -23.117  13.028  1.00  0.00    -0.000 C 
BRANCH  28  29
ATOM     29  C   UNL     1       7.126 -22.208  13.036  1.00  0.00    -0.000 C 
BRANCH  29  30
ATOM     30  C   UNL     1       7.363 -21.531  14.396  1.00  0.00    -0.000 C 
BRANCH  30  31
ATOM     31  C   UNL     1       7.771 -22.518  15.513  1.00  0.00    -0.003 C 
ATOM     32  C   UNL     1       7.397 -22.009  16.904  1.00  0.00     0.004 C 
ENDBRANCH  30  31
ENDBRANCH  29  30
ENDBRANCH  28  29
ENDBRANCH  27  28
ENDBRANCH  26  27
ENDBRANCH  25  26
ENDBRANCH  24  25
ENDBRANCH  23  24
ENDBRANCH  22  23
ENDBRANCH  21  22
ENDBRANCH  20  21
ENDBRANCH  19  20
ENDBRANCH  18  19
ENDBRANCH   1  18
TORSDOF 28
ENDMDL
MODEL 6
REMARK VINA RESULT:    -0.901      5.484     16.224
REMARK INTER + INTRA:          -4.345
REMARK INTER:                  -3.561
REMARK INTRA:                  -0.784
REMARK UNBOUND:                -1.969
REMARK SMILES CCCCCCCCCCCCCCCCCCCCCCCCCCCCCC(=O)[O-]
REMARK SMILES IDX 16 1 17 2 18 3 19 4 20 5 21 6 22 7 23 8 24 9 25 10 26 11
REMARK SMILES IDX 27 12 28 13 29 14 30 15 31 16 32 17 15 18 14 19 13 20 12 21
REMARK SMILES IDX 11 22 10 23 9 24 8 25 7 26 6 27 5 28 4 29 3 30 2 31 1 32
REMARK H PARENT
REMARK Flexibility Score: inf
ROOT
ATOM      1  C   UNL     1       0.533 -22.093  15.993  1.00  0.00     0.000 C 
ENDROOT
BRANCH   1   2
ATOM      2  C   UNL     1      -0.344 -22.925  15.047  1.00  0.00     0.000 C 
BRANCH   2   3
ATOM      3  C   UNL     1      -1.753 -23.124  15.627  1.00  0.00     0.000 C 
BRANCH   3   4
ATOM      4  C   UNL     1      -2.404 -21.806  16.083  1.00  0.00     0.000 C 
BRANCH   4   5
ATOM      5  C   UNL     1      -3.903 -21.698  15.732  1.00  0.00     0.000 C 
BRANCH   5   6
ATOM      6  C   UNL     1      -4.707 -22.908  16.240  1.00  0.00     0.000 C 
BRANCH   6   7
ATOM      7  C   UNL     1      -6.220 -22.636  16.276  1.00  0.00     0.000 C 
BRANCH   7   8
ATOM      8  C   UNL     1      -6.877 -23.124  17.574  1.00  0.00     0.000 C 
BRANCH   8   9
ATOM      9  C   UNL     1      -7.893 -22.096  18.089  1.00  0.00     0.000 C 
BRANCH   9  10
ATOM     10  C   UNL     1      -9.043 -22.743  18.882  1.00  0.00     0.000 C 
BRANCH  10  11
ATOM     11  C   UNL     1      -9.515 -21.932  20.105  1.00  0.00     0.000 C 
BRANCH  11  12
ATOM     12  C   UNL     1     -10.460 -20.766  19.745  1.00  0.00     0.000 C 
BRANCH  12  13
ATOM     13  C   UNL     1     -10.023 -19.447  20.397  1.00  0.00     0.006 C 
BRANCH  13  14
ATOM     14  C   UNL     1      -9.790 -19.624  21.901  1.00  0.00     0.053 C 
BRANCH  14  15
ATOM     15  C   UNL     1      -9.911 -18.312  22.611  1.00  0.00     0.041 C 
ATOM     16  O   UNL     1      -9.087 -17.387  22.374  1.00  0.00    -0.550 OA
ATOM     17  O   UNL     1     -10.949 -18.100  23.511  1.00  0.00    -0.550 OA
ENDBRANCH  14  15
ENDBRANCH  13  14
ENDBRANCH  12  13
ENDBRANCH  11  12
ENDBRANCH  10  11
ENDBRANCH   9  10
ENDBRANCH   8   9
ENDBRANCH   7   8
ENDBRANCH   6   7
ENDBRANCH   5   6
ENDBRANCH   4   5
ENDBRANCH   3   4
ENDBRANCH   2   3
ENDBRANCH   1   2
BRANCH   1  18
ATOM     18  C   UNL     1       2.028 -22.191  15.647  1.00  0.00     0.000 C 
BRANCH  18  19
ATOM     19  C   UNL     1       2.982 -21.673  16.744  1.00  0.00     0.000 C 
BRANCH  19  20
ATOM     20  C   UNL     1       4.417 -22.233  16.684  1.00  0.00     0.000 C 
BRANCH  20  21
ATOM     21  C   UNL     1       5.449 -21.484  17.547  1.00  0.00     0.000 C 
BRANCH  21  22
ATOM     22  C   UNL     1       6.790 -21.271  16.824  1.00  0.00     0.000 C 
BRANCH  22  23
ATOM     23  C   UNL     1       7.009 -22.272  15.679  1.00  0.00     0.000 C 
BRANCH  23  24
ATOM     24  C   UNL     1       8.439 -22.833  15.647  1.00  0.00    -0.000 C 
BRANCH  24  25
ATOM     25  C   UNL     1       9.075 -22.632  14.263  1.00  0.00    -0.000 C 
BRANCH  25  26
ATOM     26  C   UNL     1       8.180 -23.124  13.114  1.00  0.00    -0.000 C 
BRANCH  26  27
ATOM     27  C   UNL     1       7.508 -22.013  12.283  1.00  0.00    -0.000 C 
BRANCH  27  28
ATOM     28  C   UNL     1       6.838 -22.504  10.983  1.00  0.00    -0.000 C 
BRANCH  28  29
ATOM     29  C   UNL     1       7.845 -23.088   9.973  1.00  0.00    -0.000 C 
BRANCH  29  30
ATOM     30  C   UNL     1       8.950 -22.092   9.586  1.00  0.00    -0.000 C 
BRANCH  30  31
ATOM     31  C   UNL     1       8.557 -20.615   9.818  1.00  0.00    -0.003 C 
ATOM     32  C   UNL     1       7.999 -19.958   8.556  1.00  0.00     0.004 C 
ENDBRANCH  30  31
ENDBRANCH  29  30
ENDBRANCH  28  29
ENDBRANCH  27  28
ENDBRANCH  26  27
ENDBRANCH  25  26
ENDBRANCH  24  25
ENDBRANCH  23  24
ENDBRANCH  22  23
ENDBRANCH  21  22
ENDBRANCH  20  21
ENDBRANCH  19  20
ENDBRANCH  18  19
ENDBRANCH   1  18
TORSDOF 28
ENDMDL
MODEL 7
REMARK VINA RESULT:    -0.677      5.356     15.731
REMARK INTER + INTRA:          -3.755
REMARK INTER:                  -1.574
REMARK INTRA:                  -2.181
REMARK UNBOUND:                -1.969
REMARK SMILES CCCCCCCCCCCCCCCCCCCCCCCCCCCCCC(=O)[O-]
REMARK SMILES IDX 16 1 17 2 18 3 19 4 20 5 21 6 22 7 23 8 24 9 25 10 26 11
REMARK SMILES IDX 27 12 28 13 29 14 30 15 31 16 32 17 15 18 14 19 13 20 12 21
REMARK SMILES IDX 11 22 10 23 9 24 8 25 7 26 6 27 5 28 4 29 3 30 2 31 1 32
REMARK H PARENT
REMARK Flexibility Score: inf
ROOT
ATOM      1  C   UNL     1      -0.755 -21.473  16.445  1.00  0.00     0.000 C 
ENDROOT
BRANCH   1   2
ATOM      2  C   UNL     1      -1.035 -22.586  15.424  1.00  0.00     0.000 C 
BRANCH   2   3
ATOM      3  C   UNL     1      -2.466 -23.125  15.569  1.00  0.00     0.000 C 
BRANCH   3   4
ATOM      4  C   UNL     1      -3.238 -22.469  16.727  1.00  0.00     0.000 C 
BRANCH   4   5
ATOM      5  C   UNL     1      -4.772 -22.598  16.605  1.00  0.00     0.000 C 
BRANCH   5   6
ATOM      6  C   UNL     1      -5.460 -22.661  17.980  1.00  0.00     0.000 C 
BRANCH   6   7
ATOM      7  C   UNL     1      -6.991 -22.573  17.875  1.00  0.00     0.000 C 
BRANCH   7   8
ATOM      8  C   UNL     1      -7.452 -21.655  16.734  1.00  0.00     0.000 C 
BRANCH   8   9
ATOM      9  C   UNL     1      -8.982 -21.679  16.602  1.00  0.00     0.000 C 
BRANCH   9  10
ATOM     10  C   UNL     1      -9.694 -21.768  17.964  1.00  0.00     0.000 C 
BRANCH  10  11
ATOM     11  C   UNL     1     -10.920 -20.846  18.109  1.00  0.00     0.000 C 
BRANCH  11  12
ATOM     12  C   UNL     1     -10.577 -19.446  18.662  1.00  0.00     0.000 C 
BRANCH  12  13
ATOM     13  C   UNL     1     -10.605 -19.408  20.196  1.00  0.00     0.006 C 
BRANCH  13  14
ATOM     14  C   UNL     1      -9.826 -18.204  20.734  1.00  0.00     0.053 C 
BRANCH  14  15
ATOM     15  C   UNL     1      -9.543 -18.368  22.194  1.00  0.00     0.041 C 
ATOM     16  O   UNL     1      -8.803 -17.540  22.791  1.00  0.00    -0.550 OA
ATOM     17  O   UNL     1     -10.121 -19.416  22.903  1.00  0.00    -0.550 OA
ENDBRANCH  14  15
ENDBRANCH  13  14
ENDBRANCH  12  13
ENDBRANCH  11  12
ENDBRANCH  10  11
ENDBRANCH   9  10
ENDBRANCH   8   9
ENDBRANCH   7   8
ENDBRANCH   6   7
ENDBRANCH   5   6
ENDBRANCH   4   5
ENDBRANCH   3   4
ENDBRANCH   2   3
ENDBRANCH   1   2
BRANCH   1  18
ATOM     18  C   UNL     1       0.746 -21.301  16.730  1.00  0.00     0.000 C 
BRANCH  18  19
ATOM     19  C   UNL     1       1.680 -21.788  15.602  1.00  0.00     0.000 C 
BRANCH  19  20
ATOM     20  C   UNL     1       2.398 -23.125  15.875  1.00  0.00     0.000 C 
BRANCH  20  21
ATOM     21  C   UNL     1       3.919 -23.113  15.635  1.00  0.00     0.000 C 
BRANCH  21  22
ATOM     22  C   UNL     1       4.500 -21.692  15.559  1.00  0.00     0.000 C 
BRANCH  22  23
ATOM     23  C   UNL     1       5.143 -21.244  16.881  1.00  0.00     0.000 C 
BRANCH  23  24
ATOM     24  C   UNL     1       6.119 -22.284  17.449  1.00  0.00    -0.000 C 
BRANCH  24  25
ATOM     25  C   UNL     1       7.576 -21.865  17.193  1.00  0.00    -0.000 C 
BRANCH  25  26
ATOM     26  C   UNL     1       8.266 -22.725  16.122  1.00  0.00    -0.000 C 
BRANCH  26  27
ATOM     27  C   UNL     1       8.899 -21.939  14.955  1.00  0.00    -0.000 C 
BRANCH  27  28
ATOM     28  C   UNL     1       7.880 -21.321  13.975  1.00  0.00    -0.000 C 
BRANCH  28  29
ATOM     29  C   UNL     1       7.163 -22.377  13.111  1.00  0.00    -0.000 C 
BRANCH  29  30
ATOM     30  C   UNL     1       7.272 -22.090  11.605  1.00  0.00    -0.000 C 
BRANCH  30  31
ATOM     31  C   UNL     1       8.703 -21.727  11.148  1.00  0.00    -0.003 C 
ATOM     32  C   UNL     1       8.739 -20.449  10.311  1.00  0.00     0.004 C 
ENDBRANCH  30  31
ENDBRANCH  29  30
ENDBRANCH  28  29
ENDBRANCH  27  28
ENDBRANCH  26  27
ENDBRANCH  25  26
ENDBRANCH  24  25
ENDBRANCH  23  24
ENDBRANCH  22  23
ENDBRANCH  21  22
ENDBRANCH  20  21
ENDBRANCH  19  20
ENDBRANCH  18  19
ENDBRANCH   1  18
TORSDOF 28
ENDMDL
MODEL 8
REMARK VINA RESULT:    -0.507      5.278     16.480
REMARK INTER + INTRA:          -3.306
REMARK INTER:                  -2.086
REMARK INTRA:                  -1.219
REMARK UNBOUND:                -1.969
REMARK SMILES CCCCCCCCCCCCCCCCCCCCCCCCCCCCCC(=O)[O-]
REMARK SMILES IDX 16 1 17 2 18 3 19 4 20 5 21 6 22 7 23 8 24 9 25 10 26 11
REMARK SMILES IDX 27 12 28 13 29 14 30 15 31 16 32 17 15 18 14 19 13 20 12 21
REMARK SMILES IDX 11 22 10 23 9 24 8 25 7 26 6 27 5 28 4 29 3 30 2 31 1 32
REMARK H PARENT
REMARK Flexibility Score: inf
ROOT
ATOM      1  C   UNL     1      -1.218 -21.244  15.817  1.00  0.00     0.000 C 
ENDROOT
BRANCH   1   2
ATOM      2  C   UNL     1      -2.486 -21.978  15.355  1.00  0.00     0.000 C 
BRANCH   2   3
ATOM      3  C   UNL     1      -3.266 -22.543  16.551  1.00  0.00     0.000 C 
BRANCH   3   4
ATOM      4  C   UNL     1      -4.674 -23.035  16.168  1.00  0.00     0.000 C 
BRANCH   4   5
ATOM      5  C   UNL     1      -5.789 -22.003  16.440  1.00  0.00     0.000 C 
BRANCH   5   6
ATOM      6  C   UNL     1      -7.148 -22.673  16.709  1.00  0.00     0.000 C 
BRANCH   6   7
ATOM      7  C   UNL     1      -7.300 -23.125  18.171  1.00  0.00     0.000 C 
BRANCH   7   8
ATOM      8  C   UNL     1      -8.571 -22.572  18.830  1.00  0.00     0.000 C 
BRANCH   8   9
ATOM      9  C   UNL     1      -8.544 -22.810  20.346  1.00  0.00     0.000 C 
BRANCH   9  10
ATOM     10  C   UNL     1      -9.952 -22.973  20.947  1.00  0.00     0.000 C 
BRANCH  10  11
ATOM     11  C   UNL     1     -10.558 -21.678  21.524  1.00  0.00     0.000 C 
BRANCH  11  12
ATOM     12  C   UNL     1      -9.780 -21.119  22.734  1.00  0.00     0.000 C 
BRANCH  12  13
ATOM     13  C   UNL     1      -9.558 -19.604  22.628  1.00  0.00     0.006 C 
BRANCH  13  14
ATOM     14  C   UNL     1     -10.777 -18.907  22.017  1.00  0.00     0.053 C 
BRANCH  14  15
ATOM     15  C   UNL     1     -10.376 -18.078  20.838  1.00  0.00     0.041 C 
ATOM     16  O   UNL     1     -11.123 -18.017  19.825  1.00  0.00    -0.550 OA
ATOM     17  O   UNL     1      -9.193 -17.348  20.870  1.00  0.00    -0.550 OA
ENDBRANCH  14  15
ENDBRANCH  13  14
ENDBRANCH  12  13
ENDBRANCH  11  12
ENDBRANCH  10  11
ENDBRANCH   9  10
ENDBRANCH   8   9
ENDBRANCH   7   8
ENDBRANCH   6   7
ENDBRANCH   5   6
ENDBRANCH   4   5
ENDBRANCH   3   4
ENDBRANCH   2   3
ENDBRANCH   1   2
BRANCH   1  18
ATOM     18  C   UNL     1       0.023 -22.151  15.805  1.00  0.00     0.000 C 
BRANCH  18  19
ATOM     19  C   UNL     1       1.319 -21.482  16.306  1.00  0.00     0.000 C 
BRANCH  19  20
ATOM     20  C   UNL     1       2.627 -22.172  15.871  1.00  0.00     0.000 C 
BRANCH  20  21
ATOM     21  C   UNL     1       3.815 -21.996  16.834  1.00  0.00     0.000 C 
BRANCH  21  22
ATOM     22  C   UNL     1       5.090 -21.507  16.127  1.00  0.00     0.000 C 
BRANCH  22  23
ATOM     23  C   UNL     1       6.313 -22.383  16.441  1.00  0.00     0.000 C 
BRANCH  23  24
ATOM     24  C   UNL     1       7.351 -22.382  15.310  1.00  0.00    -0.000 C 
BRANCH  24  25
ATOM     25  C   UNL     1       7.563 -20.961  14.763  1.00  0.00    -0.000 C 
BRANCH  25  26
ATOM     26  C   UNL     1       8.969 -20.747  14.180  1.00  0.00    -0.000 C 
BRANCH  26  27
ATOM     27  C   UNL     1       9.028 -20.595  12.647  1.00  0.00    -0.000 C 
BRANCH  27  28
ATOM     28  C   UNL     1       9.104 -21.928  11.875  1.00  0.00    -0.000 C 
BRANCH  28  29
ATOM     29  C   UNL     1       7.839 -22.211  11.041  1.00  0.00    -0.000 C 
BRANCH  29  30
ATOM     30  C   UNL     1       8.061 -22.016   9.532  1.00  0.00    -0.000 C 
BRANCH  30  31
ATOM     31  C   UNL     1       9.091 -22.998   8.929  1.00  0.00    -0.003 C 
ATOM     32  C   UNL     1       9.111 -22.952   7.402  1.00  0.00     0.004 C 
ENDBRANCH  30  31
ENDBRANCH  29  30
ENDBRANCH  28  29
ENDBRANCH  27  28
ENDBRANCH  26  27
ENDBRANCH  25  26
ENDBRANCH  24  25
ENDBRANCH  23  24
ENDBRANCH  22  23
ENDBRANCH  21  22
ENDBRANCH  20  21
ENDBRANCH  19  20
ENDBRANCH  18  19
ENDBRANCH   1  18
TORSDOF 28
ENDMDL
