MODEL 1
REMARK VINA RESULT:    -0.273      0.000      0.000
REMARK INTER + INTRA:          -0.663
REMARK INTER:                  -0.329
REMARK INTRA:                  -0.334
REMARK UNBOUND:                -0.334
REMARK SMILES O=c1c(O)c(-c2ccc(O)c(O)c2)oc2cc(O)cc(O)c12
REMARK SMILES IDX 5 1 3 2 2 3 1 4 22 5 20 6 19 7 17 8 16 9 15 10 14 11 6 12
REMARK SMILES IDX 7 13 8 14 9 15 13 16 11 17 10 18 12 20 4 22 21 24 18 26
REMARK H PARENT 10 19 12 21 4 23 21 25 18 27
REMARK Flexibility Score: inf
ROOT
ATOM      1  C   UNL     1      23.867  27.177  47.663  1.00  0.00     0.180 A 
ATOM      2  C   UNL     1      24.730  26.096  47.410  1.00  0.00     0.208 A 
ATOM      3  C   UNL     1      24.177  24.830  47.155  1.00  0.00     0.238 A 
ATOM      4  O   UNL     1      24.951  23.879  46.876  1.00  0.00    -0.285 OA
ATOM      5  C   UNL     1      22.772  24.658  47.172  1.00  0.00     0.111 A 
ATOM      6  C   UNL     1      22.105  23.413  46.967  1.00  0.00     0.134 A 
ATOM      7  C   UNL     1      20.708  23.384  46.875  1.00  0.00     0.093 A 
ATOM      8  C   UNL     1      19.951  24.546  47.047  1.00  0.00     0.123 A 
ATOM      9  C   UNL     1      20.589  25.756  47.307  1.00  0.00     0.094 A 
ATOM     10  C   UNL     1      21.984  25.823  47.367  1.00  0.00     0.146 A 
ATOM     11  O   UNL     1      22.553  26.998  47.606  1.00  0.00    -0.452 OA
ENDROOT
BRANCH   1  12
ATOM     12  C   UNL     1      24.375  28.536  47.964  1.00  0.00     0.025 A 
ATOM     13  C   UNL     1      24.491  29.474  46.930  1.00  0.00     0.016 A 
ATOM     14  C   UNL     1      24.948  30.766  47.196  1.00  0.00     0.051 A 
ATOM     15  C   UNL     1      25.284  31.151  48.498  1.00  0.00     0.157 A 
ATOM     16  C   UNL     1      24.690  28.925  49.277  1.00  0.00     0.062 A 
ATOM     17  C   UNL     1      25.146  30.220  49.555  1.00  0.00     0.158 A 
BRANCH  15  18
ATOM     18  O   UNL     1      25.741  32.455  48.696  1.00  0.00    -0.504 OA
ATOM     19  H   UNL     1      25.220  33.281  48.440  1.00  0.00     0.293 HD
ENDBRANCH  15  18
BRANCH  17  20
ATOM     20  O   UNL     1      25.442  30.536  50.882  1.00  0.00    -0.504 OA
ATOM     21  H   UNL     1      25.557  29.850  51.614  1.00  0.00     0.293 HD
ENDBRANCH  17  20
ENDBRANCH   1  12
BRANCH   2  22
ATOM     22  O   UNL     1      26.112  26.292  47.376  1.00  0.00    -0.502 OA
ATOM     23  H   UNL     1      26.709  26.097  48.170  1.00  0.00     0.293 HD
ENDBRANCH   2  22
BRANCH   6  24
ATOM     24  O   UNL     1      22.762  22.182  46.875  1.00  0.00    -0.507 OA
ATOM     25  H   UNL     1      22.827  21.509  47.623  1.00  0.00     0.293 HD
ENDBRANCH   6  24
BRANCH   8  26
ATOM     26  O   UNL     1      18.560  24.506  46.970  1.00  0.00    -0.508 OA
ATOM     27  H   UNL     1      18.043  23.659  47.174  1.00  0.00     0.293 HD
ENDBRANCH   8  26
TORSDOF 6
ENDMDL
MODEL 2
REMARK VINA RESULT:    -0.243      3.002      4.544
REMARK INTER + INTRA:          -0.627
REMARK INTER:                  -0.292
REMARK INTRA:                  -0.335
REMARK UNBOUND:                -0.334
REMARK SMILES O=c1c(O)c(-c2ccc(O)c(O)c2)oc2cc(O)cc(O)c12
REMARK SMILES IDX 5 1 3 2 2 3 1 4 22 5 20 6 19 7 17 8 16 9 15 10 14 11 6 12
REMARK SMILES IDX 7 13 8 14 9 15 13 16 11 17 10 18 12 20 4 22 21 24 18 26
REMARK H PARENT 10 19 12 21 4 23 21 25 18 27
REMARK Flexibility Score: inf
ROOT
ATOM      1  C   UNL     1      23.148  28.548  47.644  1.00  0.00     0.180 A 
ATOM      2  C   UNL     1      24.397  29.143  47.395  1.00  0.00     0.208 A 
ATOM      3  C   UNL     1      25.508  28.317  47.159  1.00  0.00     0.238 A 
ATOM      4  O   UNL     1      26.612  28.855  46.883  1.00  0.00    -0.285 OA
ATOM      5  C   UNL     1      25.361  26.910  47.189  1.00  0.00     0.111 A 
ATOM      6  C   UNL     1      26.426  25.979  47.003  1.00  0.00     0.134 A 
ATOM      7  C   UNL     1      26.141  24.610  46.924  1.00  0.00     0.093 A 
ATOM      8  C   UNL     1      24.838  24.135  47.089  1.00  0.00     0.123 A 
ATOM      9  C   UNL     1      23.800  25.031  47.331  1.00  0.00     0.094 A 
ATOM     10  C   UNL     1      24.047  26.405  47.379  1.00  0.00     0.146 A 
ATOM     11  O   UNL     1      23.028  27.226  47.600  1.00  0.00    -0.452 OA
ENDROOT
BRANCH   1  12
ATOM     12  C   UNL     1      21.935  29.351  47.926  1.00  0.00     0.025 A 
ATOM     13  C   UNL     1      21.067  29.682  46.878  1.00  0.00     0.016 A 
ATOM     14  C   UNL     1      19.908  30.420  47.125  1.00  0.00     0.051 A 
ATOM     15  C   UNL     1      19.586  30.830  48.424  1.00  0.00     0.157 A 
ATOM     16  C   UNL     1      21.604  29.740  49.235  1.00  0.00     0.062 A 
ATOM     17  C   UNL     1      20.442  30.479  49.495  1.00  0.00     0.158 A 
BRANCH  15  18
ATOM     18  O   UNL     1      18.418  31.571  48.604  1.00  0.00    -0.504 OA
ATOM     19  H   UNL     1      18.085  32.267  47.951  1.00  0.00     0.293 HD
ENDBRANCH  15  18
BRANCH  17  20
ATOM     20  O   UNL     1      20.177  30.833  50.819  1.00  0.00    -0.504 OA
ATOM     21  H   UNL     1      20.594  30.381  51.619  1.00  0.00     0.293 HD
ENDBRANCH  17  20
ENDBRANCH   1  12
BRANCH   2  22
ATOM     22  O   UNL     1      24.516  30.533  47.347  1.00  0.00    -0.502 OA
ATOM     23  H   UNL     1      24.218  31.078  46.547  1.00  0.00     0.293 HD
ENDBRANCH   2  22
BRANCH   6  24
ATOM     24  O   UNL     1      27.774  26.341  46.919  1.00  0.00    -0.507 OA
ATOM     25  H   UNL     1      28.424  26.316  47.689  1.00  0.00     0.293 HD
ENDBRANCH   6  24
BRANCH   8  26
ATOM     26  O   UNL     1      24.565  22.769  47.025  1.00  0.00    -0.508 OA
ATOM     27  H   UNL     1      25.228  22.081  47.361  1.00  0.00     0.293 HD
ENDBRANCH   8  26
TORSDOF 6
ENDMDL
MODEL 3
REMARK VINA RESULT:    -0.243      2.013      2.930
REMARK INTER + INTRA:          -0.626
REMARK INTER:                  -0.292
REMARK INTRA:                  -0.335
REMARK UNBOUND:                -0.334
REMARK SMILES O=c1c(O)c(-c2ccc(O)c(O)c2)oc2cc(O)cc(O)c12
REMARK SMILES IDX 5 1 3 2 2 3 1 4 22 5 20 6 19 7 17 8 16 9 15 10 14 11 6 12
REMARK SMILES IDX 7 13 8 14 9 15 13 16 11 17 10 18 12 20 4 22 21 24 18 26
REMARK H PARENT 10 19 12 21 4 23 21 25 18 27
REMARK Flexibility Score: inf
ROOT
ATOM      1  C   UNL     1      25.860  29.310  47.690  1.00  0.00     0.180 A 
ATOM      2  C   UNL     1      26.666  28.189  47.425  1.00  0.00     0.208 A 
ATOM      3  C   UNL     1      26.048  26.955  47.165  1.00  0.00     0.238 A 
ATOM      4  O   UNL     1      26.772  25.967  46.875  1.00  0.00    -0.285 OA
ATOM      5  C   UNL     1      24.636  26.853  47.189  1.00  0.00     0.111 A 
ATOM      6  C   UNL     1      23.906  25.645  46.980  1.00  0.00     0.134 A 
ATOM      7  C   UNL     1      22.509  25.687  46.897  1.00  0.00     0.093 A 
ATOM      8  C   UNL     1      21.813  26.885  47.081  1.00  0.00     0.123 A 
ATOM      9  C   UNL     1      22.513  28.059  47.345  1.00  0.00     0.094 A 
ATOM     10  C   UNL     1      23.909  28.055  47.397  1.00  0.00     0.146 A 
ATOM     11  O   UNL     1      24.538  29.198  47.640  1.00  0.00    -0.452 OA
ENDROOT
BRANCH   1  12
ATOM     12  C   UNL     1      26.438  30.639  47.998  1.00  0.00     0.025 A 
ATOM     13  C   UNL     1      26.637  31.562  46.962  1.00  0.00     0.016 A 
ATOM     14  C   UNL     1      27.161  32.827  47.232  1.00  0.00     0.051 A 
ATOM     15  C   UNL     1      27.483  33.202  48.541  1.00  0.00     0.157 A 
ATOM     16  C   UNL     1      26.739  31.019  49.316  1.00  0.00     0.062 A 
ATOM     17  C   UNL     1      27.262  32.288  49.599  1.00  0.00     0.158 A 
BRANCH  15  18
ATOM     18  O   UNL     1      28.010  34.478  48.744  1.00  0.00    -0.504 OA
ATOM     19  H   UNL     1      28.144  35.157  48.008  1.00  0.00     0.293 HD
ENDBRANCH  15  18
BRANCH  17  20
ATOM     20  O   UNL     1      27.539  32.597  50.932  1.00  0.00    -0.504 OA
ATOM     21  H   UNL     1      28.349  33.117  51.234  1.00  0.00     0.293 HD
ENDBRANCH  17  20
ENDBRANCH   1  12
BRANCH   2  22
ATOM     22  O   UNL     1      28.056  28.315  47.384  1.00  0.00    -0.502 OA
ATOM     23  H   UNL     1      28.678  27.526  47.506  1.00  0.00     0.293 HD
ENDBRANCH   2  22
BRANCH   6  24
ATOM     24  O   UNL     1      24.499  24.383  46.877  1.00  0.00    -0.507 OA
ATOM     25  H   UNL     1      25.480  24.221  46.710  1.00  0.00     0.293 HD
ENDBRANCH   6  24
BRANCH   8  26
ATOM     26  O   UNL     1      20.421  26.915  47.012  1.00  0.00    -0.508 OA
ATOM     27  H   UNL     1      19.901  26.212  46.503  1.00  0.00     0.293 HD
ENDBRANCH   8  26
TORSDOF 6
ENDMDL
MODEL 4
REMARK VINA RESULT:    -0.237      2.686      3.049
REMARK INTER + INTRA:          -0.620
REMARK INTER:                  -0.290
REMARK INTRA:                  -0.330
REMARK UNBOUND:                -0.334
REMARK SMILES O=c1c(O)c(-c2ccc(O)c(O)c2)oc2cc(O)cc(O)c12
REMARK SMILES IDX 5 1 3 2 2 3 1 4 22 5 20 6 19 7 17 8 16 9 15 10 14 11 6 12
REMARK SMILES IDX 7 13 8 14 9 15 13 16 11 17 10 18 12 20 4 22 21 24 18 26
REMARK H PARENT 10 19 12 21 4 23 21 25 18 27
REMARK Flexibility Score: inf
ROOT
ATOM      1  C   UNL     1      25.939  27.503  47.703  1.00  0.00     0.180 A 
ATOM      2  C   UNL     1      25.982  26.123  47.438  1.00  0.00     0.208 A 
ATOM      3  C   UNL     1      24.782  25.444  47.174  1.00  0.00     0.238 A 
ATOM      4  O   UNL     1      24.832  24.220  46.884  1.00  0.00    -0.285 OA
ATOM      5  C   UNL     1      23.554  26.147  47.193  1.00  0.00     0.111 A 
ATOM      6  C   UNL     1      22.275  25.552  46.980  1.00  0.00     0.134 A 
ATOM      7  C   UNL     1      21.139  26.367  46.892  1.00  0.00     0.093 A 
ATOM      8  C   UNL     1      21.229  27.749  47.076  1.00  0.00     0.123 A 
ATOM      9  C   UNL     1      22.464  28.333  47.345  1.00  0.00     0.094 A 
ATOM     10  C   UNL     1      23.620  27.551  47.402  1.00  0.00     0.146 A 
ATOM     11  O   UNL     1      24.779  28.148  47.649  1.00  0.00    -0.452 OA
ENDROOT
BRANCH   1  12
ATOM     12  C   UNL     1      27.158  28.284  48.015  1.00  0.00     0.025 A 
ATOM     13  C   UNL     1      27.794  29.007  46.997  1.00  0.00     0.016 A 
ATOM     14  C   UNL     1      28.933  29.766  47.274  1.00  0.00     0.051 A 
ATOM     15  C   UNL     1      29.451  29.829  48.572  1.00  0.00     0.157 A 
ATOM     16  C   UNL     1      27.662  28.362  49.324  1.00  0.00     0.062 A 
ATOM     17  C   UNL     1      28.802  29.123  49.613  1.00  0.00     0.158 A 
BRANCH  15  18
ATOM     18  O   UNL     1      30.596  30.599  48.781  1.00  0.00    -0.504 OA
ATOM     19  H   UNL     1      30.610  31.458  49.313  1.00  0.00     0.293 HD
ENDBRANCH  15  18
BRANCH  17  20
ATOM     20  O   UNL     1      29.248  29.154  50.936  1.00  0.00    -0.504 OA
ATOM     21  H   UNL     1      29.054  28.432  51.614  1.00  0.00     0.293 HD
ENDBRANCH  17  20
ENDBRANCH   1  12
BRANCH   2  22
ATOM     22  O   UNL     1      27.206  25.453  47.402  1.00  0.00    -0.502 OA
ATOM     23  H   UNL     1      28.034  25.804  47.867  1.00  0.00     0.293 HD
ENDBRANCH   2  22
BRANCH   6  24
ATOM     24  O   UNL     1      22.063  24.174  46.875  1.00  0.00    -0.507 OA
ATOM     25  H   UNL     1      22.794  23.479  46.869  1.00  0.00     0.293 HD
ENDBRANCH   6  24
BRANCH   8  26
ATOM     26  O   UNL     1      20.091  28.551  47.003  1.00  0.00    -0.508 OA
ATOM     27  H   UNL     1      20.089  29.420  46.483  1.00  0.00     0.293 HD
ENDBRANCH   8  26
TORSDOF 6
ENDMDL
MODEL 5
REMARK VINA RESULT:    -0.228      2.550      6.915
REMARK INTER + INTRA:          -0.609
REMARK INTER:                  -0.275
REMARK INTRA:                  -0.334
REMARK UNBOUND:                -0.334
REMARK SMILES O=c1c(O)c(-c2ccc(O)c(O)c2)oc2cc(O)cc(O)c12
REMARK SMILES IDX 5 1 3 2 2 3 1 4 22 5 20 6 19 7 17 8 16 9 15 10 14 11 6 12
REMARK SMILES IDX 7 13 8 14 9 15 13 16 11 17 10 18 12 20 4 22 21 24 18 26
REMARK H PARENT 10 19 12 21 4 23 21 25 18 27
REMARK Flexibility Score: inf
ROOT
ATOM      1  C   UNL     1      23.942  25.789  47.736  1.00  0.00     0.180 A 
ATOM      2  C   UNL     1      23.846  27.187  47.628  1.00  0.00     0.208 A 
ATOM      3  C   UNL     1      25.017  27.937  47.432  1.00  0.00     0.238 A 
ATOM      4  O   UNL     1      24.919  29.182  47.282  1.00  0.00    -0.285 OA
ATOM      5  C   UNL     1      26.271  27.281  47.363  1.00  0.00     0.111 A 
ATOM      6  C   UNL     1      27.525  27.944  47.207  1.00  0.00     0.134 A 
ATOM      7  C   UNL     1      28.688  27.187  47.020  1.00  0.00     0.093 A 
ATOM      8  C   UNL     1      28.650  25.791  47.049  1.00  0.00     0.123 A 
ATOM      9  C   UNL     1      27.440  25.135  47.259  1.00  0.00     0.094 A 
ATOM     10  C   UNL     1      26.257  25.862  47.413  1.00  0.00     0.146 A 
ATOM     11  O   UNL     1      25.124  25.198  47.601  1.00  0.00    -0.452 OA
ENDROOT
BRANCH   1  12
ATOM     12  C   UNL     1      22.755  24.934  47.968  1.00  0.00     0.025 A 
ATOM     13  C   UNL     1      22.107  24.342  46.876  1.00  0.00     0.016 A 
ATOM     14  C   UNL     1      20.999  23.516  47.073  1.00  0.00     0.051 A 
ATOM     15  C   UNL     1      20.526  23.253  48.363  1.00  0.00     0.157 A 
ATOM     16  C   UNL     1      22.298  24.654  49.266  1.00  0.00     0.062 A 
ATOM     17  C   UNL     1      21.189  23.824  49.476  1.00  0.00     0.158 A 
BRANCH  15  18
ATOM     18  O   UNL     1      19.410  22.425  48.493  1.00  0.00    -0.504 OA
ATOM     19  H   UNL     1      19.375  21.470  48.166  1.00  0.00     0.293 HD
ENDBRANCH  15  18
BRANCH  17  20
ATOM     20  O   UNL     1      20.788  23.591  50.793  1.00  0.00    -0.504 OA
ATOM     21  H   UNL     1      21.427  23.470  51.565  1.00  0.00     0.293 HD
ENDBRANCH  17  20
ENDBRANCH   1  12
BRANCH   2  22
ATOM     22  O   UNL     1      22.598  27.812  47.676  1.00  0.00    -0.502 OA
ATOM     23  H   UNL     1      22.004  27.906  46.861  1.00  0.00     0.293 HD
ENDBRANCH   2  22
BRANCH   6  24
ATOM     24  O   UNL     1      27.685  29.332  47.256  1.00  0.00    -0.507 OA
ATOM     25  H   UNL     1      28.098  29.836  48.026  1.00  0.00     0.293 HD
ENDBRANCH   6  24
BRANCH   8  26
ATOM     26  O   UNL     1      29.815  25.045  46.877  1.00  0.00    -0.508 OA
ATOM     27  H   UNL     1      30.271  24.589  47.658  1.00  0.00     0.293 HD
ENDBRANCH   8  26
TORSDOF 6
ENDMDL
MODEL 6
REMARK VINA RESULT:    -0.195      1.683      3.415
REMARK INTER + INTRA:          -0.569
REMARK INTER:                  -0.246
REMARK INTRA:                  -0.323
REMARK UNBOUND:                -0.334
REMARK SMILES O=c1c(O)c(-c2ccc(O)c(O)c2)oc2cc(O)cc(O)c12
REMARK SMILES IDX 5 1 3 2 2 3 1 4 22 5 20 6 19 7 17 8 16 9 15 10 14 11 6 12
REMARK SMILES IDX 7 13 8 14 9 15 13 16 11 17 10 18 12 20 4 22 21 24 18 26
REMARK H PARENT 10 19 12 21 4 23 21 25 18 27
REMARK Flexibility Score: inf
ROOT
ATOM      1  C   UNL     1      24.838  28.743  48.089  1.00  0.00     0.180 A 
ATOM      2  C   UNL     1      23.441  28.903  48.094  1.00  0.00     0.208 A 
ATOM      3  C   UNL     1      22.630  27.798  47.790  1.00  0.00     0.238 A 
ATOM      4  O   UNL     1      21.380  27.933  47.849  1.00  0.00    -0.285 OA
ATOM      5  C   UNL     1      23.224  26.553  47.472  1.00  0.00     0.111 A 
ATOM      6  C   UNL     1      22.499  25.378  47.111  1.00  0.00     0.134 A 
ATOM      7  C   UNL     1      23.183  24.168  46.944  1.00  0.00     0.093 A 
ATOM      8  C   UNL     1      24.575  24.105  47.061  1.00  0.00     0.123 A 
ATOM      9  C   UNL     1      25.297  25.259  47.355  1.00  0.00     0.094 A 
ATOM     10  C   UNL     1      24.639  26.474  47.563  1.00  0.00     0.146 A 
ATOM     11  O   UNL     1      25.363  27.547  47.852  1.00  0.00    -0.452 OA
ENDROOT
BRANCH   1  12
ATOM     12  C   UNL     1      25.760  29.867  48.374  1.00  0.00     0.025 A 
ATOM     13  C   UNL     1      26.182  30.697  47.326  1.00  0.00     0.016 A 
ATOM     14  C   UNL     1      27.034  31.773  47.576  1.00  0.00     0.051 A 
ATOM     15  C   UNL     1      27.471  32.053  48.876  1.00  0.00     0.157 A 
ATOM     16  C   UNL     1      26.177  30.157  49.684  1.00  0.00     0.062 A 
ATOM     17  C   UNL     1      27.030  31.238  49.946  1.00  0.00     0.158 A 
BRANCH  15  18
ATOM     18  O   UNL     1      28.328  33.139  49.057  1.00  0.00    -0.504 OA
ATOM     19  H   UNL     1      28.254  34.007  48.547  1.00  0.00     0.293 HD
ENDBRANCH  15  18
BRANCH  17  20
ATOM     20  O   UNL     1      27.406  31.466  51.271  1.00  0.00    -0.504 OA
ATOM     21  H   UNL     1      28.253  31.108  51.686  1.00  0.00     0.293 HD
ENDBRANCH  17  20
ENDBRANCH   1  12
BRANCH   2  22
ATOM     22  O   UNL     1      22.876  30.134  48.432  1.00  0.00    -0.502 OA
ATOM     23  H   UNL     1      21.876  30.264  48.536  1.00  0.00     0.293 HD
ENDBRANCH   2  22
BRANCH   6  24
ATOM     24  O   UNL     1      21.120  25.351  46.878  1.00  0.00    -0.507 OA
ATOM     25  H   UNL     1      20.477  26.075  47.159  1.00  0.00     0.293 HD
ENDBRANCH   6  24
BRANCH   8  26
ATOM     26  O   UNL     1      25.250  22.900  46.877  1.00  0.00    -0.508 OA
ATOM     27  H   UNL     1      25.022  22.077  47.423  1.00  0.00     0.293 HD
ENDBRANCH   8  26
TORSDOF 6
ENDMDL
MODEL 7
REMARK VINA RESULT:    -0.186      1.698      2.801
REMARK INTER + INTRA:          -0.558
REMARK INTER:                  -0.234
REMARK INTRA:                  -0.323
REMARK UNBOUND:                -0.334
REMARK SMILES O=c1c(O)c(-c2ccc(O)c(O)c2)oc2cc(O)cc(O)c12
REMARK SMILES IDX 5 1 3 2 2 3 1 4 22 5 20 6 19 7 17 8 16 9 15 10 14 11 6 12
REMARK SMILES IDX 7 13 8 14 9 15 13 16 11 17 10 18 12 20 4 22 21 24 18 26
REMARK H PARENT 10 19 12 21 4 23 21 25 18 27
REMARK Flexibility Score: inf
ROOT
ATOM      1  C   UNL     1      24.620  28.750  48.047  1.00  0.00     0.180 A 
ATOM      2  C   UNL     1      25.856  28.225  47.631  1.00  0.00     0.208 A 
ATOM      3  C   UNL     1      25.938  26.863  47.299  1.00  0.00     0.238 A 
ATOM      4  O   UNL     1      27.033  26.410  46.876  1.00  0.00    -0.285 OA
ATOM      5  C   UNL     1      24.790  26.041  47.402  1.00  0.00     0.111 A 
ATOM      6  C   UNL     1      24.769  24.640  47.130  1.00  0.00     0.134 A 
ATOM      7  C   UNL     1      23.548  23.954  47.138  1.00  0.00     0.093 A 
ATOM      8  C   UNL     1      22.358  24.604  47.473  1.00  0.00     0.123 A 
ATOM      9  C   UNL     1      22.377  25.958  47.798  1.00  0.00     0.094 A 
ATOM     10  C   UNL     1      23.574  26.679  47.763  1.00  0.00     0.146 A 
ATOM     11  O   UNL     1      23.546  27.970  48.069  1.00  0.00    -0.452 OA
ENDROOT
BRANCH   1  12
ATOM     12  C   UNL     1      24.460  30.171  48.437  1.00  0.00     0.025 A 
ATOM     13  C   UNL     1      24.700  30.554  49.763  1.00  0.00     0.016 A 
ATOM     14  C   UNL     1      24.574  31.890  50.147  1.00  0.00     0.051 A 
ATOM     15  C   UNL     1      24.221  32.871  49.215  1.00  0.00     0.157 A 
ATOM     16  C   UNL     1      24.127  31.156  47.492  1.00  0.00     0.062 A 
ATOM     17  C   UNL     1      24.002  32.500  47.867  1.00  0.00     0.158 A 
BRANCH  15  18
ATOM     18  O   UNL     1      24.105  34.187  49.664  1.00  0.00    -0.504 OA
ATOM     19  H   UNL     1      23.914  34.975  49.061  1.00  0.00     0.293 HD
ENDBRANCH  15  18
BRANCH  17  20
ATOM     20  O   UNL     1      23.667  33.425  46.875  1.00  0.00    -0.504 OA
ATOM     21  H   UNL     1      23.187  33.187  46.020  1.00  0.00     0.293 HD
ENDBRANCH  17  20
ENDBRANCH   1  12
BRANCH   2  22
ATOM     22  O   UNL     1      26.971  29.058  47.515  1.00  0.00    -0.502 OA
ATOM     23  H   UNL     1      27.813  28.775  47.028  1.00  0.00     0.293 HD
ENDBRANCH   2  22
BRANCH   6  24
ATOM     24  O   UNL     1      25.912  23.877  46.875  1.00  0.00    -0.507 OA
ATOM     25  H   UNL     1      26.623  24.115  46.201  1.00  0.00     0.293 HD
ENDBRANCH   6  24
BRANCH   8  26
ATOM     26  O   UNL     1      21.150  23.910  47.494  1.00  0.00    -0.508 OA
ATOM     27  H   UNL     1      20.639  23.710  46.643  1.00  0.00     0.293 HD
ENDBRANCH   8  26
TORSDOF 6
ENDMDL
MODEL 8
REMARK VINA RESULT:    -0.156      3.735      5.980
REMARK INTER + INTRA:          -0.522
REMARK INTER:                  -0.188
REMARK INTRA:                  -0.334
REMARK UNBOUND:                -0.334
REMARK SMILES O=c1c(O)c(-c2ccc(O)c(O)c2)oc2cc(O)cc(O)c12
REMARK SMILES IDX 5 1 3 2 2 3 1 4 22 5 20 6 19 7 17 8 16 9 15 10 14 11 6 12
REMARK SMILES IDX 7 13 8 14 9 15 13 16 11 17 10 18 12 20 4 22 21 24 18 26
REMARK H PARENT 10 19 12 21 4 23 21 25 18 27
REMARK Flexibility Score: inf
ROOT
ATOM      1  C   UNL     1      24.289  23.862  49.465  1.00  0.00     0.180 A 
ATOM      2  C   UNL     1      23.192  23.081  49.061  1.00  0.00     0.208 A 
ATOM      3  C   UNL     1      22.170  23.683  48.308  1.00  0.00     0.238 A 
ATOM      4  O   UNL     1      21.218  22.967  47.904  1.00  0.00    -0.285 OA
ATOM      5  C   UNL     1      22.250  25.058  47.982  1.00  0.00     0.111 A 
ATOM      6  C   UNL     1      21.253  25.779  47.259  1.00  0.00     0.134 A 
ATOM      7  C   UNL     1      21.498  27.104  46.880  1.00  0.00     0.093 A 
ATOM      8  C   UNL     1      22.676  27.755  47.256  1.00  0.00     0.123 A 
ATOM      9  C   UNL     1      23.629  27.079  48.013  1.00  0.00     0.094 A 
ATOM     10  C   UNL     1      23.430  25.744  48.375  1.00  0.00     0.146 A 
ATOM     11  O   UNL     1      24.368  25.133  49.087  1.00  0.00    -0.452 OA
ENDROOT
BRANCH   1  12
ATOM     12  C   UNL     1      25.393  23.306  50.282  1.00  0.00     0.025 A 
ATOM     13  C   UNL     1      26.550  22.833  49.648  1.00  0.00     0.016 A 
ATOM     14  C   UNL     1      27.610  22.325  50.400  1.00  0.00     0.051 A 
ATOM     15  C   UNL     1      27.543  22.290  51.797  1.00  0.00     0.157 A 
ATOM     16  C   UNL     1      25.331  23.295  51.685  1.00  0.00     0.062 A 
ATOM     17  C   UNL     1      26.391  22.789  52.449  1.00  0.00     0.158 A 
BRANCH  15  18
ATOM     18  O   UNL     1      28.634  21.762  52.490  1.00  0.00    -0.504 OA
ATOM     19  H   UNL     1      29.597  21.922  52.233  1.00  0.00     0.293 HD
ENDBRANCH  15  18
BRANCH  17  20
ATOM     20  O   UNL     1      26.259  22.807  53.839  1.00  0.00    -0.504 OA
ATOM     21  H   UNL     1      26.155  23.649  54.385  1.00  0.00     0.293 HD
ENDBRANCH  17  20
ENDBRANCH   1  12
BRANCH   2  22
ATOM     22  O   UNL     1      23.144  21.721  49.374  1.00  0.00    -0.502 OA
ATOM     23  H   UNL     1      22.733  21.374  50.233  1.00  0.00     0.293 HD
ENDBRANCH   2  22
BRANCH   6  24
ATOM     24  O   UNL     1      20.005  25.252  46.915  1.00  0.00    -0.507 OA
ATOM     25  H   UNL     1      19.704  24.310  47.113  1.00  0.00     0.293 HD
ENDBRANCH   6  24
BRANCH   8  26
ATOM     26  O   UNL     1      22.905  29.080  46.888  1.00  0.00    -0.508 OA
ATOM     27  H   UNL     1      22.412  29.506  46.112  1.00  0.00     0.293 HD
ENDBRANCH   8  26
TORSDOF 6
ENDMDL
MODEL 9
REMARK VINA RESULT:    -0.152      1.317      1.491
REMARK INTER + INTRA:          -0.517
REMARK INTER:                  -0.182
REMARK INTRA:                  -0.335
REMARK UNBOUND:                -0.334
REMARK SMILES O=c1c(O)c(-c2ccc(O)c(O)c2)oc2cc(O)cc(O)c12
REMARK SMILES IDX 5 1 3 2 2 3 1 4 22 5 20 6 19 7 17 8 16 9 15 10 14 11 6 12
REMARK SMILES IDX 7 13 8 14 9 15 13 16 11 17 10 18 12 20 4 22 21 24 18 26
REMARK H PARENT 10 19 12 21 4 23 21 25 18 27
REMARK Flexibility Score: inf
ROOT
ATOM      1  C   UNL     1      23.644  26.998  48.763  1.00  0.00     0.180 A 
ATOM      2  C   UNL     1      24.735  26.189  48.402  1.00  0.00     0.208 A 
ATOM      3  C   UNL     1      24.489  24.927  47.839  1.00  0.00     0.238 A 
ATOM      4  O   UNL     1      25.469  24.230  47.468  1.00  0.00    -0.285 OA
ATOM      5  C   UNL     1      23.157  24.483  47.657  1.00  0.00     0.111 A 
ATOM      6  C   UNL     1      22.792  23.207  47.133  1.00  0.00     0.134 A 
ATOM      7  C   UNL     1      21.444  22.926  46.875  1.00  0.00     0.093 A 
ATOM      8  C   UNL     1      20.443  23.851  47.185  1.00  0.00     0.123 A 
ATOM      9  C   UNL     1      20.785  25.076  47.753  1.00  0.00     0.094 A 
ATOM     10  C   UNL     1      22.123  25.400  47.987  1.00  0.00     0.146 A 
ATOM     11  O   UNL     1      22.406  26.582  48.520  1.00  0.00    -0.452 OA
ENDROOT
BRANCH   1  12
ATOM     12  C   UNL     1      23.823  28.330  49.386  1.00  0.00     0.025 A 
ATOM     13  C   UNL     1      23.837  29.474  48.577  1.00  0.00     0.016 A 
ATOM     14  C   UNL     1      23.984  30.741  49.145  1.00  0.00     0.051 A 
ATOM     15  C   UNL     1      24.105  30.893  50.530  1.00  0.00     0.157 A 
ATOM     16  C   UNL     1      23.921  28.480  50.779  1.00  0.00     0.062 A 
ATOM     17  C   UNL     1      24.066  29.747  51.360  1.00  0.00     0.158 A 
BRANCH  15  18
ATOM     18  O   UNL     1      24.257  32.185  51.035  1.00  0.00    -0.504 OA
ATOM     19  H   UNL     1      24.860  32.421  51.810  1.00  0.00     0.293 HD
ENDBRANCH  15  18
BRANCH  17  20
ATOM     20  O   UNL     1      24.159  29.820  52.751  1.00  0.00    -0.504 OA
ATOM     21  H   UNL     1      24.610  29.122  53.324  1.00  0.00     0.293 HD
ENDBRANCH  17  20
ENDBRANCH   1  12
BRANCH   2  22
ATOM     22  O   UNL     1      26.041  26.655  48.569  1.00  0.00    -0.502 OA
ATOM     23  H   UNL     1      26.633  26.354  49.334  1.00  0.00     0.293 HD
ENDBRANCH   2  22
BRANCH   6  24
ATOM     24  O   UNL     1      23.703  22.179  46.875  1.00  0.00    -0.507 OA
ATOM     25  H   UNL     1      24.688  22.217  47.091  1.00  0.00     0.293 HD
ENDBRANCH   6  24
BRANCH   8  26
ATOM     26  O   UNL     1      19.103  23.557  46.940  1.00  0.00    -0.508 OA
ATOM     27  H   UNL     1      18.612  22.846  47.469  1.00  0.00     0.293 HD
ENDBRANCH   8  26
TORSDOF 6
ENDMDL
