MODEL 1
REMARK VINA RESULT:    -8.228      0.000      0.000
REMARK INTER + INTRA:         -10.198
REMARK INTER:                  -9.912
REMARK INTRA:                  -0.286
REMARK UNBOUND:                -0.286
REMARK SMILES O=c1c(O)c(-c2ccc(O)c(O)c2)oc2cc(O)cc(O)c12
REMARK SMILES IDX 5 1 3 2 2 3 1 4 22 5 20 6 19 7 17 8 16 9 15 10 14 11 6 12
REMARK SMILES IDX 7 13 8 14 9 15 13 16 11 17 10 18 12 20 4 22 21 24 18 26
REMARK H PARENT 10 19 12 21 4 23 21 25 18 27
REMARK Flexibility Score: inf
ROOT
ATOM      1  C   UNL     1     -35.800  -5.863 -16.447  1.00  0.00     0.180 A 
ATOM      2  C   UNL     1     -36.381  -5.226 -17.557  1.00  0.00     0.208 A 
ATOM      3  C   UNL     1     -35.586  -4.390 -18.356  1.00  0.00     0.238 A 
ATOM      4  O   UNL     1     -36.098  -3.866 -19.381  1.00  0.00    -0.285 OA
ATOM      5  C   UNL     1     -34.225  -4.186 -18.026  1.00  0.00     0.111 A 
ATOM      6  C   UNL     1     -33.336  -3.328 -18.742  1.00  0.00     0.134 A 
ATOM      7  C   UNL     1     -31.977  -3.304 -18.404  1.00  0.00     0.093 A 
ATOM      8  C   UNL     1     -31.488  -4.057 -17.334  1.00  0.00     0.123 A 
ATOM      9  C   UNL     1     -32.358  -4.853 -16.592  1.00  0.00     0.094 A 
ATOM     10  C   UNL     1     -33.712  -4.925 -16.928  1.00  0.00     0.146 A 
ATOM     11  O   UNL     1     -34.504  -5.703 -16.201  1.00  0.00    -0.452 OA
ENDROOT
BRANCH   1  12
ATOM     12  C   UNL     1     -36.580  -6.739 -15.544  1.00  0.00     0.025 A 
ATOM     13  C   UNL     1     -36.390  -8.129 -15.596  1.00  0.00     0.016 A 
ATOM     14  C   UNL     1     -37.101  -8.973 -14.739  1.00  0.00     0.051 A 
ATOM     15  C   UNL     1     -37.997  -8.443 -13.807  1.00  0.00     0.157 A 
ATOM     16  C   UNL     1     -37.467  -6.206 -14.592  1.00  0.00     0.062 A 
ATOM     17  C   UNL     1     -38.180  -7.052 -13.729  1.00  0.00     0.158 A 
BRANCH  15  18
ATOM     18  O   UNL     1     -38.694  -9.311 -12.966  1.00  0.00    -0.504 OA
ATOM     19  H   UNL     1     -39.350  -9.994 -13.323  1.00  0.00     0.293 HD
ENDBRANCH  15  18
BRANCH  17  20
ATOM     20  O   UNL     1     -39.062  -6.516 -12.793  1.00  0.00    -0.504 OA
ATOM     21  H   UNL     1     -39.048  -6.805 -11.822  1.00  0.00     0.293 HD
ENDBRANCH  17  20
ENDBRANCH   1  12
BRANCH   2  22
ATOM     22  O   UNL     1     -37.722  -5.459 -17.879  1.00  0.00    -0.502 OA
ATOM     23  H   UNL     1     -38.141  -6.380 -17.829  1.00  0.00     0.293 HD
ENDBRANCH   2  22
BRANCH   6  24
ATOM     24  O   UNL     1     -33.740  -2.465 -19.765  1.00  0.00    -0.507 OA
ATOM     25  H   UNL     1     -34.682  -2.127 -19.893  1.00  0.00     0.293 HD
ENDBRANCH   6  24
BRANCH   8  26
ATOM     26  O   UNL     1     -30.137  -4.016 -16.995  1.00  0.00    -0.508 OA
ATOM     27  H   UNL     1     -29.437  -4.501 -17.546  1.00  0.00     0.293 HD
ENDBRANCH   8  26
TORSDOF 6
ENDMDL
MODEL 2
REMARK VINA RESULT:    -8.150      0.854      1.127
REMARK INTER + INTRA:         -10.104
REMARK INTER:                 -10.442
REMARK INTRA:                   0.338
REMARK UNBOUND:                -0.286
REMARK SMILES O=c1c(O)c(-c2ccc(O)c(O)c2)oc2cc(O)cc(O)c12
REMARK SMILES IDX 5 1 3 2 2 3 1 4 22 5 20 6 19 7 17 8 16 9 15 10 14 11 6 12
REMARK SMILES IDX 7 13 8 14 9 15 13 16 11 17 10 18 12 20 4 22 21 24 18 26
REMARK H PARENT 10 19 12 21 4 23 21 25 18 27
REMARK Flexibility Score: inf
ROOT
ATOM      1  C   UNL     1     -35.672  -5.814 -16.480  1.00  0.00     0.180 A 
ATOM      2  C   UNL     1     -36.270  -5.163 -17.574  1.00  0.00     0.208 A 
ATOM      3  C   UNL     1     -35.489  -4.308 -18.367  1.00  0.00     0.238 A 
ATOM      4  O   UNL     1     -36.015  -3.771 -19.377  1.00  0.00    -0.285 OA
ATOM      5  C   UNL     1     -34.125  -4.100 -18.048  1.00  0.00     0.111 A 
ATOM      6  C   UNL     1     -33.251  -3.224 -18.758  1.00  0.00     0.134 A 
ATOM      7  C   UNL     1     -31.888  -3.196 -18.434  1.00  0.00     0.093 A 
ATOM      8  C   UNL     1     -31.382  -3.963 -17.382  1.00  0.00     0.123 A 
ATOM      9  C   UNL     1     -32.239  -4.777 -16.645  1.00  0.00     0.094 A 
ATOM     10  C   UNL     1     -33.596  -4.854 -16.968  1.00  0.00     0.146 A 
ATOM     11  O   UNL     1     -34.375  -5.650 -16.245  1.00  0.00    -0.452 OA
ENDROOT
BRANCH   1  12
ATOM     12  C   UNL     1     -36.436  -6.711 -15.584  1.00  0.00     0.025 A 
ATOM     13  C   UNL     1     -36.034  -6.860 -14.248  1.00  0.00     0.016 A 
ATOM     14  C   UNL     1     -36.752  -7.685 -13.379  1.00  0.00     0.051 A 
ATOM     15  C   UNL     1     -37.891  -8.361 -13.826  1.00  0.00     0.157 A 
ATOM     16  C   UNL     1     -37.594  -7.376 -16.026  1.00  0.00     0.062 A 
ATOM     17  C   UNL     1     -38.318  -8.204 -15.155  1.00  0.00     0.158 A 
BRANCH  15  18
ATOM     18  O   UNL     1     -38.586  -9.179 -12.936  1.00  0.00    -0.504 OA
ATOM     19  H   UNL     1     -38.575  -9.018 -11.936  1.00  0.00     0.293 HD
ENDBRANCH  15  18
BRANCH  17  20
ATOM     20  O   UNL     1     -39.460  -8.864 -15.604  1.00  0.00    -0.504 OA
ATOM     21  H   UNL     1     -39.622  -9.036 -16.590  1.00  0.00     0.293 HD
ENDBRANCH  17  20
ENDBRANCH   1  12
BRANCH   2  22
ATOM     22  O   UNL     1     -37.612  -5.400 -17.885  1.00  0.00    -0.502 OA
ATOM     23  H   UNL     1     -38.187  -4.718 -18.365  1.00  0.00     0.293 HD
ENDBRANCH   2  22
BRANCH   6  24
ATOM     24  O   UNL     1     -33.671  -2.347 -19.762  1.00  0.00    -0.507 OA
ATOM     25  H   UNL     1     -33.743  -1.346 -19.658  1.00  0.00     0.293 HD
ENDBRANCH   6  24
BRANCH   8  26
ATOM     26  O   UNL     1     -30.029  -3.918 -17.057  1.00  0.00    -0.508 OA
ATOM     27  H   UNL     1     -29.616  -3.103 -16.617  1.00  0.00     0.293 HD
ENDBRANCH   8  26
TORSDOF 6
ENDMDL
MODEL 3
REMARK VINA RESULT:    -7.970      1.885      6.978
REMARK INTER + INTRA:          -9.887
REMARK INTER:                  -9.639
REMARK INTRA:                  -0.248
REMARK UNBOUND:                -0.286
REMARK SMILES O=c1c(O)c(-c2ccc(O)c(O)c2)oc2cc(O)cc(O)c12
REMARK SMILES IDX 5 1 3 2 2 3 1 4 22 5 20 6 19 7 17 8 16 9 15 10 14 11 6 12
REMARK SMILES IDX 7 13 8 14 9 15 13 16 11 17 10 18 12 20 4 22 21 24 18 26
REMARK H PARENT 10 19 12 21 4 23 21 25 18 27
REMARK Flexibility Score: inf
ROOT
ATOM      1  C   UNL     1     -34.828  -4.051 -16.923  1.00  0.00     0.180 A 
ATOM      2  C   UNL     1     -35.765  -3.174 -16.349  1.00  0.00     0.208 A 
ATOM      3  C   UNL     1     -36.841  -3.707 -15.622  1.00  0.00     0.238 A 
ATOM      4  O   UNL     1     -37.645  -2.916 -15.064  1.00  0.00    -0.285 OA
ATOM      5  C   UNL     1     -36.977  -5.110 -15.492  1.00  0.00     0.111 A 
ATOM      6  C   UNL     1     -38.051  -5.761 -14.812  1.00  0.00     0.134 A 
ATOM      7  C   UNL     1     -38.014  -7.149 -14.634  1.00  0.00     0.093 A 
ATOM      8  C   UNL     1     -36.977  -7.917 -15.168  1.00  0.00     0.123 A 
ATOM      9  C   UNL     1     -35.955  -7.298 -15.884  1.00  0.00     0.094 A 
ATOM     10  C   UNL     1     -35.945  -5.910 -16.047  1.00  0.00     0.146 A 
ATOM     11  O   UNL     1     -34.947  -5.360 -16.728  1.00  0.00    -0.452 OA
ENDROOT
BRANCH   1  12
ATOM     12  C   UNL     1     -33.681  -3.565 -17.724  1.00  0.00     0.025 A 
ATOM     13  C   UNL     1     -32.378  -3.718 -17.227  1.00  0.00     0.016 A 
ATOM     14  C   UNL     1     -31.280  -3.285 -17.975  1.00  0.00     0.051 A 
ATOM     15  C   UNL     1     -31.465  -2.709 -19.235  1.00  0.00     0.157 A 
ATOM     16  C   UNL     1     -33.865  -3.004 -19.000  1.00  0.00     0.062 A 
ATOM     17  C   UNL     1     -32.764  -2.571 -19.753  1.00  0.00     0.158 A 
BRANCH  15  18
ATOM     18  O   UNL     1     -30.350  -2.285 -19.958  1.00  0.00    -0.504 OA
ATOM     19  H   UNL     1     -29.417  -2.620 -19.752  1.00  0.00     0.293 HD
ENDBRANCH  15  18
BRANCH  17  20
ATOM     20  O   UNL     1     -32.955  -2.009 -21.014  1.00  0.00    -0.504 OA
ATOM     21  H   UNL     1     -33.800  -1.498 -21.246  1.00  0.00     0.293 HD
ENDBRANCH  17  20
ENDBRANCH   1  12
BRANCH   2  22
ATOM     22  O   UNL     1     -35.599  -1.791 -16.470  1.00  0.00    -0.502 OA
ATOM     23  H   UNL     1     -36.383  -1.151 -16.512  1.00  0.00     0.293 HD
ENDBRANCH   2  22
BRANCH   6  24
ATOM     24  O   UNL     1     -39.180  -5.099 -14.322  1.00  0.00    -0.507 OA
ATOM     25  H   UNL     1     -39.580  -5.245 -13.407  1.00  0.00     0.293 HD
ENDBRANCH   6  24
BRANCH   8  26
ATOM     26  O   UNL     1     -36.956  -9.300 -14.999  1.00  0.00    -0.508 OA
ATOM     27  H   UNL     1     -37.778  -9.867 -15.174  1.00  0.00     0.293 HD
ENDBRANCH   8  26
TORSDOF 6
ENDMDL
MODEL 4
REMARK VINA RESULT:    -7.791      2.627      7.453
REMARK INTER + INTRA:          -9.671
REMARK INTER:                  -9.493
REMARK INTRA:                  -0.178
REMARK UNBOUND:                -0.286
REMARK SMILES O=c1c(O)c(-c2ccc(O)c(O)c2)oc2cc(O)cc(O)c12
REMARK SMILES IDX 5 1 3 2 2 3 1 4 22 5 20 6 19 7 17 8 16 9 15 10 14 11 6 12
REMARK SMILES IDX 7 13 8 14 9 15 13 16 11 17 10 18 12 20 4 22 21 24 18 26
REMARK H PARENT 10 19 12 21 4 23 21 25 18 27
REMARK Flexibility Score: inf
ROOT
ATOM      1  C   UNL     1     -33.714  -3.657 -17.821  1.00  0.00     0.180 A 
ATOM      2  C   UNL     1     -34.008  -4.987 -17.471  1.00  0.00     0.208 A 
ATOM      3  C   UNL     1     -35.227  -5.269 -16.834  1.00  0.00     0.238 A 
ATOM      4  O   UNL     1     -35.509  -6.468 -16.573  1.00  0.00    -0.285 OA
ATOM      5  C   UNL     1     -36.128  -4.218 -16.538  1.00  0.00     0.111 A 
ATOM      6  C   UNL     1     -37.372  -4.383 -15.858  1.00  0.00     0.134 A 
ATOM      7  C   UNL     1     -38.243  -3.293 -15.736  1.00  0.00     0.093 A 
ATOM      8  C   UNL     1     -37.885  -2.029 -16.211  1.00  0.00     0.123 A 
ATOM      9  C   UNL     1     -36.647  -1.844 -16.823  1.00  0.00     0.094 A 
ATOM     10  C   UNL     1     -35.773  -2.921 -16.992  1.00  0.00     0.146 A 
ATOM     11  O   UNL     1     -34.608  -2.703 -17.589  1.00  0.00    -0.452 OA
ENDROOT
BRANCH   1  12
ATOM     12  C   UNL     1     -32.440  -3.278 -18.473  1.00  0.00     0.025 A 
ATOM     13  C   UNL     1     -31.233  -3.433 -17.774  1.00  0.00     0.016 A 
ATOM     14  C   UNL     1     -30.017  -3.101 -18.377  1.00  0.00     0.051 A 
ATOM     15  C   UNL     1     -29.986  -2.624 -19.690  1.00  0.00     0.157 A 
ATOM     16  C   UNL     1     -32.405  -2.818 -19.802  1.00  0.00     0.062 A 
ATOM     17  C   UNL     1     -31.185  -2.486 -20.409  1.00  0.00     0.158 A 
BRANCH  15  18
ATOM     18  O   UNL     1     -28.758  -2.299 -20.265  1.00  0.00    -0.504 OA
ATOM     19  H   UNL     1     -28.450  -1.340 -20.369  1.00  0.00     0.293 HD
ENDBRANCH  15  18
BRANCH  17  20
ATOM     20  O   UNL     1     -31.161  -2.024 -21.724  1.00  0.00    -0.504 OA
ATOM     21  H   UNL     1     -31.976  -2.085 -22.324  1.00  0.00     0.293 HD
ENDBRANCH  17  20
ENDBRANCH   1  12
BRANCH   2  22
ATOM     22  O   UNL     1     -33.115  -6.013 -17.793  1.00  0.00    -0.502 OA
ATOM     23  H   UNL     1     -32.525  -6.457 -17.099  1.00  0.00     0.293 HD
ENDBRANCH   2  22
BRANCH   6  24
ATOM     24  O   UNL     1     -37.785  -5.580 -15.266  1.00  0.00    -0.507 OA
ATOM     25  H   UNL     1     -37.474  -6.498 -15.548  1.00  0.00     0.293 HD
ENDBRANCH   6  24
BRANCH   8  26
ATOM     26  O   UNL     1     -38.750  -0.946 -16.071  1.00  0.00    -0.508 OA
ATOM     27  H   UNL     1     -38.863  -0.260 -16.809  1.00  0.00     0.293 HD
ENDBRANCH   8  26
TORSDOF 6
ENDMDL
MODEL 5
REMARK VINA RESULT:    -7.751      1.860      7.176
REMARK INTER + INTRA:          -9.623
REMARK INTER:                  -9.305
REMARK INTRA:                  -0.318
REMARK UNBOUND:                -0.286
REMARK SMILES O=c1c(O)c(-c2ccc(O)c(O)c2)oc2cc(O)cc(O)c12
REMARK SMILES IDX 5 1 3 2 2 3 1 4 22 5 20 6 19 7 17 8 16 9 15 10 14 11 6 12
REMARK SMILES IDX 7 13 8 14 9 15 13 16 11 17 10 18 12 20 4 22 21 24 18 26
REMARK H PARENT 10 19 12 21 4 23 21 25 18 27
REMARK Flexibility Score: inf
ROOT
ATOM      1  C   UNL     1     -36.979  -5.416 -16.049  1.00  0.00     0.180 A 
ATOM      2  C   UNL     1     -37.431  -4.367 -15.230  1.00  0.00     0.208 A 
ATOM      3  C   UNL     1     -38.354  -4.649 -14.211  1.00  0.00     0.238 A 
ATOM      4  O   UNL     1     -38.714  -3.717 -13.445  1.00  0.00    -0.285 OA
ATOM      5  C   UNL     1     -38.825  -5.972 -14.033  1.00  0.00     0.111 A 
ATOM      6  C   UNL     1     -39.792  -6.364 -13.058  1.00  0.00     0.134 A 
ATOM      7  C   UNL     1     -40.087  -7.723 -12.885  1.00  0.00     0.093 A 
ATOM      8  C   UNL     1     -39.500  -8.696 -13.698  1.00  0.00     0.123 A 
ATOM      9  C   UNL     1     -38.600  -8.317 -14.692  1.00  0.00     0.094 A 
ATOM     10  C   UNL     1     -38.258  -6.973 -14.863  1.00  0.00     0.146 A 
ATOM     11  O   UNL     1     -37.390  -6.657 -15.816  1.00  0.00    -0.452 OA
ENDROOT
BRANCH   1  12
ATOM     12  C   UNL     1     -36.026  -5.193 -17.161  1.00  0.00     0.025 A 
ATOM     13  C   UNL     1     -36.515  -4.929 -18.449  1.00  0.00     0.016 A 
ATOM     14  C   UNL     1     -35.635  -4.695 -19.508  1.00  0.00     0.051 A 
ATOM     15  C   UNL     1     -34.253  -4.706 -19.294  1.00  0.00     0.157 A 
ATOM     16  C   UNL     1     -34.636  -5.184 -16.943  1.00  0.00     0.062 A 
ATOM     17  C   UNL     1     -33.750  -4.947 -18.005  1.00  0.00     0.158 A 
BRANCH  15  18
ATOM     18  O   UNL     1     -33.398  -4.471 -20.370  1.00  0.00    -0.504 OA
ATOM     19  H   UNL     1     -33.601  -3.772 -21.075  1.00  0.00     0.293 HD
ENDBRANCH  15  18
BRANCH  17  20
ATOM     20  O   UNL     1     -32.374  -4.947 -17.781  1.00  0.00    -0.504 OA
ATOM     21  H   UNL     1     -31.938  -4.285 -17.148  1.00  0.00     0.293 HD
ENDBRANCH  17  20
ENDBRANCH   1  12
BRANCH   2  22
ATOM     22  O   UNL     1     -36.936  -3.072 -15.408  1.00  0.00    -0.502 OA
ATOM     23  H   UNL     1     -36.383  -2.600 -14.703  1.00  0.00     0.293 HD
ENDBRANCH   2  22
BRANCH   6  24
ATOM     24  O   UNL     1     -40.504  -5.465 -12.259  1.00  0.00    -0.507 OA
ATOM     25  H   UNL     1     -41.350  -4.992 -12.541  1.00  0.00     0.293 HD
ENDBRANCH   6  24
BRANCH   8  26
ATOM     26  O   UNL     1     -39.810 -10.044 -13.530  1.00  0.00    -0.508 OA
ATOM     27  H   UNL     1     -39.602 -10.532 -12.667  1.00  0.00     0.293 HD
ENDBRANCH   8  26
TORSDOF 6
ENDMDL
MODEL 6
REMARK VINA RESULT:    -7.647      2.245      7.219
REMARK INTER + INTRA:          -9.497
REMARK INTER:                  -9.232
REMARK INTRA:                  -0.266
REMARK UNBOUND:                -0.286
REMARK SMILES O=c1c(O)c(-c2ccc(O)c(O)c2)oc2cc(O)cc(O)c12
REMARK SMILES IDX 5 1 3 2 2 3 1 4 22 5 20 6 19 7 17 8 16 9 15 10 14 11 6 12
REMARK SMILES IDX 7 13 8 14 9 15 13 16 11 17 10 18 12 20 4 22 21 24 18 26
REMARK H PARENT 10 19 12 21 4 23 21 25 18 27
REMARK Flexibility Score: inf
ROOT
ATOM      1  C   UNL     1     -34.266  -4.011 -16.936  1.00  0.00     0.180 A 
ATOM      2  C   UNL     1     -34.450  -5.393 -16.762  1.00  0.00     0.208 A 
ATOM      3  C   UNL     1     -35.439  -5.841 -15.873  1.00  0.00     0.238 A 
ATOM      4  O   UNL     1     -35.637  -7.080 -15.762  1.00  0.00    -0.285 OA
ATOM      5  C   UNL     1     -36.220  -4.903 -15.157  1.00  0.00     0.111 A 
ATOM      6  C   UNL     1     -37.223  -5.245 -14.199  1.00  0.00     0.134 A 
ATOM      7  C   UNL     1     -38.024  -4.237 -13.648  1.00  0.00     0.093 A 
ATOM      8  C   UNL     1     -37.814  -2.893 -13.970  1.00  0.00     0.123 A 
ATOM      9  C   UNL     1     -36.799  -2.544 -14.858  1.00  0.00     0.094 A 
ATOM     10  C   UNL     1     -36.007  -3.531 -15.452  1.00  0.00     0.146 A 
ATOM     11  O   UNL     1     -35.058  -3.156 -16.300  1.00  0.00    -0.452 OA
ENDROOT
BRANCH   1  12
ATOM     12  C   UNL     1     -33.226  -3.462 -17.837  1.00  0.00     0.025 A 
ATOM     13  C   UNL     1     -31.880  -3.499 -17.443  1.00  0.00     0.016 A 
ATOM     14  C   UNL     1     -30.881  -3.006 -18.286  1.00  0.00     0.051 A 
ATOM     15  C   UNL     1     -31.209  -2.483 -19.540  1.00  0.00     0.157 A 
ATOM     16  C   UNL     1     -33.552  -2.954 -19.108  1.00  0.00     0.062 A 
ATOM     17  C   UNL     1     -32.550  -2.459 -19.956  1.00  0.00     0.158 A 
BRANCH  15  18
ATOM     18  O   UNL     1     -30.190  -1.996 -20.359  1.00  0.00    -0.504 OA
ATOM     19  H   UNL     1     -30.071  -2.312 -21.314  1.00  0.00     0.293 HD
ENDBRANCH  15  18
BRANCH  17  20
ATOM     20  O   UNL     1     -32.883  -1.952 -21.211  1.00  0.00    -0.504 OA
ATOM     21  H   UNL     1     -33.363  -1.065 -21.315  1.00  0.00     0.293 HD
ENDBRANCH  17  20
ENDBRANCH   1  12
BRANCH   2  22
ATOM     22  O   UNL     1     -33.683  -6.303 -17.496  1.00  0.00    -0.502 OA
ATOM     23  H   UNL     1     -33.907  -7.290 -17.542  1.00  0.00     0.293 HD
ENDBRANCH   2  22
BRANCH   6  24
ATOM     24  O   UNL     1     -37.452  -6.545 -13.739  1.00  0.00    -0.507 OA
ATOM     25  H   UNL     1     -37.790  -6.776 -12.817  1.00  0.00     0.293 HD
ENDBRANCH   6  24
BRANCH   8  26
ATOM     26  O   UNL     1     -38.605  -1.895 -13.405  1.00  0.00    -0.508 OA
ATOM     27  H   UNL     1     -39.513  -2.102 -13.004  1.00  0.00     0.293 HD
ENDBRANCH   8  26
TORSDOF 6
ENDMDL
MODEL 7
REMARK VINA RESULT:    -7.634      3.917      6.323
REMARK INTER + INTRA:          -9.482
REMARK INTER:                  -9.262
REMARK INTRA:                  -0.219
REMARK UNBOUND:                -0.286
REMARK SMILES O=c1c(O)c(-c2ccc(O)c(O)c2)oc2cc(O)cc(O)c12
REMARK SMILES IDX 5 1 3 2 2 3 1 4 22 5 20 6 19 7 17 8 16 9 15 10 14 11 6 12
REMARK SMILES IDX 7 13 8 14 9 15 13 16 11 17 10 18 12 20 4 22 21 24 18 26
REMARK H PARENT 10 19 12 21 4 23 21 25 18 27
REMARK Flexibility Score: inf
ROOT
ATOM      1  C   UNL     1     -34.668  -4.211 -18.323  1.00  0.00     0.180 A 
ATOM      2  C   UNL     1     -35.492  -3.217 -17.766  1.00  0.00     0.208 A 
ATOM      3  C   UNL     1     -36.728  -2.940 -18.370  1.00  0.00     0.238 A 
ATOM      4  O   UNL     1     -37.486  -2.088 -17.835  1.00  0.00    -0.285 OA
ATOM      5  C   UNL     1     -37.119  -3.648 -19.532  1.00  0.00     0.111 A 
ATOM      6  C   UNL     1     -38.332  -3.421 -20.250  1.00  0.00     0.134 A 
ATOM      7  C   UNL     1     -38.676  -4.269 -21.310  1.00  0.00     0.093 A 
ATOM      8  C   UNL     1     -37.819  -5.294 -21.720  1.00  0.00     0.123 A 
ATOM      9  C   UNL     1     -36.606  -5.486 -21.063  1.00  0.00     0.094 A 
ATOM     10  C   UNL     1     -36.252  -4.679 -19.978  1.00  0.00     0.146 A 
ATOM     11  O   UNL     1     -35.091  -4.902 -19.375  1.00  0.00    -0.452 OA
ENDROOT
BRANCH   1  12
ATOM     12  C   UNL     1     -33.340  -4.542 -17.757  1.00  0.00     0.025 A 
ATOM     13  C   UNL     1     -33.119  -5.816 -17.212  1.00  0.00     0.016 A 
ATOM     14  C   UNL     1     -31.868  -6.156 -16.691  1.00  0.00     0.051 A 
ATOM     15  C   UNL     1     -30.816  -5.237 -16.721  1.00  0.00     0.157 A 
ATOM     16  C   UNL     1     -32.275  -3.625 -17.805  1.00  0.00     0.062 A 
ATOM     17  C   UNL     1     -31.017  -3.966 -17.284  1.00  0.00     0.158 A 
BRANCH  15  18
ATOM     18  O   UNL     1     -29.579  -5.604 -16.192  1.00  0.00    -0.504 OA
ATOM     19  H   UNL     1     -29.429  -5.707 -15.196  1.00  0.00     0.293 HD
ENDBRANCH  15  18
BRANCH  17  20
ATOM     20  O   UNL     1     -29.969  -3.048 -17.330  1.00  0.00    -0.504 OA
ATOM     21  H   UNL     1     -29.146  -3.209 -17.900  1.00  0.00     0.293 HD
ENDBRANCH  17  20
ENDBRANCH   1  12
BRANCH   2  22
ATOM     22  O   UNL     1     -35.097  -2.546 -16.604  1.00  0.00    -0.502 OA
ATOM     23  H   UNL     1     -35.728  -2.385 -15.828  1.00  0.00     0.293 HD
ENDBRANCH   2  22
BRANCH   6  24
ATOM     24  O   UNL     1     -39.212  -2.368 -19.983  1.00  0.00    -0.507 OA
ATOM     25  H   UNL     1     -39.837  -2.329 -19.191  1.00  0.00     0.293 HD
ENDBRANCH   6  24
BRANCH   8  26
ATOM     26  O   UNL     1     -38.162  -6.123 -22.785  1.00  0.00    -0.508 OA
ATOM     27  H   UNL     1     -38.548  -7.048 -22.633  1.00  0.00     0.293 HD
ENDBRANCH   8  26
TORSDOF 6
ENDMDL
MODEL 8
REMARK VINA RESULT:    -7.515      4.701      7.912
REMARK INTER + INTRA:          -9.339
REMARK INTER:                  -9.107
REMARK INTRA:                  -0.232
REMARK UNBOUND:                -0.286
REMARK SMILES O=c1c(O)c(-c2ccc(O)c(O)c2)oc2cc(O)cc(O)c12
REMARK SMILES IDX 5 1 3 2 2 3 1 4 22 5 20 6 19 7 17 8 16 9 15 10 14 11 6 12
REMARK SMILES IDX 7 13 8 14 9 15 13 16 11 17 10 18 12 20 4 22 21 24 18 26
REMARK H PARENT 10 19 12 21 4 23 21 25 18 27
REMARK Flexibility Score: inf
ROOT
ATOM      1  C   UNL     1     -37.759  -4.240 -12.259  1.00  0.00     0.180 A 
ATOM      2  C   UNL     1     -36.586  -4.818 -12.773  1.00  0.00     0.208 A 
ATOM      3  C   UNL     1     -36.648  -6.110 -13.321  1.00  0.00     0.238 A 
ATOM      4  O   UNL     1     -35.607  -6.601 -13.830  1.00  0.00    -0.285 OA
ATOM      5  C   UNL     1     -37.877  -6.812 -13.332  1.00  0.00     0.111 A 
ATOM      6  C   UNL     1     -38.047  -8.141 -13.824  1.00  0.00     0.134 A 
ATOM      7  C   UNL     1     -39.333  -8.689 -13.906  1.00  0.00     0.093 A 
ATOM      8  C   UNL     1     -40.448  -7.980 -13.451  1.00  0.00     0.123 A 
ATOM      9  C   UNL     1     -40.285  -6.705 -12.913  1.00  0.00     0.094 A 
ATOM     10  C   UNL     1     -39.018  -6.118 -12.853  1.00  0.00     0.146 A 
ATOM     11  O   UNL     1     -38.909  -4.898 -12.342  1.00  0.00    -0.452 OA
ENDROOT
BRANCH   1  12
ATOM     12  C   UNL     1     -37.768  -2.893 -11.643  1.00  0.00     0.025 A 
ATOM     13  C   UNL     1     -37.865  -2.771 -10.249  1.00  0.00     0.016 A 
ATOM     14  C   UNL     1     -37.855  -1.511  -9.645  1.00  0.00     0.051 A 
ATOM     15  C   UNL     1     -37.732  -0.356 -10.422  1.00  0.00     0.157 A 
ATOM     16  C   UNL     1     -37.624  -1.730 -12.422  1.00  0.00     0.062 A 
ATOM     17  C   UNL     1     -37.611  -0.464 -11.818  1.00  0.00     0.158 A 
BRANCH  15  18
ATOM     18  O   UNL     1     -37.726   0.889  -9.792  1.00  0.00    -0.504 OA
ATOM     19  H   UNL     1     -37.420   1.005  -8.834  1.00  0.00     0.293 HD
ENDBRANCH  15  18
BRANCH  17  20
ATOM     20  O   UNL     1     -37.475   0.682 -12.598  1.00  0.00    -0.504 OA
ATOM     21  H   UNL     1     -36.716   1.339 -12.451  1.00  0.00     0.293 HD
ENDBRANCH  17  20
ENDBRANCH   1  12
BRANCH   2  22
ATOM     22  O   UNL     1     -35.387  -4.098 -12.773  1.00  0.00    -0.502 OA
ATOM     23  H   UNL     1     -34.867  -3.910 -13.622  1.00  0.00     0.293 HD
ENDBRANCH   2  22
BRANCH   6  24
ATOM     24  O   UNL     1     -36.991  -8.969 -14.217  1.00  0.00    -0.507 OA
ATOM     25  H   UNL     1     -36.313  -8.738 -14.928  1.00  0.00     0.293 HD
ENDBRANCH   6  24
BRANCH   8  26
ATOM     26  O   UNL     1     -41.722  -8.538 -13.521  1.00  0.00    -0.508 OA
ATOM     27  H   UNL     1     -42.001  -9.125 -14.299  1.00  0.00     0.293 HD
ENDBRANCH   8  26
TORSDOF 6
ENDMDL
MODEL 9
REMARK VINA RESULT:    -7.442      1.862      3.675
REMARK INTER + INTRA:          -9.251
REMARK INTER:                  -9.051
REMARK INTRA:                  -0.200
REMARK UNBOUND:                -0.286
REMARK SMILES O=c1c(O)c(-c2ccc(O)c(O)c2)oc2cc(O)cc(O)c12
REMARK SMILES IDX 5 1 3 2 2 3 1 4 22 5 20 6 19 7 17 8 16 9 15 10 14 11 6 12
REMARK SMILES IDX 7 13 8 14 9 15 13 16 11 17 10 18 12 20 4 22 21 24 18 26
REMARK H PARENT 10 19 12 21 4 23 21 25 18 27
REMARK Flexibility Score: inf
ROOT
ATOM      1  C   UNL     1     -36.678  -5.174 -15.040  1.00  0.00     0.180 A 
ATOM      2  C   UNL     1     -35.387  -4.796 -14.630  1.00  0.00     0.208 A 
ATOM      3  C   UNL     1     -34.405  -4.560 -15.605  1.00  0.00     0.238 A 
ATOM      4  O   UNL     1     -33.267  -4.168 -15.236  1.00  0.00    -0.285 OA
ATOM      5  C   UNL     1     -34.721  -4.719 -16.976  1.00  0.00     0.111 A 
ATOM      6  C   UNL     1     -33.793  -4.545 -18.047  1.00  0.00     0.134 A 
ATOM      7  C   UNL     1     -34.248  -4.601 -19.371  1.00  0.00     0.093 A 
ATOM      8  C   UNL     1     -35.584  -4.891 -19.662  1.00  0.00     0.123 A 
ATOM      9  C   UNL     1     -36.484  -5.121 -18.624  1.00  0.00     0.094 A 
ATOM     10  C   UNL     1     -36.068  -5.035 -17.293  1.00  0.00     0.146 A 
ATOM     11  O   UNL     1     -36.960  -5.252 -16.335  1.00  0.00    -0.452 OA
ENDROOT
BRANCH   1  12
ATOM     12  C   UNL     1     -37.758  -5.465 -14.070  1.00  0.00     0.025 A 
ATOM     13  C   UNL     1     -38.328  -4.414 -13.334  1.00  0.00     0.016 A 
ATOM     14  C   UNL     1     -39.362  -4.663 -12.429  1.00  0.00     0.051 A 
ATOM     15  C   UNL     1     -39.854  -5.960 -12.256  1.00  0.00     0.157 A 
ATOM     16  C   UNL     1     -38.268  -6.766 -13.910  1.00  0.00     0.062 A 
ATOM     17  C   UNL     1     -39.308  -7.017 -13.002  1.00  0.00     0.158 A 
BRANCH  15  18
ATOM     18  O   UNL     1     -40.886  -6.178 -11.343  1.00  0.00    -0.504 OA
ATOM     19  H   UNL     1     -41.627  -5.503 -11.198  1.00  0.00     0.293 HD
ENDBRANCH  15  18
BRANCH  17  20
ATOM     20  O   UNL     1     -39.802  -8.311 -12.845  1.00  0.00    -0.504 OA
ATOM     21  H   UNL     1     -39.653  -8.837 -11.991  1.00  0.00     0.293 HD
ENDBRANCH  17  20
ENDBRANCH   1  12
BRANCH   2  22
ATOM     22  O   UNL     1     -35.103  -4.622 -13.272  1.00  0.00    -0.502 OA
ATOM     23  H   UNL     1     -34.762  -3.745 -12.897  1.00  0.00     0.293 HD
ENDBRANCH   2  22
BRANCH   6  24
ATOM     24  O   UNL     1     -32.422  -4.344 -17.867  1.00  0.00    -0.507 OA
ATOM     25  H   UNL     1     -31.770  -4.135 -18.609  1.00  0.00     0.293 HD
ENDBRANCH   6  24
BRANCH   8  26
ATOM     26  O   UNL     1     -36.025  -4.960 -20.981  1.00  0.00    -0.508 OA
ATOM     27  H   UNL     1     -36.034  -5.836 -21.492  1.00  0.00     0.293 HD
ENDBRANCH   8  26
TORSDOF 6
ENDMDL
