MODEL 1
REMARK VINA RESULT:    -3.434      0.000      0.000
REMARK INTER + INTRA:          -5.992
REMARK INTER:                  -4.739
REMARK INTRA:                  -1.253
REMARK UNBOUND:                -1.253
REMARK SMILES CC[C@@H](CC[C@H](C)[C@@H]1CC[C@H]2[C@H]3CC=C4C[C@@H](O)CC[C@]4(C)[C@H]3CC[C@]21C)C(C)C
REMARK SMILES IDX 5 1 4 2 3 3 2 4 1 5 28 6 29 7 30 8 6 9 7 10 8 11 9 12 26 13
REMARK SMILES IDX 10 14 11 15 25 16 27 17 12 18 24 19 23 20 13 21 21 22 14 23
REMARK SMILES IDX 15 24 20 25 22 26 16 27 19 28 17 29 18 30
REMARK H PARENT 18 31
REMARK Flexibility Score: inf
ROOT
ATOM      1  C   UNL     1       2.564  40.663  13.200  1.00  0.00     0.004 C 
ENDROOT
BRANCH   1   2
ATOM      2  C   UNL     1       1.487  39.550  13.204  1.00  0.00     0.004 C 
BRANCH   2   3
ATOM      3  C   UNL     1       0.191  39.839  14.018  1.00  0.00    -0.009 C 
BRANCH   3   4
ATOM      4  C   UNL     1      -1.072  39.065  13.513  1.00  0.00     0.000 C 
ATOM      5  C   UNL     1      -0.837  37.824  12.638  1.00  0.00     0.004 C 
ENDBRANCH   3   4
BRANCH   3   6
ATOM      6  C   UNL     1      -0.051  41.332  14.437  1.00  0.00    -0.014 C 
ATOM      7  C   UNL     1      -0.540  41.526  15.884  1.00  0.00     0.007 C 
ATOM      8  C   UNL     1      -1.024  42.047  13.477  1.00  0.00     0.007 C 
ENDBRANCH   3   6
ENDBRANCH   2   3
ENDBRANCH   1   2
BRANCH   1   9
ATOM      9  C   UNL     1       3.527  40.612  11.978  1.00  0.00    -0.011 C 
ATOM     10  C   UNL     1       4.764  39.757  12.364  1.00  0.00     0.008 C 
BRANCH   9  11
ATOM     11  C   UNL     1       3.947  42.019  11.380  1.00  0.00    -0.002 C 
ATOM     12  C   UNL     1       3.942  43.167  12.415  1.00  0.00     0.005 C 
ATOM     13  C   UNL     1       2.999  42.598  10.264  1.00  0.00    -0.026 C 
ATOM     14  C   UNL     1       2.553  43.792  12.379  1.00  0.00     0.005 C 
ATOM     15  C   UNL     1       1.878  43.282  11.092  1.00  0.00    -0.001 C 
ATOM     16  C   UNL     1       3.799  43.622   9.365  1.00  0.00     0.007 C 
ATOM     17  C   UNL     1       2.374  41.539   9.325  1.00  0.00     0.012 C 
ATOM     18  C   UNL     1       1.038  44.327  10.300  1.00  0.00     0.000 C 
ATOM     19  C   UNL     1       3.381  45.090   9.525  1.00  0.00     0.005 C 
ATOM     20  C   UNL     1       1.859  45.258   9.340  1.00  0.00     0.003 C 
ATOM     21  C   UNL     1       0.036  45.076  11.196  1.00  0.00     0.031 C 
ATOM     22  C   UNL     1       1.390  46.774   9.280  1.00  0.00    -0.008 C 
ATOM     23  C   UNL     1      -0.739  46.070  10.390  1.00  0.00    -0.027 C 
ATOM     24  C   UNL     1      -0.134  46.862   9.485  1.00  0.00    -0.065 C 
ATOM     25  C   UNL     1       1.781  47.359   7.880  1.00  0.00     0.014 C 
ATOM     26  C   UNL     1       2.072  47.631  10.381  1.00  0.00     0.016 C 
ATOM     27  C   UNL     1      -0.941  48.013   8.910  1.00  0.00     0.063 C 
ATOM     28  C   UNL     1       1.070  48.674   7.541  1.00  0.00     0.033 C 
ATOM     29  C   UNL     1      -0.446  48.454   7.529  1.00  0.00     0.118 C 
BRANCH  29  30
ATOM     30  O   UNL     1      -1.123  49.613   7.114  1.00  0.00    -0.393 OA
ATOM     31  H   UNL     1      -0.486  50.376   7.161  1.00  0.00     0.210 HD
ENDBRANCH  29  30
ENDBRANCH   9  11
ENDBRANCH   1   9
TORSDOF 7
ENDMDL
MODEL 2
REMARK VINA RESULT:    -2.721      3.536      8.693
REMARK INTER + INTRA:          -5.009
REMARK INTER:                  -4.445
REMARK INTRA:                  -0.564
REMARK UNBOUND:                -1.253
REMARK SMILES CC[C@@H](CC[C@H](C)[C@@H]1CC[C@H]2[C@H]3CC=C4C[C@@H](O)CC[C@]4(C)[C@H]3CC[C@]21C)C(C)C
REMARK SMILES IDX 5 1 4 2 3 3 2 4 1 5 28 6 29 7 30 8 6 9 7 10 8 11 9 12 26 13
REMARK SMILES IDX 10 14 11 15 25 16 27 17 12 18 24 19 23 20 13 21 21 22 14 23
REMARK SMILES IDX 15 24 20 25 22 26 16 27 19 28 17 29 18 30
REMARK H PARENT 18 31
REMARK Flexibility Score: inf
ROOT
ATOM      1  C   UNL     1       3.467  47.884   7.504  1.00  0.00     0.004 C 
ENDROOT
BRANCH   1   2
ATOM      2  C   UNL     1       4.163  49.237   7.787  1.00  0.00     0.004 C 
BRANCH   2   3
ATOM      3  C   UNL     1       5.620  49.170   8.335  1.00  0.00    -0.009 C 
BRANCH   3   4
ATOM      4  C   UNL     1       5.934  47.885   9.172  1.00  0.00     0.000 C 
ATOM      5  C   UNL     1       7.387  47.389   9.187  1.00  0.00     0.004 C 
ENDBRANCH   3   4
BRANCH   3   6
ATOM      6  C   UNL     1       6.218  50.508   8.895  1.00  0.00    -0.014 C 
ATOM      7  C   UNL     1       7.344  51.120   8.043  1.00  0.00     0.007 C 
ATOM      8  C   UNL     1       6.714  50.351  10.347  1.00  0.00     0.007 C 
ENDBRANCH   3   6
ENDBRANCH   2   3
ENDBRANCH   1   2
BRANCH   1   9
ATOM      9  C   UNL     1       1.929  47.899   7.739  1.00  0.00    -0.011 C 
ATOM     10  C   UNL     1       1.425  49.362   7.602  1.00  0.00     0.008 C 
BRANCH   9  11
ATOM     11  C   UNL     1       1.438  47.233   9.091  1.00  0.00    -0.002 C 
ATOM     12  C   UNL     1       2.400  47.448  10.283  1.00  0.00     0.005 C 
ATOM     13  C   UNL     1       1.309  45.663   9.073  1.00  0.00    -0.026 C 
ATOM     14  C   UNL     1       3.369  46.272  10.289  1.00  0.00     0.005 C 
ATOM     15  C   UNL     1       2.760  45.199   9.368  1.00  0.00    -0.001 C 
ATOM     16  C   UNL     1       0.286  45.200  10.185  1.00  0.00     0.007 C 
ATOM     17  C   UNL     1       0.838  45.064   7.725  1.00  0.00     0.012 C 
ATOM     18  C   UNL     1       2.878  43.726   9.862  1.00  0.00     0.000 C 
ATOM     19  C   UNL     1       0.911  44.454  11.370  1.00  0.00     0.005 C 
ATOM     20  C   UNL     1       1.781  43.275  10.889  1.00  0.00     0.003 C 
ATOM     21  C   UNL     1       4.314  43.358  10.273  1.00  0.00     0.031 C 
ATOM     22  C   UNL     1       2.284  42.333  12.065  1.00  0.00    -0.008 C 
ATOM     23  C   UNL     1       4.371  41.939  10.744  1.00  0.00    -0.027 C 
ATOM     24  C   UNL     1       3.432  41.437  11.568  1.00  0.00    -0.065 C 
ATOM     25  C   UNL     1       1.079  41.452  12.543  1.00  0.00     0.014 C 
ATOM     26  C   UNL     1       2.805  43.154  13.276  1.00  0.00     0.016 C 
ATOM     27  C   UNL     1       3.709  40.085  12.202  1.00  0.00     0.063 C 
ATOM     28  C   UNL     1       1.496  40.250  13.400  1.00  0.00     0.033 C 
ATOM     29  C   UNL     1       2.429  39.340  12.594  1.00  0.00     0.118 C 
BRANCH  29  30
ATOM     30  O   UNL     1       2.742  38.173  13.312  1.00  0.00    -0.393 OA
ATOM     31  H   UNL     1       3.581  37.795  12.935  1.00  0.00     0.210 HD
ENDBRANCH  29  30
ENDBRANCH   9  11
ENDBRANCH   1   9
TORSDOF 7
ENDMDL
MODEL 3
REMARK VINA RESULT:    -2.152      1.110      2.545
REMARK INTER + INTRA:          -4.223
REMARK INTER:                  -4.114
REMARK INTRA:                  -0.109
REMARK UNBOUND:                -1.253
REMARK SMILES CC[C@@H](CC[C@H](C)[C@@H]1CC[C@H]2[C@H]3CC=C4C[C@@H](O)CC[C@]4(C)[C@H]3CC[C@]21C)C(C)C
REMARK SMILES IDX 5 1 4 2 3 3 2 4 1 5 28 6 29 7 30 8 6 9 7 10 8 11 9 12 26 13
REMARK SMILES IDX 10 14 11 15 25 16 27 17 12 18 24 19 23 20 13 21 21 22 14 23
REMARK SMILES IDX 15 24 20 25 22 26 16 27 19 28 17 29 18 30
REMARK H PARENT 18 31
REMARK Flexibility Score: inf
ROOT
ATOM      1  C   UNL     1       3.749  40.431  12.838  1.00  0.00     0.004 C 
ENDROOT
BRANCH   1   2
ATOM      2  C   UNL     1       2.547  39.508  12.526  1.00  0.00     0.004 C 
BRANCH   2   3
ATOM      3  C   UNL     1       1.351  39.561  13.523  1.00  0.00    -0.009 C 
BRANCH   3   4
ATOM      4  C   UNL     1       0.207  38.540  13.211  1.00  0.00     0.000 C 
ATOM      5  C   UNL     1       0.591  37.256  12.460  1.00  0.00     0.004 C 
ENDBRANCH   3   4
BRANCH   3   6
ATOM      6  C   UNL     1       0.882  40.988  13.975  1.00  0.00    -0.014 C 
ATOM      7  C   UNL     1       0.705  41.160  15.494  1.00  0.00     0.007 C 
ATOM      8  C   UNL     1      -0.418  41.417  13.265  1.00  0.00     0.007 C 
ENDBRANCH   3   6
ENDBRANCH   2   3
ENDBRANCH   1   2
BRANCH   1   9
ATOM      9  C   UNL     1       3.969  41.564  11.794  1.00  0.00    -0.011 C 
ATOM     10  C   UNL     1       4.795  42.696  12.464  1.00  0.00     0.008 C 
BRANCH   9  11
ATOM     11  C   UNL     1       2.655  42.123  11.106  1.00  0.00    -0.002 C 
ATOM     12  C   UNL     1       2.643  41.980   9.566  1.00  0.00     0.005 C 
ATOM     13  C   UNL     1       2.397  43.667  11.279  1.00  0.00    -0.026 C 
ATOM     14  C   UNL     1       3.244  43.258   8.996  1.00  0.00     0.005 C 
ATOM     15  C   UNL     1       3.257  44.285  10.144  1.00  0.00    -0.001 C 
ATOM     16  C   UNL     1       0.856  43.972  11.107  1.00  0.00     0.007 C 
ATOM     17  C   UNL     1       2.840  44.254  12.641  1.00  0.00     0.012 C 
ATOM     18  C   UNL     1       2.867  45.744   9.762  1.00  0.00     0.000 C 
ATOM     19  C   UNL     1       0.486  44.745   9.834  1.00  0.00     0.005 C 
ATOM     20  C   UNL     1       1.326  46.031   9.701  1.00  0.00     0.003 C 
ATOM     21  C   UNL     1       3.651  46.261   8.543  1.00  0.00     0.031 C 
ATOM     22  C   UNL     1       0.848  46.984   8.524  1.00  0.00    -0.008 C 
ATOM     23  C   UNL     1       3.236  47.660   8.214  1.00  0.00    -0.027 C 
ATOM     24  C   UNL     1       1.940  48.023   8.210  1.00  0.00    -0.065 C 
ATOM     25  C   UNL     1      -0.470  47.705   8.973  1.00  0.00     0.014 C 
ATOM     26  C   UNL     1       0.554  46.188   7.223  1.00  0.00     0.016 C 
ATOM     27  C   UNL     1       1.593  49.376   7.613  1.00  0.00     0.063 C 
ATOM     28  C   UNL     1      -0.836  48.916   8.108  1.00  0.00     0.033 C 
ATOM     29  C   UNL     1       0.289  49.954   8.170  1.00  0.00     0.118 C 
BRANCH  29  30
ATOM     30  O   UNL     1      -0.063  51.125   7.476  1.00  0.00    -0.393 OA
ATOM     31  H   UNL     1      -1.047  51.113   7.331  1.00  0.00     0.210 HD
ENDBRANCH  29  30
ENDBRANCH   9  11
ENDBRANCH   1   9
TORSDOF 7
ENDMDL
MODEL 4
REMARK VINA RESULT:    -1.287      0.934      2.124
REMARK INTER + INTRA:          -3.030
REMARK INTER:                  -3.198
REMARK INTRA:                   0.168
REMARK UNBOUND:                -1.253
REMARK SMILES CC[C@@H](CC[C@H](C)[C@@H]1CC[C@H]2[C@H]3CC=C4C[C@@H](O)CC[C@]4(C)[C@H]3CC[C@]21C)C(C)C
REMARK SMILES IDX 5 1 4 2 3 3 2 4 1 5 28 6 29 7 30 8 6 9 7 10 8 11 9 12 26 13
REMARK SMILES IDX 10 14 11 15 25 16 27 17 12 18 24 19 23 20 13 21 21 22 14 23
REMARK SMILES IDX 15 24 20 25 22 26 16 27 19 28 17 29 18 30
REMARK H PARENT 18 31
REMARK Flexibility Score: inf
ROOT
ATOM      1  C   UNL     1       2.660  40.252  12.050  1.00  0.00     0.004 C 
ENDROOT
BRANCH   1   2
ATOM      2  C   UNL     1       2.377  38.890  12.728  1.00  0.00     0.004 C 
BRANCH   2   3
ATOM      3  C   UNL     1       0.913  38.363  12.646  1.00  0.00    -0.009 C 
BRANCH   3   4
ATOM      4  C   UNL     1      -0.090  39.100  13.595  1.00  0.00     0.000 C 
ATOM      5  C   UNL     1       0.434  40.320  14.366  1.00  0.00     0.004 C 
ENDBRANCH   3   4
BRANCH   3   6
ATOM      6  C   UNL     1       0.737  36.806  12.549  1.00  0.00    -0.014 C 
ATOM      7  C   UNL     1       1.553  36.131  11.433  1.00  0.00     0.007 C 
ATOM      8  C   UNL     1      -0.745  36.405  12.402  1.00  0.00     0.007 C 
ENDBRANCH   3   6
ENDBRANCH   2   3
ENDBRANCH   1   2
BRANCH   1   9
ATOM      9  C   UNL     1       4.170  40.626  11.980  1.00  0.00    -0.011 C 
ATOM     10  C   UNL     1       4.789  40.434  13.391  1.00  0.00     0.008 C 
BRANCH   9  11
ATOM     11  C   UNL     1       4.491  42.060  11.386  1.00  0.00    -0.002 C 
ATOM     12  C   UNL     1       4.446  43.197  12.433  1.00  0.00     0.005 C 
ATOM     13  C   UNL     1       3.482  42.593  10.300  1.00  0.00    -0.026 C 
ATOM     14  C   UNL     1       3.022  43.739  12.438  1.00  0.00     0.005 C 
ATOM     15  C   UNL     1       2.345  43.202  11.163  1.00  0.00    -0.001 C 
ATOM     16  C   UNL     1       4.197  43.670   9.392  1.00  0.00     0.007 C 
ATOM     17  C   UNL     1       2.897  41.506   9.366  1.00  0.00     0.012 C 
ATOM     18  C   UNL     1       1.425  44.203  10.403  1.00  0.00     0.000 C 
ATOM     19  C   UNL     1       3.698  45.109   9.577  1.00  0.00     0.005 C 
ATOM     20  C   UNL     1       2.165  45.189   9.432  1.00  0.00     0.003 C 
ATOM     21  C   UNL     1       0.404  44.883  11.332  1.00  0.00     0.031 C 
ATOM     22  C   UNL     1       1.606  46.675   9.401  1.00  0.00    -0.008 C 
ATOM     23  C   UNL     1      -0.448  45.837  10.556  1.00  0.00    -0.027 C 
ATOM     24  C   UNL     1       0.086  46.671   9.644  1.00  0.00    -0.065 C 
ATOM     25  C   UNL     1       1.926  47.294   7.997  1.00  0.00     0.014 C 
ATOM     26  C   UNL     1       2.265  47.561  10.492  1.00  0.00     0.016 C 
ATOM     27  C   UNL     1      -0.802  47.777   9.102  1.00  0.00     0.063 C 
ATOM     28  C   UNL     1       1.130  48.568   7.690  1.00  0.00     0.033 C 
ATOM     29  C   UNL     1      -0.370  48.259   7.714  1.00  0.00     0.118 C 
BRANCH  29  30
ATOM     30  O   UNL     1      -1.124  49.380   7.328  1.00  0.00    -0.393 OA
ATOM     31  H   UNL     1      -0.985  49.525   6.354  1.00  0.00     0.210 HD
ENDBRANCH  29  30
ENDBRANCH   9  11
ENDBRANCH   1   9
TORSDOF 7
ENDMDL
