MODEL 1
REMARK VINA RESULT:    -5.887      0.000      0.000
REMARK INTER + INTRA:          -7.427
REMARK INTER:                  -7.092
REMARK INTRA:                  -0.335
REMARK UNBOUND:                -0.335
REMARK SMILES O=c1c(O)c(-c2ccc(O)c(O)c2)oc2cc(O)cc(O)c12
REMARK SMILES IDX 5 1 3 2 2 3 1 4 22 5 20 6 19 7 17 8 16 9 15 10 14 11 6 12
REMARK SMILES IDX 7 13 8 14 9 15 13 16 11 17 10 18 12 20 4 22 21 24 18 26
REMARK H PARENT 10 19 12 21 4 23 21 25 18 27
REMARK Flexibility Score: inf
ROOT
ATOM      1  C   UNL     1      23.674  28.494  -5.089  1.00  0.00     0.180 A 
ATOM      2  C   UNL     1      23.952  27.865  -3.864  1.00  0.00     0.208 A 
ATOM      3  C   UNL     1      24.141  26.473  -3.840  1.00  0.00     0.238 A 
ATOM      4  O   UNL     1      24.337  25.909  -2.732  1.00  0.00    -0.285 OA
ATOM      5  C   UNL     1      24.065  25.731  -5.043  1.00  0.00     0.111 A 
ATOM      6  C   UNL     1      24.280  24.324  -5.142  1.00  0.00     0.134 A 
ATOM      7  C   UNL     1      24.051  23.674  -6.361  1.00  0.00     0.093 A 
ATOM      8  C   UNL     1      23.678  24.389  -7.499  1.00  0.00     0.123 A 
ATOM      9  C   UNL     1      23.524  25.774  -7.428  1.00  0.00     0.094 A 
ATOM     10  C   UNL     1      23.711  26.445  -6.217  1.00  0.00     0.146 A 
ATOM     11  O   UNL     1      23.544  27.762  -6.190  1.00  0.00    -0.452 OA
ENDROOT
BRANCH   1  12
ATOM     12  C   UNL     1      23.487  29.958  -5.199  1.00  0.00     0.025 A 
ATOM     13  C   UNL     1      24.577  30.821  -5.414  1.00  0.00     0.016 A 
ATOM     14  C   UNL     1      24.374  32.198  -5.538  1.00  0.00     0.051 A 
ATOM     15  C   UNL     1      23.084  32.733  -5.462  1.00  0.00     0.157 A 
ATOM     16  C   UNL     1      22.191  30.497  -5.145  1.00  0.00     0.062 A 
ATOM     17  C   UNL     1      21.986  31.879  -5.268  1.00  0.00     0.158 A 
BRANCH  15  18
ATOM     18  O   UNL     1      22.913  34.111  -5.588  1.00  0.00    -0.504 OA
ATOM     19  H   UNL     1      22.255  34.626  -5.017  1.00  0.00     0.293 HD
ENDBRANCH  15  18
BRANCH  17  20
ATOM     20  O   UNL     1      20.697  32.405  -5.199  1.00  0.00    -0.504 OA
ATOM     21  H   UNL     1      19.881  31.840  -5.406  1.00  0.00     0.293 HD
ENDBRANCH  17  20
ENDBRANCH   1  12
BRANCH   2  22
ATOM     22  O   UNL     1      24.001  28.613  -2.684  1.00  0.00    -0.502 OA
ATOM     23  H   UNL     1      23.181  29.052  -2.284  1.00  0.00     0.293 HD
ENDBRANCH   2  22
BRANCH   6  24
ATOM     24  O   UNL     1      24.740  23.529  -4.088  1.00  0.00    -0.507 OA
ATOM     25  H   UNL     1      25.599  23.685  -3.583  1.00  0.00     0.293 HD
ENDBRANCH   6  24
BRANCH   8  26
ATOM     26  O   UNL     1      23.474  23.712  -8.699  1.00  0.00    -0.508 OA
ATOM     27  H   UNL     1      24.183  23.105  -9.092  1.00  0.00     0.293 HD
ENDBRANCH   8  26
TORSDOF 6
ENDMDL
MODEL 2
REMARK VINA RESULT:    -5.759      2.016      3.890
REMARK INTER + INTRA:          -7.272
REMARK INTER:                  -7.460
REMARK INTRA:                   0.188
REMARK UNBOUND:                -0.335
REMARK SMILES O=c1c(O)c(-c2ccc(O)c(O)c2)oc2cc(O)cc(O)c12
REMARK SMILES IDX 5 1 3 2 2 3 1 4 22 5 20 6 19 7 17 8 16 9 15 10 14 11 6 12
REMARK SMILES IDX 7 13 8 14 9 15 13 16 11 17 10 18 12 20 4 22 21 24 18 26
REMARK H PARENT 10 19 12 21 4 23 21 25 18 27
REMARK Flexibility Score: inf
ROOT
ATOM      1  C   UNL     1      24.415  28.937  -4.366  1.00  0.00     0.180 A 
ATOM      2  C   UNL     1      23.907  27.803  -5.023  1.00  0.00     0.208 A 
ATOM      3  C   UNL     1      24.312  26.528  -4.594  1.00  0.00     0.238 A 
ATOM      4  O   UNL     1      23.896  25.519  -5.220  1.00  0.00    -0.285 OA
ATOM      5  C   UNL     1      25.209  26.404  -3.506  1.00  0.00     0.111 A 
ATOM      6  C   UNL     1      25.656  25.162  -2.962  1.00  0.00     0.134 A 
ATOM      7  C   UNL     1      26.644  25.158  -1.969  1.00  0.00     0.093 A 
ATOM      8  C   UNL     1      27.153  26.350  -1.456  1.00  0.00     0.123 A 
ATOM      9  C   UNL     1      26.680  27.571  -1.938  1.00  0.00     0.094 A 
ATOM     10  C   UNL     1      25.721  27.607  -2.953  1.00  0.00     0.146 A 
ATOM     11  O   UNL     1      25.305  28.789  -3.391  1.00  0.00    -0.452 OA
ENDROOT
BRANCH   1  12
ATOM     12  C   UNL     1      24.015  30.312  -4.744  1.00  0.00     0.025 A 
ATOM     13  C   UNL     1      22.715  30.597  -5.198  1.00  0.00     0.016 A 
ATOM     14  C   UNL     1      22.353  31.906  -5.526  1.00  0.00     0.051 A 
ATOM     15  C   UNL     1      23.274  32.949  -5.394  1.00  0.00     0.157 A 
ATOM     16  C   UNL     1      24.932  31.365  -4.592  1.00  0.00     0.062 A 
ATOM     17  C   UNL     1      24.570  32.680  -4.922  1.00  0.00     0.158 A 
BRANCH  15  18
ATOM     18  O   UNL     1      22.884  34.245  -5.730  1.00  0.00    -0.504 OA
ATOM     19  H   UNL     1      22.676  34.514  -6.684  1.00  0.00     0.293 HD
ENDBRANCH  15  18
BRANCH  17  20
ATOM     20  O   UNL     1      25.491  33.716  -4.781  1.00  0.00    -0.504 OA
ATOM     21  H   UNL     1      25.470  34.340  -3.983  1.00  0.00     0.293 HD
ENDBRANCH  17  20
ENDBRANCH   1  12
BRANCH   2  22
ATOM     22  O   UNL     1      23.040  27.949  -6.109  1.00  0.00    -0.502 OA
ATOM     23  H   UNL     1      22.176  27.427  -6.190  1.00  0.00     0.293 HD
ENDBRANCH   2  22
BRANCH   6  24
ATOM     24  O   UNL     1      25.145  23.916  -3.339  1.00  0.00    -0.507 OA
ATOM     25  H   UNL     1      25.218  23.075  -2.789  1.00  0.00     0.293 HD
ENDBRANCH   6  24
BRANCH   8  26
ATOM     26  O   UNL     1      28.124  26.309  -0.458  1.00  0.00    -0.508 OA
ATOM     27  H   UNL     1      28.159  27.006   0.276  1.00  0.00     0.293 HD
ENDBRANCH   8  26
TORSDOF 6
ENDMDL
MODEL 3
REMARK VINA RESULT:    -5.379      1.753      7.245
REMARK INTER + INTRA:          -6.814
REMARK INTER:                  -6.584
REMARK INTRA:                  -0.230
REMARK UNBOUND:                -0.335
REMARK SMILES O=c1c(O)c(-c2ccc(O)c(O)c2)oc2cc(O)cc(O)c12
REMARK SMILES IDX 5 1 3 2 2 3 1 4 22 5 20 6 19 7 17 8 16 9 15 10 14 11 6 12
REMARK SMILES IDX 7 13 8 14 9 15 13 16 11 17 10 18 12 20 4 22 21 24 18 26
REMARK H PARENT 10 19 12 21 4 23 21 25 18 27
REMARK Flexibility Score: inf
ROOT
ATOM      1  C   UNL     1      23.971  29.271  -4.497  1.00  0.00     0.180 A 
ATOM      2  C   UNL     1      22.720  29.835  -4.801  1.00  0.00     0.208 A 
ATOM      3  C   UNL     1      22.647  31.203  -5.109  1.00  0.00     0.238 A 
ATOM      4  O   UNL     1      21.517  31.714  -5.328  1.00  0.00    -0.285 OA
ATOM      5  C   UNL     1      23.826  31.986  -5.125  1.00  0.00     0.111 A 
ATOM      6  C   UNL     1      23.874  33.372  -5.463  1.00  0.00     0.134 A 
ATOM      7  C   UNL     1      25.075  34.077  -5.319  1.00  0.00     0.093 A 
ATOM      8  C   UNL     1      26.243  33.433  -4.912  1.00  0.00     0.123 A 
ATOM      9  C   UNL     1      26.222  32.066  -4.637  1.00  0.00     0.094 A 
ATOM     10  C   UNL     1      25.030  31.343  -4.737  1.00  0.00     0.146 A 
ATOM     11  O   UNL     1      25.050  30.045  -4.456  1.00  0.00    -0.452 OA
ENDROOT
BRANCH   1  12
ATOM     12  C   UNL     1      24.133  27.833  -4.186  1.00  0.00     0.025 A 
ATOM     13  C   UNL     1      24.387  27.390  -2.876  1.00  0.00     0.016 A 
ATOM     14  C   UNL     1      24.512  26.026  -2.603  1.00  0.00     0.051 A 
ATOM     15  C   UNL     1      24.373  25.084  -3.626  1.00  0.00     0.157 A 
ATOM     16  C   UNL     1      23.973  26.882  -5.209  1.00  0.00     0.062 A 
ATOM     17  C   UNL     1      24.099  25.512  -4.936  1.00  0.00     0.158 A 
BRANCH  15  18
ATOM     18  O   UNL     1      24.505  23.728  -3.323  1.00  0.00    -0.504 OA
ATOM     19  H   UNL     1      24.820  23.052  -4.008  1.00  0.00     0.293 HD
ENDBRANCH  15  18
BRANCH  17  20
ATOM     20  O   UNL     1      23.953  24.578  -5.960  1.00  0.00    -0.504 OA
ATOM     21  H   UNL     1      23.793  24.862  -6.920  1.00  0.00     0.293 HD
ENDBRANCH  17  20
ENDBRANCH   1  12
BRANCH   2  22
ATOM     22  O   UNL     1      21.566  29.049  -4.758  1.00  0.00    -0.502 OA
ATOM     23  H   UNL     1      21.371  28.409  -3.998  1.00  0.00     0.293 HD
ENDBRANCH   2  22
BRANCH   6  24
ATOM     24  O   UNL     1      22.785  34.091  -5.967  1.00  0.00    -0.507 OA
ATOM     25  H   UNL     1      22.808  35.067  -6.216  1.00  0.00     0.293 HD
ENDBRANCH   6  24
BRANCH   8  26
ATOM     26  O   UNL     1      27.424  34.163  -4.794  1.00  0.00    -0.508 OA
ATOM     27  H   UNL     1      28.088  33.980  -4.051  1.00  0.00     0.293 HD
ENDBRANCH   8  26
TORSDOF 6
ENDMDL
MODEL 4
REMARK VINA RESULT:    -5.327      1.213      2.846
REMARK INTER + INTRA:          -6.752
REMARK INTER:                  -6.455
REMARK INTRA:                  -0.297
REMARK UNBOUND:                -0.335
REMARK SMILES O=c1c(O)c(-c2ccc(O)c(O)c2)oc2cc(O)cc(O)c12
REMARK SMILES IDX 5 1 3 2 2 3 1 4 22 5 20 6 19 7 17 8 16 9 15 10 14 11 6 12
REMARK SMILES IDX 7 13 8 14 9 15 13 16 11 17 10 18 12 20 4 22 21 24 18 26
REMARK H PARENT 10 19 12 21 4 23 21 25 18 27
REMARK Flexibility Score: inf
ROOT
ATOM      1  C   UNL     1      23.787  28.573  -5.601  1.00  0.00     0.180 A 
ATOM      2  C   UNL     1      23.654  27.931  -6.844  1.00  0.00     0.208 A 
ATOM      3  C   UNL     1      23.723  26.529  -6.898  1.00  0.00     0.238 A 
ATOM      4  O   UNL     1      23.656  25.963  -8.020  1.00  0.00    -0.285 OA
ATOM      5  C   UNL     1      23.911  25.788  -5.706  1.00  0.00     0.111 A 
ATOM      6  C   UNL     1      23.956  24.362  -5.638  1.00  0.00     0.134 A 
ATOM      7  C   UNL     1      24.277  23.739  -4.426  1.00  0.00     0.093 A 
ATOM      8  C   UNL     1      24.489  24.485  -3.268  1.00  0.00     0.123 A 
ATOM      9  C   UNL     1      24.388  25.875  -3.309  1.00  0.00     0.094 A 
ATOM     10  C   UNL     1      24.105  26.527  -4.512  1.00  0.00     0.146 A 
ATOM     11  O   UNL     1      24.028  27.854  -4.511  1.00  0.00    -0.452 OA
ENDROOT
BRANCH   1  12
ATOM     12  C   UNL     1      23.700  30.044  -5.461  1.00  0.00     0.025 A 
ATOM     13  C   UNL     1      24.855  30.845  -5.402  1.00  0.00     0.016 A 
ATOM     14  C   UNL     1      24.747  32.233  -5.293  1.00  0.00     0.051 A 
ATOM     15  C   UNL     1      23.490  32.845  -5.255  1.00  0.00     0.157 A 
ATOM     16  C   UNL     1      22.439  30.664  -5.443  1.00  0.00     0.062 A 
ATOM     17  C   UNL     1      22.329  32.058  -5.334  1.00  0.00     0.158 A 
BRANCH  15  18
ATOM     18  O   UNL     1      23.415  34.233  -5.145  1.00  0.00    -0.504 OA
ATOM     19  H   UNL     1      22.858  34.793  -5.778  1.00  0.00     0.293 HD
ENDBRANCH  15  18
BRANCH  17  20
ATOM     20  O   UNL     1      21.073  32.662  -5.303  1.00  0.00    -0.504 OA
ATOM     21  H   UNL     1      20.808  33.370  -5.978  1.00  0.00     0.293 HD
ENDBRANCH  17  20
ENDBRANCH   1  12
BRANCH   2  22
ATOM     22  O   UNL     1      23.491  28.684  -8.010  1.00  0.00    -0.502 OA
ATOM     23  H   UNL     1      24.275  29.009  -8.562  1.00  0.00     0.293 HD
ENDBRANCH   2  22
BRANCH   6  24
ATOM     24  O   UNL     1      23.670  23.520  -6.717  1.00  0.00    -0.507 OA
ATOM     25  H   UNL     1      22.754  23.389  -7.117  1.00  0.00     0.293 HD
ENDBRANCH   6  24
BRANCH   8  26
ATOM     26  O   UNL     1      24.791  23.830  -2.075  1.00  0.00    -0.508 OA
ATOM     27  H   UNL     1      25.229  22.916  -2.068  1.00  0.00     0.293 HD
ENDBRANCH   8  26
TORSDOF 6
ENDMDL
MODEL 5
REMARK VINA RESULT:    -5.198      1.986      2.559
REMARK INTER + INTRA:          -6.596
REMARK INTER:                  -6.522
REMARK INTRA:                  -0.074
REMARK UNBOUND:                -0.335
REMARK SMILES O=c1c(O)c(-c2ccc(O)c(O)c2)oc2cc(O)cc(O)c12
REMARK SMILES IDX 5 1 3 2 2 3 1 4 22 5 20 6 19 7 17 8 16 9 15 10 14 11 6 12
REMARK SMILES IDX 7 13 8 14 9 15 13 16 11 17 10 18 12 20 4 22 21 24 18 26
REMARK H PARENT 10 19 12 21 4 23 21 25 18 27
REMARK Flexibility Score: inf
ROOT
ATOM      1  C   UNL     1      24.515  28.222  -5.118  1.00  0.00     0.180 A 
ATOM      2  C   UNL     1      25.310  28.483  -3.989  1.00  0.00     0.208 A 
ATOM      3  C   UNL     1      25.704  27.411  -3.170  1.00  0.00     0.238 A 
ATOM      4  O   UNL     1      26.370  27.657  -2.132  1.00  0.00    -0.285 OA
ATOM      5  C   UNL     1      25.310  26.092  -3.500  1.00  0.00     0.111 A 
ATOM      6  C   UNL     1      25.686  24.927  -2.765  1.00  0.00     0.134 A 
ATOM      7  C   UNL     1      25.132  23.687  -3.106  1.00  0.00     0.093 A 
ATOM      8  C   UNL     1      24.269  23.559  -4.194  1.00  0.00     0.123 A 
ATOM      9  C   UNL     1      23.944  24.681  -4.957  1.00  0.00     0.094 A 
ATOM     10  C   UNL     1      24.452  25.937  -4.619  1.00  0.00     0.146 A 
ATOM     11  O   UNL     1      24.109  26.982  -5.364  1.00  0.00    -0.452 OA
ENDROOT
BRANCH   1  12
ATOM     12  C   UNL     1      24.082  29.295  -6.042  1.00  0.00     0.025 A 
ATOM     13  C   UNL     1      24.385  29.245  -7.414  1.00  0.00     0.016 A 
ATOM     14  C   UNL     1      23.946  30.257  -8.272  1.00  0.00     0.051 A 
ATOM     15  C   UNL     1      23.189  31.324  -7.777  1.00  0.00     0.157 A 
ATOM     16  C   UNL     1      23.304  30.357  -5.553  1.00  0.00     0.062 A 
ATOM     17  C   UNL     1      22.862  31.373  -6.412  1.00  0.00     0.158 A 
BRANCH  15  18
ATOM     18  O   UNL     1      22.765  32.320  -8.657  1.00  0.00    -0.504 OA
ATOM     19  H   UNL     1      23.016  32.313  -9.638  1.00  0.00     0.293 HD
ENDBRANCH  15  18
BRANCH  17  20
ATOM     20  O   UNL     1      22.102  32.430  -5.914  1.00  0.00    -0.504 OA
ATOM     21  H   UNL     1      21.428  32.295  -5.169  1.00  0.00     0.293 HD
ENDBRANCH  17  20
ENDBRANCH   1  12
BRANCH   2  22
ATOM     22  O   UNL     1      25.669  29.795  -3.670  1.00  0.00    -0.502 OA
ATOM     23  H   UNL     1      25.184  30.336  -2.964  1.00  0.00     0.293 HD
ENDBRANCH   2  22
BRANCH   6  24
ATOM     24  O   UNL     1      26.611  24.931  -1.717  1.00  0.00    -0.507 OA
ATOM     25  H   UNL     1      27.409  25.543  -1.657  1.00  0.00     0.293 HD
ENDBRANCH   6  24
BRANCH   8  26
ATOM     26  O   UNL     1      23.749  22.307  -4.514  1.00  0.00    -0.508 OA
ATOM     27  H   UNL     1      23.827  21.924  -5.449  1.00  0.00     0.293 HD
ENDBRANCH   8  26
TORSDOF 6
ENDMDL
MODEL 6
REMARK VINA RESULT:    -5.141      3.552      7.651
REMARK INTER + INTRA:          -6.528
REMARK INTER:                  -6.204
REMARK INTRA:                  -0.324
REMARK UNBOUND:                -0.335
REMARK SMILES O=c1c(O)c(-c2ccc(O)c(O)c2)oc2cc(O)cc(O)c12
REMARK SMILES IDX 5 1 3 2 2 3 1 4 22 5 20 6 19 7 17 8 16 9 15 10 14 11 6 12
REMARK SMILES IDX 7 13 8 14 9 15 13 16 11 17 10 18 12 20 4 22 21 24 18 26
REMARK H PARENT 10 19 12 21 4 23 21 25 18 27
REMARK Flexibility Score: inf
ROOT
ATOM      1  C   UNL     1      25.340  30.891  -5.076  1.00  0.00     0.180 A 
ATOM      2  C   UNL     1      25.384  30.628  -6.455  1.00  0.00     0.208 A 
ATOM      3  C   UNL     1      25.016  31.642  -7.355  1.00  0.00     0.238 A 
ATOM      4  O   UNL     1      25.007  31.384  -8.586  1.00  0.00    -0.285 OA
ATOM      5  C   UNL     1      24.623  32.910  -6.863  1.00  0.00     0.111 A 
ATOM      6  C   UNL     1      24.268  34.023  -7.684  1.00  0.00     0.134 A 
ATOM      7  C   UNL     1      23.770  35.189  -7.090  1.00  0.00     0.093 A 
ATOM      8  C   UNL     1      23.675  35.306  -5.704  1.00  0.00     0.123 A 
ATOM      9  C   UNL     1      24.075  34.247  -4.889  1.00  0.00     0.094 A 
ATOM     10  C   UNL     1      24.543  33.058  -5.454  1.00  0.00     0.146 A 
ATOM     11  O   UNL     1      24.904  32.069  -4.644  1.00  0.00    -0.452 OA
ENDROOT
BRANCH   1  12
ATOM     12  C   UNL     1      25.737  29.882  -4.068  1.00  0.00     0.025 A 
ATOM     13  C   UNL     1      27.045  29.837  -3.553  1.00  0.00     0.016 A 
ATOM     14  C   UNL     1      27.391  28.891  -2.585  1.00  0.00     0.051 A 
ATOM     15  C   UNL     1      26.438  27.987  -2.107  1.00  0.00     0.157 A 
ATOM     16  C   UNL     1      24.776  28.986  -3.570  1.00  0.00     0.062 A 
ATOM     17  C   UNL     1      25.122  28.035  -2.599  1.00  0.00     0.158 A 
BRANCH  15  18
ATOM     18  O   UNL     1      26.813  27.053  -1.141  1.00  0.00    -0.504 OA
ATOM     19  H   UNL     1      27.088  27.327  -0.206  1.00  0.00     0.293 HD
ENDBRANCH  15  18
BRANCH  17  20
ATOM     20  O   UNL     1      24.165  27.141  -2.121  1.00  0.00    -0.504 OA
ATOM     21  H   UNL     1      24.425  26.328  -1.575  1.00  0.00     0.293 HD
ENDBRANCH  17  20
ENDBRANCH   1  12
BRANCH   2  22
ATOM     22  O   UNL     1      25.755  29.363  -6.918  1.00  0.00    -0.502 OA
ATOM     23  H   UNL     1      25.372  28.508  -6.533  1.00  0.00     0.293 HD
ENDBRANCH   2  22
BRANCH   6  24
ATOM     24  O   UNL     1      24.411  34.043  -9.075  1.00  0.00    -0.507 OA
ATOM     25  H   UNL     1      25.095  33.512  -9.590  1.00  0.00     0.293 HD
ENDBRANCH   6  24
BRANCH   8  26
ATOM     26  O   UNL     1      23.189  36.487  -5.146  1.00  0.00    -0.508 OA
ATOM     27  H   UNL     1      23.570  37.389  -5.402  1.00  0.00     0.293 HD
ENDBRANCH   8  26
TORSDOF 6
ENDMDL
MODEL 7
REMARK VINA RESULT:    -5.073      2.583      4.896
REMARK INTER + INTRA:          -6.446
REMARK INTER:                  -6.199
REMARK INTRA:                  -0.247
REMARK UNBOUND:                -0.335
REMARK SMILES O=c1c(O)c(-c2ccc(O)c(O)c2)oc2cc(O)cc(O)c12
REMARK SMILES IDX 5 1 3 2 2 3 1 4 22 5 20 6 19 7 17 8 16 9 15 10 14 11 6 12
REMARK SMILES IDX 7 13 8 14 9 15 13 16 11 17 10 18 12 20 4 22 21 24 18 26
REMARK H PARENT 10 19 12 21 4 23 21 25 18 27
REMARK Flexibility Score: inf
ROOT
ATOM      1  C   UNL     1      24.416  32.269  -5.480  1.00  0.00     0.180 A 
ATOM      2  C   UNL     1      23.920  31.719  -6.674  1.00  0.00     0.208 A 
ATOM      3  C   UNL     1      23.616  30.348  -6.719  1.00  0.00     0.238 A 
ATOM      4  O   UNL     1      23.223  29.851  -7.806  1.00  0.00    -0.285 OA
ATOM      5  C   UNL     1      23.798  29.549  -5.565  1.00  0.00     0.111 A 
ATOM      6  C   UNL     1      23.485  28.159  -5.484  1.00  0.00     0.134 A 
ATOM      7  C   UNL     1      23.827  27.439  -4.333  1.00  0.00     0.093 A 
ATOM      8  C   UNL     1      24.411  28.071  -3.236  1.00  0.00     0.123 A 
ATOM      9  C   UNL     1      24.666  29.442  -3.281  1.00  0.00     0.094 A 
ATOM     10  C   UNL     1      24.369  30.179  -4.429  1.00  0.00     0.146 A 
ATOM     11  O   UNL     1      24.637  31.480  -4.435  1.00  0.00    -0.452 OA
ENDROOT
BRANCH   1  12
ATOM     12  C   UNL     1      24.735  33.709  -5.348  1.00  0.00     0.025 A 
ATOM     13  C   UNL     1      26.064  34.167  -5.343  1.00  0.00     0.016 A 
ATOM     14  C   UNL     1      26.341  35.532  -5.242  1.00  0.00     0.051 A 
ATOM     15  C   UNL     1      25.299  36.461  -5.157  1.00  0.00     0.157 A 
ATOM     16  C   UNL     1      23.690  34.646  -5.284  1.00  0.00     0.062 A 
ATOM     17  C   UNL     1      23.966  36.017  -5.181  1.00  0.00     0.158 A 
BRANCH  15  18
ATOM     18  O   UNL     1      25.606  37.818  -5.055  1.00  0.00    -0.504 OA
ATOM     19  H   UNL     1      26.161  38.188  -4.294  1.00  0.00     0.293 HD
ENDBRANCH  15  18
BRANCH  17  20
ATOM     20  O   UNL     1      22.922  36.938  -5.104  1.00  0.00    -0.504 OA
ATOM     21  H   UNL     1      22.982  37.760  -4.514  1.00  0.00     0.293 HD
ENDBRANCH  17  20
ENDBRANCH   1  12
BRANCH   2  22
ATOM     22  O   UNL     1      23.768  32.521  -7.808  1.00  0.00    -0.502 OA
ATOM     23  H   UNL     1      23.500  33.496  -7.753  1.00  0.00     0.293 HD
ENDBRANCH   2  22
BRANCH   6  24
ATOM     24  O   UNL     1      22.818  27.450  -6.489  1.00  0.00    -0.507 OA
ATOM     25  H   UNL     1      21.822  27.301  -6.523  1.00  0.00     0.293 HD
ENDBRANCH   6  24
BRANCH   8  26
ATOM     26  O   UNL     1      24.724  27.326  -2.101  1.00  0.00    -0.508 OA
ATOM     27  H   UNL     1      25.430  26.600  -2.122  1.00  0.00     0.293 HD
ENDBRANCH   8  26
TORSDOF 6
ENDMDL
MODEL 8
REMARK VINA RESULT:    -5.068      2.071      6.969
REMARK INTER + INTRA:          -6.440
REMARK INTER:                  -6.181
REMARK INTRA:                  -0.259
REMARK UNBOUND:                -0.335
REMARK SMILES O=c1c(O)c(-c2ccc(O)c(O)c2)oc2cc(O)cc(O)c12
REMARK SMILES IDX 5 1 3 2 2 3 1 4 22 5 20 6 19 7 17 8 16 9 15 10 14 11 6 12
REMARK SMILES IDX 7 13 8 14 9 15 13 16 11 17 10 18 12 20 4 22 21 24 18 26
REMARK H PARENT 10 19 12 21 4 23 21 25 18 27
REMARK Flexibility Score: inf
ROOT
ATOM      1  C   UNL     1      25.026  27.993  -4.118  1.00  0.00     0.180 A 
ATOM      2  C   UNL     1      26.342  28.480  -4.040  1.00  0.00     0.208 A 
ATOM      3  C   UNL     1      26.572  29.853  -4.233  1.00  0.00     0.238 A 
ATOM      4  O   UNL     1      27.758  30.275  -4.215  1.00  0.00    -0.285 OA
ATOM      5  C   UNL     1      25.483  30.720  -4.488  1.00  0.00     0.111 A 
ATOM      6  C   UNL     1      25.596  32.133  -4.659  1.00  0.00     0.134 A 
ATOM      7  C   UNL     1      24.470  32.875  -5.035  1.00  0.00     0.093 A 
ATOM      8  C   UNL     1      23.224  32.267  -5.182  1.00  0.00     0.123 A 
ATOM      9  C   UNL     1      23.089  30.897  -4.958  1.00  0.00     0.094 A 
ATOM     10  C   UNL     1      24.202  30.124  -4.616  1.00  0.00     0.146 A 
ATOM     11  O   UNL     1      24.034  28.821  -4.422  1.00  0.00    -0.452 OA
ENDROOT
BRANCH   1  12
ATOM     12  C   UNL     1      24.701  26.565  -3.900  1.00  0.00     0.025 A 
ATOM     13  C   UNL     1      24.755  25.989  -2.618  1.00  0.00     0.016 A 
ATOM     14  C   UNL     1      24.421  24.645  -2.433  1.00  0.00     0.051 A 
ATOM     15  C   UNL     1      24.016  23.860  -3.517  1.00  0.00     0.157 A 
ATOM     16  C   UNL     1      24.274  25.779  -4.984  1.00  0.00     0.062 A 
ATOM     17  C   UNL     1      23.939  24.430  -4.799  1.00  0.00     0.158 A 
BRANCH  15  18
ATOM     18  O   UNL     1      23.690  22.521  -3.301  1.00  0.00    -0.504 OA
ATOM     19  H   UNL     1      24.019  21.783  -3.910  1.00  0.00     0.293 HD
ENDBRANCH  15  18
BRANCH  17  20
ATOM     20  O   UNL     1      23.529  23.655  -5.883  1.00  0.00    -0.504 OA
ATOM     21  H   UNL     1      23.554  24.013  -6.831  1.00  0.00     0.293 HD
ENDBRANCH  17  20
ENDBRANCH   1  12
BRANCH   2  22
ATOM     22  O   UNL     1      27.405  27.603  -3.809  1.00  0.00    -0.502 OA
ATOM     23  H   UNL     1      27.364  26.622  -4.058  1.00  0.00     0.293 HD
ENDBRANCH   2  22
BRANCH   6  24
ATOM     24  O   UNL     1      26.776  32.853  -4.448  1.00  0.00    -0.507 OA
ATOM     25  H   UNL     1      27.596  32.796  -5.031  1.00  0.00     0.293 HD
ENDBRANCH   6  24
BRANCH   8  26
ATOM     26  O   UNL     1      22.121  33.039  -5.542  1.00  0.00    -0.508 OA
ATOM     27  H   UNL     1      21.882  33.887  -5.042  1.00  0.00     0.293 HD
ENDBRANCH   8  26
TORSDOF 6
ENDMDL
MODEL 9
REMARK VINA RESULT:    -5.011      2.489      4.203
REMARK INTER + INTRA:          -6.371
REMARK INTER:                  -6.146
REMARK INTRA:                  -0.225
REMARK UNBOUND:                -0.335
REMARK SMILES O=c1c(O)c(-c2ccc(O)c(O)c2)oc2cc(O)cc(O)c12
REMARK SMILES IDX 5 1 3 2 2 3 1 4 22 5 20 6 19 7 17 8 16 9 15 10 14 11 6 12
REMARK SMILES IDX 7 13 8 14 9 15 13 16 11 17 10 18 12 20 4 22 21 24 18 26
REMARK H PARENT 10 19 12 21 4 23 21 25 18 27
REMARK Flexibility Score: inf
ROOT
ATOM      1  C   UNL     1      24.600  30.906  -5.515  1.00  0.00     0.180 A 
ATOM      2  C   UNL     1      23.906  29.968  -6.299  1.00  0.00     0.208 A 
ATOM      3  C   UNL     1      23.830  28.636  -5.860  1.00  0.00     0.238 A 
ATOM      4  O   UNL     1      23.254  27.790  -6.592  1.00  0.00    -0.285 OA
ATOM      5  C   UNL     1      24.437  28.262  -4.636  1.00  0.00     0.111 A 
ATOM      6  C   UNL     1      24.388  26.951  -4.075  1.00  0.00     0.134 A 
ATOM      7  C   UNL     1      25.133  26.663  -2.925  1.00  0.00     0.093 A 
ATOM      8  C   UNL     1      25.871  27.654  -2.280  1.00  0.00     0.123 A 
ATOM      9  C   UNL     1      25.877  28.955  -2.785  1.00  0.00     0.094 A 
ATOM     10  C   UNL     1      25.173  29.263  -3.951  1.00  0.00     0.146 A 
ATOM     11  O   UNL     1      25.214  30.511  -4.405  1.00  0.00    -0.452 OA
ENDROOT
BRANCH   1  12
ATOM     12  C   UNL     1      24.702  32.332  -5.899  1.00  0.00     0.025 A 
ATOM     13  C   UNL     1      25.491  32.743  -6.988  1.00  0.00     0.016 A 
ATOM     14  C   UNL     1      25.553  34.092  -7.346  1.00  0.00     0.051 A 
ATOM     15  C   UNL     1      24.821  35.047  -6.634  1.00  0.00     0.157 A 
ATOM     16  C   UNL     1      23.951  33.292  -5.199  1.00  0.00     0.062 A 
ATOM     17  C   UNL     1      24.012  34.646  -5.557  1.00  0.00     0.158 A 
BRANCH  15  18
ATOM     18  O   UNL     1      24.904  36.387  -7.015  1.00  0.00    -0.504 OA
ATOM     19  H   UNL     1      25.791  36.863  -7.116  1.00  0.00     0.293 HD
ENDBRANCH  15  18
BRANCH  17  20
ATOM     20  O   UNL     1      23.275  35.593  -4.848  1.00  0.00    -0.504 OA
ATOM     21  H   UNL     1      23.548  35.892  -3.919  1.00  0.00     0.293 HD
ENDBRANCH  17  20
ENDBRANCH   1  12
BRANCH   2  22
ATOM     22  O   UNL     1      23.334  30.353  -7.514  1.00  0.00    -0.502 OA
ATOM     23  H   UNL     1      22.454  29.977  -7.845  1.00  0.00     0.293 HD
ENDBRANCH   2  22
BRANCH   6  24
ATOM     24  O   UNL     1      23.608  25.910  -4.590  1.00  0.00    -0.507 OA
ATOM     25  H   UNL     1      22.665  26.014  -4.931  1.00  0.00     0.293 HD
ENDBRANCH   6  24
BRANCH   8  26
ATOM     26  O   UNL     1      26.588  27.336  -1.128  1.00  0.00    -0.508 OA
ATOM     27  H   UNL     1      26.548  26.411  -0.717  1.00  0.00     0.293 HD
ENDBRANCH   8  26
TORSDOF 6
ENDMDL
