MODEL 1
REMARK VINA RESULT:    -6.179      0.000      0.000
REMARK INTER + INTRA:          -7.860
REMARK INTER:                  -7.443
REMARK INTRA:                  -0.417
REMARK UNBOUND:                -0.417
REMARK SMILES O=c1c(O)c(-c2ccc(O)cc2O)oc2cc(O)cc(O)c12
REMARK SMILES IDX 5 1 3 2 2 3 1 4 22 5 20 6 19 7 17 8 16 9 15 10 14 11 6 12
REMARK SMILES IDX 8 13 7 14 9 15 11 16 12 17 10 18 13 20 4 22 21 24 18 26
REMARK H PARENT 10 19 13 21 4 23 21 25 18 27
REMARK Flexibility Score: inf
ROOT
ATOM      1  C   UNL     1       9.311  11.654  38.390  1.00  0.00     0.184 A 
ATOM      2  C   UNL     1       9.077  11.169  39.690  1.00  0.00     0.208 A 
ATOM      3  C   UNL     1       9.338   9.819  39.967  1.00  0.00     0.238 A 
ATOM      4  O   UNL     1       9.122   9.370  41.125  1.00  0.00    -0.285 OA
ATOM      5  C   UNL     1       9.845   8.985  38.948  1.00  0.00     0.111 A 
ATOM      6  C   UNL     1      10.138   7.614  39.145  1.00  0.00     0.134 A 
ATOM      7  C   UNL     1      10.650   6.852  38.083  1.00  0.00     0.093 A 
ATOM      8  C   UNL     1      10.873   7.436  36.831  1.00  0.00     0.123 A 
ATOM      9  C   UNL     1      10.586   8.787  36.632  1.00  0.00     0.094 A 
ATOM     10  C   UNL     1      10.074   9.562  37.677  1.00  0.00     0.146 A 
ATOM     11  O   UNL     1       9.805  10.845  37.458  1.00  0.00    -0.451 OA
ENDROOT
BRANCH   1  12
ATOM     12  C   UNL     1       9.047  13.063  38.029  1.00  0.00     0.063 A 
ATOM     13  C   UNL     1       9.877  15.335  37.787  1.00  0.00     0.047 A 
ATOM     14  C   UNL     1      10.090  13.996  38.126  1.00  0.00     0.020 A 
ATOM     15  C   UNL     1       8.621  15.754  37.332  1.00  0.00     0.119 A 
ATOM     16  C   UNL     1       7.583  14.824  37.209  1.00  0.00     0.093 A 
ATOM     17  C   UNL     1       7.790  13.478  37.543  1.00  0.00     0.130 A 
BRANCH  15  18
ATOM     18  O   UNL     1       8.395  17.085  36.994  1.00  0.00    -0.508 OA
ATOM     19  H   UNL     1       7.850  17.339  36.178  1.00  0.00     0.293 HD
ENDBRANCH  15  18
BRANCH  17  20
ATOM     20  O   UNL     1       6.760  12.553  37.369  1.00  0.00    -0.507 OA
ATOM     21  H   UNL     1       6.475  12.241  36.448  1.00  0.00     0.293 HD
ENDBRANCH  17  20
ENDBRANCH   1  12
BRANCH   2  22
ATOM     22  O   UNL     1       8.617  12.032  40.688  1.00  0.00    -0.502 OA
ATOM     23  H   UNL     1       8.095  12.874  40.478  1.00  0.00     0.293 HD
ENDBRANCH   2  22
BRANCH   6  24
ATOM     24  O   UNL     1       9.927   7.005  40.383  1.00  0.00    -0.507 OA
ATOM     25  H   UNL     1       9.300   6.215  40.488  1.00  0.00     0.293 HD
ENDBRANCH   6  24
BRANCH   8  26
ATOM     26  O   UNL     1      11.383   6.681  35.777  1.00  0.00    -0.508 OA
ATOM     27  H   UNL     1      11.845   5.793  35.936  1.00  0.00     0.293 HD
ENDBRANCH   8  26
TORSDOF 6
ENDMDL
MODEL 2
REMARK VINA RESULT:    -6.011      1.518      1.984
REMARK INTER + INTRA:          -7.658
REMARK INTER:                  -7.250
REMARK INTRA:                  -0.408
REMARK UNBOUND:                -0.417
REMARK SMILES O=c1c(O)c(-c2ccc(O)cc2O)oc2cc(O)cc(O)c12
REMARK SMILES IDX 5 1 3 2 2 3 1 4 22 5 20 6 19 7 17 8 16 9 15 10 14 11 6 12
REMARK SMILES IDX 8 13 7 14 9 15 11 16 12 17 10 18 13 20 4 22 21 24 18 26
REMARK H PARENT 10 19 13 21 4 23 21 25 18 27
REMARK Flexibility Score: inf
ROOT
ATOM      1  C   UNL     1       9.511  11.581  37.136  1.00  0.00     0.184 A 
ATOM      2  C   UNL     1       9.078  11.368  38.457  1.00  0.00     0.208 A 
ATOM      3  C   UNL     1       9.306  10.118  39.052  1.00  0.00     0.238 A 
ATOM      4  O   UNL     1       8.912   9.910  40.232  1.00  0.00    -0.285 OA
ATOM      5  C   UNL     1       9.980   9.115  38.324  1.00  0.00     0.111 A 
ATOM      6  C   UNL     1      10.252   7.828  38.851  1.00  0.00     0.134 A 
ATOM      7  C   UNL     1      10.936   6.886  38.067  1.00  0.00     0.093 A 
ATOM      8  C   UNL     1      11.351   7.207  36.769  1.00  0.00     0.123 A 
ATOM      9  C   UNL     1      11.083   8.472  36.246  1.00  0.00     0.094 A 
ATOM     10  C   UNL     1      10.402   9.424  37.011  1.00  0.00     0.146 A 
ATOM     11  O   UNL     1      10.157  10.620  36.485  1.00  0.00    -0.451 OA
ENDROOT
BRANCH   1  12
ATOM     12  C   UNL     1       9.292  12.871  36.447  1.00  0.00     0.063 A 
ATOM     13  C   UNL     1       7.874  14.261  35.045  1.00  0.00     0.047 A 
ATOM     14  C   UNL     1       8.116  13.053  35.703  1.00  0.00     0.020 A 
ATOM     15  C   UNL     1       8.799  15.308  35.134  1.00  0.00     0.119 A 
ATOM     16  C   UNL     1       9.962  15.143  35.893  1.00  0.00     0.093 A 
ATOM     17  C   UNL     1      10.210  13.935  36.562  1.00  0.00     0.130 A 
BRANCH  15  18
ATOM     18  O   UNL     1       8.571  16.516  34.479  1.00  0.00    -0.508 OA
ATOM     19  H   UNL     1       9.223  16.876  33.792  1.00  0.00     0.293 HD
ENDBRANCH  15  18
BRANCH  17  20
ATOM     20  O   UNL     1      11.350  13.802  37.355  1.00  0.00    -0.507 OA
ATOM     21  H   UNL     1      11.924  12.967  37.325  1.00  0.00     0.293 HD
ENDBRANCH  17  20
ENDBRANCH   1  12
BRANCH   2  22
ATOM     22  O   UNL     1       8.454  12.398  39.166  1.00  0.00    -0.502 OA
ATOM     23  H   UNL     1       7.586  12.820  38.857  1.00  0.00     0.293 HD
ENDBRANCH   2  22
BRANCH   6  24
ATOM     24  O   UNL     1       9.852   7.481  40.143  1.00  0.00    -0.507 OA
ATOM     25  H   UNL     1       9.536   6.545  40.369  1.00  0.00     0.293 HD
ENDBRANCH   6  24
BRANCH   8  26
ATOM     26  O   UNL     1      12.031   6.272  35.991  1.00  0.00    -0.508 OA
ATOM     27  H   UNL     1      13.041   6.291  35.902  1.00  0.00     0.293 HD
ENDBRANCH   8  26
TORSDOF 6
ENDMDL
MODEL 3
REMARK VINA RESULT:    -5.997      1.846      6.853
REMARK INTER + INTRA:          -7.641
REMARK INTER:                  -7.358
REMARK INTRA:                  -0.283
REMARK UNBOUND:                -0.417
REMARK SMILES O=c1c(O)c(-c2ccc(O)cc2O)oc2cc(O)cc(O)c12
REMARK SMILES IDX 5 1 3 2 2 3 1 4 22 5 20 6 19 7 17 8 16 9 15 10 14 11 6 12
REMARK SMILES IDX 8 13 7 14 9 15 11 16 12 17 10 18 13 20 4 22 21 24 18 26
REMARK H PARENT 10 19 13 21 4 23 21 25 18 27
REMARK Flexibility Score: inf
ROOT
ATOM      1  C   UNL     1      10.200   7.956  38.098  1.00  0.00     0.184 A 
ATOM      2  C   UNL     1       9.857   8.112  39.453  1.00  0.00     0.208 A 
ATOM      3  C   UNL     1       9.454   9.376  39.908  1.00  0.00     0.238 A 
ATOM      4  O   UNL     1       9.155   9.533  41.124  1.00  0.00    -0.285 OA
ATOM      5  C   UNL     1       9.383  10.453  38.999  1.00  0.00     0.111 A 
ATOM      6  C   UNL     1       8.983  11.759  39.376  1.00  0.00     0.134 A 
ATOM      7  C   UNL     1       8.928  12.775  38.410  1.00  0.00     0.093 A 
ATOM      8  C   UNL     1       9.265  12.510  37.078  1.00  0.00     0.123 A 
ATOM      9  C   UNL     1       9.659  11.226  36.703  1.00  0.00     0.094 A 
ATOM     10  C   UNL     1       9.722  10.199  37.650  1.00  0.00     0.146 A 
ATOM     11  O   UNL     1      10.106   8.987  37.265  1.00  0.00    -0.451 OA
ENDROOT
BRANCH   1  12
ATOM     12  C   UNL     1      10.643   6.654  37.556  1.00  0.00     0.063 A 
ATOM     13  C   UNL     1      12.428   5.291  36.626  1.00  0.00     0.047 A 
ATOM     14  C   UNL     1      11.975   6.509  37.138  1.00  0.00     0.020 A 
ATOM     15  C   UNL     1      11.560   4.197  36.541  1.00  0.00     0.119 A 
ATOM     16  C   UNL     1      10.237   4.325  36.978  1.00  0.00     0.093 A 
ATOM     17  C   UNL     1       9.775   5.544  37.498  1.00  0.00     0.130 A 
BRANCH  15  18
ATOM     18  O   UNL     1      11.999   2.978  36.029  1.00  0.00    -0.508 OA
ATOM     19  H   UNL     1      12.755   2.928  35.357  1.00  0.00     0.293 HD
ENDBRANCH  15  18
BRANCH  17  20
ATOM     20  O   UNL     1       8.469   5.644  37.975  1.00  0.00    -0.507 OA
ATOM     21  H   UNL     1       8.213   5.314  38.900  1.00  0.00     0.293 HD
ENDBRANCH  17  20
ENDBRANCH   1  12
BRANCH   2  22
ATOM     22  O   UNL     1       9.896   7.016  40.318  1.00  0.00    -0.502 OA
ATOM     23  H   UNL     1      10.475   6.205  40.139  1.00  0.00     0.293 HD
ENDBRANCH   2  22
BRANCH   6  24
ATOM     24  O   UNL     1       8.640  12.052  40.697  1.00  0.00    -0.507 OA
ATOM     25  H   UNL     1       7.897  11.557  41.177  1.00  0.00     0.293 HD
ENDBRANCH   6  24
BRANCH   8  26
ATOM     26  O   UNL     1       9.209  13.519  36.118  1.00  0.00    -0.508 OA
ATOM     27  H   UNL     1       9.377  13.327  35.137  1.00  0.00     0.293 HD
ENDBRANCH   8  26
TORSDOF 6
ENDMDL
MODEL 4
REMARK VINA RESULT:    -5.910      4.655      6.350
REMARK INTER + INTRA:          -7.537
REMARK INTER:                  -7.198
REMARK INTRA:                  -0.339
REMARK UNBOUND:                -0.417
REMARK SMILES O=c1c(O)c(-c2ccc(O)cc2O)oc2cc(O)cc(O)c12
REMARK SMILES IDX 5 1 3 2 2 3 1 4 22 5 20 6 19 7 17 8 16 9 15 10 14 11 6 12
REMARK SMILES IDX 8 13 7 14 9 15 11 16 12 17 10 18 13 20 4 22 21 24 18 26
REMARK H PARENT 10 19 13 21 4 23 21 25 18 27
REMARK Flexibility Score: inf
ROOT
ATOM      1  C   UNL     1       7.192   7.650  38.608  1.00  0.00     0.184 A 
ATOM      2  C   UNL     1       6.561   8.167  39.754  1.00  0.00     0.208 A 
ATOM      3  C   UNL     1       5.292   7.684  40.106  1.00  0.00     0.238 A 
ATOM      4  O   UNL     1       4.711   8.147  41.125  1.00  0.00    -0.285 OA
ATOM      5  C   UNL     1       4.687   6.681  39.319  1.00  0.00     0.111 A 
ATOM      6  C   UNL     1       3.411   6.138  39.607  1.00  0.00     0.134 A 
ATOM      7  C   UNL     1       2.880   5.135  38.781  1.00  0.00     0.093 A 
ATOM      8  C   UNL     1       3.601   4.667  37.675  1.00  0.00     0.123 A 
ATOM      9  C   UNL     1       4.858   5.201  37.389  1.00  0.00     0.094 A 
ATOM     10  C   UNL     1       5.403   6.201  38.199  1.00  0.00     0.146 A 
ATOM     11  O   UNL     1       6.601   6.694  37.899  1.00  0.00    -0.451 OA
ENDROOT
BRANCH   1  12
ATOM     12  C   UNL     1       8.524   8.123  38.176  1.00  0.00     0.063 A 
ATOM     13  C   UNL     1       9.940   9.962  37.453  1.00  0.00     0.047 A 
ATOM     14  C   UNL     1       8.693   9.480  37.859  1.00  0.00     0.020 A 
ATOM     15  C   UNL     1      11.037   9.096  37.373  1.00  0.00     0.119 A 
ATOM     16  C   UNL     1      10.882   7.747  37.710  1.00  0.00     0.093 A 
ATOM     17  C   UNL     1       9.635   7.256  38.123  1.00  0.00     0.130 A 
BRANCH  15  18
ATOM     18  O   UNL     1      12.284   9.564  36.966  1.00  0.00    -0.508 OA
ATOM     19  H   UNL     1      12.866  10.120  37.580  1.00  0.00     0.293 HD
ENDBRANCH  15  18
BRANCH  17  20
ATOM     20  O   UNL     1       9.506   5.920  38.503  1.00  0.00    -0.507 OA
ATOM     21  H   UNL     1       9.287   5.657  39.458  1.00  0.00     0.293 HD
ENDBRANCH  17  20
ENDBRANCH   1  12
BRANCH   2  22
ATOM     22  O   UNL     1       7.207   9.127  40.537  1.00  0.00    -0.502 OA
ATOM     23  H   UNL     1       8.080   9.557  40.257  1.00  0.00     0.293 HD
ENDBRANCH   2  22
BRANCH   6  24
ATOM     24  O   UNL     1       2.670   6.583  40.702  1.00  0.00    -0.507 OA
ATOM     25  H   UNL     1       1.835   6.100  41.013  1.00  0.00     0.293 HD
ENDBRANCH   6  24
BRANCH   8  26
ATOM     26  O   UNL     1       3.075   3.671  36.856  1.00  0.00    -0.508 OA
ATOM     27  H   UNL     1       2.176   3.779  36.401  1.00  0.00     0.293 HD
ENDBRANCH   8  26
TORSDOF 6
ENDMDL
MODEL 5
REMARK VINA RESULT:    -5.854      1.716      6.475
REMARK INTER + INTRA:          -7.469
REMARK INTER:                  -7.097
REMARK INTRA:                  -0.373
REMARK UNBOUND:                -0.417
REMARK SMILES O=c1c(O)c(-c2ccc(O)cc2O)oc2cc(O)cc(O)c12
REMARK SMILES IDX 5 1 3 2 2 3 1 4 22 5 20 6 19 7 17 8 16 9 15 10 14 11 6 12
REMARK SMILES IDX 8 13 7 14 9 15 11 16 12 17 10 18 13 20 4 22 21 24 18 26
REMARK H PARENT 10 19 13 21 4 23 21 25 18 27
REMARK Flexibility Score: inf
ROOT
ATOM      1  C   UNL     1       9.515  10.113  38.348  1.00  0.00     0.184 A 
ATOM      2  C   UNL     1       9.257  10.671  39.613  1.00  0.00     0.208 A 
ATOM      3  C   UNL     1       9.218  12.067  39.743  1.00  0.00     0.238 A 
ATOM      4  O   UNL     1       8.999  12.579  40.875  1.00  0.00    -0.285 OA
ATOM      5  C   UNL     1       9.418  12.877  38.606  1.00  0.00     0.111 A 
ATOM      6  C   UNL     1       9.392  14.293  38.651  1.00  0.00     0.134 A 
ATOM      7  C   UNL     1       9.590  15.029  37.473  1.00  0.00     0.093 A 
ATOM      8  C   UNL     1       9.814  14.377  36.254  1.00  0.00     0.123 A 
ATOM      9  C   UNL     1       9.841  12.983  36.206  1.00  0.00     0.094 A 
ATOM     10  C   UNL     1       9.647  12.231  37.369  1.00  0.00     0.146 A 
ATOM     11  O   UNL     1       9.682  10.905  37.294  1.00  0.00    -0.451 OA
ENDROOT
BRANCH   1  12
ATOM     12  C   UNL     1       9.581   8.650  38.144  1.00  0.00     0.063 A 
ATOM     13  C   UNL     1       8.442   6.502  38.139  1.00  0.00     0.047 A 
ATOM     14  C   UNL     1       8.418   7.886  38.329  1.00  0.00     0.020 A 
ATOM     15  C   UNL     1       9.627   5.867  37.748  1.00  0.00     0.119 A 
ATOM     16  C   UNL     1      10.784   6.624  37.538  1.00  0.00     0.093 A 
ATOM     17  C   UNL     1      10.767   8.015  37.722  1.00  0.00     0.130 A 
BRANCH  15  18
ATOM     18  O   UNL     1       9.665   4.488  37.558  1.00  0.00    -0.508 OA
ATOM     19  H   UNL     1       9.895   3.856  38.316  1.00  0.00     0.293 HD
ENDBRANCH  15  18
BRANCH  17  20
ATOM     20  O   UNL     1      11.914   8.764  37.463  1.00  0.00    -0.507 OA
ATOM     21  H   UNL     1      12.162   9.049  36.522  1.00  0.00     0.293 HD
ENDBRANCH  17  20
ENDBRANCH   1  12
BRANCH   2  22
ATOM     22  O   UNL     1       9.019   9.840  40.711  1.00  0.00    -0.502 OA
ATOM     23  H   UNL     1       8.512   8.967  40.630  1.00  0.00     0.293 HD
ENDBRANCH   2  22
BRANCH   6  24
ATOM     24  O   UNL     1       9.170  14.970  39.851  1.00  0.00    -0.507 OA
ATOM     25  H   UNL     1       9.194  14.492  40.745  1.00  0.00     0.293 HD
ENDBRANCH   6  24
BRANCH   8  26
ATOM     26  O   UNL     1      10.009  15.109  35.084  1.00  0.00    -0.508 OA
ATOM     27  H   UNL     1       9.529  15.986  34.922  1.00  0.00     0.293 HD
ENDBRANCH   8  26
TORSDOF 6
ENDMDL
MODEL 6
REMARK VINA RESULT:    -5.767      6.764      8.092
REMARK INTER + INTRA:          -7.365
REMARK INTER:                  -7.456
REMARK INTRA:                   0.091
REMARK UNBOUND:                -0.417
REMARK SMILES O=c1c(O)c(-c2ccc(O)cc2O)oc2cc(O)cc(O)c12
REMARK SMILES IDX 5 1 3 2 2 3 1 4 22 5 20 6 19 7 17 8 16 9 15 10 14 11 6 12
REMARK SMILES IDX 8 13 7 14 9 15 11 16 12 17 10 18 13 20 4 22 21 24 18 26
REMARK H PARENT 10 19 13 21 4 23 21 25 18 27
REMARK Flexibility Score: inf
ROOT
ATOM      1  C   UNL     1       4.574   7.001  39.389  1.00  0.00     0.184 A 
ATOM      2  C   UNL     1       3.484   7.484  40.135  1.00  0.00     0.208 A 
ATOM      3  C   UNL     1       2.207   6.961  39.884  1.00  0.00     0.238 A 
ATOM      4  O   UNL     1       1.219   7.394  40.537  1.00  0.00    -0.285 OA
ATOM      5  C   UNL     1       2.047   5.954  38.909  1.00  0.00     0.111 A 
ATOM      6  C   UNL     1       0.794   5.372  38.596  1.00  0.00     0.134 A 
ATOM      7  C   UNL     1       0.718   4.368  37.619  1.00  0.00     0.093 A 
ATOM      8  C   UNL     1       1.869   3.936  36.950  1.00  0.00     0.123 A 
ATOM      9  C   UNL     1       3.105   4.508  37.254  1.00  0.00     0.094 A 
ATOM     10  C   UNL     1       3.202   5.510  38.224  1.00  0.00     0.146 A 
ATOM     11  O   UNL     1       4.391   6.040  38.490  1.00  0.00    -0.451 OA
ENDROOT
BRANCH   1  12
ATOM     12  C   UNL     1       5.944   7.516  39.597  1.00  0.00     0.063 A 
ATOM     13  C   UNL     1       7.635   8.363  41.125  1.00  0.00     0.047 A 
ATOM     14  C   UNL     1       6.345   7.878  40.893  1.00  0.00     0.020 A 
ATOM     15  C   UNL     1       8.544   8.479  40.067  1.00  0.00     0.119 A 
ATOM     16  C   UNL     1       8.160   8.097  38.777  1.00  0.00     0.093 A 
ATOM     17  C   UNL     1       6.869   7.605  38.536  1.00  0.00     0.130 A 
BRANCH  15  18
ATOM     18  O   UNL     1       9.831   8.964  40.286  1.00  0.00    -0.508 OA
ATOM     19  H   UNL     1      10.017   9.677  40.981  1.00  0.00     0.293 HD
ENDBRANCH  15  18
BRANCH  17  20
ATOM     20  O   UNL     1       6.516   7.183  37.255  1.00  0.00    -0.507 OA
ATOM     21  H   UNL     1       5.565   7.265  36.911  1.00  0.00     0.293 HD
ENDBRANCH  17  20
ENDBRANCH   1  12
BRANCH   2  22
ATOM     22  O   UNL     1       3.683   8.449  41.125  1.00  0.00    -0.502 OA
ATOM     23  H   UNL     1       3.017   9.191  41.301  1.00  0.00     0.293 HD
ENDBRANCH   2  22
BRANCH   6  24
ATOM     24  O   UNL     1      -0.371   5.781  39.248  1.00  0.00    -0.507 OA
ATOM     25  H   UNL     1      -0.362   6.518  39.944  1.00  0.00     0.293 HD
ENDBRANCH   6  24
BRANCH   8  26
ATOM     26  O   UNL     1       1.794   2.938  35.981  1.00  0.00    -0.508 OA
ATOM     27  H   UNL     1       0.907   2.532  35.706  1.00  0.00     0.293 HD
ENDBRANCH   8  26
TORSDOF 6
ENDMDL
MODEL 7
REMARK VINA RESULT:    -5.762      4.608      6.628
REMARK INTER + INTRA:          -7.358
REMARK INTER:                  -6.930
REMARK INTRA:                  -0.428
REMARK UNBOUND:                -0.417
REMARK SMILES O=c1c(O)c(-c2ccc(O)cc2O)oc2cc(O)cc(O)c12
REMARK SMILES IDX 5 1 3 2 2 3 1 4 22 5 20 6 19 7 17 8 16 9 15 10 14 11 6 12
REMARK SMILES IDX 8 13 7 14 9 15 11 16 12 17 10 18 13 20 4 22 21 24 18 26
REMARK H PARENT 10 19 13 21 4 23 21 25 18 27
REMARK Flexibility Score: inf
ROOT
ATOM      1  C   UNL     1       5.793   8.257  38.909  1.00  0.00     0.184 A 
ATOM      2  C   UNL     1       6.628   7.188  38.536  1.00  0.00     0.208 A 
ATOM      3  C   UNL     1       7.934   7.466  38.108  1.00  0.00     0.238 A 
ATOM      4  O   UNL     1       8.689   6.517  37.760  1.00  0.00    -0.285 OA
ATOM      5  C   UNL     1       8.388   8.801  38.081  1.00  0.00     0.111 A 
ATOM      6  C   UNL     1       9.692   9.167  37.665  1.00  0.00     0.134 A 
ATOM      7  C   UNL     1      10.072  10.517  37.675  1.00  0.00     0.093 A 
ATOM      8  C   UNL     1       9.174  11.507  38.092  1.00  0.00     0.123 A 
ATOM      9  C   UNL     1       7.889  11.152  38.500  1.00  0.00     0.094 A 
ATOM     10  C   UNL     1       7.490   9.811  38.497  1.00  0.00     0.146 A 
ATOM     11  O   UNL     1       6.258   9.502  38.887  1.00  0.00    -0.451 OA
ENDROOT
BRANCH   1  12
ATOM     12  C   UNL     1       4.403   8.035  39.358  1.00  0.00     0.063 A 
ATOM     13  C   UNL     1       2.875   7.355  41.122  1.00  0.00     0.047 A 
ATOM     14  C   UNL     1       4.177   7.570  40.663  1.00  0.00     0.020 A 
ATOM     15  C   UNL     1       1.782   7.616  40.288  1.00  0.00     0.119 A 
ATOM     16  C   UNL     1       1.998   8.103  38.994  1.00  0.00     0.093 A 
ATOM     17  C   UNL     1       3.302   8.326  38.527  1.00  0.00     0.130 A 
BRANCH  15  18
ATOM     18  O   UNL     1       0.480   7.402  40.732  1.00  0.00    -0.508 OA
ATOM     19  H   UNL     1      -0.229   8.123  40.662  1.00  0.00     0.293 HD
ENDBRANCH  15  18
BRANCH  17  20
ATOM     20  O   UNL     1       3.501   8.858  37.253  1.00  0.00    -0.507 OA
ATOM     21  H   UNL     1       3.580   9.857  37.100  1.00  0.00     0.293 HD
ENDBRANCH  17  20
ENDBRANCH   1  12
BRANCH   2  22
ATOM     22  O   UNL     1       6.162   5.874  38.617  1.00  0.00    -0.502 OA
ATOM     23  H   UNL     1       6.206   5.335  39.474  1.00  0.00     0.293 HD
ENDBRANCH   2  22
BRANCH   6  24
ATOM     24  O   UNL     1      10.610   8.202  37.246  1.00  0.00    -0.507 OA
ATOM     25  H   UNL     1      10.635   7.870  36.289  1.00  0.00     0.293 HD
ENDBRANCH   6  24
BRANCH   8  26
ATOM     26  O   UNL     1       9.552  12.848  38.103  1.00  0.00    -0.508 OA
ATOM     27  H   UNL     1      10.510  13.130  37.931  1.00  0.00     0.293 HD
ENDBRANCH   8  26
TORSDOF 6
ENDMDL
