MODEL 1
REMARK VINA RESULT:     3.646      0.000      0.000
REMARK INTER + INTRA:           8.225
REMARK INTER:                   8.335
REMARK INTRA:                  -0.110
REMARK UNBOUND:                -0.110
REMARK SMILES CCCCCCCCCCCCCCCCCCCCCCCC(=O)[O-]
REMARK SMILES IDX 13 1 14 2 15 3 16 4 17 5 18 6 19 7 20 8 21 9 22 10 23 11
REMARK SMILES IDX 24 12 25 13 26 14 12 15 11 16 10 17 9 18 8 19 7 20 6 21 5 22
REMARK SMILES IDX 4 23 3 24 2 25 1 26
REMARK H PARENT
REMARK Flexibility Score: inf
ROOT
ATOM      1  C   UNL     1      39.303  42.176  19.191  1.00  0.00     0.000 C 
ENDROOT
BRANCH   1   2
ATOM      2  C   UNL     1      39.127  40.649  19.250  1.00  0.00     0.000 C 
BRANCH   2   3
ATOM      3  C   UNL     1      40.106  39.897  18.327  1.00  0.00     0.000 C 
BRANCH   3   4
ATOM      4  C   UNL     1      39.477  39.311  17.050  1.00  0.00     0.000 C 
BRANCH   4   5
ATOM      5  C   UNL     1      40.070  37.945  16.661  1.00  0.00     0.000 C 
BRANCH   5   6
ATOM      6  C   UNL     1      39.247  36.765  17.200  1.00  0.00     0.000 C 
BRANCH   6   7
ATOM      7  C   UNL     1      39.510  36.494  18.692  1.00  0.00     0.000 C 
BRANCH   7   8
ATOM      8  C   UNL     1      39.026  35.102  19.131  1.00  0.00     0.000 C 
BRANCH   8   9
ATOM      9  C   UNL     1      38.472  35.099  20.567  1.00  0.00     0.000 C 
BRANCH   9  10
ATOM     10  C   UNL     1      37.272  36.049  20.744  1.00  0.00     0.006 C 
BRANCH  10  11
ATOM     11  C   UNL     1      37.646  37.539  20.812  1.00  0.00     0.053 C 
BRANCH  11  12
ATOM     12  C   UNL     1      36.507  38.423  20.408  1.00  0.00     0.041 C 
ATOM     13  O   UNL     1      35.319  38.016  20.518  1.00  0.00    -0.550 OA
ATOM     14  O   UNL     1      36.753  39.708  19.942  1.00  0.00    -0.550 OA
ENDBRANCH  11  12
ENDBRANCH  10  11
ENDBRANCH   9  10
ENDBRANCH   8   9
ENDBRANCH   7   8
ENDBRANCH   6   7
ENDBRANCH   5   6
ENDBRANCH   4   5
ENDBRANCH   3   4
ENDBRANCH   2   3
ENDBRANCH   1   2
BRANCH   1  15
ATOM     15  C   UNL     1      40.112  42.721  20.380  1.00  0.00     0.000 C 
BRANCH  15  16
ATOM     16  C   UNL     1      39.900  44.230  20.599  1.00  0.00     0.000 C 
BRANCH  16  17
ATOM     17  C   UNL     1      40.122  44.641  22.071  1.00  0.00     0.000 C 
BRANCH  17  18
ATOM     18  C   UNL     1      39.009  45.544  22.632  1.00  0.00    -0.000 C 
BRANCH  18  19
ATOM     19  C   UNL     1      38.658  45.221  24.092  1.00  0.00    -0.000 C 
BRANCH  19  20
ATOM     20  C   UNL     1      37.217  45.613  24.462  1.00  0.00    -0.000 C 
BRANCH  20  21
ATOM     21  C   UNL     1      36.475  46.445  23.401  1.00  0.00    -0.000 C 
BRANCH  21  22
ATOM     22  C   UNL     1      34.956  46.506  23.640  1.00  0.00    -0.000 C 
BRANCH  22  23
ATOM     23  C   UNL     1      34.528  45.749  24.908  1.00  0.00    -0.000 C 
BRANCH  23  24
ATOM     24  C   UNL     1      33.087  46.072  25.330  1.00  0.00    -0.000 C 
BRANCH  24  25
ATOM     25  C   UNL     1      33.031  47.383  26.123  1.00  0.00    -0.003 C 
ATOM     26  C   UNL     1      31.592  47.754  26.474  1.00  0.00     0.004 C 
ENDBRANCH  24  25
ENDBRANCH  23  24
ENDBRANCH  22  23
ENDBRANCH  21  22
ENDBRANCH  20  21
ENDBRANCH  19  20
ENDBRANCH  18  19
ENDBRANCH  17  18
ENDBRANCH  16  17
ENDBRANCH  15  16
ENDBRANCH   1  15
TORSDOF 22
ENDMDL
MODEL 2
REMARK VINA RESULT:     4.217      1.093      2.539
REMARK INTER + INTRA:           9.531
REMARK INTER:                   9.950
REMARK INTRA:                  -0.418
REMARK UNBOUND:                -0.110
REMARK SMILES CCCCCCCCCCCCCCCCCCCCCCCC(=O)[O-]
REMARK SMILES IDX 13 1 14 2 15 3 16 4 17 5 18 6 19 7 20 8 21 9 22 10 23 11
REMARK SMILES IDX 24 12 25 13 26 14 12 15 11 16 10 17 9 18 8 19 7 20 6 21 5 22
REMARK SMILES IDX 4 23 3 24 2 25 1 26
REMARK H PARENT
REMARK Flexibility Score: inf
ROOT
ATOM      1  C   UNL     1      40.115  43.722  21.682  1.00  0.00     0.000 C 
ENDROOT
BRANCH   1   2
ATOM      2  C   UNL     1      40.123  43.815  20.146  1.00  0.00     0.000 C 
BRANCH   2   3
ATOM      3  C   UNL     1      40.117  42.434  19.463  1.00  0.00     0.000 C 
BRANCH   3   4
ATOM      4  C   UNL     1      39.835  42.459  17.949  1.00  0.00     0.000 C 
BRANCH   4   5
ATOM      5  C   UNL     1      40.118  41.111  17.264  1.00  0.00     0.000 C 
BRANCH   5   6
ATOM      6  C   UNL     1      39.949  39.915  18.214  1.00  0.00     0.000 C 
BRANCH   6   7
ATOM      7  C   UNL     1      40.125  38.563  17.499  1.00  0.00     0.000 C 
BRANCH   7   8
ATOM      8  C   UNL     1      38.790  37.827  17.299  1.00  0.00     0.000 C 
BRANCH   8   9
ATOM      9  C   UNL     1      38.944  36.298  17.391  1.00  0.00     0.000 C 
BRANCH   9  10
ATOM     10  C   UNL     1      38.995  35.792  18.845  1.00  0.00     0.006 C 
BRANCH  10  11
ATOM     11  C   UNL     1      38.894  36.899  19.907  1.00  0.00     0.053 C 
BRANCH  11  12
ATOM     12  C   UNL     1      37.521  36.989  20.496  1.00  0.00     0.041 C 
ATOM     13  O   UNL     1      37.098  36.081  21.260  1.00  0.00    -0.550 OA
ATOM     14  O   UNL     1      36.719  38.092  20.230  1.00  0.00    -0.550 OA
ENDBRANCH  11  12
ENDBRANCH  10  11
ENDBRANCH   9  10
ENDBRANCH   8   9
ENDBRANCH   7   8
ENDBRANCH   6   7
ENDBRANCH   5   6
ENDBRANCH   4   5
ENDBRANCH   3   4
ENDBRANCH   2   3
ENDBRANCH   1   2
BRANCH   1  15
ATOM     15  C   UNL     1      39.817  45.074  22.351  1.00  0.00     0.000 C 
BRANCH  15  16
ATOM     16  C   UNL     1      39.814  44.988  23.889  1.00  0.00     0.000 C 
BRANCH  16  17
ATOM     17  C   UNL     1      38.458  44.498  24.442  1.00  0.00     0.000 C 
BRANCH  17  18
ATOM     18  C   UNL     1      37.435  45.629  24.651  1.00  0.00    -0.000 C 
BRANCH  18  19
ATOM     19  C   UNL     1      36.843  46.147  23.332  1.00  0.00    -0.000 C 
BRANCH  19  20
ATOM     20  C   UNL     1      35.765  47.226  23.542  1.00  0.00    -0.000 C 
BRANCH  20  21
ATOM     21  C   UNL     1      34.445  46.983  22.789  1.00  0.00    -0.000 C 
BRANCH  21  22
ATOM     22  C   UNL     1      33.559  45.919  23.461  1.00  0.00    -0.000 C 
BRANCH  22  23
ATOM     23  C   UNL     1      33.996  45.613  24.903  1.00  0.00    -0.000 C 
BRANCH  23  24
ATOM     24  C   UNL     1      33.067  46.247  25.949  1.00  0.00    -0.000 C 
BRANCH  24  25
ATOM     25  C   UNL     1      32.809  47.724  25.627  1.00  0.00    -0.003 C 
ATOM     26  C   UNL     1      31.801  48.332  26.598  1.00  0.00     0.004 C 
ENDBRANCH  24  25
ENDBRANCH  23  24
ENDBRANCH  22  23
ENDBRANCH  21  22
ENDBRANCH  20  21
ENDBRANCH  19  20
ENDBRANCH  18  19
ENDBRANCH  17  18
ENDBRANCH  16  17
ENDBRANCH  15  16
ENDBRANCH   1  15
TORSDOF 22
ENDMDL
MODEL 3
REMARK VINA RESULT:     5.335     10.442     19.071
REMARK INTER + INTRA:          12.086
REMARK INTER:                  13.127
REMARK INTRA:                  -1.041
REMARK UNBOUND:                -0.110
REMARK SMILES CCCCCCCCCCCCCCCCCCCCCCCC(=O)[O-]
REMARK SMILES IDX 13 1 14 2 15 3 16 4 17 5 18 6 19 7 20 8 21 9 22 10 23 11
REMARK SMILES IDX 24 12 25 13 26 14 12 15 11 16 10 17 9 18 8 19 7 20 6 21 5 22
REMARK SMILES IDX 4 23 3 24 2 25 1 26
REMARK H PARENT
REMARK Flexibility Score: inf
ROOT
ATOM      1  C   UNL     1      25.661  49.827  25.979  1.00  0.00     0.000 C 
ENDROOT
BRANCH   1   2
ATOM      2  C   UNL     1      24.776  51.057  25.712  1.00  0.00     0.000 C 
BRANCH   2   3
ATOM      3  C   UNL     1      23.577  51.153  26.675  1.00  0.00     0.000 C 
BRANCH   3   4
ATOM      4  C   UNL     1      23.035  52.577  26.898  1.00  0.00     0.000 C 
BRANCH   4   5
ATOM      5  C   UNL     1      22.044  52.664  28.072  1.00  0.00     0.000 C 
BRANCH   5   6
ATOM      6  C   UNL     1      22.697  52.346  29.426  1.00  0.00     0.000 C 
BRANCH   6   7
ATOM      7  C   UNL     1      22.530  53.487  30.445  1.00  0.00     0.000 C 
BRANCH   7   8
ATOM      8  C   UNL     1      23.839  53.813  31.183  1.00  0.00     0.000 C 
BRANCH   8   9
ATOM      9  C   UNL     1      23.659  54.924  32.232  1.00  0.00     0.000 C 
BRANCH   9  10
ATOM     10  C   UNL     1      23.616  54.382  33.673  1.00  0.00     0.006 C 
BRANCH  10  11
ATOM     11  C   UNL     1      22.448  54.915  34.518  1.00  0.00     0.053 C 
BRANCH  11  12
ATOM     12  C   UNL     1      21.312  53.942  34.587  1.00  0.00     0.041 C 
ATOM     13  O   UNL     1      21.000  53.261  33.574  1.00  0.00    -0.550 OA
ATOM     14  O   UNL     1      20.620  53.760  35.778  1.00  0.00    -0.550 OA
ENDBRANCH  11  12
ENDBRANCH  10  11
ENDBRANCH   9  10
ENDBRANCH   8   9
ENDBRANCH   7   8
ENDBRANCH   6   7
ENDBRANCH   5   6
ENDBRANCH   4   5
ENDBRANCH   3   4
ENDBRANCH   2   3
ENDBRANCH   1   2
BRANCH   1  15
ATOM     15  C   UNL     1      27.014  49.908  25.253  1.00  0.00     0.000 C 
BRANCH  15  16
ATOM     16  C   UNL     1      28.205  49.606  26.182  1.00  0.00     0.000 C 
BRANCH  16  17
ATOM     17  C   UNL     1      29.211  48.627  25.539  1.00  0.00     0.000 C 
BRANCH  17  18
ATOM     18  C   UNL     1      30.253  48.078  26.529  1.00  0.00    -0.000 C 
BRANCH  18  19
ATOM     19  C   UNL     1      31.694  48.213  26.013  1.00  0.00    -0.000 C 
BRANCH  19  20
ATOM     20  C   UNL     1      32.692  47.333  26.787  1.00  0.00    -0.000 C 
BRANCH  20  21
ATOM     21  C   UNL     1      33.364  46.224  25.957  1.00  0.00    -0.000 C 
BRANCH  21  22
ATOM     22  C   UNL     1      32.511  45.773  24.759  1.00  0.00    -0.000 C 
BRANCH  22  23
ATOM     23  C   UNL     1      33.196  46.047  23.410  1.00  0.00    -0.000 C 
BRANCH  23  24
ATOM     24  C   UNL     1      34.458  46.911  23.555  1.00  0.00    -0.000 C 
BRANCH  24  25
ATOM     25  C   UNL     1      35.216  46.998  22.224  1.00  0.00    -0.003 C 
ATOM     26  C   UNL     1      35.187  48.418  21.665  1.00  0.00     0.004 C 
ENDBRANCH  24  25
ENDBRANCH  23  24
ENDBRANCH  22  23
ENDBRANCH  21  22
ENDBRANCH  20  21
ENDBRANCH  19  20
ENDBRANCH  18  19
ENDBRANCH  17  18
ENDBRANCH  16  17
ENDBRANCH  15  16
ENDBRANCH   1  15
TORSDOF 22
ENDMDL
MODEL 4
REMARK VINA RESULT:     5.369     10.003     17.949
REMARK INTER + INTRA:          12.164
REMARK INTER:                  13.377
REMARK INTRA:                  -1.213
REMARK UNBOUND:                -0.110
REMARK SMILES CCCCCCCCCCCCCCCCCCCCCCCC(=O)[O-]
REMARK SMILES IDX 13 1 14 2 15 3 16 4 17 5 18 6 19 7 20 8 21 9 22 10 23 11
REMARK SMILES IDX 24 12 25 13 26 14 12 15 11 16 10 17 9 18 8 19 7 20 6 21 5 22
REMARK SMILES IDX 4 23 3 24 2 25 1 26
REMARK H PARENT
REMARK Flexibility Score: inf
ROOT
ATOM      1  C   UNL     1      23.192  52.019  27.631  1.00  0.00     0.000 C 
ENDROOT
BRANCH   1   2
ATOM      2  C   UNL     1      23.415  52.680  26.260  1.00  0.00     0.000 C 
BRANCH   2   3
ATOM      3  C   UNL     1      24.359  51.871  25.351  1.00  0.00     0.000 C 
BRANCH   3   4
ATOM      4  C   UNL     1      24.973  50.618  26.002  1.00  0.00     0.000 C 
BRANCH   4   5
ATOM      5  C   UNL     1      26.246  50.133  25.286  1.00  0.00     0.000 C 
BRANCH   5   6
ATOM      6  C   UNL     1      27.279  49.535  26.253  1.00  0.00     0.000 C 
BRANCH   6   7
ATOM      7  C   UNL     1      28.603  49.176  25.555  1.00  0.00     0.000 C 
BRANCH   7   8
ATOM      8  C   UNL     1      29.551  48.380  26.466  1.00  0.00     0.000 C 
BRANCH   8   9
ATOM      9  C   UNL     1      30.669  47.675  25.678  1.00  0.00     0.000 C 
BRANCH   9  10
ATOM     10  C   UNL     1      32.074  47.985  26.229  1.00  0.00     0.006 C 
BRANCH  10  11
ATOM     11  C   UNL     1      32.974  46.751  26.404  1.00  0.00     0.053 C 
BRANCH  11  12
ATOM     12  C   UNL     1      33.450  46.211  25.092  1.00  0.00     0.041 C 
ATOM     13  O   UNL     1      34.667  46.295  24.776  1.00  0.00    -0.550 OA
ATOM     14  O   UNL     1      32.558  45.585  24.230  1.00  0.00    -0.550 OA
ENDBRANCH  11  12
ENDBRANCH  10  11
ENDBRANCH   9  10
ENDBRANCH   8   9
ENDBRANCH   7   8
ENDBRANCH   6   7
ENDBRANCH   5   6
ENDBRANCH   4   5
ENDBRANCH   3   4
ENDBRANCH   2   3
ENDBRANCH   1   2
BRANCH   1  15
ATOM     15  C   UNL     1      21.745  52.171  28.129  1.00  0.00     0.000 C 
BRANCH  15  16
ATOM     16  C   UNL     1      21.661  52.818  29.524  1.00  0.00     0.000 C 
BRANCH  16  17
ATOM     17  C   UNL     1      23.049  53.226  30.061  1.00  0.00     0.000 C 
BRANCH  17  18
ATOM     18  C   UNL     1      22.998  54.360  31.100  1.00  0.00    -0.000 C 
BRANCH  18  19
ATOM     19  C   UNL     1      24.231  54.385  32.016  1.00  0.00    -0.000 C 
BRANCH  19  20
ATOM     20  C   UNL     1      23.978  55.124  33.342  1.00  0.00    -0.000 C 
BRANCH  20  21
ATOM     21  C   UNL     1      23.921  54.224  34.589  1.00  0.00    -0.000 C 
BRANCH  21  22
ATOM     22  C   UNL     1      23.329  54.938  35.817  1.00  0.00    -0.000 C 
BRANCH  22  23
ATOM     23  C   UNL     1      21.800  54.799  35.898  1.00  0.00    -0.000 C 
BRANCH  23  24
ATOM     24  C   UNL     1      21.317  53.380  35.565  1.00  0.00    -0.000 C 
BRANCH  24  25
ATOM     25  C   UNL     1      20.119  53.420  34.609  1.00  0.00    -0.003 C 
ATOM     26  C   UNL     1      20.250  54.564  33.608  1.00  0.00     0.004 C 
ENDBRANCH  24  25
ENDBRANCH  23  24
ENDBRANCH  22  23
ENDBRANCH  21  22
ENDBRANCH  20  21
ENDBRANCH  19  20
ENDBRANCH  18  19
ENDBRANCH  17  18
ENDBRANCH  16  17
ENDBRANCH  15  16
ENDBRANCH   1  15
TORSDOF 22
ENDMDL
MODEL 5
REMARK VINA RESULT:     5.675     11.748     21.005
REMARK INTER + INTRA:          12.864
REMARK INTER:                  13.850
REMARK INTRA:                  -0.986
REMARK UNBOUND:                -0.110
REMARK SMILES CCCCCCCCCCCCCCCCCCCCCCCC(=O)[O-]
REMARK SMILES IDX 13 1 14 2 15 3 16 4 17 5 18 6 19 7 20 8 21 9 22 10 23 11
REMARK SMILES IDX 24 12 25 13 26 14 12 15 11 16 10 17 9 18 8 19 7 20 6 21 5 22
REMARK SMILES IDX 4 23 3 24 2 25 1 26
REMARK H PARENT
REMARK Flexibility Score: inf
ROOT
ATOM      1  C   UNL     1      23.231  52.402  27.151  1.00  0.00     0.000 C 
ENDROOT
BRANCH   1   2
ATOM      2  C   UNL     1      21.977  52.024  27.958  1.00  0.00     0.000 C 
BRANCH   2   3
ATOM      3  C   UNL     1      21.709  52.983  29.134  1.00  0.00     0.000 C 
BRANCH   3   4
ATOM      4  C   UNL     1      20.444  53.848  28.993  1.00  0.00     0.000 C 
BRANCH   4   5
ATOM      5  C   UNL     1      20.201  54.759  30.210  1.00  0.00     0.000 C 
BRANCH   5   6
ATOM      6  C   UNL     1      20.997  54.319  31.448  1.00  0.00     0.000 C 
BRANCH   6   7
ATOM      7  C   UNL     1      20.175  54.419  32.745  1.00  0.00     0.000 C 
BRANCH   7   8
ATOM      8  C   UNL     1      20.758  53.560  33.879  1.00  0.00     0.000 C 
BRANCH   8   9
ATOM      9  C   UNL     1      20.500  54.168  35.269  1.00  0.00     0.000 C 
BRANCH   9  10
ATOM     10  C   UNL     1      21.772  54.754  35.908  1.00  0.00     0.006 C 
BRANCH  10  11
ATOM     11  C   UNL     1      23.016  53.858  35.786  1.00  0.00     0.053 C 
BRANCH  11  12
ATOM     12  C   UNL     1      24.115  54.523  35.017  1.00  0.00     0.041 C 
ATOM     13  O   UNL     1      25.153  54.919  35.610  1.00  0.00    -0.550 OA
ATOM     14  O   UNL     1      24.009  54.675  33.640  1.00  0.00    -0.550 OA
ENDBRANCH  11  12
ENDBRANCH  10  11
ENDBRANCH   9  10
ENDBRANCH   8   9
ENDBRANCH   7   8
ENDBRANCH   6   7
ENDBRANCH   5   6
ENDBRANCH   4   5
ENDBRANCH   3   4
ENDBRANCH   2   3
ENDBRANCH   1   2
BRANCH   1  15
ATOM     15  C   UNL     1      23.879  51.187  26.468  1.00  0.00     0.000 C 
BRANCH  15  16
ATOM     16  C   UNL     1      24.434  51.517  25.070  1.00  0.00     0.000 C 
BRANCH  16  17
ATOM     17  C   UNL     1      25.765  50.788  24.784  1.00  0.00     0.000 C 
BRANCH  17  18
ATOM     18  C   UNL     1      26.297  49.987  25.986  1.00  0.00    -0.000 C 
BRANCH  18  19
ATOM     19  C   UNL     1      27.318  48.913  25.580  1.00  0.00    -0.000 C 
BRANCH  19  20
ATOM     20  C   UNL     1      28.756  49.264  26.004  1.00  0.00    -0.000 C 
BRANCH  20  21
ATOM     21  C   UNL     1      29.801  48.166  25.735  1.00  0.00    -0.000 C 
BRANCH  21  22
ATOM     22  C   UNL     1      31.206  48.539  26.237  1.00  0.00    -0.000 C 
BRANCH  22  23
ATOM     23  C   UNL     1      32.055  47.305  26.586  1.00  0.00    -0.000 C 
BRANCH  23  24
ATOM     24  C   UNL     1      32.513  46.533  25.339  1.00  0.00    -0.000 C 
BRANCH  24  25
ATOM     25  C   UNL     1      33.941  46.931  24.945  1.00  0.00    -0.003 C 
ATOM     26  C   UNL     1      34.146  46.826  23.436  1.00  0.00     0.004 C 
ENDBRANCH  24  25
ENDBRANCH  23  24
ENDBRANCH  22  23
ENDBRANCH  21  22
ENDBRANCH  20  21
ENDBRANCH  19  20
ENDBRANCH  18  19
ENDBRANCH  17  18
ENDBRANCH  16  17
ENDBRANCH  15  16
ENDBRANCH   1  15
TORSDOF 22
ENDMDL
MODEL 6
REMARK VINA RESULT:     5.770     10.308     18.653
REMARK INTER + INTRA:          13.082
REMARK INTER:                  14.296
REMARK INTRA:                  -1.214
REMARK UNBOUND:                -0.110
REMARK SMILES CCCCCCCCCCCCCCCCCCCCCCCC(=O)[O-]
REMARK SMILES IDX 13 1 14 2 15 3 16 4 17 5 18 6 19 7 20 8 21 9 22 10 23 11
REMARK SMILES IDX 24 12 25 13 26 14 12 15 11 16 10 17 9 18 8 19 7 20 6 21 5 22
REMARK SMILES IDX 4 23 3 24 2 25 1 26
REMARK H PARENT
REMARK Flexibility Score: inf
ROOT
ATOM      1  C   UNL     1      26.441  49.822  25.820  1.00  0.00     0.000 C 
ENDROOT
BRANCH   1   2
ATOM      2  C   UNL     1      25.761  50.930  24.997  1.00  0.00     0.000 C 
BRANCH   2   3
ATOM      3  C   UNL     1      24.375  51.319  25.547  1.00  0.00     0.000 C 
BRANCH   3   4
ATOM      4  C   UNL     1      24.002  52.803  25.378  1.00  0.00     0.000 C 
BRANCH   4   5
ATOM      5  C   UNL     1      22.937  53.272  26.385  1.00  0.00     0.000 C 
BRANCH   5   6
ATOM      6  C   UNL     1      22.826  52.347  27.606  1.00  0.00     0.000 C 
BRANCH   6   7
ATOM      7  C   UNL     1      21.467  52.467  28.317  1.00  0.00     0.000 C 
BRANCH   7   8
ATOM      8  C   UNL     1      20.751  53.790  27.999  1.00  0.00     0.000 C 
BRANCH   8   9
ATOM      9  C   UNL     1      20.162  54.456  29.256  1.00  0.00     0.000 C 
BRANCH   9  10
ATOM     10  C   UNL     1      21.155  54.489  30.433  1.00  0.00     0.006 C 
BRANCH  10  11
ATOM     11  C   UNL     1      20.504  54.339  31.818  1.00  0.00     0.053 C 
BRANCH  11  12
ATOM     12  C   UNL     1      21.480  54.585  32.927  1.00  0.00     0.041 C 
ATOM     13  O   UNL     1      22.717  54.600  32.690  1.00  0.00    -0.550 OA
ATOM     14  O   UNL     1      21.023  54.829  34.216  1.00  0.00    -0.550 OA
ENDBRANCH  11  12
ENDBRANCH  10  11
ENDBRANCH   9  10
ENDBRANCH   8   9
ENDBRANCH   7   8
ENDBRANCH   6   7
ENDBRANCH   5   6
ENDBRANCH   4   5
ENDBRANCH   3   4
ENDBRANCH   2   3
ENDBRANCH   1   2
BRANCH   1  15
ATOM     15  C   UNL     1      27.889  49.562  25.371  1.00  0.00     0.000 C 
BRANCH  15  16
ATOM     16  C   UNL     1      28.511  48.331  26.056  1.00  0.00     0.000 C 
BRANCH  16  17
ATOM     17  C   UNL     1      29.952  48.061  25.572  1.00  0.00     0.000 C 
BRANCH  17  18
ATOM     18  C   UNL     1      31.008  48.184  26.685  1.00  0.00    -0.000 C 
BRANCH  18  19
ATOM     19  C   UNL     1      32.442  47.998  26.168  1.00  0.00    -0.000 C 
BRANCH  19  20
ATOM     20  C   UNL     1      33.131  46.750  26.748  1.00  0.00    -0.000 C 
BRANCH  20  21
ATOM     21  C   UNL     1      33.562  45.701  25.708  1.00  0.00    -0.000 C 
BRANCH  21  22
ATOM     22  C   UNL     1      32.578  45.584  24.531  1.00  0.00    -0.000 C 
BRANCH  22  23
ATOM     23  C   UNL     1      33.223  45.948  23.184  1.00  0.00    -0.000 C 
BRANCH  23  24
ATOM     24  C   UNL     1      34.188  47.139  23.295  1.00  0.00    -0.000 C 
BRANCH  24  25
ATOM     25  C   UNL     1      35.230  47.105  22.170  1.00  0.00    -0.003 C 
ATOM     26  C   UNL     1      35.482  48.502  21.610  1.00  0.00     0.004 C 
ENDBRANCH  24  25
ENDBRANCH  23  24
ENDBRANCH  22  23
ENDBRANCH  21  22
ENDBRANCH  20  21
ENDBRANCH  19  20
ENDBRANCH  18  19
ENDBRANCH  17  18
ENDBRANCH  16  17
ENDBRANCH  15  16
ENDBRANCH   1  15
TORSDOF 22
ENDMDL
MODEL 7
REMARK VINA RESULT:     5.787     10.118     18.245
REMARK INTER + INTRA:          13.119
REMARK INTER:                  13.652
REMARK INTRA:                  -0.533
REMARK UNBOUND:                -0.110
REMARK SMILES CCCCCCCCCCCCCCCCCCCCCCCC(=O)[O-]
REMARK SMILES IDX 13 1 14 2 15 3 16 4 17 5 18 6 19 7 20 8 21 9 22 10 23 11
REMARK SMILES IDX 24 12 25 13 26 14 12 15 11 16 10 17 9 18 8 19 7 20 6 21 5 22
REMARK SMILES IDX 4 23 3 24 2 25 1 26
REMARK H PARENT
REMARK Flexibility Score: inf
ROOT
ATOM      1  C   UNL     1      23.167  52.205  28.144  1.00  0.00     0.000 C 
ENDROOT
BRANCH   1   2
ATOM      2  C   UNL     1      23.692  51.145  27.161  1.00  0.00     0.000 C 
BRANCH   2   3
ATOM      3  C   UNL     1      23.967  51.715  25.756  1.00  0.00     0.000 C 
BRANCH   3   4
ATOM      4  C   UNL     1      25.236  51.176  25.072  1.00  0.00     0.000 C 
BRANCH   4   5
ATOM      5  C   UNL     1      25.948  50.090  25.898  1.00  0.00     0.000 C 
BRANCH   5   6
ATOM      6  C   UNL     1      27.127  49.452  25.148  1.00  0.00     0.000 C 
BRANCH   6   7
ATOM      7  C   UNL     1      28.410  49.401  25.998  1.00  0.00     0.000 C 
BRANCH   7   8
ATOM      8  C   UNL     1      29.485  48.489  25.385  1.00  0.00     0.000 C 
BRANCH   8   9
ATOM      9  C   UNL     1      30.377  47.834  26.454  1.00  0.00     0.000 C 
BRANCH   9  10
ATOM     10  C   UNL     1      31.866  48.192  26.289  1.00  0.00     0.006 C 
BRANCH  10  11
ATOM     11  C   UNL     1      32.826  46.999  26.432  1.00  0.00     0.053 C 
BRANCH  11  12
ATOM     12  C   UNL     1      32.886  46.173  25.184  1.00  0.00     0.041 C 
ATOM     13  O   UNL     1      33.976  46.038  24.566  1.00  0.00    -0.550 OA
ATOM     14  O   UNL     1      31.748  45.525  24.722  1.00  0.00    -0.550 OA
ENDBRANCH  11  12
ENDBRANCH  10  11
ENDBRANCH   9  10
ENDBRANCH   8   9
ENDBRANCH   7   8
ENDBRANCH   6   7
ENDBRANCH   5   6
ENDBRANCH   4   5
ENDBRANCH   3   4
ENDBRANCH   2   3
ENDBRANCH   1   2
BRANCH   1  15
ATOM     15  C   UNL     1      21.632  52.209  28.239  1.00  0.00     0.000 C 
BRANCH  15  16
ATOM     16  C   UNL     1      21.069  53.566  28.702  1.00  0.00     0.000 C 
BRANCH  16  17
ATOM     17  C   UNL     1      21.157  53.741  30.234  1.00  0.00     0.000 C 
BRANCH  17  18
ATOM     18  C   UNL     1      20.324  54.920  30.767  1.00  0.00    -0.000 C 
BRANCH  18  19
ATOM     19  C   UNL     1      19.875  54.721  32.222  1.00  0.00    -0.000 C 
BRANCH  19  20
ATOM     20  C   UNL     1      20.971  55.083  33.242  1.00  0.00    -0.000 C 
BRANCH  20  21
ATOM     21  C   UNL     1      20.676  54.659  34.692  1.00  0.00    -0.000 C 
BRANCH  21  22
ATOM     22  C   UNL     1      21.946  54.537  35.551  1.00  0.00    -0.000 C 
BRANCH  22  23
ATOM     23  C   UNL     1      23.187  55.118  34.854  1.00  0.00    -0.000 C 
BRANCH  23  24
ATOM     24  C   UNL     1      23.729  54.197  33.751  1.00  0.00    -0.000 C 
BRANCH  24  25
ATOM     25  C   UNL     1      24.956  54.819  33.073  1.00  0.00    -0.003 C 
ATOM     26  C   UNL     1      24.691  55.094  31.596  1.00  0.00     0.004 C 
ENDBRANCH  24  25
ENDBRANCH  23  24
ENDBRANCH  22  23
ENDBRANCH  21  22
ENDBRANCH  20  21
ENDBRANCH  19  20
ENDBRANCH  18  19
ENDBRANCH  17  18
ENDBRANCH  16  17
ENDBRANCH  15  16
ENDBRANCH   1  15
TORSDOF 22
ENDMDL
MODEL 8
REMARK VINA RESULT:     5.999      9.288     16.778
REMARK INTER + INTRA:          13.605
REMARK INTER:                  14.668
REMARK INTRA:                  -1.063
REMARK UNBOUND:                -0.110
REMARK SMILES CCCCCCCCCCCCCCCCCCCCCCCC(=O)[O-]
REMARK SMILES IDX 13 1 14 2 15 3 16 4 17 5 18 6 19 7 20 8 21 9 22 10 23 11
REMARK SMILES IDX 24 12 25 13 26 14 12 15 11 16 10 17 9 18 8 19 7 20 6 21 5 22
REMARK SMILES IDX 4 23 3 24 2 25 1 26
REMARK H PARENT
REMARK Flexibility Score: inf
ROOT
ATOM      1  C   UNL     1      24.249  51.855  25.170  1.00  0.00     0.000 C 
ENDROOT
BRANCH   1   2
ATOM      2  C   UNL     1      24.976  50.671  25.830  1.00  0.00     0.000 C 
BRANCH   2   3
ATOM      3  C   UNL     1      26.302  50.317  25.129  1.00  0.00     0.000 C 
BRANCH   3   4
ATOM      4  C   UNL     1      27.115  49.197  25.802  1.00  0.00     0.000 C 
BRANCH   4   5
ATOM      5  C   UNL     1      28.606  49.547  25.957  1.00  0.00     0.000 C 
BRANCH   5   6
ATOM      6  C   UNL     1      29.485  48.310  26.193  1.00  0.00     0.000 C 
BRANCH   6   7
ATOM      7  C   UNL     1      30.988  48.626  26.095  1.00  0.00     0.000 C 
BRANCH   7   8
ATOM      8  C   UNL     1      31.860  47.544  26.753  1.00  0.00     0.000 C 
BRANCH   8   9
ATOM      9  C   UNL     1      33.008  47.080  25.839  1.00  0.00     0.000 C 
BRANCH   9  10
ATOM     10  C   UNL     1      32.597  45.926  24.905  1.00  0.00     0.006 C 
BRANCH  10  11
ATOM     11  C   UNL     1      33.533  45.718  23.703  1.00  0.00     0.053 C 
BRANCH  11  12
ATOM     12  C   UNL     1      34.635  46.731  23.666  1.00  0.00     0.041 C 
ATOM     13  O   UNL     1      35.725  46.504  24.254  1.00  0.00    -0.550 OA
ATOM     14  O   UNL     1      34.471  47.913  22.953  1.00  0.00    -0.550 OA
ENDBRANCH  11  12
ENDBRANCH  10  11
ENDBRANCH   9  10
ENDBRANCH   8   9
ENDBRANCH   7   8
ENDBRANCH   6   7
ENDBRANCH   5   6
ENDBRANCH   4   5
ENDBRANCH   3   4
ENDBRANCH   2   3
ENDBRANCH   1   2
BRANCH   1  15
ATOM     15  C   UNL     1      23.454  52.695  26.184  1.00  0.00     0.000 C 
BRANCH  15  16
ATOM     16  C   UNL     1      23.031  51.885  27.424  1.00  0.00     0.000 C 
BRANCH  16  17
ATOM     17  C   UNL     1      22.320  52.762  28.477  1.00  0.00     0.000 C 
BRANCH  17  18
ATOM     18  C   UNL     1      22.715  52.424  29.926  1.00  0.00    -0.000 C 
BRANCH  18  19
ATOM     19  C   UNL     1      23.565  53.522  30.583  1.00  0.00    -0.000 C 
BRANCH  19  20
ATOM     20  C   UNL     1      22.733  54.484  31.452  1.00  0.00    -0.000 C 
BRANCH  20  21
ATOM     21  C   UNL     1      21.386  53.920  31.940  1.00  0.00    -0.000 C 
BRANCH  21  22
ATOM     22  C   UNL     1      20.666  54.858  32.924  1.00  0.00    -0.000 C 
BRANCH  22  23
ATOM     23  C   UNL     1      20.169  54.124  34.181  1.00  0.00    -0.000 C 
BRANCH  23  24
ATOM     24  C   UNL     1      21.314  53.485  34.981  1.00  0.00    -0.000 C 
BRANCH  24  25
ATOM     25  C   UNL     1      22.289  54.553  35.491  1.00  0.00    -0.003 C 
ATOM     26  C   UNL     1      23.716  54.260  35.035  1.00  0.00     0.004 C 
ENDBRANCH  24  25
ENDBRANCH  23  24
ENDBRANCH  22  23
ENDBRANCH  21  22
ENDBRANCH  20  21
ENDBRANCH  19  20
ENDBRANCH  18  19
ENDBRANCH  17  18
ENDBRANCH  16  17
ENDBRANCH  15  16
ENDBRANCH   1  15
TORSDOF 22
ENDMDL
MODEL 9
REMARK VINA RESULT:     6.096      9.063     16.461
REMARK INTER + INTRA:          13.826
REMARK INTER:                  14.362
REMARK INTRA:                  -0.536
REMARK UNBOUND:                -0.110
REMARK SMILES CCCCCCCCCCCCCCCCCCCCCCCC(=O)[O-]
REMARK SMILES IDX 13 1 14 2 15 3 16 4 17 5 18 6 19 7 20 8 21 9 22 10 23 11
REMARK SMILES IDX 24 12 25 13 26 14 12 15 11 16 10 17 9 18 8 19 7 20 6 21 5 22
REMARK SMILES IDX 4 23 3 24 2 25 1 26
REMARK H PARENT
REMARK Flexibility Score: inf
ROOT
ATOM      1  C   UNL     1      24.450  50.663  26.608  1.00  0.00     0.000 C 
ENDROOT
BRANCH   1   2
ATOM      2  C   UNL     1      25.654  50.572  25.654  1.00  0.00     0.000 C 
BRANCH   2   3
ATOM      3  C   UNL     1      26.525  49.327  25.907  1.00  0.00     0.000 C 
BRANCH   3   4
ATOM      4  C   UNL     1      28.037  49.540  25.710  1.00  0.00     0.000 C 
BRANCH   4   5
ATOM      5  C   UNL     1      28.880  48.350  26.203  1.00  0.00     0.000 C 
BRANCH   5   6
ATOM      6  C   UNL     1      30.338  48.416  25.721  1.00  0.00     0.000 C 
BRANCH   6   7
ATOM      7  C   UNL     1      31.348  48.259  26.871  1.00  0.00     0.000 C 
BRANCH   7   8
ATOM      8  C   UNL     1      32.624  47.519  26.436  1.00  0.00     0.000 C 
BRANCH   8   9
ATOM      9  C   UNL     1      32.319  46.288  25.564  1.00  0.00     0.000 C 
BRANCH   9  10
ATOM     10  C   UNL     1      33.594  45.587  25.058  1.00  0.00     0.006 C 
BRANCH  10  11
ATOM     11  C   UNL     1      34.653  46.537  24.475  1.00  0.00     0.053 C 
BRANCH  11  12
ATOM     12  C   UNL     1      34.304  46.988  23.091  1.00  0.00     0.041 C 
ATOM     13  O   UNL     1      34.690  48.112  22.674  1.00  0.00    -0.550 OA
ATOM     14  O   UNL     1      33.580  46.153  22.248  1.00  0.00    -0.550 OA
ENDBRANCH  11  12
ENDBRANCH  10  11
ENDBRANCH   9  10
ENDBRANCH   8   9
ENDBRANCH   7   8
ENDBRANCH   6   7
ENDBRANCH   5   6
ENDBRANCH   4   5
ENDBRANCH   3   4
ENDBRANCH   2   3
ENDBRANCH   1   2
BRANCH   1  15
ATOM     15  C   UNL     1      23.579  51.902  26.338  1.00  0.00     0.000 C 
BRANCH  15  16
ATOM     16  C   UNL     1      22.776  52.344  27.576  1.00  0.00     0.000 C 
BRANCH  16  17
ATOM     17  C   UNL     1      23.520  52.036  28.893  1.00  0.00     0.000 C 
BRANCH  17  18
ATOM     18  C   UNL     1      23.097  52.941  30.064  1.00  0.00    -0.000 C 
BRANCH  18  19
ATOM     19  C   UNL     1      24.292  53.450  30.884  1.00  0.00    -0.000 C 
BRANCH  19  20
ATOM     20  C   UNL     1      23.952  54.691  31.729  1.00  0.00    -0.000 C 
BRANCH  20  21
ATOM     21  C   UNL     1      24.155  54.522  33.246  1.00  0.00    -0.000 C 
BRANCH  21  22
ATOM     22  C   UNL     1      22.832  54.511  34.030  1.00  0.00    -0.000 C 
BRANCH  22  23
ATOM     23  C   UNL     1      21.605  54.675  33.119  1.00  0.00    -0.000 C 
BRANCH  23  24
ATOM     24  C   UNL     1      20.281  54.625  33.896  1.00  0.00    -0.000 C 
BRANCH  24  25
ATOM     25  C   UNL     1      20.137  53.295  34.646  1.00  0.00    -0.003 C 
ATOM     26  C   UNL     1      20.919  53.312  35.956  1.00  0.00     0.004 C 
ENDBRANCH  24  25
ENDBRANCH  23  24
ENDBRANCH  22  23
ENDBRANCH  21  22
ENDBRANCH  20  21
ENDBRANCH  19  20
ENDBRANCH  18  19
ENDBRANCH  17  18
ENDBRANCH  16  17
ENDBRANCH  15  16
ENDBRANCH   1  15
TORSDOF 22
ENDMDL
