MODEL 1
REMARK VINA RESULT:    -6.554      0.000      0.000
REMARK INTER + INTRA:         -10.528
REMARK INTER:                  -9.428
REMARK INTRA:                  -1.100
REMARK UNBOUND:                -1.100
REMARK SMILES O=c1cc(-c2ccc(O)c(O)c2)oc2cc(O[C@@H]3O[C@H](CO)[C@H](O)[C@H](O)[C@H]3O)cc(O)c12
REMARK SMILES IDX 17 1 16 2 4 3 3 4 13 5 2 6 14 7 1 8 32 9 15 10 30 11 29 12
REMARK SMILES IDX 5 13 6 14 7 15 8 16 12 17 10 18 9 19 11 21 31 23 18 25 27 26
REMARK SMILES IDX 19 27 25 28 20 29 23 30 28 31 26 33 21 35 22 36 24 38
REMARK H PARENT 9 20 11 22 31 24 28 32 26 34 22 37 24 39
REMARK Flexibility Score: inf
ROOT
ATOM      1  O   UNL     1     -25.355 -61.103  55.953  1.00  0.00    -0.462 OA
ENDROOT
BRANCH   1   2
ATOM      2  C   UNL     1     -26.373 -60.185  55.647  1.00  0.00     0.130 A 
ATOM      3  C   UNL     1     -27.494 -55.581  55.143  1.00  0.00     0.138 A 
ATOM      4  C   UNL     1     -28.847 -55.862  54.910  1.00  0.00     0.100 A 
ATOM      5  O   UNL     1     -26.651 -56.583  55.370  1.00  0.00    -0.456 OA
ATOM      6  C   UNL     1     -29.284 -57.188  54.894  1.00  0.00     0.197 A 
ATOM      7  C   UNL     1     -27.013 -57.862  55.359  1.00  0.00     0.146 A 
ATOM      8  O   UNL     1     -30.513 -57.406  54.746  1.00  0.00    -0.289 OA
ATOM      9  C   UNL     1     -28.352 -58.237  55.080  1.00  0.00     0.107 A 
ATOM     10  C   UNL     1     -26.046 -58.830  55.635  1.00  0.00     0.094 A 
ATOM     11  C   UNL     1     -28.674 -59.626  55.044  1.00  0.00     0.134 A 
ATOM     12  C   UNL     1     -27.692 -60.573  55.358  1.00  0.00     0.093 A 
BRANCH   3  13
ATOM     13  C   UNL     1     -26.975 -54.190  55.170  1.00  0.00     0.021 A 
ATOM     14  C   UNL     1     -26.524 -53.644  56.384  1.00  0.00     0.016 A 
ATOM     15  C   UNL     1     -26.025 -52.341  56.435  1.00  0.00     0.051 A 
ATOM     16  C   UNL     1     -25.958 -51.563  55.276  1.00  0.00     0.157 A 
ATOM     17  C   UNL     1     -26.894 -53.407  54.002  1.00  0.00     0.062 A 
ATOM     18  C   UNL     1     -26.391 -52.098  54.052  1.00  0.00     0.158 A 
BRANCH  16  19
ATOM     19  O   UNL     1     -25.456 -50.264  55.358  1.00  0.00    -0.504 OA
ATOM     20  H   UNL     1     -25.977 -49.463  55.021  1.00  0.00     0.293 HD
ENDBRANCH  16  19
BRANCH  18  21
ATOM     21  O   UNL     1     -26.316 -51.332  52.890  1.00  0.00    -0.504 OA
ATOM     22  H   UNL     1     -26.178 -51.757  51.981  1.00  0.00     0.293 HD
ENDBRANCH  18  21
ENDBRANCH   3  13
BRANCH  11  23
ATOM     23  O   UNL     1     -29.930 -60.125  54.682  1.00  0.00    -0.507 OA
ATOM     24  H   UNL     1     -30.780 -59.584  54.658  1.00  0.00     0.293 HD
ENDBRANCH  11  23
ENDBRANCH   1   2
BRANCH   1  25
ATOM     25  C   UNL     1     -24.451 -61.028  57.059  1.00  0.00     0.339 C 
ATOM     26  C   UNL     1     -25.153 -61.370  58.395  1.00  0.00     0.214 C 
ATOM     27  O   UNL     1     -23.311 -61.846  56.825  1.00  0.00    -0.332 OA
ATOM     28  C   UNL     1     -25.501 -62.867  58.482  1.00  0.00     0.180 C 
ATOM     29  C   UNL     1     -23.587 -63.242  56.812  1.00  0.00     0.179 C 
ATOM     30  C   UNL     1     -24.285 -63.727  58.113  1.00  0.00     0.177 C 
BRANCH  26  31
ATOM     31  O   UNL     1     -24.370 -60.973  59.496  1.00  0.00    -0.384 OA
ATOM     32  H   UNL     1     -23.630 -61.623  59.605  1.00  0.00     0.211 HD
ENDBRANCH  26  31
BRANCH  28  33
ATOM     33  O   UNL     1     -26.582 -63.166  57.634  1.00  0.00    -0.387 OA
ATOM     34  H   UNL     1     -26.711 -64.150  57.664  1.00  0.00     0.211 HD
ENDBRANCH  28  33
BRANCH  29  35
ATOM     35  C   UNL     1     -24.257 -63.695  55.493  1.00  0.00     0.191 C 
BRANCH  35  36
ATOM     36  O   UNL     1     -23.894 -65.017  55.186  1.00  0.00    -0.394 OA
ATOM     37  H   UNL     1     -22.915 -65.024  55.022  1.00  0.00     0.210 HD
ENDBRANCH  35  36
ENDBRANCH  29  35
BRANCH  30  38
ATOM     38  O   UNL     1     -24.670 -65.075  58.017  1.00  0.00    -0.387 OA
ATOM     39  H   UNL     1     -25.361 -65.126  57.305  1.00  0.00     0.211 HD
ENDBRANCH  30  38
ENDBRANCH   1  25
TORSDOF 11
ENDMDL
MODEL 2
REMARK VINA RESULT:    -6.367      5.047      6.104
REMARK INTER + INTRA:         -10.258
REMARK INTER:                  -9.216
REMARK INTRA:                  -1.042
REMARK UNBOUND:                -1.100
REMARK SMILES O=c1cc(-c2ccc(O)c(O)c2)oc2cc(O[C@@H]3O[C@H](CO)[C@H](O)[C@H](O)[C@H]3O)cc(O)c12
REMARK SMILES IDX 17 1 16 2 4 3 3 4 13 5 2 6 14 7 1 8 32 9 15 10 30 11 29 12
REMARK SMILES IDX 5 13 6 14 7 15 8 16 12 17 10 18 9 19 11 21 31 23 18 25 27 26
REMARK SMILES IDX 19 27 25 28 20 29 23 30 28 31 26 33 21 35 22 36 24 38
REMARK H PARENT 9 20 11 22 31 24 28 32 26 34 22 37 24 39
REMARK Flexibility Score: inf
ROOT
ATOM      1  O   UNL     1     -31.145 -59.293  60.248  1.00  0.00    -0.462 OA
ENDROOT
BRANCH   1   2
ATOM      2  C   UNL     1     -31.437 -58.702  59.007  1.00  0.00     0.130 A 
ATOM      3  C   UNL     1     -29.967 -55.631  55.673  1.00  0.00     0.138 A 
ATOM      4  C   UNL     1     -31.136 -55.786  54.914  1.00  0.00     0.100 A 
ATOM      5  O   UNL     1     -29.835 -56.309  56.808  1.00  0.00    -0.456 OA
ATOM      6  C   UNL     1     -32.129 -56.666  55.347  1.00  0.00     0.197 A 
ATOM      7  C   UNL     1     -30.745 -57.164  57.262  1.00  0.00     0.146 A 
ATOM      8  O   UNL     1     -33.192 -56.736  54.680  1.00  0.00    -0.289 OA
ATOM      9  C   UNL     1     -31.933 -57.419  56.529  1.00  0.00     0.107 A 
ATOM     10  C   UNL     1     -30.511 -57.803  58.480  1.00  0.00     0.094 A 
ATOM     11  C   UNL     1     -32.857 -58.375  57.046  1.00  0.00     0.134 A 
ATOM     12  C   UNL     1     -32.611 -58.976  58.287  1.00  0.00     0.093 A 
BRANCH   3  13
ATOM     13  C   UNL     1     -28.880 -54.709  55.259  1.00  0.00     0.021 A 
ATOM     14  C   UNL     1     -28.855 -54.218  53.942  1.00  0.00     0.016 A 
ATOM     15  C   UNL     1     -27.847 -53.344  53.529  1.00  0.00     0.051 A 
ATOM     16  C   UNL     1     -26.853 -52.936  54.423  1.00  0.00     0.157 A 
ATOM     17  C   UNL     1     -27.883 -54.286  56.160  1.00  0.00     0.062 A 
ATOM     18  C   UNL     1     -26.872 -53.406  55.746  1.00  0.00     0.158 A 
BRANCH  16  19
ATOM     19  O   UNL     1     -25.860 -52.064  53.981  1.00  0.00    -0.504 OA
ATOM     20  H   UNL     1     -25.113 -51.746  54.588  1.00  0.00     0.293 HD
ENDBRANCH  16  19
BRANCH  18  21
ATOM     21  O   UNL     1     -25.890 -52.995  56.646  1.00  0.00    -0.504 OA
ATOM     22  H   UNL     1     -26.105 -52.807  57.618  1.00  0.00     0.293 HD
ENDBRANCH  18  21
ENDBRANCH   3  13
BRANCH  11  23
ATOM     23  O   UNL     1     -34.010 -58.788  56.371  1.00  0.00    -0.507 OA
ATOM     24  H   UNL     1     -34.719 -58.169  56.008  1.00  0.00     0.293 HD
ENDBRANCH  11  23
ENDBRANCH   1   2
BRANCH   1  25
ATOM     25  C   UNL     1     -32.042 -59.425  61.355  1.00  0.00     0.339 C 
ATOM     26  C   UNL     1     -32.658 -60.842  61.427  1.00  0.00     0.214 C 
ATOM     27  O   UNL     1     -31.393 -59.057  62.566  1.00  0.00    -0.332 OA
ATOM     28  C   UNL     1     -31.612 -61.890  61.849  1.00  0.00     0.180 C 
ATOM     29  C   UNL     1     -30.357 -59.948  62.966  1.00  0.00     0.179 C 
ATOM     30  C   UNL     1     -30.847 -61.418  63.092  1.00  0.00     0.177 C 
BRANCH  26  31
ATOM     31  O   UNL     1     -33.772 -60.869  62.288  1.00  0.00    -0.384 OA
ATOM     32  H   UNL     1     -34.437 -60.213  61.959  1.00  0.00     0.211 HD
ENDBRANCH  26  31
BRANCH  28  33
ATOM     33  O   UNL     1     -30.718 -62.140  60.794  1.00  0.00    -0.387 OA
ATOM     34  H   UNL     1     -30.287 -61.275  60.569  1.00  0.00     0.211 HD
ENDBRANCH  28  33
BRANCH  29  35
ATOM     35  C   UNL     1     -29.063 -59.750  62.143  1.00  0.00     0.191 C 
BRANCH  35  36
ATOM     36  O   UNL     1     -28.902 -58.399  61.795  1.00  0.00    -0.394 OA
ATOM     37  H   UNL     1     -29.783 -58.067  61.481  1.00  0.00     0.210 HD
ENDBRANCH  35  36
ENDBRANCH  29  35
BRANCH  30  38
ATOM     38  O   UNL     1     -29.778 -62.294  63.351  1.00  0.00    -0.387 OA
ATOM     39  H   UNL     1     -28.955 -61.848  63.020  1.00  0.00     0.211 HD
ENDBRANCH  30  38
ENDBRANCH   1  25
TORSDOF 11
ENDMDL
MODEL 3
REMARK VINA RESULT:    -6.021      7.253     10.636
REMARK INTER + INTRA:          -9.761
REMARK INTER:                  -8.645
REMARK INTRA:                  -1.116
REMARK UNBOUND:                -1.100
REMARK SMILES O=c1cc(-c2ccc(O)c(O)c2)oc2cc(O[C@@H]3O[C@H](CO)[C@H](O)[C@H](O)[C@H]3O)cc(O)c12
REMARK SMILES IDX 17 1 16 2 4 3 3 4 13 5 2 6 14 7 1 8 32 9 15 10 30 11 29 12
REMARK SMILES IDX 5 13 6 14 7 15 8 16 12 17 10 18 9 19 11 21 31 23 18 25 27 26
REMARK SMILES IDX 19 27 25 28 20 29 23 30 28 31 26 33 21 35 22 36 24 38
REMARK H PARENT 9 20 11 22 31 24 28 32 26 34 22 37 24 39
REMARK Flexibility Score: inf
ROOT
ATOM      1  O   UNL     1     -20.638 -63.377  57.481  1.00  0.00    -0.462 OA
ENDROOT
BRANCH   1   2
ATOM      2  C   UNL     1     -21.325 -64.593  57.636  1.00  0.00     0.130 A 
ATOM      3  C   UNL     1     -25.444 -66.893  56.972  1.00  0.00     0.138 A 
ATOM      4  C   UNL     1     -24.982 -68.053  57.610  1.00  0.00     0.100 A 
ATOM      5  O   UNL     1     -24.639 -65.842  56.870  1.00  0.00    -0.456 OA
ATOM      6  C   UNL     1     -23.677 -68.095  58.104  1.00  0.00     0.197 A 
ATOM      7  C   UNL     1     -23.387 -65.831  57.316  1.00  0.00     0.146 A 
ATOM      8  O   UNL     1     -23.311 -69.124  58.726  1.00  0.00    -0.289 OA
ATOM      9  C   UNL     1     -22.823 -66.981  57.928  1.00  0.00     0.107 A 
ATOM     10  C   UNL     1     -22.639 -64.662  57.176  1.00  0.00     0.094 A 
ATOM     11  C   UNL     1     -21.462 -66.925  58.352  1.00  0.00     0.134 A 
ATOM     12  C   UNL     1     -20.747 -65.727  58.230  1.00  0.00     0.093 A 
BRANCH   3  13
ATOM     13  C   UNL     1     -26.822 -66.794  56.428  1.00  0.00     0.021 A 
ATOM     14  C   UNL     1     -27.120 -65.804  55.476  1.00  0.00     0.016 A 
ATOM     15  C   UNL     1     -28.406 -65.694  54.942  1.00  0.00     0.051 A 
ATOM     16  C   UNL     1     -29.415 -66.575  55.341  1.00  0.00     0.157 A 
ATOM     17  C   UNL     1     -27.839 -67.688  56.818  1.00  0.00     0.062 A 
ATOM     18  C   UNL     1     -29.131 -67.580  56.281  1.00  0.00     0.158 A 
BRANCH  16  19
ATOM     19  O   UNL     1     -30.689 -66.440  54.792  1.00  0.00    -0.504 OA
ATOM     20  H   UNL     1     -30.845 -66.426  53.791  1.00  0.00     0.293 HD
ENDBRANCH  16  19
BRANCH  18  21
ATOM     21  O   UNL     1     -30.129 -68.469  56.674  1.00  0.00    -0.504 OA
ATOM     22  H   UNL     1     -30.954 -68.155  57.173  1.00  0.00     0.293 HD
ENDBRANCH  18  21
ENDBRANCH   3  13
BRANCH  11  23
ATOM     23  O   UNL     1     -20.763 -68.018  58.874  1.00  0.00    -0.507 OA
ATOM     24  H   UNL     1     -20.971 -68.984  58.673  1.00  0.00     0.293 HD
ENDBRANCH  11  23
ENDBRANCH   1   2
BRANCH   1  25
ATOM     25  C   UNL     1     -20.977 -62.129  58.092  1.00  0.00     0.339 C 
ATOM     26  C   UNL     1     -19.844 -61.617  59.014  1.00  0.00     0.214 C 
ATOM     27  O   UNL     1     -21.339 -61.173  57.103  1.00  0.00    -0.332 OA
ATOM     28  C   UNL     1     -18.622 -61.153  58.200  1.00  0.00     0.180 C 
ATOM     29  C   UNL     1     -20.264 -60.765  56.264  1.00  0.00     0.179 C 
ATOM     30  C   UNL     1     -19.054 -60.212  57.067  1.00  0.00     0.177 C 
BRANCH  26  31
ATOM     31  O   UNL     1     -20.302 -60.590  59.861  1.00  0.00    -0.384 OA
ATOM     32  H   UNL     1     -19.631 -60.452  60.576  1.00  0.00     0.211 HD
ENDBRANCH  26  31
BRANCH  28  33
ATOM     33  O   UNL     1     -17.935 -62.261  57.676  1.00  0.00    -0.387 OA
ATOM     34  H   UNL     1     -18.598 -62.992  57.575  1.00  0.00     0.211 HD
ENDBRANCH  28  33
BRANCH  29  35
ATOM     35  C   UNL     1     -19.918 -61.829  55.196  1.00  0.00     0.191 C 
BRANCH  35  36
ATOM     36  O   UNL     1     -21.090 -62.394  54.666  1.00  0.00    -0.394 OA
ATOM     37  H   UNL     1     -21.396 -61.803  53.929  1.00  0.00     0.210 HD
ENDBRANCH  35  36
ENDBRANCH  29  35
BRANCH  30  38
ATOM     38  O   UNL     1     -17.958 -59.948  56.228  1.00  0.00    -0.387 OA
ATOM     39  H   UNL     1     -17.435 -60.790  56.165  1.00  0.00     0.211 HD
ENDBRANCH  30  38
ENDBRANCH   1  25
TORSDOF 11
ENDMDL
MODEL 4
REMARK VINA RESULT:    -6.005      4.341      5.764
REMARK INTER + INTRA:          -9.739
REMARK INTER:                  -8.683
REMARK INTRA:                  -1.056
REMARK UNBOUND:                -1.100
REMARK SMILES O=c1cc(-c2ccc(O)c(O)c2)oc2cc(O[C@@H]3O[C@H](CO)[C@H](O)[C@H](O)[C@H]3O)cc(O)c12
REMARK SMILES IDX 17 1 16 2 4 3 3 4 13 5 2 6 14 7 1 8 32 9 15 10 30 11 29 12
REMARK SMILES IDX 5 13 6 14 7 15 8 16 12 17 10 18 9 19 11 21 31 23 18 25 27 26
REMARK SMILES IDX 19 27 25 28 20 29 23 30 28 31 26 33 21 35 22 36 24 38
REMARK H PARENT 9 20 11 22 31 24 28 32 26 34 22 37 24 39
REMARK Flexibility Score: inf
ROOT
ATOM      1  O   UNL     1     -31.526 -58.541  58.570  1.00  0.00    -0.462 OA
ENDROOT
BRANCH   1   2
ATOM      2  C   UNL     1     -30.814 -58.305  57.383  1.00  0.00     0.130 A 
ATOM      3  C   UNL     1     -28.009 -55.263  55.021  1.00  0.00     0.138 A 
ATOM      4  C   UNL     1     -27.994 -56.061  53.868  1.00  0.00     0.100 A 
ATOM      5  O   UNL     1     -28.703 -55.664  56.080  1.00  0.00    -0.456 OA
ATOM      6  C   UNL     1     -28.685 -57.273  53.858  1.00  0.00     0.197 A 
ATOM      7  C   UNL     1     -29.372 -56.812  56.127  1.00  0.00     0.146 A 
ATOM      8  O   UNL     1     -28.707 -57.936  52.790  1.00  0.00    -0.289 OA
ATOM      9  C   UNL     1     -29.367 -57.702  55.022  1.00  0.00     0.107 A 
ATOM     10  C   UNL     1     -30.087 -57.120  57.285  1.00  0.00     0.094 A 
ATOM     11  C   UNL     1     -30.070 -58.937  55.143  1.00  0.00     0.134 A 
ATOM     12  C   UNL     1     -30.806 -59.204  56.304  1.00  0.00     0.093 A 
BRANCH   3  13
ATOM     13  C   UNL     1     -27.290 -53.965  55.085  1.00  0.00     0.021 A 
ATOM     14  C   UNL     1     -26.807 -53.504  56.322  1.00  0.00     0.016 A 
ATOM     15  C   UNL     1     -26.121 -52.291  56.409  1.00  0.00     0.051 A 
ATOM     16  C   UNL     1     -25.897 -51.521  55.264  1.00  0.00     0.157 A 
ATOM     17  C   UNL     1     -27.051 -53.192  53.932  1.00  0.00     0.062 A 
ATOM     18  C   UNL     1     -26.361 -51.974  54.018  1.00  0.00     0.158 A 
BRANCH  16  19
ATOM     19  O   UNL     1     -25.210 -50.313  55.382  1.00  0.00    -0.504 OA
ATOM     20  H   UNL     1     -25.500 -49.590  56.030  1.00  0.00     0.293 HD
ENDBRANCH  16  19
BRANCH  18  21
ATOM     21  O   UNL     1     -26.131 -51.217  52.871  1.00  0.00    -0.504 OA
ATOM     22  H   UNL     1     -25.666 -51.608  52.060  1.00  0.00     0.293 HD
ENDBRANCH  18  21
ENDBRANCH   3  13
BRANCH  11  23
ATOM     23  O   UNL     1     -30.057 -59.940  54.168  1.00  0.00    -0.507 OA
ATOM     24  H   UNL     1     -29.949 -59.780  53.178  1.00  0.00     0.293 HD
ENDBRANCH  11  23
ENDBRANCH   1   2
BRANCH   1  25
ATOM     25  C   UNL     1     -31.570 -57.685  59.716  1.00  0.00     0.339 C 
ATOM     26  C   UNL     1     -32.991 -57.615  60.325  1.00  0.00     0.214 C 
ATOM     27  O   UNL     1     -30.595 -58.085  60.672  1.00  0.00    -0.332 OA
ATOM     28  C   UNL     1     -33.377 -58.939  61.009  1.00  0.00     0.180 C 
ATOM     29  C   UNL     1     -30.856 -59.344  61.281  1.00  0.00     0.179 C 
ATOM     30  C   UNL     1     -32.258 -59.407  61.948  1.00  0.00     0.177 C 
BRANCH  26  31
ATOM     31  O   UNL     1     -33.108 -56.535  61.220  1.00  0.00    -0.384 OA
ATOM     32  H   UNL     1     -32.661 -55.747  60.819  1.00  0.00     0.211 HD
ENDBRANCH  26  31
BRANCH  28  33
ATOM     33  O   UNL     1     -33.647 -59.926  60.045  1.00  0.00    -0.387 OA
ATOM     34  H   UNL     1     -34.500 -59.676  59.605  1.00  0.00     0.211 HD
ENDBRANCH  28  33
BRANCH  29  35
ATOM     35  C   UNL     1     -30.514 -60.529  60.347  1.00  0.00     0.191 C 
BRANCH  35  36
ATOM     36  O   UNL     1     -30.132 -61.653  61.098  1.00  0.00    -0.394 OA
ATOM     37  H   UNL     1     -30.252 -61.424  62.056  1.00  0.00     0.210 HD
ENDBRANCH  35  36
ENDBRANCH  29  35
BRANCH  30  38
ATOM     38  O   UNL     1     -32.545 -60.701  62.418  1.00  0.00    -0.387 OA
ATOM     39  H   UNL     1     -31.691 -61.208  62.401  1.00  0.00     0.211 HD
ENDBRANCH  30  38
ENDBRANCH   1  25
TORSDOF 11
ENDMDL
MODEL 5
REMARK VINA RESULT:    -5.997      6.980      9.478
REMARK INTER + INTRA:          -9.727
REMARK INTER:                  -8.610
REMARK INTRA:                  -1.117
REMARK UNBOUND:                -1.100
REMARK SMILES O=c1cc(-c2ccc(O)c(O)c2)oc2cc(O[C@@H]3O[C@H](CO)[C@H](O)[C@H](O)[C@H]3O)cc(O)c12
REMARK SMILES IDX 17 1 16 2 4 3 3 4 13 5 2 6 14 7 1 8 32 9 15 10 30 11 29 12
REMARK SMILES IDX 5 13 6 14 7 15 8 16 12 17 10 18 9 19 11 21 31 23 18 25 27 26
REMARK SMILES IDX 19 27 25 28 20 29 23 30 28 31 26 33 21 35 22 36 24 38
REMARK H PARENT 9 20 11 22 31 24 28 32 26 34 22 37 24 39
REMARK Flexibility Score: inf
ROOT
ATOM      1  O   UNL     1     -27.403 -66.234  56.227  1.00  0.00    -0.462 OA
ENDROOT
BRANCH   1   2
ATOM      2  C   UNL     1     -26.098 -66.414  56.714  1.00  0.00     0.130 A 
ATOM      3  C   UNL     1     -21.875 -64.353  57.499  1.00  0.00     0.138 A 
ATOM      4  C   UNL     1     -21.293 -65.549  57.942  1.00  0.00     0.100 A 
ATOM      5  O   UNL     1     -23.147 -64.352  57.115  1.00  0.00    -0.456 OA
ATOM      6  C   UNL     1     -22.063 -66.712  57.998  1.00  0.00     0.197 A 
ATOM      7  C   UNL     1     -23.926 -65.427  57.155  1.00  0.00     0.146 A 
ATOM      8  O   UNL     1     -21.498 -67.782  58.338  1.00  0.00    -0.289 OA
ATOM      9  C   UNL     1     -23.431 -66.666  57.639  1.00  0.00     0.107 A 
ATOM     10  C   UNL     1     -25.242 -65.315  56.704  1.00  0.00     0.094 A 
ATOM     11  C   UNL     1     -24.324 -67.778  57.695  1.00  0.00     0.134 A 
ATOM     12  C   UNL     1     -25.628 -67.644  57.204  1.00  0.00     0.093 A 
BRANCH   3  13
ATOM     13  C   UNL     1     -21.102 -63.087  57.420  1.00  0.00     0.021 A 
ATOM     14  C   UNL     1     -21.384 -62.168  56.394  1.00  0.00     0.016 A 
ATOM     15  C   UNL     1     -20.677 -60.967  56.303  1.00  0.00     0.051 A 
ATOM     16  C   UNL     1     -19.685 -60.657  57.237  1.00  0.00     0.157 A 
ATOM     17  C   UNL     1     -20.110 -62.765  58.367  1.00  0.00     0.062 A 
ATOM     18  C   UNL     1     -19.401 -61.558  58.277  1.00  0.00     0.158 A 
BRANCH  16  19
ATOM     19  O   UNL     1     -18.995 -59.451  57.118  1.00  0.00    -0.504 OA
ATOM     20  H   UNL     1     -19.237 -58.636  57.670  1.00  0.00     0.293 HD
ENDBRANCH  16  19
BRANCH  18  21
ATOM     21  O   UNL     1     -18.421 -61.249  59.218  1.00  0.00    -0.504 OA
ATOM     22  H   UNL     1     -17.465 -61.051  58.944  1.00  0.00     0.293 HD
ENDBRANCH  18  21
ENDBRANCH   3  13
BRANCH  11  23
ATOM     23  O   UNL     1     -23.988 -69.019  58.244  1.00  0.00    -0.507 OA
ATOM     24  H   UNL     1     -23.188 -69.571  57.975  1.00  0.00     0.293 HD
ENDBRANCH  11  23
ENDBRANCH   1   2
BRANCH   1  25
ATOM     25  C   UNL     1     -28.269 -67.257  55.725  1.00  0.00     0.339 C 
ATOM     26  C   UNL     1     -29.661 -67.210  56.400  1.00  0.00     0.214 C 
ATOM     27  O   UNL     1     -28.356 -67.183  54.307  1.00  0.00    -0.332 OA
ATOM     28  C   UNL     1     -30.467 -65.980  55.945  1.00  0.00     0.180 C 
ATOM     29  C   UNL     1     -29.022 -66.022  53.823  1.00  0.00     0.179 C 
ATOM     30  C   UNL     1     -30.449 -65.859  54.416  1.00  0.00     0.177 C 
BRANCH  26  31
ATOM     31  O   UNL     1     -30.380 -68.398  56.164  1.00  0.00    -0.384 OA
ATOM     32  H   UNL     1     -29.829 -69.163  56.468  1.00  0.00     0.211 HD
ENDBRANCH  26  31
BRANCH  28  33
ATOM     33  O   UNL     1     -29.948 -64.813  56.531  1.00  0.00    -0.387 OA
ATOM     34  H   UNL     1     -30.700 -64.170  56.611  1.00  0.00     0.211 HD
ENDBRANCH  28  33
BRANCH  29  35
ATOM     35  C   UNL     1     -28.128 -64.761  53.894  1.00  0.00     0.191 C 
BRANCH  35  36
ATOM     36  O   UNL     1     -26.828 -65.054  53.453  1.00  0.00    -0.394 OA
ATOM     37  H   UNL     1     -26.249 -64.289  53.708  1.00  0.00     0.210 HD
ENDBRANCH  35  36
ENDBRANCH  29  35
BRANCH  30  38
ATOM     38  O   UNL     1     -31.028 -64.638  54.031  1.00  0.00    -0.387 OA
ATOM     39  H   UNL     1     -31.399 -64.224  54.854  1.00  0.00     0.211 HD
ENDBRANCH  30  38
ENDBRANCH   1  25
TORSDOF 11
ENDMDL
MODEL 6
REMARK VINA RESULT:    -5.990      7.529     11.161
REMARK INTER + INTRA:          -9.717
REMARK INTER:                  -8.711
REMARK INTRA:                  -1.007
REMARK UNBOUND:                -1.100
REMARK SMILES O=c1cc(-c2ccc(O)c(O)c2)oc2cc(O[C@@H]3O[C@H](CO)[C@H](O)[C@H](O)[C@H]3O)cc(O)c12
REMARK SMILES IDX 17 1 16 2 4 3 3 4 13 5 2 6 14 7 1 8 32 9 15 10 30 11 29 12
REMARK SMILES IDX 5 13 6 14 7 15 8 16 12 17 10 18 9 19 11 21 31 23 18 25 27 26
REMARK SMILES IDX 19 27 25 28 20 29 23 30 28 31 26 33 21 35 22 36 24 38
REMARK H PARENT 9 20 11 22 31 24 28 32 26 34 22 37 24 39
REMARK Flexibility Score: inf
ROOT
ATOM      1  O   UNL     1     -19.323 -63.618  57.391  1.00  0.00    -0.462 OA
ENDROOT
BRANCH   1   2
ATOM      2  C   UNL     1     -20.061 -64.775  57.691  1.00  0.00     0.130 A 
ATOM      3  C   UNL     1     -24.273 -66.966  57.290  1.00  0.00     0.138 A 
ATOM      4  C   UNL     1     -23.860 -68.057  58.069  1.00  0.00     0.100 A 
ATOM      5  O   UNL     1     -23.423 -65.970  57.065  1.00  0.00    -0.456 OA
ATOM      6  C   UNL     1     -22.559 -68.092  58.572  1.00  0.00     0.197 A 
ATOM      7  C   UNL     1     -22.173 -65.957  57.513  1.00  0.00     0.146 A 
ATOM      8  O   UNL     1     -22.238 -69.051  59.320  1.00  0.00    -0.289 OA
ATOM      9  C   UNL     1     -21.658 -67.045  58.266  1.00  0.00     0.107 A 
ATOM     10  C   UNL     1     -21.376 -64.846  57.235  1.00  0.00     0.094 A 
ATOM     11  C   UNL     1     -20.297 -66.994  58.689  1.00  0.00     0.134 A 
ATOM     12  C   UNL     1     -19.532 -65.851  58.424  1.00  0.00     0.093 A 
BRANCH   3  13
ATOM     13  C   UNL     1     -25.645 -66.878  56.729  1.00  0.00     0.021 A 
ATOM     14  C   UNL     1     -25.902 -65.993  55.667  1.00  0.00     0.016 A 
ATOM     15  C   UNL     1     -27.181 -65.897  55.116  1.00  0.00     0.051 A 
ATOM     16  C   UNL     1     -28.225 -66.686  55.608  1.00  0.00     0.157 A 
ATOM     17  C   UNL     1     -26.696 -67.681  57.213  1.00  0.00     0.062 A 
ATOM     18  C   UNL     1     -27.982 -67.586  56.659  1.00  0.00     0.158 A 
BRANCH  16  19
ATOM     19  O   UNL     1     -29.492 -66.567  55.038  1.00  0.00    -0.504 OA
ATOM     20  H   UNL     1     -29.646 -66.665  54.042  1.00  0.00     0.293 HD
ENDBRANCH  16  19
BRANCH  18  21
ATOM     21  O   UNL     1     -29.015 -68.384  57.146  1.00  0.00    -0.504 OA
ATOM     22  H   UNL     1     -29.903 -67.988  57.433  1.00  0.00     0.293 HD
ENDBRANCH  18  21
ENDBRANCH   3  13
BRANCH  11  23
ATOM     23  O   UNL     1     -19.646 -68.042  59.345  1.00  0.00    -0.507 OA
ATOM     24  H   UNL     1     -19.932 -69.009  59.314  1.00  0.00     0.293 HD
ENDBRANCH  11  23
ENDBRANCH   1   2
BRANCH   1  25
ATOM     25  C   UNL     1     -19.687 -62.601  56.454  1.00  0.00     0.339 C 
ATOM     26  C   UNL     1     -20.387 -61.408  57.147  1.00  0.00     0.214 C 
ATOM     27  O   UNL     1     -18.554 -62.194  55.697  1.00  0.00    -0.332 OA
ATOM     28  C   UNL     1     -19.399 -60.593  58.001  1.00  0.00     0.180 C 
ATOM     29  C   UNL     1     -17.564 -61.505  56.453  1.00  0.00     0.179 C 
ATOM     30  C   UNL     1     -18.134 -60.265  57.196  1.00  0.00     0.177 C 
BRANCH  26  31
ATOM     31  O   UNL     1     -21.037 -60.584  56.208  1.00  0.00    -0.384 OA
ATOM     32  H   UNL     1     -20.542 -59.727  56.149  1.00  0.00     0.211 HD
ENDBRANCH  26  31
BRANCH  28  33
ATOM     33  O   UNL     1     -19.062 -61.301  59.167  1.00  0.00    -0.387 OA
ATOM     34  H   UNL     1     -19.844 -61.246  59.776  1.00  0.00     0.211 HD
ENDBRANCH  28  33
BRANCH  29  35
ATOM     35  C   UNL     1     -16.715 -62.464  57.320  1.00  0.00     0.191 C 
BRANCH  35  36
ATOM     36  O   UNL     1     -15.442 -61.920  57.554  1.00  0.00    -0.394 OA
ATOM     37  H   UNL     1     -14.774 -62.582  57.235  1.00  0.00     0.210 HD
ENDBRANCH  35  36
ENDBRANCH  29  35
BRANCH  30  38
ATOM     38  O   UNL     1     -17.172 -59.686  58.042  1.00  0.00    -0.387 OA
ATOM     39  H   UNL     1     -17.030 -58.757  57.722  1.00  0.00     0.211 HD
ENDBRANCH  30  38
ENDBRANCH   1  25
TORSDOF 11
ENDMDL
MODEL 7
REMARK VINA RESULT:    -5.875      0.862      2.199
REMARK INTER + INTRA:          -9.551
REMARK INTER:                  -8.745
REMARK INTRA:                  -0.806
REMARK UNBOUND:                -1.100
REMARK SMILES O=c1cc(-c2ccc(O)c(O)c2)oc2cc(O[C@@H]3O[C@H](CO)[C@H](O)[C@H](O)[C@H]3O)cc(O)c12
REMARK SMILES IDX 17 1 16 2 4 3 3 4 13 5 2 6 14 7 1 8 32 9 15 10 30 11 29 12
REMARK SMILES IDX 5 13 6 14 7 15 8 16 12 17 10 18 9 19 11 21 31 23 18 25 27 26
REMARK SMILES IDX 19 27 25 28 20 29 23 30 28 31 26 33 21 35 22 36 24 38
REMARK H PARENT 9 20 11 22 31 24 28 32 26 34 22 37 24 39
REMARK Flexibility Score: inf
ROOT
ATOM      1  O   UNL     1     -25.956 -61.295  56.039  1.00  0.00    -0.462 OA
ENDROOT
BRANCH   1   2
ATOM      2  C   UNL     1     -26.908 -60.324  55.686  1.00  0.00     0.130 A 
ATOM      3  C   UNL     1     -27.753 -55.669  55.123  1.00  0.00     0.138 A 
ATOM      4  C   UNL     1     -29.108 -55.877  54.830  1.00  0.00     0.100 A 
ATOM      5  O   UNL     1     -26.977 -56.714  55.390  1.00  0.00    -0.456 OA
ATOM      6  C   UNL     1     -29.615 -57.177  54.797  1.00  0.00     0.197 A 
ATOM      7  C   UNL     1     -27.406 -57.971  55.365  1.00  0.00     0.146 A 
ATOM      8  O   UNL     1     -30.846 -57.329  54.594  1.00  0.00    -0.289 OA
ATOM      9  C   UNL     1     -28.751 -58.274  55.027  1.00  0.00     0.107 A 
ATOM     10  C   UNL     1     -26.508 -58.989  55.686  1.00  0.00     0.094 A 
ATOM     11  C   UNL     1     -29.146 -59.644  54.979  1.00  0.00     0.134 A 
ATOM     12  C   UNL     1     -28.232 -60.642  55.339  1.00  0.00     0.093 A 
BRANCH   3  13
ATOM     13  C   UNL     1     -27.161 -54.308  55.170  1.00  0.00     0.021 A 
ATOM     14  C   UNL     1     -26.647 -53.819  56.384  1.00  0.00     0.016 A 
ATOM     15  C   UNL     1     -26.079 -52.546  56.454  1.00  0.00     0.051 A 
ATOM     16  C   UNL     1     -26.004 -51.741  55.314  1.00  0.00     0.157 A 
ATOM     17  C   UNL     1     -27.073 -53.498  54.021  1.00  0.00     0.062 A 
ATOM     18  C   UNL     1     -26.500 -52.219  54.090  1.00  0.00     0.158 A 
BRANCH  16  19
ATOM     19  O   UNL     1     -25.433 -50.473  55.415  1.00  0.00    -0.504 OA
ATOM     20  H   UNL     1     -25.319 -49.868  54.610  1.00  0.00     0.293 HD
ENDBRANCH  16  19
BRANCH  18  21
ATOM     21  O   UNL     1     -26.418 -51.426  52.947  1.00  0.00    -0.504 OA
ATOM     22  H   UNL     1     -26.658 -51.788  52.031  1.00  0.00     0.293 HD
ENDBRANCH  18  21
ENDBRANCH   3  13
BRANCH  11  23
ATOM     23  O   UNL     1     -30.409 -60.076  54.562  1.00  0.00    -0.507 OA
ATOM     24  H   UNL     1     -30.805 -60.981  54.766  1.00  0.00     0.293 HD
ENDBRANCH  11  23
ENDBRANCH   1   2
BRANCH   1  25
ATOM     25  C   UNL     1     -26.218 -62.669  56.337  1.00  0.00     0.339 C 
ATOM     26  C   UNL     1     -25.423 -63.619  55.410  1.00  0.00     0.214 C 
ATOM     27  O   UNL     1     -25.976 -62.934  57.714  1.00  0.00    -0.332 OA
ATOM     28  C   UNL     1     -23.918 -63.594  55.735  1.00  0.00     0.180 C 
ATOM     29  C   UNL     1     -24.607 -62.845  58.093  1.00  0.00     0.179 C 
ATOM     30  C   UNL     1     -23.689 -63.767  57.243  1.00  0.00     0.177 C 
BRANCH  26  31
ATOM     31  O   UNL     1     -25.928 -64.931  55.472  1.00  0.00    -0.384 OA
ATOM     32  H   UNL     1     -25.179 -65.545  55.682  1.00  0.00     0.211 HD
ENDBRANCH  26  31
BRANCH  28  33
ATOM     33  O   UNL     1     -23.342 -62.391  55.292  1.00  0.00    -0.387 OA
ATOM     34  H   UNL     1     -23.598 -62.281  54.339  1.00  0.00     0.211 HD
ENDBRANCH  28  33
BRANCH  29  35
ATOM     35  C   UNL     1     -24.130 -61.380  58.229  1.00  0.00     0.191 C 
BRANCH  35  36
ATOM     36  O   UNL     1     -24.445 -60.875  59.501  1.00  0.00    -0.394 OA
ATOM     37  H   UNL     1     -23.837 -61.313  60.152  1.00  0.00     0.210 HD
ENDBRANCH  35  36
ENDBRANCH  29  35
BRANCH  30  38
ATOM     38  O   UNL     1     -22.332 -63.557  57.542  1.00  0.00    -0.387 OA
ATOM     39  H   UNL     1     -21.807 -64.070  56.873  1.00  0.00     0.211 HD
ENDBRANCH  30  38
ENDBRANCH   1  25
TORSDOF 11
ENDMDL
MODEL 8
REMARK VINA RESULT:    -5.853      7.360      9.785
REMARK INTER + INTRA:          -9.520
REMARK INTER:                  -8.442
REMARK INTRA:                  -1.078
REMARK UNBOUND:                -1.100
REMARK SMILES O=c1cc(-c2ccc(O)c(O)c2)oc2cc(O[C@@H]3O[C@H](CO)[C@H](O)[C@H](O)[C@H]3O)cc(O)c12
REMARK SMILES IDX 17 1 16 2 4 3 3 4 13 5 2 6 14 7 1 8 32 9 15 10 30 11 29 12
REMARK SMILES IDX 5 13 6 14 7 15 8 16 12 17 10 18 9 19 11 21 31 23 18 25 27 26
REMARK SMILES IDX 19 27 25 28 20 29 23 30 28 31 26 33 21 35 22 36 24 38
REMARK H PARENT 9 20 11 22 31 24 28 32 26 34 22 37 24 39
REMARK Flexibility Score: inf
ROOT
ATOM      1  O   UNL     1     -26.225 -66.327  55.661  1.00  0.00    -0.462 OA
ENDROOT
BRANCH   1   2
ATOM      2  C   UNL     1     -25.032 -66.527  56.375  1.00  0.00     0.130 A 
ATOM      3  C   UNL     1     -20.926 -64.571  57.795  1.00  0.00     0.138 A 
ATOM      4  C   UNL     1     -20.478 -65.763  58.382  1.00  0.00     0.100 A 
ATOM      5  O   UNL     1     -22.112 -64.546  57.197  1.00  0.00    -0.456 OA
ATOM      6  C   UNL     1     -21.293 -66.896  58.351  1.00  0.00     0.197 A 
ATOM      7  C   UNL     1     -22.930 -65.592  57.146  1.00  0.00     0.146 A 
ATOM      8  O   UNL     1     -20.839 -67.967  58.828  1.00  0.00    -0.289 OA
ATOM      9  C   UNL     1     -22.576 -66.822  57.758  1.00  0.00     0.107 A 
ATOM     10  C   UNL     1     -24.142 -65.458  56.469  1.00  0.00     0.094 A 
ATOM     11  C   UNL     1     -23.509 -67.900  57.705  1.00  0.00     0.134 A 
ATOM     12  C   UNL     1     -24.704 -67.747  56.990  1.00  0.00     0.093 A 
BRANCH   3  13
ATOM     13  C   UNL     1     -20.101 -63.337  57.800  1.00  0.00     0.021 A 
ATOM     14  C   UNL     1     -20.468 -62.263  58.629  1.00  0.00     0.016 A 
ATOM     15  C   UNL     1     -19.705 -61.094  58.658  1.00  0.00     0.051 A 
ATOM     16  C   UNL     1     -18.557 -60.978  57.869  1.00  0.00     0.157 A 
ATOM     17  C   UNL     1     -18.936 -63.221  57.016  1.00  0.00     0.062 A 
ATOM     18  C   UNL     1     -18.167 -62.048  57.046  1.00  0.00     0.158 A 
BRANCH  16  19
ATOM     19  O   UNL     1     -17.816 -59.799  57.918  1.00  0.00    -0.504 OA
ATOM     20  H   UNL     1     -17.366 -59.480  58.769  1.00  0.00     0.293 HD
ENDBRANCH  16  19
BRANCH  18  21
ATOM     21  O   UNL     1     -17.017 -61.944  56.266  1.00  0.00    -0.504 OA
ATOM     22  H   UNL     1     -16.836 -62.581  55.498  1.00  0.00     0.293 HD
ENDBRANCH  18  21
ENDBRANCH   3  13
BRANCH  11  23
ATOM     23  O   UNL     1     -23.324 -69.124  58.354  1.00  0.00    -0.507 OA
ATOM     24  H   UNL     1     -22.997 -69.230  59.303  1.00  0.00     0.293 HD
ENDBRANCH  11  23
ENDBRANCH   1   2
BRANCH   1  25
ATOM     25  C   UNL     1     -27.031 -65.145  55.672  1.00  0.00     0.339 C 
ATOM     26  C   UNL     1     -27.426 -64.708  54.241  1.00  0.00     0.214 C 
ATOM     27  O   UNL     1     -28.164 -65.324  56.513  1.00  0.00    -0.332 OA
ATOM     28  C   UNL     1     -28.446 -65.678  53.618  1.00  0.00     0.180 C 
ATOM     29  C   UNL     1     -29.107 -66.273  56.027  1.00  0.00     0.179 C 
ATOM     30  C   UNL     1     -29.602 -65.944  54.591  1.00  0.00     0.177 C 
BRANCH  26  31
ATOM     31  O   UNL     1     -27.916 -63.388  54.230  1.00  0.00    -0.384 OA
ATOM     32  H   UNL     1     -27.204 -62.788  54.568  1.00  0.00     0.211 HD
ENDBRANCH  26  31
BRANCH  28  33
ATOM     33  O   UNL     1     -27.820 -66.886  53.266  1.00  0.00    -0.387 OA
ATOM     34  H   UNL     1     -27.841 -66.947  52.276  1.00  0.00     0.211 HD
ENDBRANCH  28  33
BRANCH  29  35
ATOM     35  C   UNL     1     -28.638 -67.730  56.247  1.00  0.00     0.191 C 
BRANCH  35  36
ATOM     36  O   UNL     1     -28.129 -67.893  57.546  1.00  0.00    -0.394 OA
ATOM     37  H   UNL     1     -28.605 -68.661  57.957  1.00  0.00     0.210 HD
ENDBRANCH  35  36
ENDBRANCH  29  35
BRANCH  30  38
ATOM     38  O   UNL     1     -30.422 -66.967  54.084  1.00  0.00    -0.387 OA
ATOM     39  H   UNL     1     -31.098 -67.167  54.784  1.00  0.00     0.211 HD
ENDBRANCH  30  38
ENDBRANCH   1  25
TORSDOF 11
ENDMDL
MODEL 9
REMARK VINA RESULT:    -5.827      5.094      6.606
REMARK INTER + INTRA:          -9.483
REMARK INTER:                  -8.374
REMARK INTRA:                  -1.108
REMARK UNBOUND:                -1.100
REMARK SMILES O=c1cc(-c2ccc(O)c(O)c2)oc2cc(O[C@@H]3O[C@H](CO)[C@H](O)[C@H](O)[C@H]3O)cc(O)c12
REMARK SMILES IDX 17 1 16 2 4 3 3 4 13 5 2 6 14 7 1 8 32 9 15 10 30 11 29 12
REMARK SMILES IDX 5 13 6 14 7 15 8 16 12 17 10 18 9 19 11 21 31 23 18 25 27 26
REMARK SMILES IDX 19 27 25 28 20 29 23 30 28 31 26 33 21 35 22 36 24 38
REMARK H PARENT 9 20 11 22 31 24 28 32 26 34 22 37 24 39
REMARK Flexibility Score: inf
ROOT
ATOM      1  O   UNL     1     -31.476 -59.697  60.240  1.00  0.00    -0.462 OA
ENDROOT
BRANCH   1   2
ATOM      2  C   UNL     1     -31.708 -59.106  58.987  1.00  0.00     0.130 A 
ATOM      3  C   UNL     1     -30.112 -55.991  55.754  1.00  0.00     0.138 A 
ATOM      4  C   UNL     1     -31.232 -56.166  54.928  1.00  0.00     0.100 A 
ATOM      5  O   UNL     1     -30.032 -56.671  56.892  1.00  0.00    -0.456 OA
ATOM      6  C   UNL     1     -32.230 -57.068  55.300  1.00  0.00     0.197 A 
ATOM      7  C   UNL     1     -30.949 -57.547  57.290  1.00  0.00     0.146 A 
ATOM      8  O   UNL     1     -33.252 -57.156  54.573  1.00  0.00    -0.289 OA
ATOM      9  C   UNL     1     -32.088 -57.822  56.489  1.00  0.00     0.107 A 
ATOM     10  C   UNL     1     -30.772 -58.187  58.517  1.00  0.00     0.094 A 
ATOM     11  C   UNL     1     -33.019 -58.799  56.948  1.00  0.00     0.134 A 
ATOM     12  C   UNL     1     -32.833 -59.400  58.199  1.00  0.00     0.093 A 
BRANCH   3  13
ATOM     13  C   UNL     1     -29.022 -55.046  55.406  1.00  0.00     0.021 A 
ATOM     14  C   UNL     1     -29.052 -54.382  54.167  1.00  0.00     0.016 A 
ATOM     15  C   UNL     1     -28.042 -53.482  53.818  1.00  0.00     0.051 A 
ATOM     16  C   UNL     1     -26.991 -53.221  54.701  1.00  0.00     0.157 A 
ATOM     17  C   UNL     1     -27.967 -54.770  56.298  1.00  0.00     0.062 A 
ATOM     18  C   UNL     1     -26.954 -53.864  55.949  1.00  0.00     0.158 A 
BRANCH  16  19
ATOM     19  O   UNL     1     -25.997 -52.319  54.325  1.00  0.00    -0.504 OA
ATOM     20  H   UNL     1     -26.011 -51.349  54.619  1.00  0.00     0.293 HD
ENDBRANCH  16  19
BRANCH  18  21
ATOM     21  O   UNL     1     -25.915 -53.599  56.840  1.00  0.00    -0.504 OA
ATOM     22  H   UNL     1     -25.758 -52.670  57.212  1.00  0.00     0.293 HD
ENDBRANCH  18  21
ENDBRANCH   3  13
BRANCH  11  23
ATOM     23  O   UNL     1     -34.123 -59.232  56.207  1.00  0.00    -0.507 OA
ATOM     24  H   UNL     1     -35.084 -59.007  56.417  1.00  0.00     0.293 HD
ENDBRANCH  11  23
ENDBRANCH   1   2
BRANCH   1  25
ATOM     25  C   UNL     1     -31.777 -61.046  60.609  1.00  0.00     0.339 C 
ATOM     26  C   UNL     1     -30.605 -61.706  61.374  1.00  0.00     0.214 C 
ATOM     27  O   UNL     1     -32.995 -61.101  61.341  1.00  0.00    -0.332 OA
ATOM     28  C   UNL     1     -30.445 -61.110  62.784  1.00  0.00     0.180 C 
ATOM     29  C   UNL     1     -32.933 -60.491  62.625  1.00  0.00     0.179 C 
ATOM     30  C   UNL     1     -31.796 -61.075  63.511  1.00  0.00     0.177 C 
BRANCH  26  31
ATOM     31  O   UNL     1     -30.760 -63.104  61.434  1.00  0.00    -0.384 OA
ATOM     32  H   UNL     1     -29.998 -63.481  61.943  1.00  0.00     0.211 HD
ENDBRANCH  26  31
BRANCH  28  33
ATOM     33  O   UNL     1     -29.901 -59.816  62.709  1.00  0.00    -0.387 OA
ATOM     34  H   UNL     1     -28.943 -59.918  62.470  1.00  0.00     0.211 HD
ENDBRANCH  28  33
BRANCH  29  35
ATOM     35  C   UNL     1     -32.981 -58.947  62.544  1.00  0.00     0.191 C 
BRANCH  35  36
ATOM     36  O   UNL     1     -33.957 -58.533  61.623  1.00  0.00    -0.394 OA
ATOM     37  H   UNL     1     -34.675 -58.078  62.137  1.00  0.00     0.210 HD
ENDBRANCH  35  36
ENDBRANCH  29  35
BRANCH  30  38
ATOM     38  O   UNL     1     -31.667 -60.363  64.716  1.00  0.00    -0.387 OA
ATOM     39  H   UNL     1     -30.770 -59.936  64.703  1.00  0.00     0.211 HD
ENDBRANCH  30  38
ENDBRANCH   1  25
TORSDOF 11
ENDMDL
