MODEL 1
REMARK VINA RESULT:     3.342      0.000      0.000
REMARK INTER + INTRA:           6.786
REMARK INTER:                   8.813
REMARK INTRA:                  -2.028
REMARK UNBOUND:                -2.028
REMARK SMILES CCCCCCCCCCCCCCCCCCCCCCCCCCCCCC(=O)[O-]
REMARK SMILES IDX 16 1 17 2 18 3 19 4 20 5 21 6 22 7 23 8 24 9 25 10 26 11
REMARK SMILES IDX 27 12 28 13 29 14 30 15 31 16 32 17 15 18 14 19 13 20 12 21
REMARK SMILES IDX 11 22 10 23 9 24 8 25 7 26 6 27 5 28 4 29 3 30 2 31 1 32
REMARK H PARENT
REMARK Flexibility Score: inf
ROOT
ATOM      1  C   UNL     1       5.023   4.880   1.000  1.00  0.00     0.000 C 
ENDROOT
BRANCH   1   2
ATOM      2  C   UNL     1       6.269   5.255   1.815  1.00  0.00     0.000 C 
BRANCH   2   3
ATOM      3  C   UNL     1       7.063   6.413   1.191  1.00  0.00     0.000 C 
BRANCH   3   4
ATOM      4  C   UNL     1       8.519   6.006   0.934  1.00  0.00     0.000 C 
BRANCH   4   5
ATOM      5  C   UNL     1       8.661   4.477   0.856  1.00  0.00     0.000 C 
BRANCH   5   6
ATOM      6  C   UNL     1      10.085   3.992   1.198  1.00  0.00     0.000 C 
BRANCH   6   7
ATOM      7  C   UNL     1      10.125   2.671   1.990  1.00  0.00     0.000 C 
BRANCH   7   8
ATOM      8  C   UNL     1       9.452   2.717   3.374  1.00  0.00     0.000 C 
BRANCH   8   9
ATOM      9  C   UNL     1      10.125   3.649   4.403  1.00  0.00     0.000 C 
BRANCH   9  10
ATOM     10  C   UNL     1      10.007   5.155   4.099  1.00  0.00     0.000 C 
BRANCH  10  11
ATOM     11  C   UNL     1       8.895   5.843   4.908  1.00  0.00     0.000 C 
BRANCH  11  12
ATOM     12  C   UNL     1       8.610   7.272   4.416  1.00  0.00     0.000 C 
BRANCH  12  13
ATOM     13  C   UNL     1       7.681   8.049   5.364  1.00  0.00     0.006 C 
BRANCH  13  14
ATOM     14  C   UNL     1       6.986   9.223   4.659  1.00  0.00     0.053 C 
BRANCH  14  15
ATOM     15  C   UNL     1       5.518   8.980   4.497  1.00  0.00     0.041 C 
ATOM     16  O   UNL     1       4.687   9.861   4.842  1.00  0.00    -0.550 OA
ATOM     17  O   UNL     1       5.066   7.792   3.938  1.00  0.00    -0.550 OA
ENDBRANCH  14  15
ENDBRANCH  13  14
ENDBRANCH  12  13
ENDBRANCH  11  12
ENDBRANCH  10  11
ENDBRANCH   9  10
ENDBRANCH   8   9
ENDBRANCH   7   8
ENDBRANCH   6   7
ENDBRANCH   5   6
ENDBRANCH   4   5
ENDBRANCH   3   4
ENDBRANCH   2   3
ENDBRANCH   1   2
BRANCH   1  18
ATOM     18  C   UNL     1       4.111   3.881   1.733  1.00  0.00     0.000 C 
BRANCH  18  19
ATOM     19  C   UNL     1       3.003   3.314   0.831  1.00  0.00     0.000 C 
BRANCH  19  20
ATOM     20  C   UNL     1       3.208   1.824   0.503  1.00  0.00     0.000 C 
BRANCH  20  21
ATOM     21  C   UNL     1       2.672   1.454  -0.889  1.00  0.00     0.000 C 
BRANCH  21  22
ATOM     22  C   UNL     1       2.134   0.017  -0.947  1.00  0.00     0.000 C 
BRANCH  22  23
ATOM     23  C   UNL     1       1.912  -0.543   0.465  1.00  0.00     0.000 C 
BRANCH  23  24
ATOM     24  C   UNL     1       1.063  -1.821   0.422  1.00  0.00    -0.000 C 
BRANCH  24  25
ATOM     25  C   UNL     1       0.678  -2.331   1.823  1.00  0.00    -0.000 C 
BRANCH  25  26
ATOM     26  C   UNL     1      -0.433  -3.397   1.840  1.00  0.00    -0.000 C 
BRANCH  26  27
ATOM     27  C   UNL     1      -1.534  -3.094   2.869  1.00  0.00    -0.000 C 
BRANCH  27  28
ATOM     28  C   UNL     1      -1.270  -3.822   4.193  1.00  0.00    -0.000 C 
BRANCH  28  29
ATOM     29  C   UNL     1      -2.386  -3.542   5.205  1.00  0.00    -0.000 C 
BRANCH  29  30
ATOM     30  C   UNL     1      -2.718  -2.046   5.264  1.00  0.00    -0.000 C 
BRANCH  30  31
ATOM     31  C   UNL     1      -4.180  -1.824   5.665  1.00  0.00    -0.003 C 
ATOM     32  C   UNL     1      -4.565  -2.701   6.853  1.00  0.00     0.004 C 
ENDBRANCH  30  31
ENDBRANCH  29  30
ENDBRANCH  28  29
ENDBRANCH  27  28
ENDBRANCH  26  27
ENDBRANCH  25  26
ENDBRANCH  24  25
ENDBRANCH  23  24
ENDBRANCH  22  23
ENDBRANCH  21  22
ENDBRANCH  20  21
ENDBRANCH  19  20
ENDBRANCH  18  19
ENDBRANCH   1  18
TORSDOF 28
ENDMDL
MODEL 2
REMARK VINA RESULT:     3.817      3.480     11.587
REMARK INTER + INTRA:           8.037
REMARK INTER:                   9.021
REMARK INTRA:                  -0.984
REMARK UNBOUND:                -2.028
REMARK SMILES CCCCCCCCCCCCCCCCCCCCCCCCCCCCCC(=O)[O-]
REMARK SMILES IDX 16 1 17 2 18 3 19 4 20 5 21 6 22 7 23 8 24 9 25 10 26 11
REMARK SMILES IDX 27 12 28 13 29 14 30 15 31 16 32 17 15 18 14 19 13 20 12 21
REMARK SMILES IDX 11 22 10 23 9 24 8 25 7 26 6 27 5 28 4 29 3 30 2 31 1 32
REMARK H PARENT
REMARK Flexibility Score: inf
ROOT
ATOM      1  C   UNL     1       5.269   5.006   1.862  1.00  0.00     0.000 C 
ENDROOT
BRANCH   1   2
ATOM      2  C   UNL     1       4.573   3.808   1.200  1.00  0.00     0.000 C 
BRANCH   2   3
ATOM      3  C   UNL     1       3.116   3.641   1.655  1.00  0.00     0.000 C 
BRANCH   3   4
ATOM      4  C   UNL     1       2.324   2.786   0.658  1.00  0.00     0.000 C 
BRANCH   4   5
ATOM      5  C   UNL     1       3.135   1.557   0.216  1.00  0.00     0.000 C 
BRANCH   5   6
ATOM      6  C   UNL     1       2.496   0.819  -0.980  1.00  0.00     0.000 C 
BRANCH   6   7
ATOM      7  C   UNL     1       1.202   0.059  -0.630  1.00  0.00     0.000 C 
BRANCH   7   8
ATOM      8  C   UNL     1       1.393  -1.425  -0.265  1.00  0.00     0.000 C 
BRANCH   8   9
ATOM      9  C   UNL     1       1.445  -1.730   1.246  1.00  0.00     0.000 C 
BRANCH   9  10
ATOM     10  C   UNL     1       0.734  -3.025   1.679  1.00  0.00     0.000 C 
BRANCH  10  11
ATOM     11  C   UNL     1      -0.740  -2.802   2.055  1.00  0.00     0.000 C 
BRANCH  11  12
ATOM     12  C   UNL     1      -0.904  -2.206   3.463  1.00  0.00     0.000 C 
BRANCH  12  13
ATOM     13  C   UNL     1      -2.274  -1.537   3.666  1.00  0.00     0.006 C 
BRANCH  13  14
ATOM     14  C   UNL     1      -2.875  -1.857   5.042  1.00  0.00     0.053 C 
BRANCH  14  15
ATOM     15  C   UNL     1      -2.113  -2.939   5.742  1.00  0.00     0.041 C 
ATOM     16  O   UNL     1      -0.935  -2.732   6.136  1.00  0.00    -0.550 OA
ATOM     17  O   UNL     1      -2.713  -4.169   5.983  1.00  0.00    -0.550 OA
ENDBRANCH  14  15
ENDBRANCH  13  14
ENDBRANCH  12  13
ENDBRANCH  11  12
ENDBRANCH  10  11
ENDBRANCH   9  10
ENDBRANCH   8   9
ENDBRANCH   7   8
ENDBRANCH   6   7
ENDBRANCH   5   6
ENDBRANCH   4   5
ENDBRANCH   3   4
ENDBRANCH   2   3
ENDBRANCH   1   2
BRANCH   1  18
ATOM     18  C   UNL     1       6.188   5.771   0.893  1.00  0.00     0.000 C 
BRANCH  18  19
ATOM     19  C   UNL     1       7.269   6.588   1.618  1.00  0.00     0.000 C 
BRANCH  19  20
ATOM     20  C   UNL     1       8.688   6.037   1.382  1.00  0.00     0.000 C 
BRANCH  20  21
ATOM     21  C   UNL     1       8.673   4.674   0.672  1.00  0.00     0.000 C 
BRANCH  21  22
ATOM     22  C   UNL     1       9.690   3.691   1.271  1.00  0.00     0.000 C 
BRANCH  22  23
ATOM     23  C   UNL     1       9.507   3.569   2.790  1.00  0.00     0.000 C 
BRANCH  23  24
ATOM     24  C   UNL     1      10.118   4.775   3.516  1.00  0.00    -0.000 C 
BRANCH  24  25
ATOM     25  C   UNL     1       9.114   5.491   4.438  1.00  0.00    -0.000 C 
BRANCH  25  26
ATOM     26  C   UNL     1       9.729   6.110   5.707  1.00  0.00    -0.000 C 
BRANCH  26  27
ATOM     27  C   UNL     1       9.803   7.644   5.647  1.00  0.00    -0.000 C 
BRANCH  27  28
ATOM     28  C   UNL     1       9.779   8.142   4.197  1.00  0.00    -0.000 C 
BRANCH  28  29
ATOM     29  C   UNL     1       8.644   9.150   3.982  1.00  0.00    -0.000 C 
BRANCH  29  30
ATOM     30  C   UNL     1       7.687   9.170   5.179  1.00  0.00    -0.000 C 
BRANCH  30  31
ATOM     31  C   UNL     1       6.438   8.329   4.895  1.00  0.00    -0.003 C 
ATOM     32  C   UNL     1       5.387   9.139   4.140  1.00  0.00     0.004 C 
ENDBRANCH  30  31
ENDBRANCH  29  30
ENDBRANCH  28  29
ENDBRANCH  27  28
ENDBRANCH  26  27
ENDBRANCH  25  26
ENDBRANCH  24  25
ENDBRANCH  23  24
ENDBRANCH  22  23
ENDBRANCH  21  22
ENDBRANCH  20  21
ENDBRANCH  19  20
ENDBRANCH  18  19
ENDBRANCH   1  18
TORSDOF 28
ENDMDL
MODEL 3
REMARK VINA RESULT:     4.141      1.109      2.443
REMARK INTER + INTRA:           8.893
REMARK INTER:                   9.417
REMARK INTRA:                  -0.524
REMARK UNBOUND:                -2.028
REMARK SMILES CCCCCCCCCCCCCCCCCCCCCCCCCCCCCC(=O)[O-]
REMARK SMILES IDX 16 1 17 2 18 3 19 4 20 5 21 6 22 7 23 8 24 9 25 10 26 11
REMARK SMILES IDX 27 12 28 13 29 14 30 15 31 16 32 17 15 18 14 19 13 20 12 21
REMARK SMILES IDX 11 22 10 23 9 24 8 25 7 26 6 27 5 28 4 29 3 30 2 31 1 32
REMARK H PARENT
REMARK Flexibility Score: inf
ROOT
ATOM      1  C   UNL     1       6.619   6.335   1.461  1.00  0.00     0.000 C 
ENDROOT
BRANCH   1   2
ATOM      2  C   UNL     1       7.665   5.543   0.661  1.00  0.00     0.000 C 
BRANCH   2   3
ATOM      3  C   UNL     1       9.093   6.073   0.861  1.00  0.00     0.000 C 
BRANCH   3   4
ATOM      4  C   UNL     1      10.057   4.933   1.211  1.00  0.00     0.000 C 
BRANCH   4   5
ATOM      5  C   UNL     1       9.291   3.671   1.639  1.00  0.00     0.000 C 
BRANCH   5   6
ATOM      6  C   UNL     1      10.125   2.747   2.551  1.00  0.00     0.000 C 
BRANCH   6   7
ATOM      7  C   UNL     1       9.821   2.907   4.053  1.00  0.00     0.000 C 
BRANCH   7   8
ATOM      8  C   UNL     1      10.124   4.299   4.638  1.00  0.00     0.000 C 
BRANCH   8   9
ATOM      9  C   UNL     1       9.104   5.399   4.282  1.00  0.00     0.000 C 
BRANCH   9  10
ATOM     10  C   UNL     1       9.460   6.811   4.783  1.00  0.00     0.000 C 
BRANCH  10  11
ATOM     11  C   UNL     1       9.762   7.793   3.639  1.00  0.00     0.000 C 
BRANCH  11  12
ATOM     12  C   UNL     1       9.924   9.240   4.134  1.00  0.00     0.000 C 
BRANCH  12  13
ATOM     13  C   UNL     1       8.627   9.808   4.735  1.00  0.00     0.006 C 
BRANCH  13  14
ATOM     14  C   UNL     1       7.776   8.720   5.406  1.00  0.00     0.053 C 
BRANCH  14  15
ATOM     15  C   UNL     1       6.437   8.581   4.751  1.00  0.00     0.041 C 
ATOM     16  O   UNL     1       6.004   7.445   4.425  1.00  0.00    -0.550 OA
ATOM     17  O   UNL     1       5.653   9.706   4.526  1.00  0.00    -0.550 OA
ENDBRANCH  14  15
ENDBRANCH  13  14
ENDBRANCH  12  13
ENDBRANCH  11  12
ENDBRANCH  10  11
ENDBRANCH   9  10
ENDBRANCH   8   9
ENDBRANCH   7   8
ENDBRANCH   6   7
ENDBRANCH   5   6
ENDBRANCH   4   5
ENDBRANCH   3   4
ENDBRANCH   2   3
ENDBRANCH   1   2
BRANCH   1  18
ATOM     18  C   UNL     1       5.505   5.440   2.032  1.00  0.00     0.000 C 
BRANCH  18  19
ATOM     19  C   UNL     1       5.018   4.382   1.029  1.00  0.00     0.000 C 
BRANCH  19  20
ATOM     20  C   UNL     1       3.787   3.608   1.533  1.00  0.00     0.000 C 
BRANCH  20  21
ATOM     21  C   UNL     1       2.957   3.018   0.381  1.00  0.00     0.000 C 
BRANCH  21  22
ATOM     22  C   UNL     1       2.857   1.487   0.456  1.00  0.00     0.000 C 
BRANCH  22  23
ATOM     23  C   UNL     1       3.220   0.847  -0.891  1.00  0.00     0.000 C 
BRANCH  23  24
ATOM     24  C   UNL     1       1.976   0.271  -1.580  1.00  0.00    -0.000 C 
BRANCH  24  25
ATOM     25  C   UNL     1       0.855  -0.090  -0.588  1.00  0.00    -0.000 C 
BRANCH  25  26
ATOM     26  C   UNL     1       0.715  -1.594  -0.289  1.00  0.00    -0.000 C 
BRANCH  26  27
ATOM     27  C   UNL     1       1.216  -1.973   1.113  1.00  0.00    -0.000 C 
BRANCH  27  28
ATOM     28  C   UNL     1       0.863  -3.427   1.453  1.00  0.00    -0.000 C 
BRANCH  28  29
ATOM     29  C   UNL     1       0.020  -3.503   2.731  1.00  0.00    -0.000 C 
BRANCH  29  30
ATOM     30  C   UNL     1      -1.248  -2.650   2.610  1.00  0.00    -0.000 C 
BRANCH  30  31
ATOM     31  C   UNL     1      -2.260  -3.015   3.701  1.00  0.00    -0.003 C 
ATOM     32  C   UNL     1      -2.133  -2.085   4.905  1.00  0.00     0.004 C 
ENDBRANCH  30  31
ENDBRANCH  29  30
ENDBRANCH  28  29
ENDBRANCH  27  28
ENDBRANCH  26  27
ENDBRANCH  25  26
ENDBRANCH  24  25
ENDBRANCH  23  24
ENDBRANCH  22  23
ENDBRANCH  21  22
ENDBRANCH  20  21
ENDBRANCH  19  20
ENDBRANCH  18  19
ENDBRANCH   1  18
TORSDOF 28
ENDMDL
MODEL 4
REMARK VINA RESULT:     4.214      0.974      2.585
REMARK INTER + INTRA:           9.084
REMARK INTER:                  11.261
REMARK INTRA:                  -2.177
REMARK UNBOUND:                -2.028
REMARK SMILES CCCCCCCCCCCCCCCCCCCCCCCCCCCCCC(=O)[O-]
REMARK SMILES IDX 16 1 17 2 18 3 19 4 20 5 21 6 22 7 23 8 24 9 25 10 26 11
REMARK SMILES IDX 27 12 28 13 29 14 30 15 31 16 32 17 15 18 14 19 13 20 12 21
REMARK SMILES IDX 11 22 10 23 9 24 8 25 7 26 6 27 5 28 4 29 3 30 2 31 1 32
REMARK H PARENT
REMARK Flexibility Score: inf
ROOT
ATOM      1  C   UNL     1       2.923   3.012   0.387  1.00  0.00     0.000 C 
ENDROOT
BRANCH   1   2
ATOM      2  C   UNL     1       3.687   3.627   1.569  1.00  0.00     0.000 C 
BRANCH   2   3
ATOM      3  C   UNL     1       4.757   4.636   1.127  1.00  0.00     0.000 C 
BRANCH   3   4
ATOM      4  C   UNL     1       5.452   5.267   2.340  1.00  0.00     0.000 C 
BRANCH   4   5
ATOM      5  C   UNL     1       6.659   6.114   1.907  1.00  0.00     0.000 C 
BRANCH   5   6
ATOM      6  C   UNL     1       7.257   5.657   0.560  1.00  0.00     0.000 C 
BRANCH   6   7
ATOM      7  C   UNL     1       8.582   4.881   0.692  1.00  0.00     0.000 C 
BRANCH   7   8
ATOM      8  C   UNL     1       9.552   5.420   1.760  1.00  0.00     0.000 C 
BRANCH   8   9
ATOM      9  C   UNL     1       9.800   4.481   2.958  1.00  0.00     0.000 C 
BRANCH   9  10
ATOM     10  C   UNL     1      10.014   5.186   4.311  1.00  0.00     0.000 C 
BRANCH  10  11
ATOM     11  C   UNL     1       9.390   6.590   4.359  1.00  0.00     0.000 C 
BRANCH  11  12
ATOM     12  C   UNL     1       8.840   6.941   5.752  1.00  0.00     0.000 C 
BRANCH  12  13
ATOM     13  C   UNL     1       7.374   7.402   5.709  1.00  0.00     0.006 C 
BRANCH  13  14
ATOM     14  C   UNL     1       7.166   8.581   4.748  1.00  0.00     0.053 C 
BRANCH  14  15
ATOM     15  C   UNL     1       5.737   9.028   4.720  1.00  0.00     0.041 C 
ATOM     16  O   UNL     1       4.917   8.482   3.935  1.00  0.00    -0.550 OA
ATOM     17  O   UNL     1       5.303  10.028   5.580  1.00  0.00    -0.550 OA
ENDBRANCH  14  15
ENDBRANCH  13  14
ENDBRANCH  12  13
ENDBRANCH  11  12
ENDBRANCH  10  11
ENDBRANCH   9  10
ENDBRANCH   8   9
ENDBRANCH   7   8
ENDBRANCH   6   7
ENDBRANCH   5   6
ENDBRANCH   4   5
ENDBRANCH   3   4
ENDBRANCH   2   3
ENDBRANCH   1   2
BRANCH   1  18
ATOM     18  C   UNL     1       3.477   1.638  -0.030  1.00  0.00     0.000 C 
BRANCH  18  19
ATOM     19  C   UNL     1       2.370   0.637  -0.397  1.00  0.00     0.000 C 
BRANCH  19  20
ATOM     20  C   UNL     1       1.875  -0.171   0.817  1.00  0.00     0.000 C 
BRANCH  20  21
ATOM     21  C   UNL     1       0.981  -1.352   0.406  1.00  0.00     0.000 C 
BRANCH  21  22
ATOM     22  C   UNL     1       1.586  -2.708   0.798  1.00  0.00     0.000 C 
BRANCH  22  23
ATOM     23  C   UNL     1       0.666  -3.460   1.769  1.00  0.00     0.000 C 
BRANCH  23  24
ATOM     24  C   UNL     1      -0.290  -2.493   2.482  1.00  0.00    -0.000 C 
BRANCH  24  25
ATOM     25  C   UNL     1      -1.593  -3.170   2.943  1.00  0.00    -0.000 C 
BRANCH  25  26
ATOM     26  C   UNL     1      -1.514  -3.856   4.320  1.00  0.00    -0.000 C 
BRANCH  26  27
ATOM     27  C   UNL     1      -1.627  -2.865   5.488  1.00  0.00    -0.000 C 
BRANCH  27  28
ATOM     28  C   UNL     1      -2.726  -1.827   5.228  1.00  0.00    -0.000 C 
BRANCH  28  29
ATOM     29  C   UNL     1      -4.031  -2.224   5.927  1.00  0.00    -0.000 C 
BRANCH  29  30
ATOM     30  C   UNL     1      -3.754  -2.994   7.223  1.00  0.00    -0.000 C 
BRANCH  30  31
ATOM     31  C   UNL     1      -5.051  -3.245   8.000  1.00  0.00    -0.003 C 
ATOM     32  C   UNL     1      -4.763  -3.584   9.460  1.00  0.00     0.004 C 
ENDBRANCH  30  31
ENDBRANCH  29  30
ENDBRANCH  28  29
ENDBRANCH  27  28
ENDBRANCH  26  27
ENDBRANCH  25  26
ENDBRANCH  24  25
ENDBRANCH  23  24
ENDBRANCH  22  23
ENDBRANCH  21  22
ENDBRANCH  20  21
ENDBRANCH  19  20
ENDBRANCH  18  19
ENDBRANCH   1  18
TORSDOF 28
ENDMDL
MODEL 5
REMARK VINA RESULT:     4.469      2.609      4.319
REMARK INTER + INTRA:           9.756
REMARK INTER:                   9.675
REMARK INTRA:                   0.081
REMARK UNBOUND:                -2.028
REMARK SMILES CCCCCCCCCCCCCCCCCCCCCCCCCCCCCC(=O)[O-]
REMARK SMILES IDX 16 1 17 2 18 3 19 4 20 5 21 6 22 7 23 8 24 9 25 10 26 11
REMARK SMILES IDX 27 12 28 13 29 14 30 15 31 16 32 17 15 18 14 19 13 20 12 21
REMARK SMILES IDX 11 22 10 23 9 24 8 25 7 26 6 27 5 28 4 29 3 30 2 31 1 32
REMARK H PARENT
REMARK Flexibility Score: inf
ROOT
ATOM      1  C   UNL     1       4.162   3.972   0.815  1.00  0.00     0.000 C 
ENDROOT
BRANCH   1   2
ATOM      2  C   UNL     1       4.477   4.595   2.183  1.00  0.00     0.000 C 
BRANCH   2   3
ATOM      3  C   UNL     1       5.575   5.667   2.111  1.00  0.00     0.000 C 
BRANCH   3   4
ATOM      4  C   UNL     1       5.807   6.309   3.484  1.00  0.00     0.000 C 
BRANCH   4   5
ATOM      5  C   UNL     1       7.232   6.032   3.990  1.00  0.00     0.000 C 
BRANCH   5   6
ATOM      6  C   UNL     1       8.072   7.318   4.141  1.00  0.00     0.000 C 
BRANCH   6   7
ATOM      7  C   UNL     1       9.493   7.212   3.554  1.00  0.00     0.000 C 
BRANCH   7   8
ATOM      8  C   UNL     1       9.930   5.792   3.148  1.00  0.00     0.000 C 
BRANCH   8   9
ATOM      9  C   UNL     1       9.644   5.410   1.682  1.00  0.00     0.000 C 
BRANCH   9  10
ATOM     10  C   UNL     1       9.808   3.915   1.349  1.00  0.00     0.000 C 
BRANCH  10  11
ATOM     11  C   UNL     1      10.125   3.058   2.586  1.00  0.00     0.000 C 
BRANCH  11  12
ATOM     12  C   UNL     1       9.956   1.553   2.317  1.00  0.00     0.000 C 
BRANCH  12  13
ATOM     13  C   UNL     1      10.070   0.708   3.596  1.00  0.00     0.006 C 
BRANCH  13  14
ATOM     14  C   UNL     1       9.778   1.529   4.860  1.00  0.00     0.053 C 
BRANCH  14  15
ATOM     15  C   UNL     1       8.872   0.796   5.800  1.00  0.00     0.041 C 
ATOM     16  O   UNL     1       8.822   1.120   7.016  1.00  0.00    -0.550 OA
ATOM     17  O   UNL     1       8.061  -0.229   5.328  1.00  0.00    -0.550 OA
ENDBRANCH  14  15
ENDBRANCH  13  14
ENDBRANCH  12  13
ENDBRANCH  11  12
ENDBRANCH  10  11
ENDBRANCH   9  10
ENDBRANCH   8   9
ENDBRANCH   7   8
ENDBRANCH   6   7
ENDBRANCH   5   6
ENDBRANCH   4   5
ENDBRANCH   3   4
ENDBRANCH   2   3
ENDBRANCH   1   2
BRANCH   1  18
ATOM     18  C   UNL     1       3.150   2.817   0.906  1.00  0.00     0.000 C 
BRANCH  18  19
ATOM     19  C   UNL     1       3.492   1.651  -0.036  1.00  0.00     0.000 C 
BRANCH  19  20
ATOM     20  C   UNL     1       2.249   1.062  -0.727  1.00  0.00     0.000 C 
BRANCH  20  21
ATOM     21  C   UNL     1       1.823  -0.282  -0.114  1.00  0.00     0.000 C 
BRANCH  21  22
ATOM     22  C   UNL     1       2.123  -0.361   1.390  1.00  0.00     0.000 C 
BRANCH  22  23
ATOM     23  C   UNL     1       1.989  -1.801   1.902  1.00  0.00     0.000 C 
BRANCH  23  24
ATOM     24  C   UNL     1       0.775  -2.499   1.272  1.00  0.00    -0.000 C 
BRANCH  24  25
ATOM     25  C   UNL     1       0.458  -3.856   1.925  1.00  0.00    -0.000 C 
BRANCH  25  26
ATOM     26  C   UNL     1      -0.890  -3.918   2.668  1.00  0.00    -0.000 C 
BRANCH  26  27
ATOM     27  C   UNL     1      -1.406  -2.533   3.085  1.00  0.00    -0.000 C 
BRANCH  27  28
ATOM     28  C   UNL     1      -0.830  -2.115   4.445  1.00  0.00    -0.000 C 
BRANCH  28  29
ATOM     29  C   UNL     1      -1.303  -3.061   5.554  1.00  0.00    -0.000 C 
BRANCH  29  30
ATOM     30  C   UNL     1      -2.818  -2.959   5.762  1.00  0.00    -0.000 C 
BRANCH  30  31
ATOM     31  C   UNL     1      -3.291  -1.506   5.642  1.00  0.00    -0.003 C 
ATOM     32  C   UNL     1      -3.409  -1.083   4.180  1.00  0.00     0.004 C 
ENDBRANCH  30  31
ENDBRANCH  29  30
ENDBRANCH  28  29
ENDBRANCH  27  28
ENDBRANCH  26  27
ENDBRANCH  25  26
ENDBRANCH  24  25
ENDBRANCH  23  24
ENDBRANCH  22  23
ENDBRANCH  21  22
ENDBRANCH  20  21
ENDBRANCH  19  20
ENDBRANCH  18  19
ENDBRANCH   1  18
TORSDOF 28
ENDMDL
MODEL 6
REMARK VINA RESULT:     4.635      3.513     11.322
REMARK INTER + INTRA:          10.194
REMARK INTER:                  10.665
REMARK INTRA:                  -0.471
REMARK UNBOUND:                -2.028
REMARK SMILES CCCCCCCCCCCCCCCCCCCCCCCCCCCCCC(=O)[O-]
REMARK SMILES IDX 16 1 17 2 18 3 19 4 20 5 21 6 22 7 23 8 24 9 25 10 26 11
REMARK SMILES IDX 27 12 28 13 29 14 30 15 31 16 32 17 15 18 14 19 13 20 12 21
REMARK SMILES IDX 11 22 10 23 9 24 8 25 7 26 6 27 5 28 4 29 3 30 2 31 1 32
REMARK H PARENT
REMARK Flexibility Score: inf
ROOT
ATOM      1  C   UNL     1       4.842   5.050   0.949  1.00  0.00     0.000 C 
ENDROOT
BRANCH   1   2
ATOM      2  C   UNL     1       4.576   3.966   2.005  1.00  0.00     0.000 C 
BRANCH   2   3
ATOM      3  C   UNL     1       3.251   3.225   1.776  1.00  0.00     0.000 C 
BRANCH   3   4
ATOM      4  C   UNL     1       2.959   3.070   0.279  1.00  0.00     0.000 C 
BRANCH   4   5
ATOM      5  C   UNL     1       3.211   1.627  -0.188  1.00  0.00     0.000 C 
BRANCH   5   6
ATOM      6  C   UNL     1       1.980   0.998  -0.874  1.00  0.00     0.000 C 
BRANCH   6   7
ATOM      7  C   UNL     1       1.840  -0.519  -0.644  1.00  0.00     0.000 C 
BRANCH   7   8
ATOM      8  C   UNL     1       1.521  -0.935   0.804  1.00  0.00     0.000 C 
BRANCH   8   9
ATOM      9  C   UNL     1       1.371  -2.452   1.036  1.00  0.00     0.000 C 
BRANCH   9  10
ATOM     10  C   UNL     1       0.418  -2.851   2.179  1.00  0.00     0.000 C 
BRANCH  10  11
ATOM     11  C   UNL     1      -1.060  -2.597   1.841  1.00  0.00     0.000 C 
BRANCH  11  12
ATOM     12  C   UNL     1      -2.011  -3.483   2.663  1.00  0.00     0.000 C 
BRANCH  12  13
ATOM     13  C   UNL     1      -1.451  -3.817   4.056  1.00  0.00     0.006 C 
BRANCH  13  14
ATOM     14  C   UNL     1      -1.472  -2.602   4.994  1.00  0.00     0.053 C 
BRANCH  14  15
ATOM     15  C   UNL     1      -2.871  -2.176   5.318  1.00  0.00     0.041 C 
ATOM     16  O   UNL     1      -3.367  -2.432   6.447  1.00  0.00    -0.550 OA
ATOM     17  O   UNL     1      -3.618  -1.472   4.382  1.00  0.00    -0.550 OA
ENDBRANCH  14  15
ENDBRANCH  13  14
ENDBRANCH  12  13
ENDBRANCH  11  12
ENDBRANCH  10  11
ENDBRANCH   9  10
ENDBRANCH   8   9
ENDBRANCH   7   8
ENDBRANCH   6   7
ENDBRANCH   5   6
ENDBRANCH   4   5
ENDBRANCH   3   4
ENDBRANCH   2   3
ENDBRANCH   1   2
BRANCH   1  18
ATOM     18  C   UNL     1       5.834   6.122   1.433  1.00  0.00     0.000 C 
BRANCH  18  19
ATOM     19  C   UNL     1       6.357   5.851   2.853  1.00  0.00     0.000 C 
BRANCH  19  20
ATOM     20  C   UNL     1       5.989   6.969   3.845  1.00  0.00     0.000 C 
BRANCH  20  21
ATOM     21  C   UNL     1       7.193   7.419   4.690  1.00  0.00     0.000 C 
BRANCH  21  22
ATOM     22  C   UNL     1       8.302   6.357   4.740  1.00  0.00     0.000 C 
BRANCH  22  23
ATOM     23  C   UNL     1       9.638   6.935   4.255  1.00  0.00     0.000 C 
BRANCH  23  24
ATOM     24  C   UNL     1       9.469   7.664   2.915  1.00  0.00    -0.000 C 
BRANCH  24  25
ATOM     25  C   UNL     1       9.687   6.743   1.700  1.00  0.00    -0.000 C 
BRANCH  25  26
ATOM     26  C   UNL     1       8.600   5.671   1.497  1.00  0.00    -0.000 C 
BRANCH  26  27
ATOM     27  C   UNL     1       9.136   4.397   0.826  1.00  0.00    -0.000 C 
BRANCH  27  28
ATOM     28  C   UNL     1      10.124   3.663   1.742  1.00  0.00    -0.000 C 
BRANCH  28  29
ATOM     29  C   UNL     1       9.470   2.430   2.376  1.00  0.00    -0.000 C 
BRANCH  29  30
ATOM     30  C   UNL     1       9.685   2.409   3.894  1.00  0.00    -0.000 C 
BRANCH  30  31
ATOM     31  C   UNL     1       9.514   0.992   4.451  1.00  0.00    -0.003 C 
ATOM     32  C   UNL     1       9.474  -0.042   3.329  1.00  0.00     0.004 C 
ENDBRANCH  30  31
ENDBRANCH  29  30
ENDBRANCH  28  29
ENDBRANCH  27  28
ENDBRANCH  26  27
ENDBRANCH  25  26
ENDBRANCH  24  25
ENDBRANCH  23  24
ENDBRANCH  22  23
ENDBRANCH  21  22
ENDBRANCH  20  21
ENDBRANCH  19  20
ENDBRANCH  18  19
ENDBRANCH   1  18
TORSDOF 28
ENDMDL
MODEL 7
REMARK VINA RESULT:     4.713      2.345      3.889
REMARK INTER + INTRA:          10.399
REMARK INTER:                  10.709
REMARK INTRA:                  -0.310
REMARK UNBOUND:                -2.028
REMARK SMILES CCCCCCCCCCCCCCCCCCCCCCCCCCCCCC(=O)[O-]
REMARK SMILES IDX 16 1 17 2 18 3 19 4 20 5 21 6 22 7 23 8 24 9 25 10 26 11
REMARK SMILES IDX 27 12 28 13 29 14 30 15 31 16 32 17 15 18 14 19 13 20 12 21
REMARK SMILES IDX 11 22 10 23 9 24 8 25 7 26 6 27 5 28 4 29 3 30 2 31 1 32
REMARK H PARENT
REMARK Flexibility Score: inf
ROOT
ATOM      1  C   UNL     1       5.244   4.809   2.209  1.00  0.00     0.000 C 
ENDROOT
BRANCH   1   2
ATOM      2  C   UNL     1       5.626   6.230   1.771  1.00  0.00     0.000 C 
BRANCH   2   3
ATOM      3  C   UNL     1       6.508   6.953   2.800  1.00  0.00     0.000 C 
BRANCH   3   4
ATOM      4  C   UNL     1       6.383   6.303   4.184  1.00  0.00     0.000 C 
BRANCH   4   5
ATOM      5  C   UNL     1       7.560   6.700   5.090  1.00  0.00     0.000 C 
BRANCH   5   6
ATOM      6  C   UNL     1       8.920   6.206   4.553  1.00  0.00     0.000 C 
BRANCH   6   7
ATOM      7  C   UNL     1      10.046   7.254   4.636  1.00  0.00     0.000 C 
BRANCH   7   8
ATOM      8  C   UNL     1       9.689   8.539   5.405  1.00  0.00     0.000 C 
BRANCH   8   9
ATOM      9  C   UNL     1       8.654   9.452   4.717  1.00  0.00     0.000 C 
BRANCH   9  10
ATOM     10  C   UNL     1       8.788   9.560   3.187  1.00  0.00     0.000 C 
BRANCH  10  11
ATOM     11  C   UNL     1      10.123   9.005   2.663  1.00  0.00     0.000 C 
BRANCH  11  12
ATOM     12  C   UNL     1       9.952   8.184   1.373  1.00  0.00     0.000 C 
BRANCH  12  13
ATOM     13  C   UNL     1      10.103   6.672   1.612  1.00  0.00     0.006 C 
BRANCH  13  14
ATOM     14  C   UNL     1       9.117   5.853   0.766  1.00  0.00     0.053 C 
BRANCH  14  15
ATOM     15  C   UNL     1       9.479   4.400   0.745  1.00  0.00     0.041 C 
ATOM     16  O   UNL     1       9.625   3.798  -0.351  1.00  0.00    -0.550 OA
ATOM     17  O   UNL     1       9.682   3.716   1.937  1.00  0.00    -0.550 OA
ENDBRANCH  14  15
ENDBRANCH  13  14
ENDBRANCH  12  13
ENDBRANCH  11  12
ENDBRANCH  10  11
ENDBRANCH   9  10
ENDBRANCH   8   9
ENDBRANCH   7   8
ENDBRANCH   6   7
ENDBRANCH   5   6
ENDBRANCH   4   5
ENDBRANCH   3   4
ENDBRANCH   2   3
ENDBRANCH   1   2
BRANCH   1  18
ATOM     18  C   UNL     1       4.593   3.993   1.078  1.00  0.00     0.000 C 
BRANCH  18  19
ATOM     19  C   UNL     1       3.428   3.118   1.569  1.00  0.00     0.000 C 
BRANCH  19  20
ATOM     20  C   UNL     1       2.443   2.753   0.444  1.00  0.00     0.000 C 
BRANCH  20  21
ATOM     21  C   UNL     1       2.982   1.634  -0.463  1.00  0.00     0.000 C 
BRANCH  21  22
ATOM     22  C   UNL     1       1.857   0.827  -1.127  1.00  0.00     0.000 C 
BRANCH  22  23
ATOM     23  C   UNL     1       1.550  -0.448  -0.330  1.00  0.00     0.000 C 
BRANCH  23  24
ATOM     24  C   UNL     1       2.238  -0.418   1.042  1.00  0.00    -0.000 C 
BRANCH  24  25
ATOM     25  C   UNL     1       2.140  -1.759   1.791  1.00  0.00    -0.000 C 
BRANCH  25  26
ATOM     26  C   UNL     1       0.887  -2.593   1.464  1.00  0.00    -0.000 C 
BRANCH  26  27
ATOM     27  C   UNL     1      -0.176  -2.531   2.571  1.00  0.00    -0.000 C 
BRANCH  27  28
ATOM     28  C   UNL     1      -1.195  -3.669   2.423  1.00  0.00    -0.000 C 
BRANCH  28  29
ATOM     29  C   UNL     1      -2.231  -3.627   3.552  1.00  0.00    -0.000 C 
BRANCH  29  30
ATOM     30  C   UNL     1      -1.555  -3.466   4.919  1.00  0.00    -0.000 C 
BRANCH  30  31
ATOM     31  C   UNL     1      -2.395  -2.580   5.845  1.00  0.00    -0.003 C 
ATOM     32  C   UNL     1      -3.193  -1.551   5.048  1.00  0.00     0.004 C 
ENDBRANCH  30  31
ENDBRANCH  29  30
ENDBRANCH  28  29
ENDBRANCH  27  28
ENDBRANCH  26  27
ENDBRANCH  25  26
ENDBRANCH  24  25
ENDBRANCH  23  24
ENDBRANCH  22  23
ENDBRANCH  21  22
ENDBRANCH  20  21
ENDBRANCH  19  20
ENDBRANCH  18  19
ENDBRANCH   1  18
TORSDOF 28
ENDMDL
MODEL 8
REMARK VINA RESULT:     4.767      1.188      2.948
REMARK INTER + INTRA:          10.543
REMARK INTER:                  11.686
REMARK INTRA:                  -1.144
REMARK UNBOUND:                -2.028
REMARK SMILES CCCCCCCCCCCCCCCCCCCCCCCCCCCCCC(=O)[O-]
REMARK SMILES IDX 16 1 17 2 18 3 19 4 20 5 21 6 22 7 23 8 24 9 25 10 26 11
REMARK SMILES IDX 27 12 28 13 29 14 30 15 31 16 32 17 15 18 14 19 13 20 12 21
REMARK SMILES IDX 11 22 10 23 9 24 8 25 7 26 6 27 5 28 4 29 3 30 2 31 1 32
REMARK H PARENT
REMARK Flexibility Score: inf
ROOT
ATOM      1  C   UNL     1       2.781   2.954   0.434  1.00  0.00     0.000 C 
ENDROOT
BRANCH   1   2
ATOM      2  C   UNL     1       3.624   3.531   1.582  1.00  0.00     0.000 C 
BRANCH   2   3
ATOM      3  C   UNL     1       4.651   4.567   1.104  1.00  0.00     0.000 C 
BRANCH   3   4
ATOM      4  C   UNL     1       5.409   5.177   2.289  1.00  0.00     0.000 C 
BRANCH   4   5
ATOM      5  C   UNL     1       6.530   6.112   1.807  1.00  0.00     0.000 C 
BRANCH   5   6
ATOM      6  C   UNL     1       7.097   5.704   0.431  1.00  0.00     0.000 C 
BRANCH   6   7
ATOM      7  C   UNL     1       8.459   4.985   0.501  1.00  0.00     0.000 C 
BRANCH   7   8
ATOM      8  C   UNL     1       9.413   5.495   1.596  1.00  0.00     0.000 C 
BRANCH   8   9
ATOM      9  C   UNL     1       9.655   4.520   2.765  1.00  0.00     0.000 C 
BRANCH   9  10
ATOM     10  C   UNL     1       9.952   5.183   4.123  1.00  0.00     0.000 C 
BRANCH  10  11
ATOM     11  C   UNL     1       9.376   6.604   4.234  1.00  0.00     0.000 C 
BRANCH  11  12
ATOM     12  C   UNL     1       8.920   6.944   5.663  1.00  0.00     0.000 C 
BRANCH  12  13
ATOM     13  C   UNL     1       7.472   7.459   5.715  1.00  0.00     0.006 C 
BRANCH  13  14
ATOM     14  C   UNL     1       7.219   8.575   4.692  1.00  0.00     0.053 C 
BRANCH  14  15
ATOM     15  C   UNL     1       5.770   8.950   4.628  1.00  0.00     0.041 C 
ATOM     16  O   UNL     1       4.990   8.337   3.853  1.00  0.00    -0.550 OA
ATOM     17  O   UNL     1       5.275   9.959   5.445  1.00  0.00    -0.550 OA
ENDBRANCH  14  15
ENDBRANCH  13  14
ENDBRANCH  12  13
ENDBRANCH  11  12
ENDBRANCH  10  11
ENDBRANCH   9  10
ENDBRANCH   8   9
ENDBRANCH   7   8
ENDBRANCH   6   7
ENDBRANCH   5   6
ENDBRANCH   4   5
ENDBRANCH   3   4
ENDBRANCH   2   3
ENDBRANCH   1   2
BRANCH   1  18
ATOM     18  C   UNL     1       3.299   1.591  -0.058  1.00  0.00     0.000 C 
BRANCH  18  19
ATOM     19  C   UNL     1       2.169   0.579  -0.305  1.00  0.00     0.000 C 
BRANCH  19  20
ATOM     20  C   UNL     1       1.994  -0.411   0.861  1.00  0.00     0.000 C 
BRANCH  20  21
ATOM     21  C   UNL     1       0.977  -1.519   0.538  1.00  0.00     0.000 C 
BRANCH  21  22
ATOM     22  C   UNL     1       1.527  -2.922   0.831  1.00  0.00     0.000 C 
BRANCH  22  23
ATOM     23  C   UNL     1       0.574  -3.707   1.742  1.00  0.00     0.000 C 
BRANCH  23  24
ATOM     24  C   UNL     1      -0.456  -2.774   2.394  1.00  0.00    -0.000 C 
BRANCH  24  25
ATOM     25  C   UNL     1      -1.726  -3.512   2.855  1.00  0.00    -0.000 C 
BRANCH  25  26
ATOM     26  C   UNL     1      -1.668  -4.065   4.291  1.00  0.00    -0.000 C 
BRANCH  26  27
ATOM     27  C   UNL     1      -1.868  -2.978   5.358  1.00  0.00    -0.000 C 
BRANCH  27  28
ATOM     28  C   UNL     1      -3.113  -2.133   5.060  1.00  0.00    -0.000 C 
BRANCH  28  29
ATOM     29  C   UNL     1      -2.751  -0.649   4.929  1.00  0.00    -0.000 C 
BRANCH  29  30
ATOM     30  C   UNL     1      -1.510  -0.457   4.049  1.00  0.00    -0.000 C 
BRANCH  30  31
ATOM     31  C   UNL     1      -0.227  -0.694   4.852  1.00  0.00    -0.003 C 
ATOM     32  C   UNL     1       0.986  -0.098   4.143  1.00  0.00     0.004 C 
ENDBRANCH  30  31
ENDBRANCH  29  30
ENDBRANCH  28  29
ENDBRANCH  27  28
ENDBRANCH  26  27
ENDBRANCH  25  26
ENDBRANCH  24  25
ENDBRANCH  23  24
ENDBRANCH  22  23
ENDBRANCH  21  22
ENDBRANCH  20  21
ENDBRANCH  19  20
ENDBRANCH  18  19
ENDBRANCH   1  18
TORSDOF 28
ENDMDL
MODEL 9
REMARK VINA RESULT:     4.857      3.343     11.095
REMARK INTER + INTRA:          10.780
REMARK INTER:                  11.727
REMARK INTRA:                  -0.946
REMARK UNBOUND:                -2.028
REMARK SMILES CCCCCCCCCCCCCCCCCCCCCCCCCCCCCC(=O)[O-]
REMARK SMILES IDX 16 1 17 2 18 3 19 4 20 5 21 6 22 7 23 8 24 9 25 10 26 11
REMARK SMILES IDX 27 12 28 13 29 14 30 15 31 16 32 17 15 18 14 19 13 20 12 21
REMARK SMILES IDX 11 22 10 23 9 24 8 25 7 26 6 27 5 28 4 29 3 30 2 31 1 32
REMARK H PARENT
REMARK Flexibility Score: inf
ROOT
ATOM      1  C   UNL     1       6.990   6.313   2.118  1.00  0.00     0.000 C 
ENDROOT
BRANCH   1   2
ATOM      2  C   UNL     1       5.677   5.551   2.356  1.00  0.00     0.000 C 
BRANCH   2   3
ATOM      3  C   UNL     1       5.128   4.897   1.080  1.00  0.00     0.000 C 
BRANCH   3   4
ATOM      4  C   UNL     1       4.385   3.595   1.405  1.00  0.00     0.000 C 
BRANCH   4   5
ATOM      5  C   UNL     1       3.112   3.457   0.555  1.00  0.00     0.000 C 
BRANCH   5   6
ATOM      6  C   UNL     1       2.897   2.021   0.031  1.00  0.00     0.000 C 
BRANCH   6   7
ATOM      7  C   UNL     1       3.069   0.929   1.105  1.00  0.00     0.000 C 
BRANCH   7   8
ATOM      8  C   UNL     1       2.193  -0.322   0.911  1.00  0.00     0.000 C 
BRANCH   8   9
ATOM      9  C   UNL     1       2.049  -1.223   2.154  1.00  0.00     0.000 C 
BRANCH   9  10
ATOM     10  C   UNL     1       1.223  -2.506   1.943  1.00  0.00     0.000 C 
BRANCH  10  11
ATOM     11  C   UNL     1      -0.124  -2.243   1.249  1.00  0.00     0.000 C 
BRANCH  11  12
ATOM     12  C   UNL     1      -1.321  -2.715   2.092  1.00  0.00     0.000 C 
BRANCH  12  13
ATOM     13  C   UNL     1      -0.965  -3.891   3.016  1.00  0.00     0.006 C 
BRANCH  13  14
ATOM     14  C   UNL     1      -1.645  -3.775   4.388  1.00  0.00     0.053 C 
BRANCH  14  15
ATOM     15  C   UNL     1      -2.013  -2.358   4.705  1.00  0.00     0.041 C 
ATOM     16  O   UNL     1      -1.121  -1.524   5.013  1.00  0.00    -0.550 OA
ATOM     17  O   UNL     1      -3.339  -1.951   4.635  1.00  0.00    -0.550 OA
ENDBRANCH  14  15
ENDBRANCH  13  14
ENDBRANCH  12  13
ENDBRANCH  11  12
ENDBRANCH  10  11
ENDBRANCH   9  10
ENDBRANCH   8   9
ENDBRANCH   7   8
ENDBRANCH   6   7
ENDBRANCH   5   6
ENDBRANCH   4   5
ENDBRANCH   3   4
ENDBRANCH   2   3
ENDBRANCH   1   2
BRANCH   1  18
ATOM     18  C   UNL     1       7.708   5.872   0.830  1.00  0.00     0.000 C 
BRANCH  18  19
ATOM     19  C   UNL     1       9.021   6.634   0.591  1.00  0.00     0.000 C 
BRANCH  19  20
ATOM     20  C   UNL     1       9.892   6.728   1.857  1.00  0.00     0.000 C 
BRANCH  20  21
ATOM     21  C   UNL     1       9.942   8.156   2.425  1.00  0.00     0.000 C 
BRANCH  21  22
ATOM     22  C   UNL     1      10.106   8.173   3.952  1.00  0.00     0.000 C 
BRANCH  22  23
ATOM     23  C   UNL     1       8.787   7.815   4.651  1.00  0.00     0.000 C 
BRANCH  23  24
ATOM     24  C   UNL     1       8.867   6.426   5.299  1.00  0.00    -0.000 C 
BRANCH  24  25
ATOM     25  C   UNL     1      10.110   5.631   4.862  1.00  0.00    -0.000 C 
BRANCH  25  26
ATOM     26  C   UNL     1       9.890   4.696   3.657  1.00  0.00    -0.000 C 
BRANCH  26  27
ATOM     27  C   UNL     1      10.124   3.217   3.999  1.00  0.00    -0.000 C 
BRANCH  27  28
ATOM     28  C   UNL     1       9.449   2.842   5.325  1.00  0.00    -0.000 C 
BRANCH  28  29
ATOM     29  C   UNL     1       9.260   1.325   5.434  1.00  0.00    -0.000 C 
BRANCH  29  30
ATOM     30  C   UNL     1      10.106   0.584   4.391  1.00  0.00    -0.000 C 
BRANCH  30  31
ATOM     31  C   UNL     1       9.245  -0.384   3.574  1.00  0.00    -0.003 C 
ATOM     32  C   UNL     1       9.861  -0.647   2.202  1.00  0.00     0.004 C 
ENDBRANCH  30  31
ENDBRANCH  29  30
ENDBRANCH  28  29
ENDBRANCH  27  28
ENDBRANCH  26  27
ENDBRANCH  25  26
ENDBRANCH  24  25
ENDBRANCH  23  24
ENDBRANCH  22  23
ENDBRANCH  21  22
ENDBRANCH  20  21
ENDBRANCH  19  20
ENDBRANCH  18  19
ENDBRANCH   1  18
TORSDOF 28
ENDMDL
