MODEL 1
REMARK VINA RESULT:    -5.636      0.000      0.000
REMARK INTER + INTRA:          -7.108
REMARK INTER:                  -6.790
REMARK INTRA:                  -0.318
REMARK UNBOUND:                -0.318
REMARK SMILES O=c1c(O)c(-c2ccc(O)c(O)c2)oc2cc(O)cc(O)c12
REMARK SMILES IDX 5 1 3 2 2 3 1 4 22 5 20 6 19 7 17 8 16 9 15 10 14 11 6 12
REMARK SMILES IDX 7 13 8 14 9 15 13 16 11 17 10 18 12 20 4 22 21 24 18 26
REMARK H PARENT 10 19 12 21 4 23 21 25 18 27
REMARK Flexibility Score: inf
ROOT
ATOM      1  C   UNL     1       2.192  38.244   6.869  1.00  0.00     0.180 A 
ATOM      2  C   UNL     1       1.644  37.200   6.105  1.00  0.00     0.208 A 
ATOM      3  C   UNL     1       0.248  37.106   5.983  1.00  0.00     0.238 A 
ATOM      4  O   UNL     1      -0.236  36.201   5.254  1.00  0.00    -0.285 OA
ATOM      5  C   UNL     1      -0.582  38.047   6.640  1.00  0.00     0.111 A 
ATOM      6  C   UNL     1      -2.009  38.024   6.618  1.00  0.00     0.134 A 
ATOM      7  C   UNL     1      -2.725  39.080   7.194  1.00  0.00     0.093 A 
ATOM      8  C   UNL     1      -2.068  40.125   7.847  1.00  0.00     0.123 A 
ATOM      9  C   UNL     1      -0.677  40.126   7.925  1.00  0.00     0.094 A 
ATOM     10  C   UNL     1       0.067  39.105   7.328  1.00  0.00     0.146 A 
ATOM     11  O   UNL     1       1.391  39.150   7.417  1.00  0.00    -0.452 OA
ENDROOT
BRANCH   1  12
ATOM     12  C   UNL     1       3.652  38.395   7.064  1.00  0.00     0.025 A 
ATOM     13  C   UNL     1       4.424  39.205   6.212  1.00  0.00     0.016 A 
ATOM     14  C   UNL     1       5.804  39.313   6.401  1.00  0.00     0.051 A 
ATOM     15  C   UNL     1       6.435  38.606   7.432  1.00  0.00     0.157 A 
ATOM     16  C   UNL     1       4.293  37.671   8.083  1.00  0.00     0.062 A 
ATOM     17  C   UNL     1       5.675  37.778   8.275  1.00  0.00     0.158 A 
BRANCH  15  18
ATOM     18  O   UNL     1       7.813  38.718   7.619  1.00  0.00    -0.504 OA
ATOM     19  H   UNL     1       8.262  38.379   8.462  1.00  0.00     0.293 HD
ENDBRANCH  15  18
BRANCH  17  20
ATOM     20  O   UNL     1       6.274  37.055   9.306  1.00  0.00    -0.504 OA
ATOM     21  H   UNL     1       7.279  37.020   9.426  1.00  0.00     0.293 HD
ENDBRANCH  17  20
ENDBRANCH   1  12
BRANCH   2  22
ATOM     22  O   UNL     1       2.480  36.295   5.448  1.00  0.00    -0.502 OA
ATOM     23  H   UNL     1       3.231  35.804   5.921  1.00  0.00     0.293 HD
ENDBRANCH   2  22
BRANCH   6  24
ATOM     24  O   UNL     1      -2.764  36.982   6.073  1.00  0.00    -0.507 OA
ATOM     25  H   UNL     1      -3.611  37.105   5.539  1.00  0.00     0.293 HD
ENDBRANCH   6  24
BRANCH   8  26
ATOM     26  O   UNL     1      -2.789  41.164   8.431  1.00  0.00    -0.508 OA
ATOM     27  H   UNL     1      -3.669  40.998   8.905  1.00  0.00     0.293 HD
ENDBRANCH   8  26
TORSDOF 6
ENDMDL
MODEL 2
REMARK VINA RESULT:    -5.631      2.048      7.059
REMARK INTER + INTRA:          -7.102
REMARK INTER:                  -6.794
REMARK INTRA:                  -0.308
REMARK UNBOUND:                -0.318
REMARK SMILES O=c1c(O)c(-c2ccc(O)c(O)c2)oc2cc(O)cc(O)c12
REMARK SMILES IDX 5 1 3 2 2 3 1 4 22 5 20 6 19 7 17 8 16 9 15 10 14 11 6 12
REMARK SMILES IDX 7 13 8 14 9 15 13 16 11 17 10 18 12 20 4 22 21 24 18 26
REMARK H PARENT 10 19 12 21 4 23 21 25 18 27
REMARK Flexibility Score: inf
ROOT
ATOM      1  C   UNL     1       3.213  37.947   6.328  1.00  0.00     0.180 A 
ATOM      2  C   UNL     1       3.665  38.833   5.335  1.00  0.00     0.208 A 
ATOM      3  C   UNL     1       4.903  39.473   5.506  1.00  0.00     0.238 A 
ATOM      4  O   UNL     1       5.327  40.223   4.588  1.00  0.00    -0.285 OA
ATOM      5  C   UNL     1       5.666  39.231   6.673  1.00  0.00     0.111 A 
ATOM      6  C   UNL     1       6.916  39.854   6.968  1.00  0.00     0.134 A 
ATOM      7  C   UNL     1       7.646  39.441   8.089  1.00  0.00     0.093 A 
ATOM      8  C   UNL     1       7.142  38.474   8.961  1.00  0.00     0.123 A 
ATOM      9  C   UNL     1       5.896  37.902   8.714  1.00  0.00     0.094 A 
ATOM     10  C   UNL     1       5.161  38.267   7.584  1.00  0.00     0.146 A 
ATOM     11  O   UNL     1       3.982  37.690   7.380  1.00  0.00    -0.452 OA
ENDROOT
BRANCH   1  12
ATOM     12  C   UNL     1       1.908  37.254   6.232  1.00  0.00     0.025 A 
ATOM     13  C   UNL     1       1.761  36.071   5.488  1.00  0.00     0.016 A 
ATOM     14  C   UNL     1       0.514  35.447   5.392  1.00  0.00     0.051 A 
ATOM     15  C   UNL     1      -0.605  36.002   6.025  1.00  0.00     0.157 A 
ATOM     16  C   UNL     1       0.779  37.817   6.847  1.00  0.00     0.062 A 
ATOM     17  C   UNL     1      -0.471  37.195   6.754  1.00  0.00     0.158 A 
BRANCH  15  18
ATOM     18  O   UNL     1      -1.847  35.376   5.928  1.00  0.00    -0.504 OA
ATOM     19  H   UNL     1      -2.080  34.570   6.497  1.00  0.00     0.293 HD
ENDBRANCH  15  18
BRANCH  17  20
ATOM     20  O   UNL     1      -1.568  37.777   7.389  1.00  0.00    -0.504 OA
ATOM     21  H   UNL     1      -2.520  37.513   7.170  1.00  0.00     0.293 HD
ENDBRANCH  17  20
ENDBRANCH   1  12
BRANCH   2  22
ATOM     22  O   UNL     1       2.906  39.041   4.181  1.00  0.00    -0.502 OA
ATOM     23  H   UNL     1       2.539  38.277   3.625  1.00  0.00     0.293 HD
ENDBRANCH   2  22
BRANCH   6  24
ATOM     24  O   UNL     1       7.467  40.895   6.214  1.00  0.00    -0.507 OA
ATOM     25  H   UNL     1       6.959  41.710   5.905  1.00  0.00     0.293 HD
ENDBRANCH   6  24
BRANCH   8  26
ATOM     26  O   UNL     1       7.867  38.079  10.083  1.00  0.00    -0.508 OA
ATOM     27  H   UNL     1       7.760  38.548  10.975  1.00  0.00     0.293 HD
ENDBRANCH   8  26
TORSDOF 6
ENDMDL
MODEL 3
REMARK VINA RESULT:    -5.396      2.665      7.069
REMARK INTER + INTRA:          -6.819
REMARK INTER:                  -6.762
REMARK INTRA:                  -0.057
REMARK UNBOUND:                -0.318
REMARK SMILES O=c1c(O)c(-c2ccc(O)c(O)c2)oc2cc(O)cc(O)c12
REMARK SMILES IDX 5 1 3 2 2 3 1 4 22 5 20 6 19 7 17 8 16 9 15 10 14 11 6 12
REMARK SMILES IDX 7 13 8 14 9 15 13 16 11 17 10 18 12 20 4 22 21 24 18 26
REMARK H PARENT 10 19 12 21 4 23 21 25 18 27
REMARK Flexibility Score: inf
ROOT
ATOM      1  C   UNL     1      -0.800  39.725   7.292  1.00  0.00     0.180 A 
ATOM      2  C   UNL     1       0.408  40.395   7.035  1.00  0.00     0.208 A 
ATOM      3  C   UNL     1       1.489  39.673   6.504  1.00  0.00     0.238 A 
ATOM      4  O   UNL     1       2.550  40.290   6.225  1.00  0.00    -0.285 OA
ATOM      5  C   UNL     1       1.353  38.286   6.252  1.00  0.00     0.111 A 
ATOM      6  C   UNL     1       2.395  37.448   5.752  1.00  0.00     0.134 A 
ATOM      7  C   UNL     1       2.110  36.119   5.417  1.00  0.00     0.093 A 
ATOM      8  C   UNL     1       0.838  35.580   5.624  1.00  0.00     0.123 A 
ATOM      9  C   UNL     1      -0.169  36.374   6.166  1.00  0.00     0.094 A 
ATOM     10  C   UNL     1       0.074  37.714   6.477  1.00  0.00     0.146 A 
ATOM     11  O   UNL     1      -0.917  38.439   6.983  1.00  0.00    -0.452 OA
ENDROOT
BRANCH   1  12
ATOM     12  C   UNL     1      -1.975  40.412   7.874  1.00  0.00     0.025 A 
ATOM     13  C   UNL     1      -2.528  41.554   7.269  1.00  0.00     0.016 A 
ATOM     14  C   UNL     1      -3.623  42.200   7.849  1.00  0.00     0.051 A 
ATOM     15  C   UNL     1      -4.171  41.726   9.047  1.00  0.00     0.157 A 
ATOM     16  C   UNL     1      -2.515  39.953   9.086  1.00  0.00     0.062 A 
ATOM     17  C   UNL     1      -3.612  40.598   9.670  1.00  0.00     0.158 A 
BRANCH  15  18
ATOM     18  O   UNL     1      -5.264  42.373   9.623  1.00  0.00    -0.504 OA
ATOM     19  H   UNL     1      -5.158  43.243  10.132  1.00  0.00     0.293 HD
ENDBRANCH  15  18
BRANCH  17  20
ATOM     20  O   UNL     1      -4.129  40.105  10.867  1.00  0.00    -0.504 OA
ATOM     21  H   UNL     1      -3.763  39.272  11.310  1.00  0.00     0.293 HD
ENDBRANCH  17  20
ENDBRANCH   1  12
BRANCH   2  22
ATOM     22  O   UNL     1       0.514  41.768   7.271  1.00  0.00    -0.502 OA
ATOM     23  H   UNL     1      -0.163  42.435   6.920  1.00  0.00     0.293 HD
ENDBRANCH   2  22
BRANCH   6  24
ATOM     24  O   UNL     1       3.721  37.860   5.595  1.00  0.00    -0.507 OA
ATOM     25  H   UNL     1       4.274  37.713   4.764  1.00  0.00     0.293 HD
ENDBRANCH   6  24
BRANCH   8  26
ATOM     26  O   UNL     1       0.567  34.252   5.302  1.00  0.00    -0.508 OA
ATOM     27  H   UNL     1       1.192  33.503   5.575  1.00  0.00     0.293 HD
ENDBRANCH   8  26
TORSDOF 6
ENDMDL
MODEL 4
REMARK VINA RESULT:    -5.293      2.032      6.873
REMARK INTER + INTRA:          -6.694
REMARK INTER:                  -6.447
REMARK INTRA:                  -0.247
REMARK UNBOUND:                -0.318
REMARK SMILES O=c1c(O)c(-c2ccc(O)c(O)c2)oc2cc(O)cc(O)c12
REMARK SMILES IDX 5 1 3 2 2 3 1 4 22 5 20 6 19 7 17 8 16 9 15 10 14 11 6 12
REMARK SMILES IDX 7 13 8 14 9 15 13 16 11 17 10 18 12 20 4 22 21 24 18 26
REMARK H PARENT 10 19 12 21 4 23 21 25 18 27
REMARK Flexibility Score: inf
ROOT
ATOM      1  C   UNL     1      -1.460  38.942   7.314  1.00  0.00     0.180 A 
ATOM      2  C   UNL     1      -1.895  37.732   6.748  1.00  0.00     0.208 A 
ATOM      3  C   UNL     1      -0.949  36.873   6.165  1.00  0.00     0.238 A 
ATOM      4  O   UNL     1      -1.337  35.767   5.708  1.00  0.00    -0.285 OA
ATOM      5  C   UNL     1       0.418  37.243   6.142  1.00  0.00     0.111 A 
ATOM      6  C   UNL     1       1.457  36.469   5.544  1.00  0.00     0.134 A 
ATOM      7  C   UNL     1       2.790  36.869   5.696  1.00  0.00     0.093 A 
ATOM      8  C   UNL     1       3.117  38.048   6.369  1.00  0.00     0.123 A 
ATOM      9  C   UNL     1       2.105  38.841   6.905  1.00  0.00     0.094 A 
ATOM     10  C   UNL     1       0.768  38.450   6.802  1.00  0.00     0.146 A 
ATOM     11  O   UNL     1      -0.164  39.230   7.336  1.00  0.00    -0.452 OA
ENDROOT
BRANCH   1  12
ATOM     12  C   UNL     1      -2.401  39.910   7.924  1.00  0.00     0.025 A 
ATOM     13  C   UNL     1      -2.706  41.129   7.293  1.00  0.00     0.016 A 
ATOM     14  C   UNL     1      -3.579  42.037   7.898  1.00  0.00     0.051 A 
ATOM     15  C   UNL     1      -4.146  41.750   9.146  1.00  0.00     0.157 A 
ATOM     16  C   UNL     1      -2.955  39.636   9.184  1.00  0.00     0.062 A 
ATOM     17  C   UNL     1      -3.830  40.543   9.793  1.00  0.00     0.158 A 
BRANCH  15  18
ATOM     18  O   UNL     1      -5.017  42.658   9.747  1.00  0.00    -0.504 OA
ATOM     19  H   UNL     1      -4.722  43.242  10.521  1.00  0.00     0.293 HD
ENDBRANCH  15  18
BRANCH  17  20
ATOM     20  O   UNL     1      -4.372  40.231  11.039  1.00  0.00    -0.504 OA
ATOM     21  H   UNL     1      -4.622  40.945  11.712  1.00  0.00     0.293 HD
ENDBRANCH  17  20
ENDBRANCH   1  12
BRANCH   2  22
ATOM     22  O   UNL     1      -3.245  37.376   6.800  1.00  0.00    -0.502 OA
ATOM     23  H   UNL     1      -3.895  37.591   6.051  1.00  0.00     0.293 HD
ENDBRANCH   2  22
BRANCH   6  24
ATOM     24  O   UNL     1       1.233  35.325   4.772  1.00  0.00    -0.507 OA
ATOM     25  H   UNL     1       0.382  35.131   4.267  1.00  0.00     0.293 HD
ENDBRANCH   6  24
BRANCH   8  26
ATOM     26  O   UNL     1       4.445  38.447   6.502  1.00  0.00    -0.508 OA
ATOM     27  H   UNL     1       4.689  39.373   6.833  1.00  0.00     0.293 HD
ENDBRANCH   8  26
TORSDOF 6
ENDMDL
MODEL 5
REMARK VINA RESULT:    -5.232      1.369      2.830
REMARK INTER + INTRA:          -6.621
REMARK INTER:                  -6.490
REMARK INTRA:                  -0.131
REMARK UNBOUND:                -0.318
REMARK SMILES O=c1c(O)c(-c2ccc(O)c(O)c2)oc2cc(O)cc(O)c12
REMARK SMILES IDX 5 1 3 2 2 3 1 4 22 5 20 6 19 7 17 8 16 9 15 10 14 11 6 12
REMARK SMILES IDX 7 13 8 14 9 15 13 16 11 17 10 18 12 20 4 22 21 24 18 26
REMARK H PARENT 10 19 12 21 4 23 21 25 18 27
REMARK Flexibility Score: inf
ROOT
ATOM      1  C   UNL     1       1.740  38.602   6.785  1.00  0.00     0.180 A 
ATOM      2  C   UNL     1       0.949  39.764   6.799  1.00  0.00     0.208 A 
ATOM      3  C   UNL     1      -0.444  39.640   6.670  1.00  0.00     0.238 A 
ATOM      4  O   UNL     1      -1.152  40.679   6.737  1.00  0.00    -0.285 OA
ATOM      5  C   UNL     1      -1.026  38.359   6.512  1.00  0.00     0.111 A 
ATOM      6  C   UNL     1      -2.423  38.120   6.333  1.00  0.00     0.134 A 
ATOM      7  C   UNL     1      -2.901  36.804   6.318  1.00  0.00     0.093 A 
ATOM      8  C   UNL     1      -2.027  35.719   6.411  1.00  0.00     0.123 A 
ATOM      9  C   UNL     1      -0.657  35.942   6.527  1.00  0.00     0.094 A 
ATOM     10  C   UNL     1      -0.153  37.243   6.581  1.00  0.00     0.146 A 
ATOM     11  O   UNL     1       1.159  37.411   6.702  1.00  0.00    -0.452 OA
ENDROOT
BRANCH   1  12
ATOM     12  C   UNL     1       3.216  38.653   6.891  1.00  0.00     0.025 A 
ATOM     13  C   UNL     1       3.992  39.360   5.956  1.00  0.00     0.016 A 
ATOM     14  C   UNL     1       5.386  39.374   6.062  1.00  0.00     0.051 A 
ATOM     15  C   UNL     1       6.024  38.673   7.093  1.00  0.00     0.157 A 
ATOM     16  C   UNL     1       3.862  37.935   7.910  1.00  0.00     0.062 A 
ATOM     17  C   UNL     1       5.257  37.947   8.020  1.00  0.00     0.158 A 
BRANCH  15  18
ATOM     18  O   UNL     1       7.414  38.691   7.197  1.00  0.00    -0.504 OA
ATOM     19  H   UNL     1       7.957  39.497   6.909  1.00  0.00     0.293 HD
ENDBRANCH  15  18
BRANCH  17  20
ATOM     20  O   UNL     1       5.862  37.233   9.053  1.00  0.00    -0.504 OA
ATOM     21  H   UNL     1       5.781  37.514  10.022  1.00  0.00     0.293 HD
ENDBRANCH  17  20
ENDBRANCH   1  12
BRANCH   2  22
ATOM     22  O   UNL     1       1.541  41.016   6.977  1.00  0.00    -0.502 OA
ATOM     23  H   UNL     1       2.427  41.265   6.553  1.00  0.00     0.293 HD
ENDBRANCH   2  22
BRANCH   6  24
ATOM     24  O   UNL     1      -3.369  39.130   6.138  1.00  0.00    -0.507 OA
ATOM     25  H   UNL     1      -3.189  40.001   5.663  1.00  0.00     0.293 HD
ENDBRANCH   6  24
BRANCH   8  26
ATOM     26  O   UNL     1      -2.509  34.412   6.380  1.00  0.00    -0.508 OA
ATOM     27  H   UNL     1      -2.184  33.743   5.692  1.00  0.00     0.293 HD
ENDBRANCH   8  26
TORSDOF 6
ENDMDL
MODEL 6
REMARK VINA RESULT:    -5.155      1.633      6.904
REMARK INTER + INTRA:          -6.528
REMARK INTER:                  -6.223
REMARK INTRA:                  -0.304
REMARK UNBOUND:                -0.318
REMARK SMILES O=c1c(O)c(-c2ccc(O)c(O)c2)oc2cc(O)cc(O)c12
REMARK SMILES IDX 5 1 3 2 2 3 1 4 22 5 20 6 19 7 17 8 16 9 15 10 14 11 6 12
REMARK SMILES IDX 7 13 8 14 9 15 13 16 11 17 10 18 12 20 4 22 21 24 18 26
REMARK H PARENT 10 19 12 21 4 23 21 25 18 27
REMARK Flexibility Score: inf
ROOT
ATOM      1  C   UNL     1       1.903  38.188   6.340  1.00  0.00     0.180 A 
ATOM      2  C   UNL     1       2.395  38.893   5.229  1.00  0.00     0.208 A 
ATOM      3  C   UNL     1       3.755  39.243   5.192  1.00  0.00     0.238 A 
ATOM      4  O   UNL     1       4.201  39.827   4.170  1.00  0.00    -0.285 OA
ATOM      5  C   UNL     1       4.600  38.898   6.274  1.00  0.00     0.111 A 
ATOM      6  C   UNL     1       5.985  39.237   6.361  1.00  0.00     0.134 A 
ATOM      7  C   UNL     1       6.754  38.730   7.415  1.00  0.00     0.093 A 
ATOM      8  C   UNL     1       6.176  37.952   8.420  1.00  0.00     0.123 A 
ATOM      9  C   UNL     1       4.814  37.665   8.375  1.00  0.00     0.094 A 
ATOM     10  C   UNL     1       4.027  38.125   7.317  1.00  0.00     0.146 A 
ATOM     11  O   UNL     1       2.735  37.820   7.308  1.00  0.00    -0.452 OA
ENDROOT
BRANCH   1  12
ATOM     12  C   UNL     1       0.478  37.805   6.463  1.00  0.00     0.025 A 
ATOM     13  C   UNL     1      -0.498  38.738   6.857  1.00  0.00     0.016 A 
ATOM     14  C   UNL     1      -1.834  38.348   6.989  1.00  0.00     0.051 A 
ATOM     15  C   UNL     1      -2.212  37.022   6.743  1.00  0.00     0.157 A 
ATOM     16  C   UNL     1       0.097  36.473   6.239  1.00  0.00     0.062 A 
ATOM     17  C   UNL     1      -1.240  36.079   6.369  1.00  0.00     0.158 A 
BRANCH  15  18
ATOM     18  O   UNL     1      -3.546  36.637   6.874  1.00  0.00    -0.504 OA
ATOM     19  H   UNL     1      -4.048  36.756   7.747  1.00  0.00     0.293 HD
ENDBRANCH  15  18
BRANCH  17  20
ATOM     20  O   UNL     1      -1.582  34.750   6.125  1.00  0.00    -0.504 OA
ATOM     21  H   UNL     1      -1.302  34.268   5.280  1.00  0.00     0.293 HD
ENDBRANCH  17  20
ENDBRANCH   1  12
BRANCH   2  22
ATOM     22  O   UNL     1       1.548  39.205   4.163  1.00  0.00    -0.502 OA
ATOM     23  H   UNL     1       1.306  38.532   3.444  1.00  0.00     0.293 HD
ENDBRANCH   2  22
BRANCH   6  24
ATOM     24  O   UNL     1       6.639  40.083   5.461  1.00  0.00    -0.507 OA
ATOM     25  H   UNL     1       6.296  40.985   5.168  1.00  0.00     0.293 HD
ENDBRANCH   6  24
BRANCH   8  26
ATOM     26  O   UNL     1       6.946  37.464   9.474  1.00  0.00    -0.508 OA
ATOM     27  H   UNL     1       6.653  36.659  10.016  1.00  0.00     0.293 HD
ENDBRANCH   8  26
TORSDOF 6
ENDMDL
MODEL 7
REMARK VINA RESULT:    -5.145      3.973      7.651
REMARK INTER + INTRA:          -6.516
REMARK INTER:                  -6.679
REMARK INTRA:                   0.163
REMARK UNBOUND:                -0.318
REMARK SMILES O=c1c(O)c(-c2ccc(O)c(O)c2)oc2cc(O)cc(O)c12
REMARK SMILES IDX 5 1 3 2 2 3 1 4 22 5 20 6 19 7 17 8 16 9 15 10 14 11 6 12
REMARK SMILES IDX 7 13 8 14 9 15 13 16 11 17 10 18 12 20 4 22 21 24 18 26
REMARK H PARENT 10 19 12 21 4 23 21 25 18 27
REMARK Flexibility Score: inf
ROOT
ATOM      1  C   UNL     1      -2.627  39.597   7.922  1.00  0.00     0.180 A 
ATOM      2  C   UNL     1      -1.370  39.814   7.333  1.00  0.00     0.208 A 
ATOM      3  C   UNL     1      -0.669  38.719   6.800  1.00  0.00     0.238 A 
ATOM      4  O   UNL     1       0.432  38.928   6.226  1.00  0.00    -0.285 OA
ATOM      5  C   UNL     1      -1.228  37.421   6.877  1.00  0.00     0.111 A 
ATOM      6  C   UNL     1      -0.589  36.234   6.405  1.00  0.00     0.134 A 
ATOM      7  C   UNL     1      -1.290  35.023   6.414  1.00  0.00     0.093 A 
ATOM      8  C   UNL     1      -2.582  34.942   6.937  1.00  0.00     0.123 A 
ATOM      9  C   UNL     1      -3.192  36.082   7.453  1.00  0.00     0.094 A 
ATOM     10  C   UNL     1      -2.532  37.313   7.425  1.00  0.00     0.146 A 
ATOM     11  O   UNL     1      -3.154  38.378   7.919  1.00  0.00    -0.452 OA
ENDROOT
BRANCH   1  12
ATOM     12  C   UNL     1      -3.414  40.695   8.527  1.00  0.00     0.025 A 
ATOM     13  C   UNL     1      -4.129  40.509   9.724  1.00  0.00     0.016 A 
ATOM     14  C   UNL     1      -4.884  41.554  10.265  1.00  0.00     0.051 A 
ATOM     15  C   UNL     1      -4.948  42.791   9.613  1.00  0.00     0.157 A 
ATOM     16  C   UNL     1      -3.499  41.931   7.867  1.00  0.00     0.062 A 
ATOM     17  C   UNL     1      -4.254  42.979   8.406  1.00  0.00     0.158 A 
BRANCH  15  18
ATOM     18  O   UNL     1      -5.701  43.832  10.155  1.00  0.00    -0.504 OA
ATOM     19  H   UNL     1      -6.705  43.755  10.271  1.00  0.00     0.293 HD
ENDBRANCH  15  18
BRANCH  17  20
ATOM     20  O   UNL     1      -4.304  44.197   7.728  1.00  0.00    -0.504 OA
ATOM     21  H   UNL     1      -3.756  44.372   6.894  1.00  0.00     0.293 HD
ENDBRANCH  17  20
ENDBRANCH   1  12
BRANCH   2  22
ATOM     22  O   UNL     1      -0.846  41.106   7.249  1.00  0.00    -0.502 OA
ATOM     23  H   UNL     1       0.088  41.294   6.904  1.00  0.00     0.293 HD
ENDBRANCH   2  22
BRANCH   6  24
ATOM     24  O   UNL     1       0.732  36.188   5.949  1.00  0.00    -0.507 OA
ATOM     25  H   UNL     1       1.508  36.659   6.388  1.00  0.00     0.293 HD
ENDBRANCH   6  24
BRANCH   8  26
ATOM     26  O   UNL     1      -3.268  33.729   6.956  1.00  0.00    -0.508 OA
ATOM     27  H   UNL     1      -3.197  33.093   7.742  1.00  0.00     0.293 HD
ENDBRANCH   8  26
TORSDOF 6
ENDMDL
MODEL 8
REMARK VINA RESULT:    -5.069      5.109      9.657
REMARK INTER + INTRA:          -6.425
REMARK INTER:                  -6.094
REMARK INTRA:                  -0.331
REMARK UNBOUND:                -0.318
REMARK SMILES O=c1c(O)c(-c2ccc(O)c(O)c2)oc2cc(O)cc(O)c12
REMARK SMILES IDX 5 1 3 2 2 3 1 4 22 5 20 6 19 7 17 8 16 9 15 10 14 11 6 12
REMARK SMILES IDX 7 13 8 14 9 15 13 16 11 17 10 18 12 20 4 22 21 24 18 26
REMARK H PARENT 10 19 12 21 4 23 21 25 18 27
REMARK Flexibility Score: inf
ROOT
ATOM      1  C   UNL     1      -4.327  43.625   8.748  1.00  0.00     0.180 A 
ATOM      2  C   UNL     1      -4.976  42.819   9.699  1.00  0.00     0.208 A 
ATOM      3  C   UNL     1      -4.696  41.443   9.730  1.00  0.00     0.238 A 
ATOM      4  O   UNL     1      -5.239  40.736  10.619  1.00  0.00    -0.285 OA
ATOM      5  C   UNL     1      -3.784  40.889   8.800  1.00  0.00     0.111 A 
ATOM      6  C   UNL     1      -3.456  39.502   8.715  1.00  0.00     0.134 A 
ATOM      7  C   UNL     1      -2.442  39.085   7.844  1.00  0.00     0.093 A 
ATOM      8  C   UNL     1      -1.790  39.995   7.009  1.00  0.00     0.123 A 
ATOM      9  C   UNL     1      -2.145  41.341   7.042  1.00  0.00     0.094 A 
ATOM     10  C   UNL     1      -3.127  41.794   7.927  1.00  0.00     0.146 A 
ATOM     11  O   UNL     1      -3.427  43.087   7.934  1.00  0.00    -0.452 OA
ENDROOT
BRANCH   1  12
ATOM     12  C   UNL     1      -4.589  45.079   8.637  1.00  0.00     0.025 A 
ATOM     13  C   UNL     1      -5.592  45.578   7.787  1.00  0.00     0.016 A 
ATOM     14  C   UNL     1      -5.805  46.955   7.681  1.00  0.00     0.051 A 
ATOM     15  C   UNL     1      -5.012  47.852   8.408  1.00  0.00     0.157 A 
ATOM     16  C   UNL     1      -3.783  45.983   9.347  1.00  0.00     0.062 A 
ATOM     17  C   UNL     1      -3.994  47.362   9.243  1.00  0.00     0.158 A 
BRANCH  15  18
ATOM     18  O   UNL     1      -5.228  49.226   8.300  1.00  0.00    -0.504 OA
ATOM     19  H   UNL     1      -5.905  49.703   8.885  1.00  0.00     0.293 HD
ENDBRANCH  15  18
BRANCH  17  20
ATOM     20  O   UNL     1      -3.183  48.229   9.974  1.00  0.00    -0.504 OA
ATOM     21  H   UNL     1      -2.433  48.756   9.544  1.00  0.00     0.293 HD
ENDBRANCH  17  20
ENDBRANCH   1  12
BRANCH   2  22
ATOM     22  O   UNL     1      -5.857  43.390  10.621  1.00  0.00    -0.502 OA
ATOM     23  H   UNL     1      -5.541  43.975  11.386  1.00  0.00     0.293 HD
ENDBRANCH   2  22
BRANCH   6  24
ATOM     24  O   UNL     1      -4.109  38.500   9.438  1.00  0.00    -0.507 OA
ATOM     25  H   UNL     1      -4.687  37.781   9.029  1.00  0.00     0.293 HD
ENDBRANCH   6  24
BRANCH   8  26
ATOM     26  O   UNL     1      -0.794  39.569   6.133  1.00  0.00    -0.508 OA
ATOM     27  H   UNL     1      -0.353  40.208   5.481  1.00  0.00     0.293 HD
ENDBRANCH   8  26
TORSDOF 6
ENDMDL
MODEL 9
REMARK VINA RESULT:    -5.012      3.221      6.538
REMARK INTER + INTRA:          -6.355
REMARK INTER:                  -6.072
REMARK INTRA:                  -0.283
REMARK UNBOUND:                -0.318
REMARK SMILES O=c1c(O)c(-c2ccc(O)c(O)c2)oc2cc(O)cc(O)c12
REMARK SMILES IDX 5 1 3 2 2 3 1 4 22 5 20 6 19 7 17 8 16 9 15 10 14 11 6 12
REMARK SMILES IDX 7 13 8 14 9 15 13 16 11 17 10 18 12 20 4 22 21 24 18 26
REMARK H PARENT 10 19 12 21 4 23 21 25 18 27
REMARK Flexibility Score: inf
ROOT
ATOM      1  C   UNL     1      -2.638  40.727   8.200  1.00  0.00     0.180 A 
ATOM      2  C   UNL     1      -3.487  40.323   9.244  1.00  0.00     0.208 A 
ATOM      3  C   UNL     1      -4.469  41.215   9.707  1.00  0.00     0.238 A 
ATOM      4  O   UNL     1      -5.261  40.828  10.605  1.00  0.00    -0.285 OA
ATOM      5  C   UNL     1      -4.578  42.503   9.130  1.00  0.00     0.111 A 
ATOM      6  C   UNL     1      -5.510  43.501   9.547  1.00  0.00     0.134 A 
ATOM      7  C   UNL     1      -5.618  44.691   8.818  1.00  0.00     0.093 A 
ATOM      8  C   UNL     1      -4.784  44.947   7.728  1.00  0.00     0.123 A 
ATOM      9  C   UNL     1      -3.831  44.004   7.350  1.00  0.00     0.094 A 
ATOM     10  C   UNL     1      -3.724  42.792   8.034  1.00  0.00     0.146 A 
ATOM     11  O   UNL     1      -2.809  41.916   7.635  1.00  0.00    -0.452 OA
ENDROOT
BRANCH   1  12
ATOM     12  C   UNL     1      -1.563  39.853   7.675  1.00  0.00     0.025 A 
ATOM     13  C   UNL     1      -0.216  40.063   8.022  1.00  0.00     0.016 A 
ATOM     14  C   UNL     1       0.784  39.240   7.496  1.00  0.00     0.051 A 
ATOM     15  C   UNL     1       0.457  38.208   6.608  1.00  0.00     0.157 A 
ATOM     16  C   UNL     1      -1.883  38.831   6.769  1.00  0.00     0.062 A 
ATOM     17  C   UNL     1      -0.884  38.004   6.241  1.00  0.00     0.158 A 
BRANCH  15  18
ATOM     18  O   UNL     1       1.457  37.388   6.087  1.00  0.00    -0.504 OA
ATOM     19  H   UNL     1       2.373  37.753   5.854  1.00  0.00     0.293 HD
ENDBRANCH  15  18
BRANCH  17  20
ATOM     20  O   UNL     1      -1.242  36.990   5.353  1.00  0.00    -0.504 OA
ATOM     21  H   UNL     1      -2.154  36.551   5.377  1.00  0.00     0.293 HD
ENDBRANCH  17  20
ENDBRANCH   1  12
BRANCH   2  22
ATOM     22  O   UNL     1      -3.376  39.040   9.785  1.00  0.00    -0.502 OA
ATOM     23  H   UNL     1      -2.483  38.628  10.030  1.00  0.00     0.293 HD
ENDBRANCH   2  22
BRANCH   6  24
ATOM     24  O   UNL     1      -6.326  43.384  10.676  1.00  0.00    -0.507 OA
ATOM     25  H   UNL     1      -6.010  43.503  11.627  1.00  0.00     0.293 HD
ENDBRANCH   6  24
BRANCH   8  26
ATOM     26  O   UNL     1      -4.887  46.142   7.018  1.00  0.00    -0.508 OA
ATOM     27  H   UNL     1      -5.302  46.969   7.431  1.00  0.00     0.293 HD
ENDBRANCH   8  26
TORSDOF 6
ENDMDL
