MODEL 1
REMARK VINA RESULT:    -6.573      0.000      0.000
REMARK INTER + INTRA:          -7.767
REMARK INTER:                  -8.110
REMARK INTRA:                   0.343
REMARK UNBOUND:                 0.343
REMARK SMILES Oc1cc(O)c2cc(O)c(-c3cc(O)c(O)c(O)c3)[o+]c2c1
REMARK SMILES IDX 10 1 20 2 21 3 22 4 2 5 3 6 4 7 6 8 7 9 8 10 11 11 12 12
REMARK SMILES IDX 13 13 19 14 15 15 17 16 14 17 16 19 18 21 9 23 1 25 5 27
REMARK H PARENT 14 18 16 20 18 22 9 24 1 26 5 28
REMARK Flexibility Score: inf
ROOT
ATOM      1  C   UNL     1       1.178   5.019  -5.343  1.00  0.00     0.402 A 
ATOM      2  O   UNL     1       0.330   6.026  -5.138  1.00  0.00    -0.202 OA
ATOM      3  C   UNL     1       0.351   6.784  -4.045  1.00  0.00     0.368 A 
ATOM      4  C   UNL     1      -0.572   7.826  -3.909  1.00  0.00     0.162 A 
ATOM      5  C   UNL     1      -0.558   8.633  -2.764  1.00  0.00     0.128 A 
ATOM      6  C   UNL     1       0.382   8.396  -1.755  1.00  0.00     0.093 A 
ATOM      7  C   UNL     1       1.312   7.354  -1.878  1.00  0.00     0.136 A 
ATOM      8  C   UNL     1       1.299   6.543  -3.028  1.00  0.00     0.125 A 
ATOM      9  C   UNL     1       2.198   5.485  -3.201  1.00  0.00     0.078 A 
ATOM     10  C   UNL     1       2.138   4.704  -4.360  1.00  0.00     0.223 A 
ENDROOT
BRANCH   1  11
ATOM     11  C   UNL     1       1.062   4.252  -6.605  1.00  0.00     0.091 A 
ATOM     12  C   UNL     1       1.562   2.946  -6.666  1.00  0.00     0.068 A 
ATOM     13  C   UNL     1       1.449   2.192  -7.837  1.00  0.00     0.162 A 
ATOM     14  C   UNL     1       0.408   4.786  -7.726  1.00  0.00     0.068 A 
ATOM     15  C   UNL     1       0.815   2.734  -8.970  1.00  0.00     0.200 A 
ATOM     16  C   UNL     1       0.283   4.045  -8.907  1.00  0.00     0.162 A 
BRANCH  13  17
ATOM     17  O   UNL     1       1.976   0.900  -7.857  1.00  0.00    -0.504 OA
ATOM     18  H   UNL     1       1.670   0.201  -8.521  1.00  0.00     0.293 HD
ENDBRANCH  13  17
BRANCH  15  19
ATOM     19  O   UNL     1       0.733   1.951 -10.125  1.00  0.00    -0.502 OA
ATOM     20  H   UNL     1       0.314   2.259 -10.991  1.00  0.00     0.293 HD
ENDBRANCH  15  19
BRANCH  16  21
ATOM     21  O   UNL     1      -0.379   4.643  -9.981  1.00  0.00    -0.504 OA
ATOM     22  H   UNL     1      -1.284   5.085  -9.916  1.00  0.00     0.293 HD
ENDBRANCH  16  21
ENDBRANCH   1  11
BRANCH  10  23
ATOM     23  O   UNL     1       2.997   3.617  -4.516  1.00  0.00    -0.500 OA
ATOM     24  H   UNL     1       3.832   3.513  -3.951  1.00  0.00     0.294 HD
ENDBRANCH  10  23
BRANCH   5  25
ATOM     25  O   UNL     1      -1.472   9.674  -2.619  1.00  0.00    -0.507 OA
ATOM     26  H   UNL     1      -2.437   9.499  -2.365  1.00  0.00     0.293 HD
ENDBRANCH   5  25
BRANCH   7  27
ATOM     27  O   UNL     1       2.243   7.127  -0.864  1.00  0.00    -0.507 OA
ATOM     28  H   UNL     1       2.265   6.255  -0.348  1.00  0.00     0.293 HD
ENDBRANCH   7  27
TORSDOF 7
ENDMDL
MODEL 2
REMARK VINA RESULT:    -6.529      1.097      2.594
REMARK INTER + INTRA:          -7.713
REMARK INTER:                  -7.979
REMARK INTRA:                   0.267
REMARK UNBOUND:                 0.343
REMARK SMILES Oc1cc(O)c2cc(O)c(-c3cc(O)c(O)c(O)c3)[o+]c2c1
REMARK SMILES IDX 10 1 20 2 21 3 22 4 2 5 3 6 4 7 6 8 7 9 8 10 11 11 12 12
REMARK SMILES IDX 13 13 19 14 15 15 17 16 14 17 16 19 18 21 9 23 1 25 5 27
REMARK H PARENT 14 18 16 20 18 22 9 24 1 26 5 28
REMARK Flexibility Score: inf
ROOT
ATOM      1  C   UNL     1       0.679   5.117  -5.559  1.00  0.00     0.402 A 
ATOM      2  O   UNL     1       1.714   5.099  -4.722  1.00  0.00    -0.202 OA
ATOM      3  C   UNL     1       1.775   5.848  -3.624  1.00  0.00     0.368 A 
ATOM      4  C   UNL     1       2.896   5.767  -2.793  1.00  0.00     0.162 A 
ATOM      5  C   UNL     1       2.971   6.548  -1.633  1.00  0.00     0.128 A 
ATOM      6  C   UNL     1       1.920   7.411  -1.305  1.00  0.00     0.093 A 
ATOM      7  C   UNL     1       0.789   7.503  -2.130  1.00  0.00     0.136 A 
ATOM      8  C   UNL     1       0.714   6.718  -3.296  1.00  0.00     0.125 A 
ATOM      9  C   UNL     1      -0.385   6.775  -4.159  1.00  0.00     0.078 A 
ATOM     10  C   UNL     1      -0.408   5.979  -5.309  1.00  0.00     0.223 A 
ENDROOT
BRANCH   1  11
ATOM     11  C   UNL     1       0.723   4.229  -6.745  1.00  0.00     0.091 A 
ATOM     12  C   UNL     1       1.471   3.047  -6.694  1.00  0.00     0.068 A 
ATOM     13  C   UNL     1       1.516   2.183  -7.790  1.00  0.00     0.162 A 
ATOM     14  C   UNL     1      -0.017   4.519  -7.902  1.00  0.00     0.068 A 
ATOM     15  C   UNL     1       0.794   2.483  -8.960  1.00  0.00     0.200 A 
ATOM     16  C   UNL     1       0.013   3.664  -9.009  1.00  0.00     0.162 A 
BRANCH  13  17
ATOM     17  O   UNL     1       2.288   1.023  -7.699  1.00  0.00    -0.504 OA
ATOM     18  H   UNL     1       3.133   0.978  -7.143  1.00  0.00     0.293 HD
ENDBRANCH  13  17
BRANCH  15  19
ATOM     19  O   UNL     1       0.874   1.597 -10.037  1.00  0.00    -0.502 OA
ATOM     20  H   UNL     1       0.209   0.858 -10.216  1.00  0.00     0.293 HD
ENDBRANCH  15  19
BRANCH  16  21
ATOM     21  O   UNL     1      -0.748   4.018 -10.125  1.00  0.00    -0.504 OA
ATOM     22  H   UNL     1      -0.890   4.968 -10.437  1.00  0.00     0.293 HD
ENDBRANCH  16  21
ENDBRANCH   1  11
BRANCH  10  23
ATOM     23  O   UNL     1      -1.476   6.067  -6.200  1.00  0.00    -0.500 OA
ATOM     24  H   UNL     1      -1.510   5.511  -7.047  1.00  0.00     0.294 HD
ENDBRANCH  10  23
BRANCH   5  25
ATOM     25  O   UNL     1       4.083   6.474  -0.798  1.00  0.00    -0.507 OA
ATOM     26  H   UNL     1       4.574   5.600  -0.647  1.00  0.00     0.293 HD
ENDBRANCH   5  25
BRANCH   7  27
ATOM     27  O   UNL     1      -0.251   8.370  -1.792  1.00  0.00    -0.507 OA
ATOM     28  H   UNL     1      -0.866   8.761  -2.496  1.00  0.00     0.293 HD
ENDBRANCH   7  27
TORSDOF 7
ENDMDL
MODEL 3
REMARK VINA RESULT:    -6.380      0.724      1.966
REMARK INTER + INTRA:          -7.529
REMARK INTER:                  -7.861
REMARK INTRA:                   0.332
REMARK UNBOUND:                 0.343
REMARK SMILES Oc1cc(O)c2cc(O)c(-c3cc(O)c(O)c(O)c3)[o+]c2c1
REMARK SMILES IDX 10 1 20 2 21 3 22 4 2 5 3 6 4 7 6 8 7 9 8 10 11 11 12 12
REMARK SMILES IDX 13 13 19 14 15 15 17 16 14 17 16 19 18 21 9 23 1 25 5 27
REMARK H PARENT 14 18 16 20 18 22 9 24 1 26 5 28
REMARK Flexibility Score: inf
ROOT
ATOM      1  C   UNL     1       0.663   5.192  -5.518  1.00  0.00     0.402 A 
ATOM      2  O   UNL     1      -0.308   6.101  -5.450  1.00  0.00    -0.202 OA
ATOM      3  C   UNL     1      -0.427   6.965  -4.446  1.00  0.00     0.368 A 
ATOM      4  C   UNL     1      -1.472   7.894  -4.452  1.00  0.00     0.162 A 
ATOM      5  C   UNL     1      -1.606   8.811  -3.402  1.00  0.00     0.128 A 
ATOM      6  C   UNL     1      -0.691   8.798  -2.344  1.00  0.00     0.093 A 
ATOM      7  C   UNL     1       0.362   7.872  -2.324  1.00  0.00     0.136 A 
ATOM      8  C   UNL     1       0.497   6.950  -3.379  1.00  0.00     0.125 A 
ATOM      9  C   UNL     1       1.523   5.999  -3.408  1.00  0.00     0.078 A 
ATOM     10  C   UNL     1       1.608   5.101  -4.476  1.00  0.00     0.223 A 
ENDROOT
BRANCH   1  11
ATOM     11  C   UNL     1       0.695   4.290  -6.692  1.00  0.00     0.091 A 
ATOM     12  C   UNL     1       0.012   4.652  -7.860  1.00  0.00     0.068 A 
ATOM     13  C   UNL     1       0.040   3.830  -8.988  1.00  0.00     0.162 A 
ATOM     14  C   UNL     1       1.445   3.103  -6.681  1.00  0.00     0.068 A 
ATOM     15  C   UNL     1       0.772   2.628  -8.972  1.00  0.00     0.200 A 
ATOM     16  C   UNL     1       1.488   2.268  -7.804  1.00  0.00     0.162 A 
BRANCH  13  17
ATOM     17  O   UNL     1      -0.669   4.225 -10.124  1.00  0.00    -0.504 OA
ATOM     18  H   UNL     1      -1.524   4.763 -10.068  1.00  0.00     0.293 HD
ENDBRANCH  13  17
BRANCH  15  19
ATOM     19  O   UNL     1       0.767   1.830 -10.118  1.00  0.00    -0.502 OA
ATOM     20  H   UNL     1       0.803   0.820 -10.108  1.00  0.00     0.293 HD
ENDBRANCH  15  19
BRANCH  16  21
ATOM     21  O   UNL     1       2.255   1.104  -7.718  1.00  0.00    -0.504 OA
ATOM     22  H   UNL     1       2.982   0.853  -8.372  1.00  0.00     0.293 HD
ENDBRANCH  16  21
ENDBRANCH   1  11
BRANCH  10  23
ATOM     23  O   UNL     1       2.597   4.118  -4.487  1.00  0.00    -0.500 OA
ATOM     24  H   UNL     1       3.578   4.351  -4.596  1.00  0.00     0.294 HD
ENDBRANCH  10  23
BRANCH   5  25
ATOM     25  O   UNL     1      -2.644   9.740  -3.400  1.00  0.00    -0.507 OA
ATOM     26  H   UNL     1      -3.224   9.887  -4.217  1.00  0.00     0.293 HD
ENDBRANCH   5  25
BRANCH   7  27
ATOM     27  O   UNL     1       1.266   7.868  -1.261  1.00  0.00    -0.507 OA
ATOM     28  H   UNL     1       1.509   8.718  -0.767  1.00  0.00     0.293 HD
ENDBRANCH   7  27
TORSDOF 7
ENDMDL
MODEL 4
REMARK VINA RESULT:    -6.136      2.744      4.117
REMARK INTER + INTRA:          -7.228
REMARK INTER:                  -6.858
REMARK INTRA:                  -0.370
REMARK UNBOUND:                 0.343
REMARK SMILES Oc1cc(O)c2cc(O)c(-c3cc(O)c(O)c(O)c3)[o+]c2c1
REMARK SMILES IDX 10 1 20 2 21 3 22 4 2 5 3 6 4 7 6 8 7 9 8 10 11 11 12 12
REMARK SMILES IDX 13 13 19 14 15 15 17 16 14 17 16 19 18 21 9 23 1 25 5 27
REMARK H PARENT 14 18 16 20 18 22 9 24 1 26 5 28
REMARK Flexibility Score: inf
ROOT
ATOM      1  C   UNL     1       1.688   6.725  -2.705  1.00  0.00     0.402 A 
ATOM      2  O   UNL     1       1.090   7.571  -1.867  1.00  0.00    -0.202 OA
ATOM      3  C   UNL     1       1.619   7.937  -0.703  1.00  0.00     0.368 A 
ATOM      4  C   UNL     1       0.930   8.834   0.118  1.00  0.00     0.162 A 
ATOM      5  C   UNL     1       1.478   9.231   1.345  1.00  0.00     0.128 A 
ATOM      6  C   UNL     1       2.720   8.727   1.749  1.00  0.00     0.093 A 
ATOM      7  C   UNL     1       3.422   7.826   0.936  1.00  0.00     0.136 A 
ATOM      8  C   UNL     1       2.871   7.428  -0.297  1.00  0.00     0.125 A 
ATOM      9  C   UNL     1       3.523   6.525  -1.145  1.00  0.00     0.078 A 
ATOM     10  C   UNL     1       2.929   6.157  -2.356  1.00  0.00     0.223 A 
ENDROOT
BRANCH   1  11
ATOM     11  C   UNL     1       1.002   6.400  -3.977  1.00  0.00     0.091 A 
ATOM     12  C   UNL     1       1.197   7.221  -5.095  1.00  0.00     0.068 A 
ATOM     13  C   UNL     1       0.578   6.928  -6.313  1.00  0.00     0.162 A 
ATOM     14  C   UNL     1       0.204   5.252  -4.104  1.00  0.00     0.068 A 
ATOM     15  C   UNL     1      -0.241   5.790  -6.436  1.00  0.00     0.200 A 
ATOM     16  C   UNL     1      -0.423   4.941  -5.317  1.00  0.00     0.162 A 
BRANCH  13  17
ATOM     17  O   UNL     1       0.789   7.782  -7.395  1.00  0.00    -0.504 OA
ATOM     18  H   UNL     1       1.533   7.633  -8.066  1.00  0.00     0.293 HD
ENDBRANCH  13  17
BRANCH  15  19
ATOM     19  O   UNL     1      -0.850   5.539  -7.668  1.00  0.00    -0.502 OA
ATOM     20  H   UNL     1      -0.423   5.011  -8.416  1.00  0.00     0.293 HD
ENDBRANCH  15  19
BRANCH  16  21
ATOM     21  O   UNL     1      -1.201   3.784  -5.367  1.00  0.00    -0.504 OA
ATOM     22  H   UNL     1      -1.936   3.622  -6.040  1.00  0.00     0.293 HD
ENDBRANCH  16  21
ENDBRANCH   1  11
BRANCH  10  23
ATOM     23  O   UNL     1       3.549   5.220  -3.183  1.00  0.00    -0.500 OA
ATOM     24  H   UNL     1       4.558   5.138  -3.231  1.00  0.00     0.294 HD
ENDBRANCH  10  23
BRANCH   5  25
ATOM     25  O   UNL     1       0.800  10.125   2.170  1.00  0.00    -0.507 OA
ATOM     26  H   UNL     1       0.192  10.840   1.788  1.00  0.00     0.293 HD
ENDBRANCH   5  25
BRANCH   7  27
ATOM     27  O   UNL     1       4.658   7.330   1.351  1.00  0.00    -0.507 OA
ATOM     28  H   UNL     1       5.130   6.588   0.846  1.00  0.00     0.293 HD
ENDBRANCH   7  27
TORSDOF 7
ENDMDL
MODEL 5
REMARK VINA RESULT:    -6.025      3.042      8.785
REMARK INTER + INTRA:          -7.091
REMARK INTER:                  -6.840
REMARK INTRA:                  -0.251
REMARK UNBOUND:                 0.343
REMARK SMILES Oc1cc(O)c2cc(O)c(-c3cc(O)c(O)c(O)c3)[o+]c2c1
REMARK SMILES IDX 10 1 20 2 21 3 22 4 2 5 3 6 4 7 6 8 7 9 8 10 11 11 12 12
REMARK SMILES IDX 13 13 19 14 15 15 17 16 14 17 16 19 18 21 9 23 1 25 5 27
REMARK H PARENT 14 18 16 20 18 22 9 24 1 26 5 28
REMARK Flexibility Score: inf
ROOT
ATOM      1  C   UNL     1       1.847   7.562  -0.877  1.00  0.00     0.402 A 
ATOM      2  O   UNL     1       2.388   6.508  -1.485  1.00  0.00    -0.202 OA
ATOM      3  C   UNL     1       1.988   6.070  -2.676  1.00  0.00     0.368 A 
ATOM      4  C   UNL     1       2.613   4.959  -3.250  1.00  0.00     0.162 A 
ATOM      5  C   UNL     1       2.202   4.491  -4.505  1.00  0.00     0.128 A 
ATOM      6  C   UNL     1       1.165   5.137  -5.185  1.00  0.00     0.093 A 
ATOM      7  C   UNL     1       0.529   6.252  -4.621  1.00  0.00     0.136 A 
ATOM      8  C   UNL     1       0.941   6.724  -3.360  1.00  0.00     0.125 A 
ATOM      9  C   UNL     1       0.338   7.826  -2.746  1.00  0.00     0.078 A 
ATOM     10  C   UNL     1       0.780   8.250  -1.489  1.00  0.00     0.223 A 
ENDROOT
BRANCH   1  11
ATOM     11  C   UNL     1       2.384   7.959   0.445  1.00  0.00     0.091 A 
ATOM     12  C   UNL     1       1.599   7.780   1.591  1.00  0.00     0.068 A 
ATOM     13  C   UNL     1       2.088   8.128   2.853  1.00  0.00     0.162 A 
ATOM     14  C   UNL     1       3.689   8.458   0.583  1.00  0.00     0.068 A 
ATOM     15  C   UNL     1       3.387   8.651   2.990  1.00  0.00     0.200 A 
ATOM     16  C   UNL     1       4.196   8.810   1.839  1.00  0.00     0.162 A 
BRANCH  13  17
ATOM     17  O   UNL     1       1.264   7.947   3.964  1.00  0.00    -0.504 OA
ATOM     18  H   UNL     1       1.348   8.514   4.799  1.00  0.00     0.293 HD
ENDBRANCH  13  17
BRANCH  15  19
ATOM     19  O   UNL     1       3.833   8.996   4.269  1.00  0.00    -0.502 OA
ATOM     20  H   UNL     1       3.227   9.130   5.065  1.00  0.00     0.293 HD
ENDBRANCH  15  19
BRANCH  16  21
ATOM     21  O   UNL     1       5.502   9.301   1.897  1.00  0.00    -0.504 OA
ATOM     22  H   UNL     1       5.739  10.279   1.980  1.00  0.00     0.293 HD
ENDBRANCH  16  21
ENDBRANCH   1  11
BRANCH  10  23
ATOM     23  O   UNL     1       0.150   9.317  -0.849  1.00  0.00    -0.500 OA
ATOM     24  H   UNL     1      -0.844   9.486  -0.950  1.00  0.00     0.294 HD
ENDBRANCH  10  23
BRANCH   5  25
ATOM     25  O   UNL     1       2.819   3.385  -5.085  1.00  0.00    -0.507 OA
ATOM     26  H   UNL     1       2.638   3.123  -6.047  1.00  0.00     0.293 HD
ENDBRANCH   5  25
BRANCH   7  27
ATOM     27  O   UNL     1      -0.506   6.887  -5.310  1.00  0.00    -0.507 OA
ATOM     28  H   UNL     1      -0.784   7.836  -5.092  1.00  0.00     0.293 HD
ENDBRANCH   7  27
TORSDOF 7
ENDMDL
MODEL 6
REMARK VINA RESULT:    -5.979      1.223      7.224
REMARK INTER + INTRA:          -7.035
REMARK INTER:                  -7.225
REMARK INTRA:                   0.191
REMARK UNBOUND:                 0.343
REMARK SMILES Oc1cc(O)c2cc(O)c(-c3cc(O)c(O)c(O)c3)[o+]c2c1
REMARK SMILES IDX 10 1 20 2 21 3 22 4 2 5 3 6 4 7 6 8 7 9 8 10 11 11 12 12
REMARK SMILES IDX 13 13 19 14 15 15 17 16 14 17 16 19 18 21 9 23 1 25 5 27
REMARK H PARENT 14 18 16 20 18 22 9 24 1 26 5 28
REMARK Flexibility Score: inf
ROOT
ATOM      1  C   UNL     1       1.089   5.585  -5.368  1.00  0.00     0.402 A 
ATOM      2  O   UNL     1       1.477   4.354  -5.696  1.00  0.00    -0.202 OA
ATOM      3  C   UNL     1       1.242   3.810  -6.886  1.00  0.00     0.368 A 
ATOM      4  C   UNL     1       1.688   2.512  -7.154  1.00  0.00     0.162 A 
ATOM      5  C   UNL     1       1.450   1.930  -8.405  1.00  0.00     0.128 A 
ATOM      6  C   UNL     1       0.763   2.649  -9.390  1.00  0.00     0.093 A 
ATOM      7  C   UNL     1       0.309   3.951  -9.135  1.00  0.00     0.136 A 
ATOM      8  C   UNL     1       0.549   4.537  -7.878  1.00  0.00     0.125 A 
ATOM      9  C   UNL     1       0.112   5.829  -7.565  1.00  0.00     0.078 A 
ATOM     10  C   UNL     1       0.370   6.362  -6.299  1.00  0.00     0.223 A 
ENDROOT
BRANCH   1  11
ATOM     11  C   UNL     1       1.417   6.085  -4.012  1.00  0.00     0.091 A 
ATOM     12  C   UNL     1       2.617   5.693  -3.405  1.00  0.00     0.068 A 
ATOM     13  C   UNL     1       2.961   6.163  -2.135  1.00  0.00     0.162 A 
ATOM     14  C   UNL     1       0.578   6.989  -3.344  1.00  0.00     0.068 A 
ATOM     15  C   UNL     1       2.110   7.052  -1.454  1.00  0.00     0.200 A 
ATOM     16  C   UNL     1       0.908   7.473  -2.072  1.00  0.00     0.162 A 
BRANCH  13  17
ATOM     17  O   UNL     1       4.160   5.733  -1.564  1.00  0.00    -0.504 OA
ATOM     18  H   UNL     1       5.022   6.256  -1.657  1.00  0.00     0.293 HD
ENDBRANCH  13  17
BRANCH  15  19
ATOM     19  O   UNL     1       2.487   7.490  -0.181  1.00  0.00    -0.502 OA
ATOM     20  H   UNL     1       3.444   7.601   0.121  1.00  0.00     0.293 HD
ENDBRANCH  15  19
BRANCH  16  21
ATOM     21  O   UNL     1       0.024   8.370  -1.470  1.00  0.00    -0.504 OA
ATOM     22  H   UNL     1       0.310   9.176  -0.933  1.00  0.00     0.293 HD
ENDBRANCH  16  21
ENDBRANCH   1  11
BRANCH  10  23
ATOM     23  O   UNL     1      -0.105   7.629  -5.963  1.00  0.00    -0.500 OA
ATOM     24  H   UNL     1      -0.633   7.791  -5.113  1.00  0.00     0.294 HD
ENDBRANCH  10  23
BRANCH   5  25
ATOM     25  O   UNL     1       1.891   0.638  -8.682  1.00  0.00    -0.507 OA
ATOM     26  H   UNL     1       2.192   0.012  -7.943  1.00  0.00     0.293 HD
ENDBRANCH   5  25
BRANCH   7  27
ATOM     27  O   UNL     1      -0.376   4.656 -10.125  1.00  0.00    -0.507 OA
ATOM     28  H   UNL     1       0.020   4.798 -11.046  1.00  0.00     0.293 HD
ENDBRANCH   7  27
TORSDOF 7
ENDMDL
MODEL 7
REMARK VINA RESULT:    -5.944      2.085      2.967
REMARK INTER + INTRA:          -6.992
REMARK INTER:                  -6.621
REMARK INTRA:                  -0.370
REMARK UNBOUND:                 0.343
REMARK SMILES Oc1cc(O)c2cc(O)c(-c3cc(O)c(O)c(O)c3)[o+]c2c1
REMARK SMILES IDX 10 1 20 2 21 3 22 4 2 5 3 6 4 7 6 8 7 9 8 10 11 11 12 12
REMARK SMILES IDX 13 13 19 14 15 15 17 16 14 17 16 19 18 21 9 23 1 25 5 27
REMARK H PARENT 14 18 16 20 18 22 9 24 1 26 5 28
REMARK Flexibility Score: inf
ROOT
ATOM      1  C   UNL     1       1.456   6.169  -3.660  1.00  0.00     0.402 A 
ATOM      2  O   UNL     1       0.783   7.117  -3.009  1.00  0.00    -0.202 OA
ATOM      3  C   UNL     1       1.168   7.604  -1.833  1.00  0.00     0.368 A 
ATOM      4  C   UNL     1       0.408   8.604  -1.217  1.00  0.00     0.162 A 
ATOM      5  C   UNL     1       0.804   9.128   0.020  1.00  0.00     0.128 A 
ATOM      6  C   UNL     1       1.964   8.651   0.640  1.00  0.00     0.093 A 
ATOM      7  C   UNL     1       2.735   7.648   0.035  1.00  0.00     0.136 A 
ATOM      8  C   UNL     1       2.338   7.121  -1.209  1.00  0.00     0.125 A 
ATOM      9  C   UNL     1       3.063   6.115  -1.855  1.00  0.00     0.078 A 
ATOM     10  C   UNL     1       2.621   5.621  -3.086  1.00  0.00     0.223 A 
ENDROOT
BRANCH   1  11
ATOM     11  C   UNL     1       0.932   5.713  -4.968  1.00  0.00     0.091 A 
ATOM     12  C   UNL     1       1.303   6.393  -6.135  1.00  0.00     0.068 A 
ATOM     13  C   UNL     1       0.839   5.973  -7.384  1.00  0.00     0.162 A 
ATOM     14  C   UNL     1       0.116   4.575  -5.072  1.00  0.00     0.068 A 
ATOM     15  C   UNL     1       0.002   4.847  -7.487  1.00  0.00     0.200 A 
ATOM     16  C   UNL     1      -0.356   4.138  -6.315  1.00  0.00     0.162 A 
BRANCH  13  17
ATOM     17  O   UNL     1       1.223   6.692  -8.517  1.00  0.00    -0.504 OA
ATOM     18  H   UNL     1       0.681   6.683  -9.372  1.00  0.00     0.293 HD
ENDBRANCH  13  17
BRANCH  15  19
ATOM     19  O   UNL     1      -0.448   4.467  -8.755  1.00  0.00    -0.502 OA
ATOM     20  H   UNL     1      -1.393   4.602  -9.086  1.00  0.00     0.293 HD
ENDBRANCH  15  19
BRANCH  16  21
ATOM     21  O   UNL     1      -1.163   3.000  -6.339  1.00  0.00    -0.504 OA
ATOM     22  H   UNL     1      -1.811   2.778  -7.081  1.00  0.00     0.293 HD
ENDBRANCH  16  21
ENDBRANCH   1  11
BRANCH  10  23
ATOM     23  O   UNL     1       3.311   4.584  -3.713  1.00  0.00    -0.500 OA
ATOM     24  H   UNL     1       3.256   4.437  -4.714  1.00  0.00     0.294 HD
ENDBRANCH  10  23
BRANCH   5  25
ATOM     25  O   UNL     1       0.054  10.124   0.641  1.00  0.00    -0.507 OA
ATOM     26  H   UNL     1      -0.779  10.506   0.209  1.00  0.00     0.293 HD
ENDBRANCH   5  25
BRANCH   7  27
ATOM     27  O   UNL     1       3.889   7.180   0.665  1.00  0.00    -0.507 OA
ATOM     28  H   UNL     1       4.309   7.677   1.441  1.00  0.00     0.293 HD
ENDBRANCH   7  27
TORSDOF 7
ENDMDL
MODEL 8
REMARK VINA RESULT:    -5.938      2.404      4.591
REMARK INTER + INTRA:          -6.984
REMARK INTER:                  -6.663
REMARK INTRA:                  -0.321
REMARK UNBOUND:                 0.343
REMARK SMILES Oc1cc(O)c2cc(O)c(-c3cc(O)c(O)c(O)c3)[o+]c2c1
REMARK SMILES IDX 10 1 20 2 21 3 22 4 2 5 3 6 4 7 6 8 7 9 8 10 11 11 12 12
REMARK SMILES IDX 13 13 19 14 15 15 17 16 14 17 16 19 18 21 9 23 1 25 5 27
REMARK H PARENT 14 18 16 20 18 22 9 24 1 26 5 28
REMARK Flexibility Score: inf
ROOT
ATOM      1  C   UNL     1       1.071   7.158  -2.658  1.00  0.00     0.402 A 
ATOM      2  O   UNL     1       2.138   6.907  -1.900  1.00  0.00    -0.202 OA
ATOM      3  C   UNL     1       2.352   7.499  -0.728  1.00  0.00     0.368 A 
ATOM      4  C   UNL     1       3.495   7.177   0.010  1.00  0.00     0.162 A 
ATOM      5  C   UNL     1       3.731   7.790   1.247  1.00  0.00     0.128 A 
ATOM      6  C   UNL     1       2.820   8.728   1.745  1.00  0.00     0.093 A 
ATOM      7  C   UNL     1       1.670   9.062   1.015  1.00  0.00     0.136 A 
ATOM      8  C   UNL     1       1.432   8.445  -0.228  1.00  0.00     0.125 A 
ATOM      9  C   UNL     1       0.307   8.745  -1.003  1.00  0.00     0.078 A 
ATOM     10  C   UNL     1       0.121   8.109  -2.234  1.00  0.00     0.223 A 
ENDROOT
BRANCH   1  11
ATOM     11  C   UNL     1       0.938   6.428  -3.940  1.00  0.00     0.091 A 
ATOM     12  C   UNL     1       1.825   6.707  -4.987  1.00  0.00     0.068 A 
ATOM     13  C   UNL     1       1.734   6.022  -6.201  1.00  0.00     0.162 A 
ATOM     14  C   UNL     1      -0.024   5.420  -4.111  1.00  0.00     0.068 A 
ATOM     15  C   UNL     1       0.756   5.027  -6.382  1.00  0.00     0.200 A 
ATOM     16  C   UNL     1      -0.128   4.721  -5.319  1.00  0.00     0.162 A 
BRANCH  13  17
ATOM     17  O   UNL     1       2.630   6.344  -7.222  1.00  0.00    -0.504 OA
ATOM     18  H   UNL     1       3.584   6.628  -7.035  1.00  0.00     0.293 HD
ENDBRANCH  13  17
BRANCH  15  19
ATOM     19  O   UNL     1       0.693   4.373  -7.615  1.00  0.00    -0.502 OA
ATOM     20  H   UNL     1       1.429   3.790  -7.988  1.00  0.00     0.293 HD
ENDBRANCH  15  19
BRANCH  16  21
ATOM     21  O   UNL     1      -1.110   3.733  -5.414  1.00  0.00    -0.504 OA
ATOM     22  H   UNL     1      -1.702   3.597  -6.220  1.00  0.00     0.293 HD
ENDBRANCH  16  21
ENDBRANCH   1  11
BRANCH  10  23
ATOM     23  O   UNL     1      -0.972   8.440  -3.035  1.00  0.00    -0.500 OA
ATOM     24  H   UNL     1      -1.919   8.426  -2.674  1.00  0.00     0.294 HD
ENDBRANCH  10  23
BRANCH   5  25
ATOM     25  O   UNL     1       4.866   7.475   1.990  1.00  0.00    -0.507 OA
ATOM     26  H   UNL     1       5.010   7.850   2.921  1.00  0.00     0.293 HD
ENDBRANCH   5  25
BRANCH   7  27
ATOM     27  O   UNL     1       0.770  10.000   1.522  1.00  0.00    -0.507 OA
ATOM     28  H   UNL     1       0.531  10.839   1.007  1.00  0.00     0.293 HD
ENDBRANCH   7  27
TORSDOF 7
ENDMDL
MODEL 9
REMARK VINA RESULT:    -5.770      1.681      7.109
REMARK INTER + INTRA:          -6.777
REMARK INTER:                  -6.394
REMARK INTRA:                  -0.382
REMARK UNBOUND:                 0.343
REMARK SMILES Oc1cc(O)c2cc(O)c(-c3cc(O)c(O)c(O)c3)[o+]c2c1
REMARK SMILES IDX 10 1 20 2 21 3 22 4 2 5 3 6 4 7 6 8 7 9 8 10 11 11 12 12
REMARK SMILES IDX 13 13 19 14 15 15 17 16 14 17 16 19 18 21 9 23 1 25 5 27
REMARK H PARENT 14 18 16 20 18 22 9 24 1 26 5 28
REMARK Flexibility Score: inf
ROOT
ATOM      1  C   UNL     1       0.546   6.127  -4.845  1.00  0.00     0.402 A 
ATOM      2  O   UNL     1       1.391   6.502  -5.803  1.00  0.00    -0.202 OA
ATOM      3  C   UNL     1       1.490   5.876  -6.972  1.00  0.00     0.368 A 
ATOM      4  C   UNL     1       2.400   6.336  -7.929  1.00  0.00     0.162 A 
ATOM      5  C   UNL     1       2.511   5.688  -9.165  1.00  0.00     0.128 A 
ATOM      6  C   UNL     1       1.709   4.576  -9.444  1.00  0.00     0.093 A 
ATOM      7  C   UNL     1       0.792   4.102  -8.494  1.00  0.00     0.136 A 
ATOM      8  C   UNL     1       0.680   4.754  -7.251  1.00  0.00     0.125 A 
ATOM      9  C   UNL     1      -0.210   4.321  -6.263  1.00  0.00     0.078 A 
ATOM     10  C   UNL     1      -0.278   5.000  -5.042  1.00  0.00     0.223 A 
ENDROOT
BRANCH   1  11
ATOM     11  C   UNL     1       0.521   6.910  -3.588  1.00  0.00     0.091 A 
ATOM     12  C   UNL     1       1.496   6.676  -2.610  1.00  0.00     0.068 A 
ATOM     13  C   UNL     1       1.508   7.413  -1.423  1.00  0.00     0.162 A 
ATOM     14  C   UNL     1      -0.426   7.925  -3.378  1.00  0.00     0.068 A 
ATOM     15  C   UNL     1       0.545   8.414  -1.201  1.00  0.00     0.200 A 
ATOM     16  C   UNL     1      -0.428   8.675  -2.196  1.00  0.00     0.162 A 
BRANCH  13  17
ATOM     17  O   UNL     1       2.489   7.134  -0.471  1.00  0.00    -0.504 OA
ATOM     18  H   UNL     1       3.394   7.589  -0.477  1.00  0.00     0.293 HD
ENDBRANCH  13  17
BRANCH  15  19
ATOM     19  O   UNL     1       0.586   9.121   0.004  1.00  0.00    -0.502 OA
ATOM     20  H   UNL     1       0.734   8.694   0.908  1.00  0.00     0.293 HD
ENDBRANCH  15  19
BRANCH  16  21
ATOM     21  O   UNL     1      -1.401   9.667  -2.059  1.00  0.00    -0.504 OA
ATOM     22  H   UNL     1      -1.885  10.099  -2.832  1.00  0.00     0.293 HD
ENDBRANCH  16  21
ENDBRANCH   1  11
BRANCH  10  23
ATOM     23  O   UNL     1      -1.127   4.545  -4.034  1.00  0.00    -0.500 OA
ATOM     24  H   UNL     1      -0.768   4.222  -3.143  1.00  0.00     0.294 HD
ENDBRANCH  10  23
BRANCH   5  25
ATOM     25  O   UNL     1       3.414   6.139 -10.125  1.00  0.00    -0.507 OA
ATOM     26  H   UNL     1       3.109   6.405 -11.054  1.00  0.00     0.293 HD
ENDBRANCH   5  25
BRANCH   7  27
ATOM     27  O   UNL     1      -0.000   2.991  -8.783  1.00  0.00    -0.507 OA
ATOM     28  H   UNL     1      -0.510   2.499  -8.059  1.00  0.00     0.293 HD
ENDBRANCH   7  27
TORSDOF 7
ENDMDL
