MODEL 1
REMARK VINA RESULT:    -4.482      0.000      0.000
REMARK INTER + INTRA:         -17.034
REMARK INTER:                 -11.820
REMARK INTRA:                  -5.214
REMARK UNBOUND:                -5.214
REMARK SMILES CCCCCCCCCCCCCCCCCCCCCCCCCCCCCC(=O)[O-]
REMARK SMILES IDX 16 1 17 2 18 3 19 4 20 5 21 6 22 7 23 8 24 9 25 10 26 11
REMARK SMILES IDX 27 12 28 13 29 14 30 15 31 16 32 17 15 18 14 19 13 20 12 21
REMARK SMILES IDX 11 22 10 23 9 24 8 25 7 26 6 27 5 28 4 29 3 30 2 31 1 32
REMARK H PARENT
REMARK Flexibility Score: inf
ROOT
ATOM      1  C   UNL     1      28.790  31.285  14.589  1.00  0.00     0.000 C 
ENDROOT
BRANCH   1   2
ATOM      2  C   UNL     1      28.108  30.045  13.991  1.00  0.00     0.000 C 
BRANCH   2   3
ATOM      3  C   UNL     1      27.734  30.214  12.509  1.00  0.00     0.000 C 
BRANCH   3   4
ATOM      4  C   UNL     1      28.350  29.179  11.549  1.00  0.00     0.000 C 
BRANCH   4   5
ATOM      5  C   UNL     1      29.425  28.271  12.188  1.00  0.00     0.000 C 
BRANCH   5   6
ATOM      6  C   UNL     1      29.228  26.786  11.830  1.00  0.00     0.000 C 
BRANCH   6   7
ATOM      7  C   UNL     1      29.317  25.854  13.046  1.00  0.00     0.000 C 
BRANCH   7   8
ATOM      8  C   UNL     1      29.337  26.614  14.382  1.00  0.00     0.000 C 
BRANCH   8   9
ATOM      9  C   UNL     1      27.977  26.588  15.097  1.00  0.00     0.000 C 
BRANCH   9  10
ATOM     10  C   UNL     1      27.086  25.386  14.699  1.00  0.00     0.000 C 
BRANCH  10  11
ATOM     11  C   UNL     1      25.747  25.803  14.059  1.00  0.00     0.000 C 
BRANCH  11  12
ATOM     12  C   UNL     1      25.809  27.176  13.366  1.00  0.00     0.000 C 
BRANCH  12  13
ATOM     13  C   UNL     1      24.806  27.307  12.197  1.00  0.00     0.006 C 
BRANCH  13  14
ATOM     14  C   UNL     1      25.463  27.084  10.826  1.00  0.00     0.053 C 
BRANCH  14  15
ATOM     15  C   UNL     1      25.446  25.635  10.444  1.00  0.00     0.041 C 
ATOM     16  O   UNL     1      24.356  25.042  10.226  1.00  0.00    -0.550 OA
ATOM     17  O   UNL     1      26.642  24.932  10.375  1.00  0.00    -0.550 OA
ENDBRANCH  14  15
ENDBRANCH  13  14
ENDBRANCH  12  13
ENDBRANCH  11  12
ENDBRANCH  10  11
ENDBRANCH   9  10
ENDBRANCH   8   9
ENDBRANCH   7   8
ENDBRANCH   6   7
ENDBRANCH   5   6
ENDBRANCH   4   5
ENDBRANCH   3   4
ENDBRANCH   2   3
ENDBRANCH   1   2
BRANCH   1  18
ATOM     18  C   UNL     1      29.385  30.970  15.971  1.00  0.00     0.000 C 
BRANCH  18  19
ATOM     19  C   UNL     1      30.661  31.772  16.278  1.00  0.00     0.000 C 
BRANCH  19  20
ATOM     20  C   UNL     1      31.768  31.623  15.213  1.00  0.00     0.000 C 
BRANCH  20  21
ATOM     21  C   UNL     1      32.531  30.291  15.330  1.00  0.00     0.000 C 
BRANCH  21  22
ATOM     22  C   UNL     1      32.166  29.285  14.224  1.00  0.00     0.000 C 
BRANCH  22  23
ATOM     23  C   UNL     1      32.515  27.818  14.557  1.00  0.00     0.000 C 
BRANCH  23  24
ATOM     24  C   UNL     1      33.967  27.394  14.248  1.00  0.00    -0.000 C 
BRANCH  24  25
ATOM     25  C   UNL     1      34.259  27.017  12.784  1.00  0.00    -0.000 C 
BRANCH  25  26
ATOM     26  C   UNL     1      33.008  26.560  12.016  1.00  0.00    -0.000 C 
BRANCH  26  27
ATOM     27  C   UNL     1      32.792  27.347  10.712  1.00  0.00    -0.000 C 
BRANCH  27  28
ATOM     28  C   UNL     1      33.449  28.735  10.737  1.00  0.00    -0.000 C 
BRANCH  28  29
ATOM     29  C   UNL     1      32.515  29.796  10.137  1.00  0.00    -0.000 C 
BRANCH  29  30
ATOM     30  C   UNL     1      33.062  30.412   8.837  1.00  0.00    -0.000 C 
BRANCH  30  31
ATOM     31  C   UNL     1      33.705  31.800   9.003  1.00  0.00    -0.003 C 
ATOM     32  C   UNL     1      32.770  32.941   8.603  1.00  0.00     0.004 C 
ENDBRANCH  30  31
ENDBRANCH  29  30
ENDBRANCH  28  29
ENDBRANCH  27  28
ENDBRANCH  26  27
ENDBRANCH  25  26
ENDBRANCH  24  25
ENDBRANCH  23  24
ENDBRANCH  22  23
ENDBRANCH  21  22
ENDBRANCH  20  21
ENDBRANCH  19  20
ENDBRANCH  18  19
ENDBRANCH   1  18
TORSDOF 28
ENDMDL
MODEL 2
REMARK VINA RESULT:    -4.474      1.309      3.500
REMARK INTER + INTRA:         -17.012
REMARK INTER:                 -12.088
REMARK INTRA:                  -4.924
REMARK UNBOUND:                -5.214
REMARK SMILES CCCCCCCCCCCCCCCCCCCCCCCCCCCCCC(=O)[O-]
REMARK SMILES IDX 16 1 17 2 18 3 19 4 20 5 21 6 22 7 23 8 24 9 25 10 26 11
REMARK SMILES IDX 27 12 28 13 29 14 30 15 31 16 32 17 15 18 14 19 13 20 12 21
REMARK SMILES IDX 11 22 10 23 9 24 8 25 7 26 6 27 5 28 4 29 3 30 2 31 1 32
REMARK H PARENT
REMARK Flexibility Score: inf
ROOT
ATOM      1  C   UNL     1      31.874  31.274  15.050  1.00  0.00     0.000 C 
ENDROOT
BRANCH   1   2
ATOM      2  C   UNL     1      32.469  29.893  15.367  1.00  0.00     0.000 C 
BRANCH   2   3
ATOM      3  C   UNL     1      32.416  28.922  14.177  1.00  0.00     0.000 C 
BRANCH   3   4
ATOM      4  C   UNL     1      33.549  27.878  14.124  1.00  0.00     0.000 C 
BRANCH   4   5
ATOM      5  C   UNL     1      33.068  26.417  13.973  1.00  0.00     0.000 C 
BRANCH   5   6
ATOM      6  C   UNL     1      32.591  25.815  15.308  1.00  0.00     0.000 C 
BRANCH   6   7
ATOM      7  C   UNL     1      31.163  25.255  15.243  1.00  0.00     0.000 C 
BRANCH   7   8
ATOM      8  C   UNL     1      30.469  25.541  13.901  1.00  0.00     0.000 C 
BRANCH   8   9
ATOM      9  C   UNL     1      29.358  26.596  14.024  1.00  0.00     0.000 C 
BRANCH   9  10
ATOM     10  C   UNL     1      28.500  26.451  15.304  1.00  0.00     0.000 C 
BRANCH  10  11
ATOM     11  C   UNL     1      27.037  26.059  15.018  1.00  0.00     0.000 C 
BRANCH  11  12
ATOM     12  C   UNL     1      26.704  26.016  13.515  1.00  0.00     0.000 C 
BRANCH  12  13
ATOM     13  C   UNL     1      25.470  26.871  13.147  1.00  0.00     0.006 C 
BRANCH  13  14
ATOM     14  C   UNL     1      24.811  26.424  11.834  1.00  0.00     0.053 C 
BRANCH  14  15
ATOM     15  C   UNL     1      24.011  27.533  11.221  1.00  0.00     0.041 C 
ATOM     16  O   UNL     1      22.921  27.898  11.736  1.00  0.00    -0.550 OA
ATOM     17  O   UNL     1      24.456  28.131  10.049  1.00  0.00    -0.550 OA
ENDBRANCH  14  15
ENDBRANCH  13  14
ENDBRANCH  12  13
ENDBRANCH  11  12
ENDBRANCH  10  11
ENDBRANCH   9  10
ENDBRANCH   8   9
ENDBRANCH   7   8
ENDBRANCH   6   7
ENDBRANCH   5   6
ENDBRANCH   4   5
ENDBRANCH   3   4
ENDBRANCH   2   3
ENDBRANCH   1   2
BRANCH   1  18
ATOM     18  C   UNL     1      30.888  31.710  16.145  1.00  0.00     0.000 C 
BRANCH  18  19
ATOM     19  C   UNL     1      29.527  30.999  16.052  1.00  0.00     0.000 C 
BRANCH  19  20
ATOM     20  C   UNL     1      28.791  31.222  14.714  1.00  0.00     0.000 C 
BRANCH  20  21
ATOM     21  C   UNL     1      28.512  29.909  13.962  1.00  0.00     0.000 C 
BRANCH  21  22
ATOM     22  C   UNL     1      27.296  29.995  13.023  1.00  0.00     0.000 C 
BRANCH  22  23
ATOM     23  C   UNL     1      27.647  29.954  11.520  1.00  0.00     0.000 C 
BRANCH  23  24
ATOM     24  C   UNL     1      27.825  28.543  10.917  1.00  0.00    -0.000 C 
BRANCH  24  25
ATOM     25  C   UNL     1      29.144  28.297  10.163  1.00  0.00    -0.000 C 
BRANCH  25  26
ATOM     26  C   UNL     1      30.390  28.662  10.989  1.00  0.00    -0.000 C 
BRANCH  26  27
ATOM     27  C   UNL     1      31.496  27.598  10.896  1.00  0.00    -0.000 C 
BRANCH  27  28
ATOM     28  C   UNL     1      32.812  28.155  10.332  1.00  0.00    -0.000 C 
BRANCH  28  29
ATOM     29  C   UNL     1      32.831  29.690  10.397  1.00  0.00    -0.000 C 
BRANCH  29  30
ATOM     30  C   UNL     1      32.950  30.348   9.011  1.00  0.00    -0.000 C 
BRANCH  30  31
ATOM     31  C   UNL     1      33.680  31.702   9.001  1.00  0.00    -0.003 C 
ATOM     32  C   UNL     1      32.769  32.868   8.616  1.00  0.00     0.004 C 
ENDBRANCH  30  31
ENDBRANCH  29  30
ENDBRANCH  28  29
ENDBRANCH  27  28
ENDBRANCH  26  27
ENDBRANCH  25  26
ENDBRANCH  24  25
ENDBRANCH  23  24
ENDBRANCH  22  23
ENDBRANCH  21  22
ENDBRANCH  20  21
ENDBRANCH  19  20
ENDBRANCH  18  19
ENDBRANCH   1  18
TORSDOF 28
ENDMDL
MODEL 3
REMARK VINA RESULT:    -4.470      1.843      4.141
REMARK INTER + INTRA:         -17.001
REMARK INTER:                 -11.441
REMARK INTRA:                  -5.560
REMARK UNBOUND:                -5.214
REMARK SMILES CCCCCCCCCCCCCCCCCCCCCCCCCCCCCC(=O)[O-]
REMARK SMILES IDX 16 1 17 2 18 3 19 4 20 5 21 6 22 7 23 8 24 9 25 10 26 11
REMARK SMILES IDX 27 12 28 13 29 14 30 15 31 16 32 17 15 18 14 19 13 20 12 21
REMARK SMILES IDX 11 22 10 23 9 24 8 25 7 26 6 27 5 28 4 29 3 30 2 31 1 32
REMARK H PARENT
REMARK Flexibility Score: inf
ROOT
ATOM      1  C   UNL     1      32.336  28.434  14.988  1.00  0.00     0.000 C 
ENDROOT
BRANCH   1   2
ATOM      2  C   UNL     1      33.620  27.591  14.939  1.00  0.00     0.000 C 
BRANCH   2   3
ATOM      3  C   UNL     1      33.351  26.078  14.914  1.00  0.00     0.000 C 
BRANCH   3   4
ATOM      4  C   UNL     1      31.890  25.670  14.641  1.00  0.00     0.000 C 
BRANCH   4   5
ATOM      5  C   UNL     1      31.381  24.492  15.503  1.00  0.00     0.000 C 
BRANCH   5   6
ATOM      6  C   UNL     1      29.861  24.553  15.741  1.00  0.00     0.000 C 
BRANCH   6   7
ATOM      7  C   UNL     1      29.226  25.865  15.260  1.00  0.00     0.000 C 
BRANCH   7   8
ATOM      8  C   UNL     1      27.800  26.072  15.797  1.00  0.00     0.000 C 
BRANCH   8   9
ATOM      9  C   UNL     1      26.775  26.305  14.676  1.00  0.00     0.000 C 
BRANCH   9  10
ATOM     10  C   UNL     1      27.283  25.899  13.271  1.00  0.00     0.000 C 
BRANCH  10  11
ATOM     11  C   UNL     1      26.236  26.107  12.159  1.00  0.00     0.000 C 
BRANCH  11  12
ATOM     12  C   UNL     1      25.159  27.144  12.527  1.00  0.00     0.000 C 
BRANCH  12  13
ATOM     13  C   UNL     1      23.880  27.014  11.669  1.00  0.00     0.006 C 
BRANCH  13  14
ATOM     14  C   UNL     1      23.549  28.303  10.901  1.00  0.00     0.053 C 
BRANCH  14  15
ATOM     15  C   UNL     1      24.686  28.716  10.017  1.00  0.00     0.041 C 
ATOM     16  O   UNL     1      25.222  29.849  10.146  1.00  0.00    -0.550 OA
ATOM     17  O   UNL     1      25.121  27.857   9.015  1.00  0.00    -0.550 OA
ENDBRANCH  14  15
ENDBRANCH  13  14
ENDBRANCH  12  13
ENDBRANCH  11  12
ENDBRANCH  10  11
ENDBRANCH   9  10
ENDBRANCH   8   9
ENDBRANCH   7   8
ENDBRANCH   6   7
ENDBRANCH   5   6
ENDBRANCH   4   5
ENDBRANCH   3   4
ENDBRANCH   2   3
ENDBRANCH   1   2
BRANCH   1  18
ATOM     18  C   UNL     1      32.652  29.891  15.361  1.00  0.00     0.000 C 
BRANCH  18  19
ATOM     19  C   UNL     1      32.004  30.913  14.412  1.00  0.00     0.000 C 
BRANCH  19  20
ATOM     20  C   UNL     1      31.335  32.103  15.131  1.00  0.00     0.000 C 
BRANCH  20  21
ATOM     21  C   UNL     1      30.718  31.710  16.485  1.00  0.00     0.000 C 
BRANCH  21  22
ATOM     22  C   UNL     1      29.490  30.792  16.347  1.00  0.00     0.000 C 
BRANCH  22  23
ATOM     23  C   UNL     1      28.721  30.952  15.017  1.00  0.00     0.000 C 
BRANCH  23  24
ATOM     24  C   UNL     1      28.387  29.636  14.281  1.00  0.00    -0.000 C 
BRANCH  24  25
ATOM     25  C   UNL     1      27.790  29.788  12.870  1.00  0.00    -0.000 C 
BRANCH  25  26
ATOM     26  C   UNL     1      28.608  29.067  11.786  1.00  0.00    -0.000 C 
BRANCH  26  27
ATOM     27  C   UNL     1      29.983  28.601  12.292  1.00  0.00    -0.000 C 
BRANCH  27  28
ATOM     28  C   UNL     1      30.375  27.214  11.761  1.00  0.00    -0.000 C 
BRANCH  28  29
ATOM     29  C   UNL     1      31.768  27.247  11.114  1.00  0.00    -0.000 C 
BRANCH  29  30
ATOM     30  C   UNL     1      32.499  28.583  11.331  1.00  0.00    -0.000 C 
BRANCH  30  31
ATOM     31  C   UNL     1      34.035  28.486  11.321  1.00  0.00    -0.003 C 
ATOM     32  C   UNL     1      34.542  27.048  11.423  1.00  0.00     0.004 C 
ENDBRANCH  30  31
ENDBRANCH  29  30
ENDBRANCH  28  29
ENDBRANCH  27  28
ENDBRANCH  26  27
ENDBRANCH  25  26
ENDBRANCH  24  25
ENDBRANCH  23  24
ENDBRANCH  22  23
ENDBRANCH  21  22
ENDBRANCH  20  21
ENDBRANCH  19  20
ENDBRANCH  18  19
ENDBRANCH   1  18
TORSDOF 28
ENDMDL
MODEL 4
REMARK VINA RESULT:    -4.469      1.601      2.726
REMARK INTER + INTRA:         -16.999
REMARK INTER:                 -11.775
REMARK INTRA:                  -5.225
REMARK UNBOUND:                -5.214
REMARK SMILES CCCCCCCCCCCCCCCCCCCCCCCCCCCCCC(=O)[O-]
REMARK SMILES IDX 16 1 17 2 18 3 19 4 20 5 21 6 22 7 23 8 24 9 25 10 26 11
REMARK SMILES IDX 27 12 28 13 29 14 30 15 31 16 32 17 15 18 14 19 13 20 12 21
REMARK SMILES IDX 11 22 10 23 9 24 8 25 7 26 6 27 5 28 4 29 3 30 2 31 1 32
REMARK H PARENT
REMARK Flexibility Score: inf
ROOT
ATOM      1  C   UNL     1      28.771  29.861  13.898  1.00  0.00     0.000 C 
ENDROOT
BRANCH   1   2
ATOM      2  C   UNL     1      28.760  28.490  14.592  1.00  0.00     0.000 C 
BRANCH   2   3
ATOM      3  C   UNL     1      27.519  27.649  14.254  1.00  0.00     0.000 C 
BRANCH   3   4
ATOM      4  C   UNL     1      27.690  26.125  14.411  1.00  0.00     0.000 C 
BRANCH   4   5
ATOM      5  C   UNL     1      28.437  25.693  15.693  1.00  0.00     0.000 C 
BRANCH   5   6
ATOM      6  C   UNL     1      29.627  24.763  15.393  1.00  0.00     0.000 C 
BRANCH   6   7
ATOM      7  C   UNL     1      30.778  25.470  14.664  1.00  0.00     0.000 C 
BRANCH   7   8
ATOM      8  C   UNL     1      31.311  24.667  13.466  1.00  0.00     0.000 C 
BRANCH   8   9
ATOM      9  C   UNL     1      30.852  25.246  12.118  1.00  0.00     0.000 C 
BRANCH   9  10
ATOM     10  C   UNL     1      30.555  26.764  12.159  1.00  0.00     0.000 C 
BRANCH  10  11
ATOM     11  C   UNL     1      29.483  27.204  11.142  1.00  0.00     0.000 C 
BRANCH  11  12
ATOM     12  C   UNL     1      28.569  26.051  10.688  1.00  0.00     0.000 C 
BRANCH  12  13
ATOM     13  C   UNL     1      27.066  26.402  10.777  1.00  0.00     0.006 C 
BRANCH  13  14
ATOM     14  C   UNL     1      26.756  27.811  10.248  1.00  0.00     0.053 C 
BRANCH  14  15
ATOM     15  C   UNL     1      25.604  28.426  10.983  1.00  0.00     0.041 C 
ATOM     16  O   UNL     1      25.009  27.788  11.892  1.00  0.00    -0.550 OA
ATOM     17  O   UNL     1      25.162  29.693  10.625  1.00  0.00    -0.550 OA
ENDBRANCH  14  15
ENDBRANCH  13  14
ENDBRANCH  12  13
ENDBRANCH  11  12
ENDBRANCH  10  11
ENDBRANCH   9  10
ENDBRANCH   8   9
ENDBRANCH   7   8
ENDBRANCH   6   7
ENDBRANCH   5   6
ENDBRANCH   4   5
ENDBRANCH   3   4
ENDBRANCH   2   3
ENDBRANCH   1   2
BRANCH   1  18
ATOM     18  C   UNL     1      28.669  30.997  14.928  1.00  0.00     0.000 C 
BRANCH  18  19
ATOM     19  C   UNL     1      29.886  31.938  14.914  1.00  0.00     0.000 C 
BRANCH  19  20
ATOM     20  C   UNL     1      30.735  31.887  16.202  1.00  0.00     0.000 C 
BRANCH  20  21
ATOM     21  C   UNL     1      31.413  30.522  16.415  1.00  0.00     0.000 C 
BRANCH  21  22
ATOM     22  C   UNL     1      32.474  30.200  15.348  1.00  0.00     0.000 C 
BRANCH  22  23
ATOM     23  C   UNL     1      32.324  28.805  14.701  1.00  0.00     0.000 C 
BRANCH  23  24
ATOM     24  C   UNL     1      33.573  27.900  14.777  1.00  0.00    -0.000 C 
BRANCH  24  25
ATOM     25  C   UNL     1      34.035  27.281  13.446  1.00  0.00    -0.000 C 
BRANCH  25  26
ATOM     26  C   UNL     1      33.737  28.172  12.229  1.00  0.00    -0.000 C 
BRANCH  26  27
ATOM     27  C   UNL     1      34.170  27.527  10.901  1.00  0.00    -0.000 C 
BRANCH  27  28
ATOM     28  C   UNL     1      33.626  28.271   9.672  1.00  0.00    -0.000 C 
BRANCH  28  29
ATOM     29  C   UNL     1      32.883  29.550  10.089  1.00  0.00    -0.000 C 
BRANCH  29  30
ATOM     30  C   UNL     1      32.683  30.535   8.925  1.00  0.00    -0.000 C 
BRANCH  30  31
ATOM     31  C   UNL     1      33.569  31.791   8.983  1.00  0.00    -0.003 C 
ATOM     32  C   UNL     1      32.814  33.071   8.626  1.00  0.00     0.004 C 
ENDBRANCH  30  31
ENDBRANCH  29  30
ENDBRANCH  28  29
ENDBRANCH  27  28
ENDBRANCH  26  27
ENDBRANCH  25  26
ENDBRANCH  24  25
ENDBRANCH  23  24
ENDBRANCH  22  23
ENDBRANCH  21  22
ENDBRANCH  20  21
ENDBRANCH  19  20
ENDBRANCH  18  19
ENDBRANCH   1  18
TORSDOF 28
ENDMDL
MODEL 5
REMARK VINA RESULT:    -4.467      2.044      4.094
REMARK INTER + INTRA:         -16.993
REMARK INTER:                 -11.988
REMARK INTRA:                  -5.006
REMARK UNBOUND:                -5.214
REMARK SMILES CCCCCCCCCCCCCCCCCCCCCCCCCCCCCC(=O)[O-]
REMARK SMILES IDX 16 1 17 2 18 3 19 4 20 5 21 6 22 7 23 8 24 9 25 10 26 11
REMARK SMILES IDX 27 12 28 13 29 14 30 15 31 16 32 17 15 18 14 19 13 20 12 21
REMARK SMILES IDX 11 22 10 23 9 24 8 25 7 26 6 27 5 28 4 29 3 30 2 31 1 32
REMARK H PARENT
REMARK Flexibility Score: inf
ROOT
ATOM      1  C   UNL     1      32.677  30.033  15.505  1.00  0.00     0.000 C 
ENDROOT
BRANCH   1   2
ATOM      2  C   UNL     1      32.074  31.168  14.664  1.00  0.00     0.000 C 
BRANCH   2   3
ATOM      3  C   UNL     1      31.164  32.106  15.474  1.00  0.00     0.000 C 
BRANCH   3   4
ATOM      4  C   UNL     1      30.291  31.420  16.543  1.00  0.00     0.000 C 
BRANCH   4   5
ATOM      5  C   UNL     1      29.207  30.476  15.976  1.00  0.00     0.000 C 
BRANCH   5   6
ATOM      6  C   UNL     1      28.550  31.036  14.700  1.00  0.00     0.000 C 
BRANCH   6   7
ATOM      7  C   UNL     1      28.287  29.962  13.635  1.00  0.00     0.000 C 
BRANCH   7   8
ATOM      8  C   UNL     1      27.104  30.309  12.716  1.00  0.00     0.000 C 
BRANCH   8   9
ATOM      9  C   UNL     1      27.043  29.412  11.469  1.00  0.00     0.000 C 
BRANCH   9  10
ATOM     10  C   UNL     1      27.882  28.117  11.590  1.00  0.00     0.000 C 
BRANCH  10  11
ATOM     11  C   UNL     1      27.028  26.855  11.828  1.00  0.00     0.000 C 
BRANCH  11  12
ATOM     12  C   UNL     1      27.523  26.003  13.011  1.00  0.00     0.000 C 
BRANCH  12  13
ATOM     13  C   UNL     1      27.161  26.613  14.385  1.00  0.00     0.006 C 
BRANCH  13  14
ATOM     14  C   UNL     1      28.265  26.407  15.432  1.00  0.00     0.053 C 
BRANCH  14  15
ATOM     15  C   UNL     1      27.973  25.223  16.303  1.00  0.00     0.041 C 
ATOM     16  O   UNL     1      28.285  24.060  15.931  1.00  0.00    -0.550 OA
ATOM     17  O   UNL     1      27.312  25.407  17.511  1.00  0.00    -0.550 OA
ENDBRANCH  14  15
ENDBRANCH  13  14
ENDBRANCH  12  13
ENDBRANCH  11  12
ENDBRANCH  10  11
ENDBRANCH   9  10
ENDBRANCH   8   9
ENDBRANCH   7   8
ENDBRANCH   6   7
ENDBRANCH   5   6
ENDBRANCH   4   5
ENDBRANCH   3   4
ENDBRANCH   2   3
ENDBRANCH   1   2
BRANCH   1  18
ATOM     18  C   UNL     1      32.879  28.769  14.654  1.00  0.00     0.000 C 
BRANCH  18  19
ATOM     19  C   UNL     1      31.606  27.917  14.522  1.00  0.00     0.000 C 
BRANCH  19  20
ATOM     20  C   UNL     1      30.998  27.911  13.104  1.00  0.00     0.000 C 
BRANCH  20  21
ATOM     21  C   UNL     1      31.165  26.558  12.391  1.00  0.00     0.000 C 
BRANCH  21  22
ATOM     22  C   UNL     1      32.077  25.580  13.153  1.00  0.00     0.000 C 
BRANCH  22  23
ATOM     23  C   UNL     1      33.392  25.233  12.421  1.00  0.00     0.000 C 
BRANCH  23  24
ATOM     24  C   UNL     1      34.610  26.108  12.794  1.00  0.00    -0.000 C 
BRANCH  24  25
ATOM     25  C   UNL     1      34.800  27.385  11.957  1.00  0.00    -0.000 C 
BRANCH  25  26
ATOM     26  C   UNL     1      34.873  27.112  10.445  1.00  0.00    -0.000 C 
BRANCH  26  27
ATOM     27  C   UNL     1      34.071  28.131   9.618  1.00  0.00    -0.000 C 
BRANCH  27  28
ATOM     28  C   UNL     1      33.220  29.067  10.489  1.00  0.00    -0.000 C 
BRANCH  28  29
ATOM     29  C   UNL     1      32.285  29.924   9.622  1.00  0.00    -0.000 C 
BRANCH  29  30
ATOM     30  C   UNL     1      32.932  30.368   8.299  1.00  0.00    -0.000 C 
BRANCH  30  31
ATOM     31  C   UNL     1      33.758  31.663   8.387  1.00  0.00    -0.003 C 
ATOM     32  C   UNL     1      32.946  32.855   8.893  1.00  0.00     0.004 C 
ENDBRANCH  30  31
ENDBRANCH  29  30
ENDBRANCH  28  29
ENDBRANCH  27  28
ENDBRANCH  26  27
ENDBRANCH  25  26
ENDBRANCH  24  25
ENDBRANCH  23  24
ENDBRANCH  22  23
ENDBRANCH  21  22
ENDBRANCH  20  21
ENDBRANCH  19  20
ENDBRANCH  18  19
ENDBRANCH   1  18
TORSDOF 28
ENDMDL
MODEL 6
REMARK VINA RESULT:    -4.458      1.857      4.016
REMARK INTER + INTRA:         -16.971
REMARK INTER:                 -11.108
REMARK INTRA:                  -5.863
REMARK UNBOUND:                -5.214
REMARK SMILES CCCCCCCCCCCCCCCCCCCCCCCCCCCCCC(=O)[O-]
REMARK SMILES IDX 16 1 17 2 18 3 19 4 20 5 21 6 22 7 23 8 24 9 25 10 26 11
REMARK SMILES IDX 27 12 28 13 29 14 30 15 31 16 32 17 15 18 14 19 13 20 12 21
REMARK SMILES IDX 11 22 10 23 9 24 8 25 7 26 6 27 5 28 4 29 3 30 2 31 1 32
REMARK H PARENT
REMARK Flexibility Score: inf
ROOT
ATOM      1  C   UNL     1      31.944  31.287  15.117  1.00  0.00     0.000 C 
ENDROOT
BRANCH   1   2
ATOM      2  C   UNL     1      32.498  29.896  15.464  1.00  0.00     0.000 C 
BRANCH   2   3
ATOM      3  C   UNL     1      32.552  28.947  14.257  1.00  0.00     0.000 C 
BRANCH   3   4
ATOM      4  C   UNL     1      31.465  29.173  13.188  1.00  0.00     0.000 C 
BRANCH   4   5
ATOM      5  C   UNL     1      30.611  27.926  12.867  1.00  0.00     0.000 C 
BRANCH   5   6
ATOM      6  C   UNL     1      29.993  27.298  14.130  1.00  0.00     0.000 C 
BRANCH   6   7
ATOM      7  C   UNL     1      28.702  26.517  13.847  1.00  0.00     0.000 C 
BRANCH   7   8
ATOM      8  C   UNL     1      27.764  26.451  15.063  1.00  0.00     0.000 C 
BRANCH   8   9
ATOM      9  C   UNL     1      26.279  26.475  14.665  1.00  0.00     0.000 C 
BRANCH   9  10
ATOM     10  C   UNL     1      25.957  25.632  13.408  1.00  0.00     0.000 C 
BRANCH  10  11
ATOM     11  C   UNL     1      24.640  26.042  12.718  1.00  0.00     0.000 C 
BRANCH  11  12
ATOM     12  C   UNL     1      24.641  25.773  11.202  1.00  0.00     0.000 C 
BRANCH  12  13
ATOM     13  C   UNL     1      23.607  26.630  10.437  1.00  0.00     0.006 C 
BRANCH  13  14
ATOM     14  C   UNL     1      23.047  27.779  11.289  1.00  0.00     0.053 C 
BRANCH  14  15
ATOM     15  C   UNL     1      22.793  28.999  10.456  1.00  0.00     0.041 C 
ATOM     16  O   UNL     1      23.527  29.265   9.467  1.00  0.00    -0.550 OA
ATOM     17  O   UNL     1      21.767  29.867  10.808  1.00  0.00    -0.550 OA
ENDBRANCH  14  15
ENDBRANCH  13  14
ENDBRANCH  12  13
ENDBRANCH  11  12
ENDBRANCH  10  11
ENDBRANCH   9  10
ENDBRANCH   8   9
ENDBRANCH   7   8
ENDBRANCH   6   7
ENDBRANCH   5   6
ENDBRANCH   4   5
ENDBRANCH   3   4
ENDBRANCH   2   3
ENDBRANCH   1   2
BRANCH   1  18
ATOM     18  C   UNL     1      30.878  31.721  16.136  1.00  0.00     0.000 C 
BRANCH  18  19
ATOM     19  C   UNL     1      29.536  30.993  15.955  1.00  0.00     0.000 C 
BRANCH  19  20
ATOM     20  C   UNL     1      28.808  31.333  14.638  1.00  0.00     0.000 C 
BRANCH  20  21
ATOM     21  C   UNL     1      27.898  30.192  14.149  1.00  0.00     0.000 C 
BRANCH  21  22
ATOM     22  C   UNL     1      27.626  30.240  12.635  1.00  0.00     0.000 C 
BRANCH  22  23
ATOM     23  C   UNL     1      26.648  29.158  12.128  1.00  0.00     0.000 C 
BRANCH  23  24
ATOM     24  C   UNL     1      26.828  28.737  10.653  1.00  0.00    -0.000 C 
BRANCH  24  25
ATOM     25  C   UNL     1      27.857  27.622  10.395  1.00  0.00    -0.000 C 
BRANCH  25  26
ATOM     26  C   UNL     1      28.881  27.984   9.305  1.00  0.00    -0.000 C 
BRANCH  26  27
ATOM     27  C   UNL     1      29.774  29.171   9.701  1.00  0.00    -0.000 C 
BRANCH  27  28
ATOM     28  C   UNL     1      30.436  29.848   8.492  1.00  0.00    -0.000 C 
BRANCH  28  29
ATOM     29  C   UNL     1      31.941  29.541   8.446  1.00  0.00    -0.000 C 
BRANCH  29  30
ATOM     30  C   UNL     1      32.685  29.994   9.714  1.00  0.00    -0.000 C 
BRANCH  30  31
ATOM     31  C   UNL     1      33.646  28.949  10.306  1.00  0.00    -0.003 C 
ATOM     32  C   UNL     1      33.159  27.513  10.110  1.00  0.00     0.004 C 
ENDBRANCH  30  31
ENDBRANCH  29  30
ENDBRANCH  28  29
ENDBRANCH  27  28
ENDBRANCH  26  27
ENDBRANCH  25  26
ENDBRANCH  24  25
ENDBRANCH  23  24
ENDBRANCH  22  23
ENDBRANCH  21  22
ENDBRANCH  20  21
ENDBRANCH  19  20
ENDBRANCH  18  19
ENDBRANCH   1  18
TORSDOF 28
ENDMDL
MODEL 7
REMARK VINA RESULT:    -4.449      2.354      6.800
REMARK INTER + INTRA:         -16.947
REMARK INTER:                 -11.427
REMARK INTRA:                  -5.520
REMARK UNBOUND:                -5.214
REMARK SMILES CCCCCCCCCCCCCCCCCCCCCCCCCCCCCC(=O)[O-]
REMARK SMILES IDX 16 1 17 2 18 3 19 4 20 5 21 6 22 7 23 8 24 9 25 10 26 11
REMARK SMILES IDX 27 12 28 13 29 14 30 15 31 16 32 17 15 18 14 19 13 20 12 21
REMARK SMILES IDX 11 22 10 23 9 24 8 25 7 26 6 27 5 28 4 29 3 30 2 31 1 32
REMARK H PARENT
REMARK Flexibility Score: inf
ROOT
ATOM      1  C   UNL     1      29.521  30.994  16.133  1.00  0.00     0.000 C 
ENDROOT
BRANCH   1   2
ATOM      2  C   UNL     1      30.767  31.893  16.146  1.00  0.00     0.000 C 
BRANCH   2   3
ATOM      3  C   UNL     1      31.750  31.584  15.005  1.00  0.00     0.000 C 
BRANCH   3   4
ATOM      4  C   UNL     1      32.463  30.221  15.097  1.00  0.00     0.000 C 
BRANCH   4   5
ATOM      5  C   UNL     1      32.068  29.214  13.993  1.00  0.00     0.000 C 
BRANCH   5   6
ATOM      6  C   UNL     1      31.716  27.827  14.563  1.00  0.00     0.000 C 
BRANCH   6   7
ATOM      7  C   UNL     1      32.876  27.176  15.328  1.00  0.00     0.000 C 
BRANCH   7   8
ATOM      8  C   UNL     1      33.499  25.989  14.575  1.00  0.00     0.000 C 
BRANCH   8   9
ATOM      9  C   UNL     1      32.819  25.728  13.220  1.00  0.00     0.000 C 
BRANCH   9  10
ATOM     10  C   UNL     1      33.751  25.942  12.003  1.00  0.00     0.000 C 
BRANCH  10  11
ATOM     11  C   UNL     1      34.617  27.213  12.113  1.00  0.00     0.000 C 
BRANCH  11  12
ATOM     12  C   UNL     1      34.540  28.108  10.862  1.00  0.00     0.000 C 
BRANCH  12  13
ATOM     13  C   UNL     1      33.088  28.374  10.401  1.00  0.00     0.006 C 
BRANCH  13  14
ATOM     14  C   UNL     1      32.859  29.834   9.982  1.00  0.00     0.053 C 
BRANCH  14  15
ATOM     15  C   UNL     1      32.055  29.918   8.721  1.00  0.00     0.041 C 
ATOM     16  O   UNL     1      31.697  31.035   8.260  1.00  0.00    -0.550 OA
ATOM     17  O   UNL     1      31.662  28.749   8.080  1.00  0.00    -0.550 OA
ENDBRANCH  14  15
ENDBRANCH  13  14
ENDBRANCH  12  13
ENDBRANCH  11  12
ENDBRANCH  10  11
ENDBRANCH   9  10
ENDBRANCH   8   9
ENDBRANCH   7   8
ENDBRANCH   6   7
ENDBRANCH   5   6
ENDBRANCH   4   5
ENDBRANCH   3   4
ENDBRANCH   2   3
ENDBRANCH   1   2
BRANCH   1  18
ATOM     18  C   UNL     1      28.799  31.078  14.779  1.00  0.00     0.000 C 
BRANCH  18  19
ATOM     19  C   UNL     1      28.405  29.703  14.216  1.00  0.00     0.000 C 
BRANCH  19  20
ATOM     20  C   UNL     1      27.179  29.734  13.279  1.00  0.00     0.000 C 
BRANCH  20  21
ATOM     21  C   UNL     1      27.520  30.250  11.870  1.00  0.00     0.000 C 
BRANCH  21  22
ATOM     22  C   UNL     1      26.972  29.353  10.746  1.00  0.00     0.000 C 
BRANCH  22  23
ATOM     23  C   UNL     1      28.013  28.390  10.134  1.00  0.00     0.000 C 
BRANCH  23  24
ATOM     24  C   UNL     1      29.405  28.405  10.803  1.00  0.00    -0.000 C 
BRANCH  24  25
ATOM     25  C   UNL     1      29.699  27.243  11.769  1.00  0.00    -0.000 C 
BRANCH  25  26
ATOM     26  C   UNL     1      28.959  25.947  11.398  1.00  0.00    -0.000 C 
BRANCH  26  27
ATOM     27  C   UNL     1      28.190  25.343  12.585  1.00  0.00    -0.000 C 
BRANCH  27  28
ATOM     28  C   UNL     1      26.999  26.208  13.026  1.00  0.00    -0.000 C 
BRANCH  28  29
ATOM     29  C   UNL     1      26.925  26.300  14.558  1.00  0.00    -0.000 C 
BRANCH  29  30
ATOM     30  C   UNL     1      28.286  26.077  15.239  1.00  0.00    -0.000 C 
BRANCH  30  31
ATOM     31  C   UNL     1      28.276  25.040  16.377  1.00  0.00    -0.003 C 
ATOM     32  C   UNL     1      27.239  25.350  17.456  1.00  0.00     0.004 C 
ENDBRANCH  30  31
ENDBRANCH  29  30
ENDBRANCH  28  29
ENDBRANCH  27  28
ENDBRANCH  26  27
ENDBRANCH  25  26
ENDBRANCH  24  25
ENDBRANCH  23  24
ENDBRANCH  22  23
ENDBRANCH  21  22
ENDBRANCH  20  21
ENDBRANCH  19  20
ENDBRANCH  18  19
ENDBRANCH   1  18
TORSDOF 28
ENDMDL
MODEL 8
REMARK VINA RESULT:    -4.386      1.423      2.233
REMARK INTER + INTRA:         -16.781
REMARK INTER:                 -11.668
REMARK INTRA:                  -5.113
REMARK UNBOUND:                -5.214
REMARK SMILES CCCCCCCCCCCCCCCCCCCCCCCCCCCCCC(=O)[O-]
REMARK SMILES IDX 16 1 17 2 18 3 19 4 20 5 21 6 22 7 23 8 24 9 25 10 26 11
REMARK SMILES IDX 27 12 28 13 29 14 30 15 31 16 32 17 15 18 14 19 13 20 12 21
REMARK SMILES IDX 11 22 10 23 9 24 8 25 7 26 6 27 5 28 4 29 3 30 2 31 1 32
REMARK H PARENT
REMARK Flexibility Score: inf
ROOT
ATOM      1  C   UNL     1      28.131  29.398  13.067  1.00  0.00     0.000 C 
ENDROOT
BRANCH   1   2
ATOM      2  C   UNL     1      29.054  28.780  12.005  1.00  0.00     0.000 C 
BRANCH   2   3
ATOM      3  C   UNL     1      28.338  27.774  11.090  1.00  0.00     0.000 C 
BRANCH   3   4
ATOM      4  C   UNL     1      28.824  26.316  11.203  1.00  0.00     0.000 C 
BRANCH   4   5
ATOM      5  C   UNL     1      30.185  26.146  11.915  1.00  0.00     0.000 C 
BRANCH   5   6
ATOM      6  C   UNL     1      30.130  25.098  13.043  1.00  0.00     0.000 C 
BRANCH   6   7
ATOM      7  C   UNL     1      30.343  25.701  14.439  1.00  0.00     0.000 C 
BRANCH   7   8
ATOM      8  C   UNL     1      29.194  25.380  15.409  1.00  0.00     0.000 C 
BRANCH   8   9
ATOM      9  C   UNL     1      28.173  26.525  15.513  1.00  0.00     0.000 C 
BRANCH   9  10
ATOM     10  C   UNL     1      26.757  26.144  15.018  1.00  0.00     0.000 C 
BRANCH  10  11
ATOM     11  C   UNL     1      26.735  24.870  14.150  1.00  0.00     0.000 C 
BRANCH  11  12
ATOM     12  C   UNL     1      25.745  24.955  12.974  1.00  0.00     0.000 C 
BRANCH  12  13
ATOM     13  C   UNL     1      25.162  26.373  12.779  1.00  0.00     0.006 C 
BRANCH  13  14
ATOM     14  C   UNL     1      24.056  26.416  11.714  1.00  0.00     0.053 C 
BRANCH  14  15
ATOM     15  C   UNL     1      23.757  27.825  11.298  1.00  0.00     0.041 C 
ATOM     16  O   UNL     1      24.672  28.573  10.862  1.00  0.00    -0.550 OA
ATOM     17  O   UNL     1      22.467  28.321  11.439  1.00  0.00    -0.550 OA
ENDBRANCH  14  15
ENDBRANCH  13  14
ENDBRANCH  12  13
ENDBRANCH  11  12
ENDBRANCH  10  11
ENDBRANCH   9  10
ENDBRANCH   8   9
ENDBRANCH   7   8
ENDBRANCH   6   7
ENDBRANCH   5   6
ENDBRANCH   4   5
ENDBRANCH   3   4
ENDBRANCH   2   3
ENDBRANCH   1   2
BRANCH   1  18
ATOM     18  C   UNL     1      28.863  29.547  14.410  1.00  0.00     0.000 C 
BRANCH  18  19
ATOM     19  C   UNL     1      28.752  30.960  15.007  1.00  0.00     0.000 C 
BRANCH  19  20
ATOM     20  C   UNL     1      29.809  31.270  16.088  1.00  0.00     0.000 C 
BRANCH  20  21
ATOM     21  C   UNL     1      31.007  32.065  15.538  1.00  0.00     0.000 C 
BRANCH  21  22
ATOM     22  C   UNL     1      32.136  31.166  15.003  1.00  0.00     0.000 C 
BRANCH  22  23
ATOM     23  C   UNL     1      32.346  29.862  15.804  1.00  0.00     0.000 C 
BRANCH  23  24
ATOM     24  C   UNL     1      32.547  28.587  14.955  1.00  0.00    -0.000 C 
BRANCH  24  25
ATOM     25  C   UNL     1      32.472  28.777  13.430  1.00  0.00    -0.000 C 
BRANCH  25  26
ATOM     26  C   UNL     1      33.365  27.794  12.653  1.00  0.00    -0.000 C 
BRANCH  26  27
ATOM     27  C   UNL     1      33.821  28.353  11.294  1.00  0.00    -0.000 C 
BRANCH  27  28
ATOM     28  C   UNL     1      32.937  27.880  10.130  1.00  0.00    -0.000 C 
BRANCH  28  29
ATOM     29  C   UNL     1      32.255  29.071   9.439  1.00  0.00    -0.000 C 
BRANCH  29  30
ATOM     30  C   UNL     1      32.978  30.405   9.691  1.00  0.00    -0.000 C 
BRANCH  30  31
ATOM     31  C   UNL     1      33.033  31.348   8.476  1.00  0.00    -0.003 C 
ATOM     32  C   UNL     1      32.997  32.826   8.866  1.00  0.00     0.004 C 
ENDBRANCH  30  31
ENDBRANCH  29  30
ENDBRANCH  28  29
ENDBRANCH  27  28
ENDBRANCH  26  27
ENDBRANCH  25  26
ENDBRANCH  24  25
ENDBRANCH  23  24
ENDBRANCH  22  23
ENDBRANCH  21  22
ENDBRANCH  20  21
ENDBRANCH  19  20
ENDBRANCH  18  19
ENDBRANCH   1  18
TORSDOF 28
ENDMDL
MODEL 9
REMARK VINA RESULT:    -4.365      2.622      6.662
REMARK INTER + INTRA:         -16.723
REMARK INTER:                 -10.727
REMARK INTRA:                  -5.996
REMARK UNBOUND:                -5.214
REMARK SMILES CCCCCCCCCCCCCCCCCCCCCCCCCCCCCC(=O)[O-]
REMARK SMILES IDX 16 1 17 2 18 3 19 4 20 5 21 6 22 7 23 8 24 9 25 10 26 11
REMARK SMILES IDX 27 12 28 13 29 14 30 15 31 16 32 17 15 18 14 19 13 20 12 21
REMARK SMILES IDX 11 22 10 23 9 24 8 25 7 26 6 27 5 28 4 29 3 30 2 31 1 32
REMARK H PARENT
REMARK Flexibility Score: inf
ROOT
ATOM      1  C   UNL     1      32.515  29.028  14.195  1.00  0.00     0.000 C 
ENDROOT
BRANCH   1   2
ATOM      2  C   UNL     1      33.644  27.994  14.317  1.00  0.00     0.000 C 
BRANCH   2   3
ATOM      3  C   UNL     1      33.277  26.798  15.211  1.00  0.00     0.000 C 
BRANCH   3   4
ATOM      4  C   UNL     1      31.855  26.237  15.015  1.00  0.00     0.000 C 
BRANCH   4   5
ATOM      5  C   UNL     1      31.756  24.698  15.098  1.00  0.00     0.000 C 
BRANCH   5   6
ATOM      6  C   UNL     1      31.025  24.090  13.887  1.00  0.00     0.000 C 
BRANCH   6   7
ATOM      7  C   UNL     1      31.096  24.972  12.633  1.00  0.00     0.000 C 
BRANCH   7   8
ATOM      8  C   UNL     1      29.722  25.198  11.982  1.00  0.00     0.000 C 
BRANCH   8   9
ATOM      9  C   UNL     1      29.546  26.633  11.459  1.00  0.00     0.000 C 
BRANCH   9  10
ATOM     10  C   UNL     1      30.830  27.492  11.550  1.00  0.00     0.000 C 
BRANCH  10  11
ATOM     11  C   UNL     1      31.107  28.316  10.277  1.00  0.00     0.000 C 
BRANCH  11  12
ATOM     12  C   UNL     1      32.101  29.470  10.505  1.00  0.00     0.000 C 
BRANCH  12  13
ATOM     13  C   UNL     1      33.500  29.185   9.911  1.00  0.00     0.006 C 
BRANCH  13  14
ATOM     14  C   UNL     1      34.394  28.378  10.864  1.00  0.00     0.053 C 
BRANCH  14  15
ATOM     15  C   UNL     1      34.714  27.028  10.296  1.00  0.00     0.041 C 
ATOM     16  O   UNL     1      35.544  26.908   9.356  1.00  0.00    -0.550 OA
ATOM     17  O   UNL     1      34.053  25.907  10.782  1.00  0.00    -0.550 OA
ENDBRANCH  14  15
ENDBRANCH  13  14
ENDBRANCH  12  13
ENDBRANCH  11  12
ENDBRANCH  10  11
ENDBRANCH   9  10
ENDBRANCH   8   9
ENDBRANCH   7   8
ENDBRANCH   6   7
ENDBRANCH   5   6
ENDBRANCH   4   5
ENDBRANCH   3   4
ENDBRANCH   2   3
ENDBRANCH   1   2
BRANCH   1  18
ATOM     18  C   UNL     1      32.501  29.970  15.409  1.00  0.00     0.000 C 
BRANCH  18  19
ATOM     19  C   UNL     1      31.843  31.329  15.114  1.00  0.00     0.000 C 
BRANCH  19  20
ATOM     20  C   UNL     1      30.756  31.734  16.133  1.00  0.00     0.000 C 
BRANCH  20  21
ATOM     21  C   UNL     1      29.491  30.864  16.031  1.00  0.00     0.000 C 
BRANCH  21  22
ATOM     22  C   UNL     1      28.792  30.968  14.664  1.00  0.00     0.000 C 
BRANCH  22  23
ATOM     23  C   UNL     1      28.728  29.639  13.879  1.00  0.00     0.000 C 
BRANCH  23  24
ATOM     24  C   UNL     1      29.022  28.367  14.703  1.00  0.00    -0.000 C 
BRANCH  24  25
ATOM     25  C   UNL     1      27.911  27.301  14.711  1.00  0.00    -0.000 C 
BRANCH  25  26
ATOM     26  C   UNL     1      28.269  26.061  15.547  1.00  0.00    -0.000 C 
BRANCH  26  27
ATOM     27  C   UNL     1      27.536  24.794  15.073  1.00  0.00    -0.000 C 
BRANCH  27  28
ATOM     28  C   UNL     1      26.214  25.105  14.356  1.00  0.00    -0.000 C 
BRANCH  28  29
ATOM     29  C   UNL     1      26.216  24.535  12.930  1.00  0.00    -0.000 C 
BRANCH  29  30
ATOM     30  C   UNL     1      25.864  25.586  11.863  1.00  0.00    -0.000 C 
BRANCH  30  31
ATOM     31  C   UNL     1      25.209  26.866  12.410  1.00  0.00    -0.003 C 
ATOM     32  C   UNL     1      25.810  28.142  11.820  1.00  0.00     0.004 C 
ENDBRANCH  30  31
ENDBRANCH  29  30
ENDBRANCH  28  29
ENDBRANCH  27  28
ENDBRANCH  26  27
ENDBRANCH  25  26
ENDBRANCH  24  25
ENDBRANCH  23  24
ENDBRANCH  22  23
ENDBRANCH  21  22
ENDBRANCH  20  21
ENDBRANCH  19  20
ENDBRANCH  18  19
ENDBRANCH   1  18
TORSDOF 28
ENDMDL
