MODEL 1
REMARK VINA RESULT:    -3.954      0.000      0.000
REMARK INTER + INTRA:         -15.247
REMARK INTER:                  -9.963
REMARK INTRA:                  -5.284
REMARK UNBOUND:                -5.284
REMARK SMILES CCCCCCCCCCCCCCCCCCCCCCCCCCCC(=O)[O-]
REMARK SMILES IDX 15 1 16 2 17 3 18 4 19 5 20 6 21 7 22 8 23 9 24 10 25 11
REMARK SMILES IDX 26 12 27 13 28 14 29 15 30 16 14 17 13 18 12 19 11 20 10 21
REMARK SMILES IDX 9 22 8 23 7 24 6 25 5 26 4 27 3 28 2 29 1 30
REMARK H PARENT
REMARK Flexibility Score: inf
ROOT
ATOM      1  C   UNL     1      -4.739  44.293  20.720  1.00  0.00     0.000 C 
ENDROOT
BRANCH   1   2
ATOM      2  C   UNL     1      -3.635  45.211  21.277  1.00  0.00     0.000 C 
BRANCH   2   3
ATOM      3  C   UNL     1      -3.996  45.790  22.659  1.00  0.00     0.000 C 
BRANCH   3   4
ATOM      4  C   UNL     1      -3.247  45.123  23.832  1.00  0.00     0.000 C 
BRANCH   4   5
ATOM      5  C   UNL     1      -1.797  44.717  23.496  1.00  0.00     0.000 C 
BRANCH   5   6
ATOM      6  C   UNL     1      -1.133  43.813  24.555  1.00  0.00     0.000 C 
BRANCH   6   7
ATOM      7  C   UNL     1      -2.117  43.336  25.639  1.00  0.00     0.000 C 
BRANCH   7   8
ATOM      8  C   UNL     1      -1.817  41.909  26.129  1.00  0.00     0.000 C 
BRANCH   8   9
ATOM      9  C   UNL     1      -1.132  41.047  25.055  1.00  0.00     0.000 C 
BRANCH   9  10
ATOM     10  C   UNL     1      -2.141  40.332  24.143  1.00  0.00     0.000 C 
BRANCH  10  11
ATOM     11  C   UNL     1      -2.018  40.762  22.670  1.00  0.00     0.000 C 
BRANCH  11  12
ATOM     12  C   UNL     1      -3.330  41.332  22.112  1.00  0.00     0.006 C 
BRANCH  12  13
ATOM     13  C   UNL     1      -4.364  41.613  23.210  1.00  0.00     0.053 C 
BRANCH  13  14
ATOM     14  C   UNL     1      -5.660  40.937  22.889  1.00  0.00     0.041 C 
ATOM     15  O   UNL     1      -6.001  40.756  21.690  1.00  0.00    -0.550 OA
ATOM     16  O   UNL     1      -6.467  40.464  23.915  1.00  0.00    -0.550 OA
ENDBRANCH  13  14
ENDBRANCH  12  13
ENDBRANCH  11  12
ENDBRANCH  10  11
ENDBRANCH   9  10
ENDBRANCH   8   9
ENDBRANCH   7   8
ENDBRANCH   6   7
ENDBRANCH   5   6
ENDBRANCH   4   5
ENDBRANCH   3   4
ENDBRANCH   2   3
ENDBRANCH   1   2
BRANCH   1  17
ATOM     17  C   UNL     1      -4.735  44.231  19.184  1.00  0.00     0.000 C 
BRANCH  17  18
ATOM     18  C   UNL     1      -3.954  43.023  18.642  1.00  0.00     0.000 C 
BRANCH  18  19
ATOM     19  C   UNL     1      -2.952  43.465  17.566  1.00  0.00     0.000 C 
BRANCH  19  20
ATOM     20  C   UNL     1      -1.775  44.234  18.184  1.00  0.00     0.000 C 
BRANCH  20  21
ATOM     21  C   UNL     1      -0.723  43.302  18.811  1.00  0.00     0.000 C 
BRANCH  21  22
ATOM     22  C   UNL     1      -0.688  43.297  20.355  1.00  0.00    -0.000 C 
BRANCH  22  23
ATOM     23  C   UNL     1       0.722  43.314  20.976  1.00  0.00    -0.000 C 
BRANCH  23  24
ATOM     24  C   UNL     1       1.135  41.951  21.551  1.00  0.00    -0.000 C 
BRANCH  24  25
ATOM     25  C   UNL     1       1.774  42.089  22.945  1.00  0.00    -0.000 C 
BRANCH  25  26
ATOM     26  C   UNL     1       2.168  43.542  23.283  1.00  0.00    -0.000 C 
BRANCH  26  27
ATOM     27  C   UNL     1       3.563  43.623  23.922  1.00  0.00    -0.000 C 
BRANCH  27  28
ATOM     28  C   UNL     1       4.613  44.094  22.903  1.00  0.00    -0.000 C 
BRANCH  28  29
ATOM     29  C   UNL     1       3.988  44.875  21.736  1.00  0.00    -0.003 C 
ATOM     30  C   UNL     1       4.372  44.308  20.370  1.00  0.00     0.004 C 
ENDBRANCH  28  29
ENDBRANCH  27  28
ENDBRANCH  26  27
ENDBRANCH  25  26
ENDBRANCH  24  25
ENDBRANCH  23  24
ENDBRANCH  22  23
ENDBRANCH  21  22
ENDBRANCH  20  21
ENDBRANCH  19  20
ENDBRANCH  18  19
ENDBRANCH  17  18
ENDBRANCH   1  17
TORSDOF 26
ENDMDL
MODEL 2
REMARK VINA RESULT:    -3.915      2.023      5.215
REMARK INTER + INTRA:         -15.149
REMARK INTER:                 -10.505
REMARK INTRA:                  -4.644
REMARK UNBOUND:                -5.284
REMARK SMILES CCCCCCCCCCCCCCCCCCCCCCCCCCCC(=O)[O-]
REMARK SMILES IDX 15 1 16 2 17 3 18 4 19 5 20 6 21 7 22 8 23 9 24 10 25 11
REMARK SMILES IDX 26 12 27 13 28 14 29 15 30 16 14 17 13 18 12 19 11 20 10 21
REMARK SMILES IDX 9 22 8 23 7 24 6 25 5 26 4 27 3 28 2 29 1 30
REMARK H PARENT
REMARK Flexibility Score: inf
ROOT
ATOM      1  C   UNL     1      -1.602  44.619  23.275  1.00  0.00     0.000 C 
ENDROOT
BRANCH   1   2
ATOM      2  C   UNL     1      -2.808  45.496  23.660  1.00  0.00     0.000 C 
BRANCH   2   3
ATOM      3  C   UNL     1      -3.806  45.662  22.499  1.00  0.00     0.000 C 
BRANCH   3   4
ATOM      4  C   UNL     1      -3.340  45.023  21.174  1.00  0.00     0.000 C 
BRANCH   4   5
ATOM      5  C   UNL     1      -4.490  44.467  20.310  1.00  0.00     0.000 C 
BRANCH   5   6
ATOM      6  C   UNL     1      -4.179  44.416  18.800  1.00  0.00     0.000 C 
BRANCH   6   7
ATOM      7  C   UNL     1      -2.678  44.573  18.491  1.00  0.00     0.000 C 
BRANCH   7   8
ATOM      8  C   UNL     1      -2.089  43.351  17.765  1.00  0.00     0.000 C 
BRANCH   8   9
ATOM      9  C   UNL     1      -1.950  42.126  18.686  1.00  0.00     0.000 C 
BRANCH   9  10
ATOM     10  C   UNL     1      -1.161  42.440  19.966  1.00  0.00     0.000 C 
BRANCH  10  11
ATOM     11  C   UNL     1      -1.383  41.391  21.072  1.00  0.00     0.000 C 
BRANCH  11  12
ATOM     12  C   UNL     1      -2.823  41.396  21.605  1.00  0.00     0.006 C 
BRANCH  12  13
ATOM     13  C   UNL     1      -2.907  40.980  23.080  1.00  0.00     0.053 C 
BRANCH  13  14
ATOM     14  C   UNL     1      -4.217  41.403  23.665  1.00  0.00     0.041 C 
ATOM     15  O   UNL     1      -4.747  42.491  23.316  1.00  0.00    -0.550 OA
ATOM     16  O   UNL     1      -4.877  40.571  24.561  1.00  0.00    -0.550 OA
ENDBRANCH  13  14
ENDBRANCH  12  13
ENDBRANCH  11  12
ENDBRANCH  10  11
ENDBRANCH   9  10
ENDBRANCH   8   9
ENDBRANCH   7   8
ENDBRANCH   6   7
ENDBRANCH   5   6
ENDBRANCH   4   5
ENDBRANCH   3   4
ENDBRANCH   2   3
ENDBRANCH   1   2
BRANCH   1  17
ATOM     17  C   UNL     1      -1.046  43.824  24.466  1.00  0.00     0.000 C 
BRANCH  17  18
ATOM     18  C   UNL     1       0.156  42.946  24.083  1.00  0.00     0.000 C 
BRANCH  18  19
ATOM     19  C   UNL     1       1.166  43.745  23.248  1.00  0.00     0.000 C 
BRANCH  19  20
ATOM     20  C   UNL     1       1.852  42.854  22.203  1.00  0.00     0.000 C 
BRANCH  20  21
ATOM     21  C   UNL     1       2.175  43.608  20.901  1.00  0.00     0.000 C 
BRANCH  21  22
ATOM     22  C   UNL     1       3.678  43.729  20.568  1.00  0.00    -0.000 C 
BRANCH  22  23
ATOM     23  C   UNL     1       4.241  45.163  20.600  1.00  0.00    -0.000 C 
BRANCH  23  24
ATOM     24  C   UNL     1       4.476  45.741  19.196  1.00  0.00    -0.000 C 
BRANCH  24  25
ATOM     25  C   UNL     1       4.146  47.244  19.136  1.00  0.00    -0.000 C 
BRANCH  25  26
ATOM     26  C   UNL     1       3.440  47.651  17.827  1.00  0.00    -0.000 C 
BRANCH  26  27
ATOM     27  C   UNL     1       3.104  46.431  16.954  1.00  0.00    -0.000 C 
BRANCH  27  28
ATOM     28  C   UNL     1       1.769  46.626  16.218  1.00  0.00    -0.000 C 
BRANCH  28  29
ATOM     29  C   UNL     1       0.820  45.430  16.399  1.00  0.00    -0.003 C 
ATOM     30  C   UNL     1       1.420  44.322  17.263  1.00  0.00     0.004 C 
ENDBRANCH  28  29
ENDBRANCH  27  28
ENDBRANCH  26  27
ENDBRANCH  25  26
ENDBRANCH  24  25
ENDBRANCH  23  24
ENDBRANCH  22  23
ENDBRANCH  21  22
ENDBRANCH  20  21
ENDBRANCH  19  20
ENDBRANCH  18  19
ENDBRANCH  17  18
ENDBRANCH   1  17
TORSDOF 26
ENDMDL
MODEL 3
REMARK VINA RESULT:    -3.907      2.701      4.499
REMARK INTER + INTRA:         -15.130
REMARK INTER:                 -10.107
REMARK INTRA:                  -5.023
REMARK UNBOUND:                -5.284
REMARK SMILES CCCCCCCCCCCCCCCCCCCCCCCCCCCC(=O)[O-]
REMARK SMILES IDX 15 1 16 2 17 3 18 4 19 5 20 6 21 7 22 8 23 9 24 10 25 11
REMARK SMILES IDX 26 12 27 13 28 14 29 15 30 16 14 17 13 18 12 19 11 20 10 21
REMARK SMILES IDX 9 22 8 23 7 24 6 25 5 26 4 27 3 28 2 29 1 30
REMARK H PARENT
REMARK Flexibility Score: inf
ROOT
ATOM      1  C   UNL     1      -4.199  44.839  19.058  1.00  0.00     0.000 C 
ENDROOT
BRANCH   1   2
ATOM      2  C   UNL     1      -5.019  44.009  20.063  1.00  0.00     0.000 C 
BRANCH   2   3
ATOM      3  C   UNL     1      -4.579  44.249  21.520  1.00  0.00     0.000 C 
BRANCH   3   4
ATOM      4  C   UNL     1      -3.723  45.519  21.714  1.00  0.00     0.000 C 
BRANCH   4   5
ATOM      5  C   UNL     1      -4.319  46.524  22.721  1.00  0.00     0.000 C 
BRANCH   5   6
ATOM      6  C   UNL     1      -3.658  46.491  24.114  1.00  0.00     0.000 C 
BRANCH   6   7
ATOM      7  C   UNL     1      -4.145  45.315  24.981  1.00  0.00     0.000 C 
BRANCH   7   8
ATOM      8  C   UNL     1      -3.096  44.197  25.113  1.00  0.00     0.000 C 
BRANCH   8   9
ATOM      9  C   UNL     1      -3.630  42.829  24.654  1.00  0.00     0.000 C 
BRANCH   9  10
ATOM     10  C   UNL     1      -2.823  41.658  25.236  1.00  0.00     0.000 C 
BRANCH  10  11
ATOM     11  C   UNL     1      -1.751  42.117  26.241  1.00  0.00     0.000 C 
BRANCH  11  12
ATOM     12  C   UNL     1      -1.403  41.029  27.268  1.00  0.00     0.006 C 
BRANCH  12  13
ATOM     13  C   UNL     1      -2.298  39.790  27.140  1.00  0.00     0.053 C 
BRANCH  13  14
ATOM     14  C   UNL     1      -2.123  38.897  28.328  1.00  0.00     0.041 C 
ATOM     15  O   UNL     1      -2.890  37.913  28.500  1.00  0.00    -0.550 OA
ATOM     16  O   UNL     1      -1.081  39.124  29.218  1.00  0.00    -0.550 OA
ENDBRANCH  13  14
ENDBRANCH  12  13
ENDBRANCH  11  12
ENDBRANCH  10  11
ENDBRANCH   9  10
ENDBRANCH   8   9
ENDBRANCH   7   8
ENDBRANCH   6   7
ENDBRANCH   5   6
ENDBRANCH   4   5
ENDBRANCH   3   4
ENDBRANCH   2   3
ENDBRANCH   1   2
BRANCH   1  17
ATOM     17  C   UNL     1      -4.108  44.172  17.677  1.00  0.00     0.000 C 
BRANCH  17  18
ATOM     18  C   UNL     1      -2.685  43.699  17.340  1.00  0.00     0.000 C 
BRANCH  18  19
ATOM     19  C   UNL     1      -1.683  44.209  18.385  1.00  0.00     0.000 C 
BRANCH  19  20
ATOM     20  C   UNL     1      -0.519  43.225  18.567  1.00  0.00     0.000 C 
BRANCH  20  21
ATOM     21  C   UNL     1      -0.022  43.156  20.021  1.00  0.00     0.000 C 
BRANCH  21  22
ATOM     22  C   UNL     1      -0.980  43.759  21.072  1.00  0.00    -0.000 C 
BRANCH  22  23
ATOM     23  C   UNL     1      -0.452  43.751  22.519  1.00  0.00    -0.000 C 
BRANCH  23  24
ATOM     24  C   UNL     1       0.736  42.796  22.714  1.00  0.00    -0.000 C 
BRANCH  24  25
ATOM     25  C   UNL     1       0.301  41.470  23.364  1.00  0.00    -0.000 C 
BRANCH  25  26
ATOM     26  C   UNL     1      -0.130  40.409  22.332  1.00  0.00    -0.000 C 
BRANCH  26  27
ATOM     27  C   UNL     1      -1.660  40.275  22.253  1.00  0.00    -0.000 C 
BRANCH  27  28
ATOM     28  C   UNL     1      -2.116  39.964  20.818  1.00  0.00    -0.000 C 
BRANCH  28  29
ATOM     29  C   UNL     1      -3.302  40.838  20.379  1.00  0.00    -0.003 C 
ATOM     30  C   UNL     1      -3.681  40.629  18.913  1.00  0.00     0.004 C 
ENDBRANCH  28  29
ENDBRANCH  27  28
ENDBRANCH  26  27
ENDBRANCH  25  26
ENDBRANCH  24  25
ENDBRANCH  23  24
ENDBRANCH  22  23
ENDBRANCH  21  22
ENDBRANCH  20  21
ENDBRANCH  19  20
ENDBRANCH  18  19
ENDBRANCH  17  18
ENDBRANCH   1  17
TORSDOF 26
ENDMDL
MODEL 4
REMARK VINA RESULT:    -3.867      3.636      6.207
REMARK INTER + INTRA:         -15.027
REMARK INTER:                 -10.811
REMARK INTRA:                  -4.216
REMARK UNBOUND:                -5.284
REMARK SMILES CCCCCCCCCCCCCCCCCCCCCCCCCCCC(=O)[O-]
REMARK SMILES IDX 15 1 16 2 17 3 18 4 19 5 20 6 21 7 22 8 23 9 24 10 25 11
REMARK SMILES IDX 26 12 27 13 28 14 29 15 30 16 14 17 13 18 12 19 11 20 10 21
REMARK SMILES IDX 9 22 8 23 7 24 6 25 5 26 4 27 3 28 2 29 1 30
REMARK H PARENT
REMARK Flexibility Score: inf
ROOT
ATOM      1  C   UNL     1      -4.963  41.148  21.463  1.00  0.00     0.000 C 
ENDROOT
BRANCH   1   2
ATOM      2  C   UNL     1      -3.590  40.548  21.817  1.00  0.00     0.000 C 
BRANCH   2   3
ATOM      3  C   UNL     1      -3.708  39.300  22.712  1.00  0.00     0.000 C 
BRANCH   3   4
ATOM      4  C   UNL     1      -2.541  39.130  23.707  1.00  0.00     0.000 C 
BRANCH   4   5
ATOM      5  C   UNL     1      -2.985  39.050  25.182  1.00  0.00     0.000 C 
BRANCH   5   6
ATOM      6  C   UNL     1      -4.311  39.777  25.482  1.00  0.00     0.000 C 
BRANCH   6   7
ATOM      7  C   UNL     1      -5.476  38.810  25.764  1.00  0.00     0.000 C 
BRANCH   7   8
ATOM      8  C   UNL     1      -6.795  39.263  25.116  1.00  0.00     0.000 C 
BRANCH   8   9
ATOM      9  C   UNL     1      -7.042  40.774  25.272  1.00  0.00     0.000 C 
BRANCH   9  10
ATOM     10  C   UNL     1      -8.386  41.084  25.949  1.00  0.00     0.000 C 
BRANCH  10  11
ATOM     11  C   UNL     1      -8.539  40.387  27.313  1.00  0.00     0.000 C 
BRANCH  11  12
ATOM     12  C   UNL     1      -9.974  40.462  27.855  1.00  0.00     0.006 C 
BRANCH  12  13
ATOM     13  C   UNL     1     -10.024  40.848  29.339  1.00  0.00     0.053 C 
BRANCH  13  14
ATOM     14  C   UNL     1      -9.266  39.853  30.160  1.00  0.00     0.041 C 
ATOM     15  O   UNL     1      -9.600  38.638  30.153  1.00  0.00    -0.550 OA
ATOM     16  O   UNL     1      -8.161  40.260  30.896  1.00  0.00    -0.550 OA
ENDBRANCH  13  14
ENDBRANCH  12  13
ENDBRANCH  11  12
ENDBRANCH  10  11
ENDBRANCH   9  10
ENDBRANCH   8   9
ENDBRANCH   7   8
ENDBRANCH   6   7
ENDBRANCH   5   6
ENDBRANCH   4   5
ENDBRANCH   3   4
ENDBRANCH   2   3
ENDBRANCH   1   2
BRANCH   1  17
ATOM     17  C   UNL     1      -4.931  41.973  20.168  1.00  0.00     0.000 C 
BRANCH  17  18
ATOM     18  C   UNL     1      -5.374  43.430  20.382  1.00  0.00     0.000 C 
BRANCH  18  19
ATOM     19  C   UNL     1      -4.722  44.352  19.342  1.00  0.00     0.000 C 
BRANCH  19  20
ATOM     20  C   UNL     1      -3.466  45.029  19.909  1.00  0.00     0.000 C 
BRANCH  20  21
ATOM     21  C   UNL     1      -2.168  44.318  19.488  1.00  0.00     0.000 C 
BRANCH  21  22
ATOM     22  C   UNL     1      -1.246  43.893  20.651  1.00  0.00    -0.000 C 
BRANCH  22  23
ATOM     23  C   UNL     1      -1.959  43.641  21.993  1.00  0.00    -0.000 C 
BRANCH  23  24
ATOM     24  C   UNL     1      -1.173  44.184  23.196  1.00  0.00    -0.000 C 
BRANCH  24  25
ATOM     25  C   UNL     1      -1.986  44.089  24.500  1.00  0.00    -0.000 C 
BRANCH  25  26
ATOM     26  C   UNL     1      -2.978  42.908  24.503  1.00  0.00    -0.000 C 
BRANCH  26  27
ATOM     27  C   UNL     1      -4.436  43.385  24.409  1.00  0.00    -0.000 C 
BRANCH  27  28
ATOM     28  C   UNL     1      -4.539  44.903  24.625  1.00  0.00    -0.000 C 
BRANCH  28  29
ATOM     29  C   UNL     1      -4.893  45.656  23.332  1.00  0.00    -0.003 C 
ATOM     30  C   UNL     1      -4.050  46.913  23.128  1.00  0.00     0.004 C 
ENDBRANCH  28  29
ENDBRANCH  27  28
ENDBRANCH  26  27
ENDBRANCH  25  26
ENDBRANCH  24  25
ENDBRANCH  23  24
ENDBRANCH  22  23
ENDBRANCH  21  22
ENDBRANCH  20  21
ENDBRANCH  19  20
ENDBRANCH  18  19
ENDBRANCH  17  18
ENDBRANCH   1  17
TORSDOF 26
ENDMDL
MODEL 5
REMARK VINA RESULT:    -3.838      2.920      5.245
REMARK INTER + INTRA:         -14.955
REMARK INTER:                  -9.485
REMARK INTRA:                  -5.470
REMARK UNBOUND:                -5.284
REMARK SMILES CCCCCCCCCCCCCCCCCCCCCCCCCCCC(=O)[O-]
REMARK SMILES IDX 15 1 16 2 17 3 18 4 19 5 20 6 21 7 22 8 23 9 24 10 25 11
REMARK SMILES IDX 26 12 27 13 28 14 29 15 30 16 14 17 13 18 12 19 11 20 10 21
REMARK SMILES IDX 9 22 8 23 7 24 6 25 5 26 4 27 3 28 2 29 1 30
REMARK H PARENT
REMARK Flexibility Score: inf
ROOT
ATOM      1  C   UNL     1      -4.211  44.528  18.425  1.00  0.00     0.000 C 
ENDROOT
BRANCH   1   2
ATOM      2  C   UNL     1      -3.665  45.361  19.598  1.00  0.00     0.000 C 
BRANCH   2   3
ATOM      3  C   UNL     1      -2.649  44.579  20.451  1.00  0.00     0.000 C 
BRANCH   3   4
ATOM      4  C   UNL     1      -2.724  44.891  21.961  1.00  0.00     0.000 C 
BRANCH   4   5
ATOM      5  C   UNL     1      -3.804  45.928  22.329  1.00  0.00     0.000 C 
BRANCH   5   6
ATOM      6  C   UNL     1      -4.951  45.366  23.194  1.00  0.00     0.000 C 
BRANCH   6   7
ATOM      7  C   UNL     1      -4.578  44.052  23.906  1.00  0.00     0.000 C 
BRANCH   7   8
ATOM      8  C   UNL     1      -4.101  44.273  25.351  1.00  0.00     0.000 C 
BRANCH   8   9
ATOM      9  C   UNL     1      -2.698  43.694  25.605  1.00  0.00     0.000 C 
BRANCH   9  10
ATOM     10  C   UNL     1      -2.413  42.447  24.753  1.00  0.00     0.000 C 
BRANCH  10  11
ATOM     11  C   UNL     1      -0.910  42.131  24.650  1.00  0.00     0.000 C 
BRANCH  11  12
ATOM     12  C   UNL     1      -0.061  43.384  24.394  1.00  0.00     0.006 C 
BRANCH  12  13
ATOM     13  C   UNL     1       0.405  43.493  22.936  1.00  0.00     0.053 C 
BRANCH  13  14
ATOM     14  C   UNL     1       1.898  43.569  22.871  1.00  0.00     0.041 C 
ATOM     15  O   UNL     1       2.499  43.328  21.791  1.00  0.00    -0.550 OA
ATOM     16  O   UNL     1       2.621  43.954  23.993  1.00  0.00    -0.550 OA
ENDBRANCH  13  14
ENDBRANCH  12  13
ENDBRANCH  11  12
ENDBRANCH  10  11
ENDBRANCH   9  10
ENDBRANCH   8   9
ENDBRANCH   7   8
ENDBRANCH   6   7
ENDBRANCH   5   6
ENDBRANCH   4   5
ENDBRANCH   3   4
ENDBRANCH   2   3
ENDBRANCH   1   2
BRANCH   1  17
ATOM     17  C   UNL     1      -3.291  43.354  18.055  1.00  0.00     0.000 C 
BRANCH  17  18
ATOM     18  C   UNL     1      -2.903  43.351  16.568  1.00  0.00     0.000 C 
BRANCH  18  19
ATOM     19  C   UNL     1      -1.376  43.373  16.408  1.00  0.00     0.000 C 
BRANCH  19  20
ATOM     20  C   UNL     1      -0.711  44.190  17.525  1.00  0.00     0.000 C 
BRANCH  20  21
ATOM     21  C   UNL     1       0.457  43.443  18.191  1.00  0.00     0.000 C 
BRANCH  21  22
ATOM     22  C   UNL     1       0.742  42.034  17.627  1.00  0.00    -0.000 C 
BRANCH  22  23
ATOM     23  C   UNL     1       0.774  40.905  18.675  1.00  0.00    -0.000 C 
BRANCH  23  24
ATOM     24  C   UNL     1       0.043  41.277  19.974  1.00  0.00    -0.000 C 
BRANCH  24  25
ATOM     25  C   UNL     1      -1.426  40.818  19.955  1.00  0.00    -0.000 C 
BRANCH  25  26
ATOM     26  C   UNL     1      -2.224  41.308  21.180  1.00  0.00    -0.000 C 
BRANCH  26  27
ATOM     27  C   UNL     1      -3.012  40.168  21.844  1.00  0.00    -0.000 C 
BRANCH  27  28
ATOM     28  C   UNL     1      -4.516  40.483  21.885  1.00  0.00    -0.000 C 
BRANCH  28  29
ATOM     29  C   UNL     1      -5.016  41.122  20.579  1.00  0.00    -0.003 C 
ATOM     30  C   UNL     1      -5.758  42.437  20.809  1.00  0.00     0.004 C 
ENDBRANCH  28  29
ENDBRANCH  27  28
ENDBRANCH  26  27
ENDBRANCH  25  26
ENDBRANCH  24  25
ENDBRANCH  23  24
ENDBRANCH  22  23
ENDBRANCH  21  22
ENDBRANCH  20  21
ENDBRANCH  19  20
ENDBRANCH  18  19
ENDBRANCH  17  18
ENDBRANCH   1  17
TORSDOF 26
ENDMDL
MODEL 6
REMARK VINA RESULT:    -3.837      3.120      5.679
REMARK INTER + INTRA:         -14.954
REMARK INTER:                  -9.067
REMARK INTRA:                  -5.887
REMARK UNBOUND:                -5.284
REMARK SMILES CCCCCCCCCCCCCCCCCCCCCCCCCCCC(=O)[O-]
REMARK SMILES IDX 15 1 16 2 17 3 18 4 19 5 20 6 21 7 22 8 23 9 24 10 25 11
REMARK SMILES IDX 26 12 27 13 28 14 29 15 30 16 14 17 13 18 12 19 11 20 10 21
REMARK SMILES IDX 9 22 8 23 7 24 6 25 5 26 4 27 3 28 2 29 1 30
REMARK H PARENT
REMARK Flexibility Score: inf
ROOT
ATOM      1  C   UNL     1      -2.665  45.057  22.284  1.00  0.00     0.000 C 
ENDROOT
BRANCH   1   2
ATOM      2  C   UNL     1      -3.751  45.966  22.889  1.00  0.00     0.000 C 
BRANCH   2   3
ATOM      3  C   UNL     1      -3.689  46.011  24.427  1.00  0.00     0.000 C 
BRANCH   3   4
ATOM      4  C   UNL     1      -3.810  44.628  25.101  1.00  0.00     0.000 C 
BRANCH   4   5
ATOM      5  C   UNL     1      -5.073  43.844  24.693  1.00  0.00     0.000 C 
BRANCH   5   6
ATOM      6  C   UNL     1      -4.791  42.427  24.153  1.00  0.00     0.000 C 
BRANCH   6   7
ATOM      7  C   UNL     1      -3.336  41.975  24.384  1.00  0.00     0.000 C 
BRANCH   7   8
ATOM      8  C   UNL     1      -2.671  41.433  23.108  1.00  0.00     0.000 C 
BRANCH   8   9
ATOM      9  C   UNL     1      -1.431  40.573  23.407  1.00  0.00     0.000 C 
BRANCH   9  10
ATOM     10  C   UNL     1      -0.134  41.207  22.883  1.00  0.00     0.000 C 
BRANCH  10  11
ATOM     11  C   UNL     1       0.054  42.657  23.364  1.00  0.00     0.000 C 
BRANCH  11  12
ATOM     12  C   UNL     1       0.664  43.561  22.282  1.00  0.00     0.006 C 
BRANCH  12  13
ATOM     13  C   UNL     1       2.101  43.162  21.921  1.00  0.00     0.053 C 
BRANCH  13  14
ATOM     14  C   UNL     1       3.079  44.062  22.608  1.00  0.00     0.041 C 
ATOM     15  O   UNL     1       3.848  44.796  21.932  1.00  0.00    -0.550 OA
ATOM     16  O   UNL     1       3.107  44.126  23.995  1.00  0.00    -0.550 OA
ENDBRANCH  13  14
ENDBRANCH  12  13
ENDBRANCH  11  12
ENDBRANCH  10  11
ENDBRANCH   9  10
ENDBRANCH   8   9
ENDBRANCH   7   8
ENDBRANCH   6   7
ENDBRANCH   5   6
ENDBRANCH   4   5
ENDBRANCH   3   4
ENDBRANCH   2   3
ENDBRANCH   1   2
BRANCH   1  17
ATOM     17  C   UNL     1      -3.079  44.461  20.930  1.00  0.00     0.000 C 
BRANCH  17  18
ATOM     18  C   UNL     1      -4.561  44.058  20.888  1.00  0.00     0.000 C 
BRANCH  18  19
ATOM     19  C   UNL     1      -5.096  44.109  19.450  1.00  0.00     0.000 C 
BRANCH  19  20
ATOM     20  C   UNL     1      -4.050  44.691  18.489  1.00  0.00     0.000 C 
BRANCH  20  21
ATOM     21  C   UNL     1      -3.887  43.850  17.211  1.00  0.00     0.000 C 
BRANCH  21  22
ATOM     22  C   UNL     1      -2.449  43.369  16.920  1.00  0.00    -0.000 C 
BRANCH  22  23
ATOM     23  C   UNL     1      -1.363  43.959  17.841  1.00  0.00    -0.000 C 
BRANCH  23  24
ATOM     24  C   UNL     1      -0.521  42.878  18.536  1.00  0.00    -0.000 C 
BRANCH  24  25
ATOM     25  C   UNL     1      -1.369  42.022  19.494  1.00  0.00    -0.000 C 
BRANCH  25  26
ATOM     26  C   UNL     1      -1.300  40.515  19.172  1.00  0.00    -0.000 C 
BRANCH  26  27
ATOM     27  C   UNL     1      -2.611  39.793  19.525  1.00  0.00    -0.000 C 
BRANCH  27  28
ATOM     28  C   UNL     1      -3.763  40.794  19.706  1.00  0.00    -0.000 C 
BRANCH  28  29
ATOM     29  C   UNL     1      -4.974  40.459  18.819  1.00  0.00    -0.003 C 
ATOM     30  C   UNL     1      -4.599  40.278  17.349  1.00  0.00     0.004 C 
ENDBRANCH  28  29
ENDBRANCH  27  28
ENDBRANCH  26  27
ENDBRANCH  25  26
ENDBRANCH  24  25
ENDBRANCH  23  24
ENDBRANCH  22  23
ENDBRANCH  21  22
ENDBRANCH  20  21
ENDBRANCH  19  20
ENDBRANCH  18  19
ENDBRANCH  17  18
ENDBRANCH   1  17
TORSDOF 26
ENDMDL
MODEL 7
REMARK VINA RESULT:    -3.828      1.457      4.342
REMARK INTER + INTRA:         -14.930
REMARK INTER:                  -9.213
REMARK INTRA:                  -5.718
REMARK UNBOUND:                -5.284
REMARK SMILES CCCCCCCCCCCCCCCCCCCCCCCCCCCC(=O)[O-]
REMARK SMILES IDX 15 1 16 2 17 3 18 4 19 5 20 6 21 7 22 8 23 9 24 10 25 11
REMARK SMILES IDX 26 12 27 13 28 14 29 15 30 16 14 17 13 18 12 19 11 20 10 21
REMARK SMILES IDX 9 22 8 23 7 24 6 25 5 26 4 27 3 28 2 29 1 30
REMARK H PARENT
REMARK Flexibility Score: inf
ROOT
ATOM      1  C   UNL     1      -4.941  44.111  21.162  1.00  0.00     0.000 C 
ENDROOT
BRANCH   1   2
ATOM      2  C   UNL     1      -5.035  43.482  19.760  1.00  0.00     0.000 C 
BRANCH   2   3
ATOM      3  C   UNL     1      -4.493  44.416  18.661  1.00  0.00     0.000 C 
BRANCH   3   4
ATOM      4  C   UNL     1      -4.035  43.681  17.384  1.00  0.00     0.000 C 
BRANCH   4   5
ATOM      5  C   UNL     1      -2.519  43.397  17.338  1.00  0.00     0.000 C 
BRANCH   5   6
ATOM      6  C   UNL     1      -1.671  44.350  18.204  1.00  0.00     0.000 C 
BRANCH   6   7
ATOM      7  C   UNL     1      -0.889  43.620  19.311  1.00  0.00     0.000 C 
BRANCH   7   8
ATOM      8  C   UNL     1      -0.413  42.222  18.882  1.00  0.00     0.000 C 
BRANCH   8   9
ATOM      9  C   UNL     1      -0.764  41.135  19.913  1.00  0.00     0.000 C 
BRANCH   9  10
ATOM     10  C   UNL     1      -2.261  41.117  20.262  1.00  0.00     0.000 C 
BRANCH  10  11
ATOM     11  C   UNL     1      -2.525  41.382  21.755  1.00  0.00     0.000 C 
BRANCH  11  12
ATOM     12  C   UNL     1      -3.782  40.663  22.266  1.00  0.00     0.006 C 
BRANCH  12  13
ATOM     13  C   UNL     1      -4.393  41.346  23.496  1.00  0.00     0.053 C 
BRANCH  13  14
ATOM     14  C   UNL     1      -5.815  40.917  23.677  1.00  0.00     0.041 C 
ATOM     15  O   UNL     1      -6.453  40.414  22.714  1.00  0.00    -0.550 OA
ATOM     16  O   UNL     1      -6.420  41.029  24.922  1.00  0.00    -0.550 OA
ENDBRANCH  13  14
ENDBRANCH  12  13
ENDBRANCH  11  12
ENDBRANCH  10  11
ENDBRANCH   9  10
ENDBRANCH   8   9
ENDBRANCH   7   8
ENDBRANCH   6   7
ENDBRANCH   5   6
ENDBRANCH   4   5
ENDBRANCH   3   4
ENDBRANCH   2   3
ENDBRANCH   1   2
BRANCH   1  17
ATOM     17  C   UNL     1      -3.739  45.057  21.306  1.00  0.00     0.000 C 
BRANCH  17  18
ATOM     18  C   UNL     1      -3.837  45.955  22.550  1.00  0.00     0.000 C 
BRANCH  18  19
ATOM     19  C   UNL     1      -3.012  45.372  23.705  1.00  0.00     0.000 C 
BRANCH  19  20
ATOM     20  C   UNL     1      -1.745  44.676  23.187  1.00  0.00     0.000 C 
BRANCH  20  21
ATOM     21  C   UNL     1      -1.052  43.826  24.267  1.00  0.00     0.000 C 
BRANCH  21  22
ATOM     22  C   UNL     1       0.436  43.513  24.001  1.00  0.00    -0.000 C 
BRANCH  22  23
ATOM     23  C   UNL     1       0.824  43.397  22.514  1.00  0.00    -0.000 C 
BRANCH  23  24
ATOM     24  C   UNL     1       2.290  43.773  22.251  1.00  0.00    -0.000 C 
BRANCH  24  25
ATOM     25  C   UNL     1       2.768  43.279  20.873  1.00  0.00    -0.000 C 
BRANCH  25  26
ATOM     26  C   UNL     1       2.764  41.741  20.753  1.00  0.00    -0.000 C 
BRANCH  26  27
ATOM     27  C   UNL     1       3.748  41.087  21.737  1.00  0.00    -0.000 C 
BRANCH  27  28
ATOM     28  C   UNL     1       3.006  40.239  22.782  1.00  0.00    -0.000 C 
BRANCH  28  29
ATOM     29  C   UNL     1       1.696  39.648  22.234  1.00  0.00    -0.003 C 
ATOM     30  C   UNL     1       0.528  39.791  23.207  1.00  0.00     0.004 C 
ENDBRANCH  28  29
ENDBRANCH  27  28
ENDBRANCH  26  27
ENDBRANCH  25  26
ENDBRANCH  24  25
ENDBRANCH  23  24
ENDBRANCH  22  23
ENDBRANCH  21  22
ENDBRANCH  20  21
ENDBRANCH  19  20
ENDBRANCH  18  19
ENDBRANCH  17  18
ENDBRANCH   1  17
TORSDOF 26
ENDMDL
MODEL 8
REMARK VINA RESULT:    -3.806      3.500      6.214
REMARK INTER + INTRA:         -14.875
REMARK INTER:                  -9.826
REMARK INTRA:                  -5.049
REMARK UNBOUND:                -5.284
REMARK SMILES CCCCCCCCCCCCCCCCCCCCCCCCCCCC(=O)[O-]
REMARK SMILES IDX 15 1 16 2 17 3 18 4 19 5 20 6 21 7 22 8 23 9 24 10 25 11
REMARK SMILES IDX 26 12 27 13 28 14 29 15 30 16 14 17 13 18 12 19 11 20 10 21
REMARK SMILES IDX 9 22 8 23 7 24 6 25 5 26 4 27 3 28 2 29 1 30
REMARK H PARENT
REMARK Flexibility Score: inf
ROOT
ATOM      1  C   UNL     1      -4.366  44.094  18.655  1.00  0.00     0.000 C 
ENDROOT
BRANCH   1   2
ATOM      2  C   UNL     1      -3.619  45.231  19.375  1.00  0.00     0.000 C 
BRANCH   2   3
ATOM      3  C   UNL     1      -3.002  44.775  20.711  1.00  0.00     0.000 C 
BRANCH   3   4
ATOM      4  C   UNL     1      -3.898  45.041  21.939  1.00  0.00     0.000 C 
BRANCH   4   5
ATOM      5  C   UNL     1      -3.112  45.345  23.230  1.00  0.00     0.000 C 
BRANCH   5   6
ATOM      6  C   UNL     1      -1.684  44.762  23.252  1.00  0.00     0.000 C 
BRANCH   6   7
ATOM      7  C   UNL     1      -1.434  43.830  24.453  1.00  0.00     0.000 C 
BRANCH   7   8
ATOM      8  C   UNL     1      -0.028  43.206  24.440  1.00  0.00     0.000 C 
BRANCH   8   9
ATOM      9  C   UNL     1       0.815  43.675  23.241  1.00  0.00     0.000 C 
BRANCH   9  10
ATOM     10  C   UNL     1       2.324  43.518  23.486  1.00  0.00     0.000 C 
BRANCH  10  11
ATOM     11  C   UNL     1       3.173  44.341  22.501  1.00  0.00     0.000 C 
BRANCH  11  12
ATOM     12  C   UNL     1       3.700  43.497  21.331  1.00  0.00     0.006 C 
BRANCH  12  13
ATOM     13  C   UNL     1       3.363  44.109  19.964  1.00  0.00     0.053 C 
BRANCH  13  14
ATOM     14  C   UNL     1       4.491  44.967  19.486  1.00  0.00     0.041 C 
ATOM     15  O   UNL     1       5.328  44.513  18.662  1.00  0.00    -0.550 OA
ATOM     16  O   UNL     1       4.589  46.285  19.914  1.00  0.00    -0.550 OA
ENDBRANCH  13  14
ENDBRANCH  12  13
ENDBRANCH  11  12
ENDBRANCH  10  11
ENDBRANCH   9  10
ENDBRANCH   8   9
ENDBRANCH   7   8
ENDBRANCH   6   7
ENDBRANCH   5   6
ENDBRANCH   4   5
ENDBRANCH   3   4
ENDBRANCH   2   3
ENDBRANCH   1   2
BRANCH   1  17
ATOM     17  C   UNL     1      -3.930  43.936  17.190  1.00  0.00     0.000 C 
BRANCH  17  18
ATOM     18  C   UNL     1      -3.006  42.727  16.974  1.00  0.00     0.000 C 
BRANCH  18  19
ATOM     19  C   UNL     1      -1.666  43.171  16.369  1.00  0.00     0.000 C 
BRANCH  19  20
ATOM     20  C   UNL     1      -0.953  44.182  17.278  1.00  0.00     0.000 C 
BRANCH  20  21
ATOM     21  C   UNL     1       0.201  43.550  18.075  1.00  0.00     0.000 C 
BRANCH  21  22
ATOM     22  C   UNL     1      -0.176  43.037  19.482  1.00  0.00    -0.000 C 
BRANCH  22  23
ATOM     23  C   UNL     1      -0.586  41.553  19.548  1.00  0.00    -0.000 C 
BRANCH  23  24
ATOM     24  C   UNL     1      -1.859  41.323  20.377  1.00  0.00    -0.000 C 
BRANCH  24  25
ATOM     25  C   UNL     1      -1.550  41.224  21.882  1.00  0.00    -0.000 C 
BRANCH  25  26
ATOM     26  C   UNL     1      -2.680  40.547  22.683  1.00  0.00    -0.000 C 
BRANCH  26  27
ATOM     27  C   UNL     1      -3.871  41.494  22.906  1.00  0.00    -0.000 C 
BRANCH  27  28
ATOM     28  C   UNL     1      -5.151  40.936  22.264  1.00  0.00    -0.000 C 
BRANCH  28  29
ATOM     29  C   UNL     1      -5.506  41.651  20.950  1.00  0.00    -0.003 C 
ATOM     30  C   UNL     1      -5.407  40.735  19.731  1.00  0.00     0.004 C 
ENDBRANCH  28  29
ENDBRANCH  27  28
ENDBRANCH  26  27
ENDBRANCH  25  26
ENDBRANCH  24  25
ENDBRANCH  23  24
ENDBRANCH  22  23
ENDBRANCH  21  22
ENDBRANCH  20  21
ENDBRANCH  19  20
ENDBRANCH  18  19
ENDBRANCH  17  18
ENDBRANCH   1  17
TORSDOF 26
ENDMDL
MODEL 9
REMARK VINA RESULT:    -3.800      3.244      6.907
REMARK INTER + INTRA:         -14.861
REMARK INTER:                  -9.908
REMARK INTRA:                  -4.952
REMARK UNBOUND:                -5.284
REMARK SMILES CCCCCCCCCCCCCCCCCCCCCCCCCCCC(=O)[O-]
REMARK SMILES IDX 15 1 16 2 17 3 18 4 19 5 20 6 21 7 22 8 23 9 24 10 25 11
REMARK SMILES IDX 26 12 27 13 28 14 29 15 30 16 14 17 13 18 12 19 11 20 10 21
REMARK SMILES IDX 9 22 8 23 7 24 6 25 5 26 4 27 3 28 2 29 1 30
REMARK H PARENT
REMARK Flexibility Score: inf
ROOT
ATOM      1  C   UNL     1      -5.084  43.748  19.638  1.00  0.00     0.000 C 
ENDROOT
BRANCH   1   2
ATOM      2  C   UNL     1      -4.423  44.671  18.597  1.00  0.00     0.000 C 
BRANCH   2   3
ATOM      3  C   UNL     1      -3.998  43.912  17.326  1.00  0.00     0.000 C 
BRANCH   3   4
ATOM      4  C   UNL     1      -2.559  43.357  17.379  1.00  0.00     0.000 C 
BRANCH   4   5
ATOM      5  C   UNL     1      -1.590  44.216  18.215  1.00  0.00     0.000 C 
BRANCH   5   6
ATOM      6  C   UNL     1      -0.635  43.401  19.111  1.00  0.00     0.000 C 
BRANCH   6   7
ATOM      7  C   UNL     1      -1.373  42.394  20.014  1.00  0.00     0.000 C 
BRANCH   7   8
ATOM      8  C   UNL     1      -0.722  42.249  21.400  1.00  0.00     0.000 C 
BRANCH   8   9
ATOM      9  C   UNL     1       0.155  43.457  21.770  1.00  0.00     0.000 C 
BRANCH   9  10
ATOM     10  C   UNL     1       1.311  43.079  22.709  1.00  0.00     0.000 C 
BRANCH  10  11
ATOM     11  C   UNL     1       2.599  43.868  22.412  1.00  0.00     0.000 C 
BRANCH  11  12
ATOM     12  C   UNL     1       3.425  44.144  23.677  1.00  0.00     0.006 C 
BRANCH  12  13
ATOM     13  C   UNL     1       4.929  43.935  23.457  1.00  0.00     0.053 C 
BRANCH  13  14
ATOM     14  C   UNL     1       5.293  42.501  23.680  1.00  0.00     0.041 C 
ATOM     15  O   UNL     1       5.616  41.770  22.707  1.00  0.00    -0.550 OA
ATOM     16  O   UNL     1       5.321  41.985  24.969  1.00  0.00    -0.550 OA
ENDBRANCH  13  14
ENDBRANCH  12  13
ENDBRANCH  11  12
ENDBRANCH  10  11
ENDBRANCH   9  10
ENDBRANCH   8   9
ENDBRANCH   7   8
ENDBRANCH   6   7
ENDBRANCH   5   6
ENDBRANCH   4   5
ENDBRANCH   3   4
ENDBRANCH   2   3
ENDBRANCH   1   2
BRANCH   1  17
ATOM     17  C   UNL     1      -4.790  44.181  21.082  1.00  0.00     0.000 C 
BRANCH  17  18
ATOM     18  C   UNL     1      -3.593  45.140  21.182  1.00  0.00     0.000 C 
BRANCH  18  19
ATOM     19  C   UNL     1      -2.958  45.070  22.578  1.00  0.00     0.000 C 
BRANCH  19  20
ATOM     20  C   UNL     1      -3.924  44.451  23.598  1.00  0.00     0.000 C 
BRANCH  20  21
ATOM     21  C   UNL     1      -3.213  43.982  24.879  1.00  0.00     0.000 C 
BRANCH  21  22
ATOM     22  C   UNL     1      -1.673  43.902  24.784  1.00  0.00    -0.000 C 
BRANCH  22  23
ATOM     23  C   UNL     1      -1.038  42.678  25.471  1.00  0.00    -0.000 C 
BRANCH  23  24
ATOM     24  C   UNL     1      -2.045  41.882  26.316  1.00  0.00    -0.000 C 
BRANCH  24  25
ATOM     25  C   UNL     1      -2.247  40.457  25.770  1.00  0.00    -0.000 C 
BRANCH  25  26
ATOM     26  C   UNL     1      -1.768  40.299  24.313  1.00  0.00    -0.000 C 
BRANCH  26  27
ATOM     27  C   UNL     1      -2.874  39.741  23.403  1.00  0.00    -0.000 C 
BRANCH  27  28
ATOM     28  C   UNL     1      -3.724  40.873  22.804  1.00  0.00    -0.000 C 
BRANCH  28  29
ATOM     29  C   UNL     1      -4.679  40.372  21.708  1.00  0.00    -0.003 C 
ATOM     30  C   UNL     1      -6.123  40.814  21.933  1.00  0.00     0.004 C 
ENDBRANCH  28  29
ENDBRANCH  27  28
ENDBRANCH  26  27
ENDBRANCH  25  26
ENDBRANCH  24  25
ENDBRANCH  23  24
ENDBRANCH  22  23
ENDBRANCH  21  22
ENDBRANCH  20  21
ENDBRANCH  19  20
ENDBRANCH  18  19
ENDBRANCH  17  18
ENDBRANCH   1  17
TORSDOF 26
ENDMDL
