MODEL 1
REMARK VINA RESULT:    -5.498      0.000      0.000
REMARK INTER + INTRA:         -10.986
REMARK INTER:                  -9.997
REMARK INTRA:                  -0.989
REMARK UNBOUND:                -0.989
REMARK SMILES CCCCCCCCCCCCCCCC(=O)[O-]
REMARK SMILES IDX 9 1 10 2 11 3 12 4 13 5 14 6 15 7 16 8 17 9 18 10 8 11 7 12
REMARK SMILES IDX 6 13 5 14 4 15 3 16 2 17 1 18
REMARK H PARENT
REMARK Flexibility Score: inf
ROOT
ATOM      1  C   UNL     1     -11.001  -0.702 -10.363  1.00  0.00     0.000 C 
ENDROOT
BRANCH   1   2
ATOM      2  C   UNL     1     -10.937  -2.048  -9.624  1.00  0.00     0.000 C 
BRANCH   2   3
ATOM      3  C   UNL     1      -9.718  -2.890 -10.030  1.00  0.00     0.000 C 
BRANCH   3   4
ATOM      4  C   UNL     1      -9.295  -3.827  -8.891  1.00  0.00     0.000 C 
BRANCH   4   5
ATOM      5  C   UNL     1     -10.310  -4.966  -8.710  1.00  0.00     0.000 C 
BRANCH   5   6
ATOM      6  C   UNL     1     -10.056  -5.788  -7.437  1.00  0.00     0.006 C 
BRANCH   6   7
ATOM      7  C   UNL     1     -11.013  -5.422  -6.296  1.00  0.00     0.053 C 
BRANCH   7   8
ATOM      8  C   UNL     1     -12.149  -6.394  -6.235  1.00  0.00     0.041 C 
ATOM      9  O   UNL     1     -13.239  -6.132  -6.808  1.00  0.00    -0.550 OA
ATOM     10  O   UNL     1     -12.020  -7.568  -5.504  1.00  0.00    -0.550 OA
ENDBRANCH   7   8
ENDBRANCH   6   7
ENDBRANCH   5   6
ENDBRANCH   4   5
ENDBRANCH   3   4
ENDBRANCH   2   3
ENDBRANCH   1   2
BRANCH   1  11
ATOM     11  C   UNL     1     -12.247   0.117  -9.994  1.00  0.00     0.000 C 
BRANCH  11  12
ATOM     12  C   UNL     1     -13.530  -0.652 -10.330  1.00  0.00    -0.000 C 
BRANCH  12  13
ATOM     13  C   UNL     1     -14.775   0.145  -9.920  1.00  0.00    -0.000 C 
BRANCH  13  14
ATOM     14  C   UNL     1     -14.508   1.655  -9.992  1.00  0.00    -0.000 C 
BRANCH  14  15
ATOM     15  C   UNL     1     -14.874   2.389  -8.689  1.00  0.00    -0.000 C 
BRANCH  15  16
ATOM     16  C   UNL     1     -14.060   3.669  -8.409  1.00  0.00    -0.000 C 
BRANCH  16  17
ATOM     17  C   UNL     1     -12.763   3.807  -9.225  1.00  0.00    -0.003 C 
ATOM     18  C   UNL     1     -11.508   3.526  -8.400  1.00  0.00     0.004 C 
ENDBRANCH  16  17
ENDBRANCH  15  16
ENDBRANCH  14  15
ENDBRANCH  13  14
ENDBRANCH  12  13
ENDBRANCH  11  12
ENDBRANCH   1  11
TORSDOF 14
ENDMDL
MODEL 2
REMARK VINA RESULT:    -5.266      3.829      8.172
REMARK INTER + INTRA:         -10.565
REMARK INTER:                  -9.659
REMARK INTRA:                  -0.906
REMARK UNBOUND:                -0.989
REMARK SMILES CCCCCCCCCCCCCCCC(=O)[O-]
REMARK SMILES IDX 9 1 10 2 11 3 12 4 13 5 14 6 15 7 16 8 17 9 18 10 8 11 7 12
REMARK SMILES IDX 6 13 5 14 4 15 3 16 2 17 1 18
REMARK H PARENT
REMARK Flexibility Score: inf
ROOT
ATOM      1  C   UNL     1     -10.640  -1.390  -9.518  1.00  0.00     0.000 C 
ENDROOT
BRANCH   1   2
ATOM      2  C   UNL     1     -11.679  -0.666 -10.388  1.00  0.00     0.000 C 
BRANCH   2   3
ATOM      3  C   UNL     1     -13.071  -1.311 -10.310  1.00  0.00     0.000 C 
BRANCH   3   4
ATOM      4  C   UNL     1     -14.162  -0.315 -10.724  1.00  0.00     0.000 C 
BRANCH   4   5
ATOM      5  C   UNL     1     -15.061   0.044  -9.532  1.00  0.00     0.000 C 
BRANCH   5   6
ATOM      6  C   UNL     1     -15.055   1.548  -9.217  1.00  0.00     0.006 C 
BRANCH   6   7
ATOM      7  C   UNL     1     -13.722   2.219  -9.571  1.00  0.00     0.053 C 
BRANCH   7   8
ATOM      8  C   UNL     1     -13.504   3.429  -8.718  1.00  0.00     0.041 C 
ATOM      9  O   UNL     1     -14.481   3.997  -8.163  1.00  0.00    -0.550 OA
ATOM     10  O   UNL     1     -12.228   3.958  -8.573  1.00  0.00    -0.550 OA
ENDBRANCH   7   8
ENDBRANCH   6   7
ENDBRANCH   5   6
ENDBRANCH   4   5
ENDBRANCH   3   4
ENDBRANCH   2   3
ENDBRANCH   1   2
BRANCH   1  11
ATOM     11  C   UNL     1      -9.930  -2.527 -10.269  1.00  0.00     0.000 C 
BRANCH  11  12
ATOM     12  C   UNL     1      -9.621  -3.698  -9.327  1.00  0.00    -0.000 C 
BRANCH  12  13
ATOM     13  C   UNL     1      -9.470  -3.217  -7.879  1.00  0.00    -0.000 C 
BRANCH  13  14
ATOM     14  C   UNL     1     -10.063  -4.236  -6.897  1.00  0.00    -0.000 C 
BRANCH  14  15
ATOM     15  C   UNL     1     -10.079  -5.670  -7.459  1.00  0.00    -0.000 C 
BRANCH  15  16
ATOM     16  C   UNL     1     -10.715  -6.727  -6.534  1.00  0.00    -0.000 C 
BRANCH  16  17
ATOM     17  C   UNL     1     -11.660  -6.166  -5.458  1.00  0.00    -0.003 C 
ATOM     18  C   UNL     1     -13.116  -6.579  -5.670  1.00  0.00     0.004 C 
ENDBRANCH  16  17
ENDBRANCH  15  16
ENDBRANCH  14  15
ENDBRANCH  13  14
ENDBRANCH  12  13
ENDBRANCH  11  12
ENDBRANCH   1  11
TORSDOF 14
ENDMDL
MODEL 3
REMARK VINA RESULT:    -5.089      3.618      7.824
REMARK INTER + INTRA:         -10.244
REMARK INTER:                  -8.965
REMARK INTRA:                  -1.278
REMARK UNBOUND:                -0.989
REMARK SMILES CCCCCCCCCCCCCCCC(=O)[O-]
REMARK SMILES IDX 9 1 10 2 11 3 12 4 13 5 14 6 15 7 16 8 17 9 18 10 8 11 7 12
REMARK SMILES IDX 6 13 5 14 4 15 3 16 2 17 1 18
REMARK H PARENT
REMARK Flexibility Score: inf
ROOT
ATOM      1  C   UNL     1     -10.605  -2.479  -9.494  1.00  0.00     0.000 C 
ENDROOT
BRANCH   1   2
ATOM      2  C   UNL     1     -10.644  -1.159 -10.279  1.00  0.00     0.000 C 
BRANCH   2   3
ATOM      3  C   UNL     1     -11.941  -0.368 -10.043  1.00  0.00     0.000 C 
BRANCH   3   4
ATOM      4  C   UNL     1     -13.155  -1.131 -10.588  1.00  0.00     0.000 C 
BRANCH   4   5
ATOM      5  C   UNL     1     -14.395  -0.227 -10.641  1.00  0.00     0.000 C 
BRANCH   5   6
ATOM      6  C   UNL     1     -14.581   0.598  -9.358  1.00  0.00     0.006 C 
BRANCH   6   7
ATOM      7  C   UNL     1     -14.974   2.053  -9.642  1.00  0.00     0.053 C 
BRANCH   7   8
ATOM      8  C   UNL     1     -13.926   2.988  -9.127  1.00  0.00     0.041 C 
ATOM      9  O   UNL     1     -12.706   2.726  -9.295  1.00  0.00    -0.550 OA
ATOM     10  O   UNL     1     -14.294   4.125  -8.419  1.00  0.00    -0.550 OA
ENDBRANCH   7   8
ENDBRANCH   6   7
ENDBRANCH   5   6
ENDBRANCH   4   5
ENDBRANCH   3   4
ENDBRANCH   2   3
ENDBRANCH   1   2
BRANCH   1  11
ATOM     11  C   UNL     1      -9.892  -2.342  -8.141  1.00  0.00     0.000 C 
BRANCH  11  12
ATOM     12  C   UNL     1      -9.695  -3.713  -7.481  1.00  0.00    -0.000 C 
BRANCH  12  13
ATOM     13  C   UNL     1      -9.569  -4.819  -8.536  1.00  0.00    -0.000 C 
BRANCH  13  14
ATOM     14  C   UNL     1     -10.128  -6.148  -8.009  1.00  0.00    -0.000 C 
BRANCH  14  15
ATOM     15  C   UNL     1     -11.647  -6.282  -8.216  1.00  0.00    -0.000 C 
BRANCH  15  16
ATOM     16  C   UNL     1     -12.156  -5.865  -9.610  1.00  0.00    -0.000 C 
BRANCH  16  17
ATOM     17  C   UNL     1     -13.409  -4.973  -9.606  1.00  0.00    -0.003 C 
ATOM     18  C   UNL     1     -14.508  -5.494  -8.680  1.00  0.00     0.004 C 
ENDBRANCH  16  17
ENDBRANCH  15  16
ENDBRANCH  14  15
ENDBRANCH  13  14
ENDBRANCH  12  13
ENDBRANCH  11  12
ENDBRANCH   1  11
TORSDOF 14
ENDMDL
MODEL 4
REMARK VINA RESULT:    -5.031      2.001      4.427
REMARK INTER + INTRA:         -10.139
REMARK INTER:                  -8.885
REMARK INTRA:                  -1.254
REMARK UNBOUND:                -0.989
REMARK SMILES CCCCCCCCCCCCCCCC(=O)[O-]
REMARK SMILES IDX 9 1 10 2 11 3 12 4 13 5 14 6 15 7 16 8 17 9 18 10 8 11 7 12
REMARK SMILES IDX 6 13 5 14 4 15 3 16 2 17 1 18
REMARK H PARENT
REMARK Flexibility Score: inf
ROOT
ATOM      1  C   UNL     1     -10.141  -4.045  -7.623  1.00  0.00     0.000 C 
ENDROOT
BRANCH   1   2
ATOM      2  C   UNL     1     -10.424  -5.465  -7.111  1.00  0.00     0.000 C 
BRANCH   2   3
ATOM      3  C   UNL     1     -11.065  -5.475  -5.715  1.00  0.00     0.000 C 
BRANCH   3   4
ATOM      4  C   UNL     1     -12.324  -6.352  -5.696  1.00  0.00     0.000 C 
BRANCH   4   5
ATOM      5  C   UNL     1     -12.310  -7.359  -6.855  1.00  0.00     0.000 C 
BRANCH   5   6
ATOM      6  C   UNL     1     -13.585  -7.293  -7.712  1.00  0.00     0.006 C 
BRANCH   6   7
ATOM      7  C   UNL     1     -13.923  -5.865  -8.157  1.00  0.00     0.053 C 
BRANCH   7   8
ATOM      8  C   UNL     1     -13.519  -5.652  -9.582  1.00  0.00     0.041 C 
ATOM      9  O   UNL     1     -14.349  -5.206 -10.416  1.00  0.00    -0.550 OA
ATOM     10  O   UNL     1     -12.239  -5.992 -10.000  1.00  0.00    -0.550 OA
ENDBRANCH   7   8
ENDBRANCH   6   7
ENDBRANCH   5   6
ENDBRANCH   4   5
ENDBRANCH   3   4
ENDBRANCH   2   3
ENDBRANCH   1   2
BRANCH   1  11
ATOM     11  C   UNL     1      -9.125  -4.023  -8.775  1.00  0.00     0.000 C 
BRANCH  11  12
ATOM     12  C   UNL     1      -9.717  -3.343 -10.017  1.00  0.00    -0.000 C 
BRANCH  12  13
ATOM     13  C   UNL     1     -10.908  -2.452  -9.642  1.00  0.00    -0.000 C 
BRANCH  13  14
ATOM     14  C   UNL     1     -10.695  -1.014 -10.137  1.00  0.00    -0.000 C 
BRANCH  14  15
ATOM     15  C   UNL     1     -11.972  -0.158 -10.055  1.00  0.00    -0.000 C 
BRANCH  15  16
ATOM     16  C   UNL     1     -13.259  -0.856 -10.539  1.00  0.00    -0.000 C 
BRANCH  16  17
ATOM     17  C   UNL     1     -14.569  -0.155 -10.140  1.00  0.00    -0.003 C 
ATOM     18  C   UNL     1     -14.348   1.257  -9.599  1.00  0.00     0.004 C 
ENDBRANCH  16  17
ENDBRANCH  15  16
ENDBRANCH  14  15
ENDBRANCH  13  14
ENDBRANCH  12  13
ENDBRANCH  11  12
ENDBRANCH   1  11
TORSDOF 14
ENDMDL
MODEL 5
REMARK VINA RESULT:    -4.999      1.390      2.280
REMARK INTER + INTRA:         -10.080
REMARK INTER:                  -8.947
REMARK INTRA:                  -1.133
REMARK UNBOUND:                -0.989
REMARK SMILES CCCCCCCCCCCCCCCC(=O)[O-]
REMARK SMILES IDX 9 1 10 2 11 3 12 4 13 5 14 6 15 7 16 8 17 9 18 10 8 11 7 12
REMARK SMILES IDX 6 13 5 14 4 15 3 16 2 17 1 18
REMARK H PARENT
REMARK Flexibility Score: inf
ROOT
ATOM      1  C   UNL     1     -10.274  -2.235  -9.233  1.00  0.00     0.000 C 
ENDROOT
BRANCH   1   2
ATOM      2  C   UNL     1     -10.463  -3.706  -9.633  1.00  0.00     0.000 C 
BRANCH   2   3
ATOM      3  C   UNL     1     -11.891  -4.211  -9.375  1.00  0.00     0.000 C 
BRANCH   3   4
ATOM      4  C   UNL     1     -11.979  -5.730  -9.569  1.00  0.00     0.000 C 
BRANCH   4   5
ATOM      5  C   UNL     1     -13.099  -6.332  -8.707  1.00  0.00     0.000 C 
BRANCH   5   6
ATOM      6  C   UNL     1     -12.562  -7.079  -7.476  1.00  0.00     0.006 C 
BRANCH   6   7
ATOM      7  C   UNL     1     -12.805  -6.315  -6.169  1.00  0.00     0.053 C 
BRANCH   7   8
ATOM      8  C   UNL     1     -11.507  -5.848  -5.588  1.00  0.00     0.041 C 
ATOM      9  O   UNL     1     -11.231  -6.085  -4.383  1.00  0.00    -0.550 OA
ATOM     10  O   UNL     1     -10.624  -5.109  -6.364  1.00  0.00    -0.550 OA
ENDBRANCH   7   8
ENDBRANCH   6   7
ENDBRANCH   5   6
ENDBRANCH   4   5
ENDBRANCH   3   4
ENDBRANCH   2   3
ENDBRANCH   1   2
BRANCH   1  11
ATOM     11  C   UNL     1     -10.660  -1.262 -10.357  1.00  0.00     0.000 C 
BRANCH  11  12
ATOM     12  C   UNL     1     -11.811  -0.346  -9.921  1.00  0.00    -0.000 C 
BRANCH  12  13
ATOM     13  C   UNL     1     -13.107  -0.700 -10.660  1.00  0.00    -0.000 C 
BRANCH  13  14
ATOM     14  C   UNL     1     -14.336  -0.226  -9.872  1.00  0.00    -0.000 C 
BRANCH  14  15
ATOM     15  C   UNL     1     -14.683   1.251 -10.136  1.00  0.00    -0.000 C 
BRANCH  15  16
ATOM     16  C   UNL     1     -14.974   2.089  -8.875  1.00  0.00    -0.000 C 
BRANCH  16  17
ATOM     17  C   UNL     1     -14.111   3.354  -8.720  1.00  0.00    -0.003 C 
ATOM     18  C   UNL     1     -12.680   3.163  -9.222  1.00  0.00     0.004 C 
ENDBRANCH  16  17
ENDBRANCH  15  16
ENDBRANCH  14  15
ENDBRANCH  13  14
ENDBRANCH  12  13
ENDBRANCH  11  12
ENDBRANCH   1  11
TORSDOF 14
ENDMDL
MODEL 6
REMARK VINA RESULT:    -4.855     15.201     17.715
REMARK INTER + INTRA:          -9.818
REMARK INTER:                  -8.452
REMARK INTRA:                  -1.366
REMARK UNBOUND:                -0.989
REMARK SMILES CCCCCCCCCCCCCCCC(=O)[O-]
REMARK SMILES IDX 9 1 10 2 11 3 12 4 13 5 14 6 15 7 16 8 17 9 18 10 8 11 7 12
REMARK SMILES IDX 6 13 5 14 4 15 3 16 2 17 1 18
REMARK H PARENT
REMARK Flexibility Score: inf
ROOT
ATOM      1  C   UNL     1     -13.617   4.720   5.199  1.00  0.00     0.000 C 
ENDROOT
BRANCH   1   2
ATOM      2  C   UNL     1     -13.589   5.249   3.757  1.00  0.00     0.000 C 
BRANCH   2   3
ATOM      3  C   UNL     1     -14.763   6.191   3.448  1.00  0.00     0.000 C 
BRANCH   3   4
ATOM      4  C   UNL     1     -14.281   7.442   2.703  1.00  0.00     0.000 C 
BRANCH   4   5
ATOM      5  C   UNL     1     -14.203   8.651   3.647  1.00  0.00     0.000 C 
BRANCH   5   6
ATOM      6  C   UNL     1     -14.201   9.991   2.894  1.00  0.00     0.006 C 
BRANCH   6   7
ATOM      7  C   UNL     1     -13.587   9.879   1.493  1.00  0.00     0.053 C 
BRANCH   7   8
ATOM      8  C   UNL     1     -12.401  10.783   1.369  1.00  0.00     0.041 C 
ATOM      9  O   UNL     1     -11.738  10.814   0.299  1.00  0.00    -0.550 OA
ATOM     10  O   UNL     1     -11.998  11.555   2.451  1.00  0.00    -0.550 OA
ENDBRANCH   7   8
ENDBRANCH   6   7
ENDBRANCH   5   6
ENDBRANCH   4   5
ENDBRANCH   3   4
ENDBRANCH   2   3
ENDBRANCH   1   2
BRANCH   1  11
ATOM     11  C   UNL     1     -13.550   5.845   6.243  1.00  0.00     0.000 C 
BRANCH  11  12
ATOM     12  C   UNL     1     -14.038   5.354   7.612  1.00  0.00    -0.000 C 
BRANCH  12  13
ATOM     13  C   UNL     1     -12.857   5.000   8.524  1.00  0.00    -0.000 C 
BRANCH  13  14
ATOM     14  C   UNL     1     -12.174   3.706   8.061  1.00  0.00    -0.000 C 
BRANCH  14  15
ATOM     15  C   UNL     1     -10.664   3.881   7.816  1.00  0.00    -0.000 C 
BRANCH  15  16
ATOM     16  C   UNL     1     -10.136   5.320   7.990  1.00  0.00    -0.000 C 
BRANCH  16  17
ATOM     17  C   UNL     1      -9.486   5.930   6.736  1.00  0.00    -0.003 C 
ATOM     18  C   UNL     1     -10.009   5.319   5.437  1.00  0.00     0.004 C 
ENDBRANCH  16  17
ENDBRANCH  15  16
ENDBRANCH  14  15
ENDBRANCH  13  14
ENDBRANCH  12  13
ENDBRANCH  11  12
ENDBRANCH   1  11
TORSDOF 14
ENDMDL
MODEL 7
REMARK VINA RESULT:    -4.779      3.908      7.899
REMARK INTER + INTRA:          -9.679
REMARK INTER:                  -8.760
REMARK INTRA:                  -0.919
REMARK UNBOUND:                -0.989
REMARK SMILES CCCCCCCCCCCCCCCC(=O)[O-]
REMARK SMILES IDX 9 1 10 2 11 3 12 4 13 5 14 6 15 7 16 8 17 9 18 10 8 11 7 12
REMARK SMILES IDX 6 13 5 14 4 15 3 16 2 17 1 18
REMARK H PARENT
REMARK Flexibility Score: inf
ROOT
ATOM      1  C   UNL     1     -14.720  -4.153 -10.106  1.00  0.00     0.000 C 
ENDROOT
BRANCH   1   2
ATOM      2  C   UNL     1     -15.047  -2.705  -9.710  1.00  0.00     0.000 C 
BRANCH   2   3
ATOM      3  C   UNL     1     -14.837  -1.713 -10.864  1.00  0.00     0.000 C 
BRANCH   3   4
ATOM      4  C   UNL     1     -13.933  -0.551 -10.430  1.00  0.00     0.000 C 
BRANCH   4   5
ATOM      5  C   UNL     1     -14.731   0.757 -10.325  1.00  0.00     0.000 C 
BRANCH   5   6
ATOM      6  C   UNL     1     -14.196   1.689  -9.227  1.00  0.00     0.006 C 
BRANCH   6   7
ATOM      7  C   UNL     1     -12.685   1.929  -9.339  1.00  0.00     0.053 C 
BRANCH   7   8
ATOM      8  C   UNL     1     -12.325   3.269  -8.780  1.00  0.00     0.041 C 
ATOM      9  O   UNL     1     -11.140   3.513  -8.434  1.00  0.00    -0.550 OA
ATOM     10  O   UNL     1     -13.309   4.232  -8.595  1.00  0.00    -0.550 OA
ENDBRANCH   7   8
ENDBRANCH   6   7
ENDBRANCH   5   6
ENDBRANCH   4   5
ENDBRANCH   3   4
ENDBRANCH   2   3
ENDBRANCH   1   2
BRANCH   1  11
ATOM     11  C   UNL     1     -14.616  -5.089  -8.892  1.00  0.00     0.000 C 
BRANCH  11  12
ATOM     12  C   UNL     1     -13.365  -5.973  -8.985  1.00  0.00    -0.000 C 
BRANCH  12  13
ATOM     13  C   UNL     1     -12.476  -5.802  -7.747  1.00  0.00    -0.000 C 
BRANCH  13  14
ATOM     14  C   UNL     1     -11.160  -6.575  -7.905  1.00  0.00    -0.000 C 
BRANCH  14  15
ATOM     15  C   UNL     1      -9.920  -5.664  -7.840  1.00  0.00    -0.000 C 
BRANCH  15  16
ATOM     16  C   UNL     1     -10.074  -4.412  -6.954  1.00  0.00    -0.000 C 
BRANCH  16  17
ATOM     17  C   UNL     1      -9.759  -3.078  -7.652  1.00  0.00    -0.003 C 
ATOM     18  C   UNL     1     -10.324  -3.000  -9.070  1.00  0.00     0.004 C 
ENDBRANCH  16  17
ENDBRANCH  15  16
ENDBRANCH  14  15
ENDBRANCH  13  14
ENDBRANCH  12  13
ENDBRANCH  11  12
ENDBRANCH   1  11
TORSDOF 14
ENDMDL
MODEL 8
REMARK VINA RESULT:    -4.773     16.015     18.219
REMARK INTER + INTRA:          -9.670
REMARK INTER:                  -8.286
REMARK INTRA:                  -1.384
REMARK UNBOUND:                -0.989
REMARK SMILES CCCCCCCCCCCCCCCC(=O)[O-]
REMARK SMILES IDX 9 1 10 2 11 3 12 4 13 5 14 6 15 7 16 8 17 9 18 10 8 11 7 12
REMARK SMILES IDX 6 13 5 14 4 15 3 16 2 17 1 18
REMARK H PARENT
REMARK Flexibility Score: inf
ROOT
ATOM      1  C   UNL     1     -10.076   5.287   7.708  1.00  0.00     0.000 C 
ENDROOT
BRANCH   1   2
ATOM      2  C   UNL     1     -10.685   3.877   7.669  1.00  0.00     0.000 C 
BRANCH   2   3
ATOM      3  C   UNL     1     -11.907   3.734   8.589  1.00  0.00     0.000 C 
BRANCH   3   4
ATOM      4  C   UNL     1     -12.748   5.017   8.587  1.00  0.00     0.000 C 
BRANCH   4   5
ATOM      5  C   UNL     1     -13.889   4.926   7.562  1.00  0.00     0.000 C 
BRANCH   5   6
ATOM      6  C   UNL     1     -14.115   6.247   6.810  1.00  0.00     0.006 C 
BRANCH   6   7
ATOM      7  C   UNL     1     -13.136   6.438   5.645  1.00  0.00     0.053 C 
BRANCH   7   8
ATOM      8  C   UNL     1     -13.233   5.292   4.688  1.00  0.00     0.041 C 
ATOM      9  O   UNL     1     -12.302   4.447   4.616  1.00  0.00    -0.550 OA
ATOM     10  O   UNL     1     -14.329   5.183   3.842  1.00  0.00    -0.550 OA
ENDBRANCH   7   8
ENDBRANCH   6   7
ENDBRANCH   5   6
ENDBRANCH   4   5
ENDBRANCH   3   4
ENDBRANCH   2   3
ENDBRANCH   1   2
BRANCH   1  11
ATOM     11  C   UNL     1      -9.487   5.715   6.355  1.00  0.00     0.000 C 
BRANCH  11  12
ATOM     12  C   UNL     1      -9.700   7.214   6.113  1.00  0.00    -0.000 C 
BRANCH  12  13
ATOM     13  C   UNL     1      -8.416   8.006   6.393  1.00  0.00    -0.000 C 
BRANCH  13  14
ATOM     14  C   UNL     1      -7.936   8.738   5.131  1.00  0.00    -0.000 C 
BRANCH  14  15
ATOM     15  C   UNL     1      -7.362  10.134   5.433  1.00  0.00    -0.000 C 
BRANCH  15  16
ATOM     16  C   UNL     1      -5.960  10.140   6.074  1.00  0.00    -0.000 C 
BRANCH  16  17
ATOM     17  C   UNL     1      -5.821  11.022   7.327  1.00  0.00    -0.003 C 
ATOM     18  C   UNL     1      -7.026  10.923   8.262  1.00  0.00     0.004 C 
ENDBRANCH  16  17
ENDBRANCH  15  16
ENDBRANCH  14  15
ENDBRANCH  13  14
ENDBRANCH  12  13
ENDBRANCH  11  12
ENDBRANCH   1  11
TORSDOF 14
ENDMDL
MODEL 9
REMARK VINA RESULT:    -4.767     17.195     18.883
REMARK INTER + INTRA:          -9.659
REMARK INTER:                  -7.697
REMARK INTRA:                  -1.961
REMARK UNBOUND:                -0.989
REMARK SMILES CCCCCCCCCCCCCCCC(=O)[O-]
REMARK SMILES IDX 9 1 10 2 11 3 12 4 13 5 14 6 15 7 16 8 17 9 18 10 8 11 7 12
REMARK SMILES IDX 6 13 5 14 4 15 3 16 2 17 1 18
REMARK H PARENT
REMARK Flexibility Score: inf
ROOT
ATOM      1  C   UNL     1     -10.679   3.857   8.400  1.00  0.00     0.000 C 
ENDROOT
BRANCH   1   2
ATOM      2  C   UNL     1     -10.211   5.278   8.050  1.00  0.00     0.000 C 
BRANCH   2   3
ATOM      3  C   UNL     1      -9.477   5.346   6.702  1.00  0.00     0.000 C 
BRANCH   3   4
ATOM      4  C   UNL     1      -9.690   6.708   6.029  1.00  0.00     0.000 C 
BRANCH   4   5
ATOM      5  C   UNL     1      -8.603   7.708   6.452  1.00  0.00     0.000 C 
BRANCH   5   6
ATOM      6  C   UNL     1      -8.165   8.627   5.302  1.00  0.00     0.006 C 
BRANCH   6   7
ATOM      7  C   UNL     1      -7.904  10.066   5.763  1.00  0.00     0.053 C 
BRANCH   7   8
ATOM      8  C   UNL     1      -6.867  10.090   6.842  1.00  0.00     0.041 C 
ATOM      9  O   UNL     1      -7.183  10.416   8.016  1.00  0.00    -0.550 OA
ATOM     10  O   UNL     1      -5.543   9.797   6.541  1.00  0.00    -0.550 OA
ENDBRANCH   7   8
ENDBRANCH   6   7
ENDBRANCH   5   6
ENDBRANCH   4   5
ENDBRANCH   3   4
ENDBRANCH   2   3
ENDBRANCH   1   2
BRANCH   1  11
ATOM     11  C   UNL     1     -11.608   3.261   7.332  1.00  0.00     0.000 C 
BRANCH  11  12
ATOM     12  C   UNL     1     -12.960   3.986   7.313  1.00  0.00    -0.000 C 
BRANCH  12  13
ATOM     13  C   UNL     1     -13.218   4.636   5.948  1.00  0.00    -0.000 C 
BRANCH  13  14
ATOM     14  C   UNL     1     -13.484   6.140   6.097  1.00  0.00    -0.000 C 
BRANCH  14  15
ATOM     15  C   UNL     1     -13.739   6.561   7.556  1.00  0.00    -0.000 C 
BRANCH  15  16
ATOM     16  C   UNL     1     -12.922   7.777   8.037  1.00  0.00    -0.000 C 
BRANCH  16  17
ATOM     17  C   UNL     1     -12.352   8.663   6.916  1.00  0.00    -0.003 C 
ATOM     18  C   UNL     1     -12.063  10.092   7.376  1.00  0.00     0.004 C 
ENDBRANCH  16  17
ENDBRANCH  15  16
ENDBRANCH  14  15
ENDBRANCH  13  14
ENDBRANCH  12  13
ENDBRANCH  11  12
ENDBRANCH   1  11
TORSDOF 14
ENDMDL
