MODEL 1
REMARK VINA RESULT:     0.000      0.000      0.000
REMARK INTER + INTRA:          -7.628
REMARK INTER:                   0.000
REMARK INTRA:                  -7.628
REMARK UNBOUND:                -7.628
REMARK SMILES CCCCCCCCCCCCCCCCCCCCCCCCCCCCCC(=O)[O-]
REMARK SMILES IDX 16 1 17 2 18 3 19 4 20 5 21 6 22 7 23 8 24 9 25 10 26 11
REMARK SMILES IDX 27 12 28 13 29 14 30 15 31 16 32 17 15 18 14 19 13 20 12 21
REMARK SMILES IDX 11 22 10 23 9 24 8 25 7 26 6 27 5 28 4 29 3 30 2 31 1 32
REMARK H PARENT
REMARK Flexibility Score: inf
ROOT
ATOM      1  C   UNL     1     184.743 182.756 183.662  1.00  0.00     0.000 C 
ENDROOT
BRANCH   1   2
ATOM      2  C   UNL     1     185.951 183.141 182.787  1.00  0.00     0.000 C 
BRANCH   2   3
ATOM      3  C   UNL     1     187.187 182.243 183.009  1.00  0.00     0.000 C 
BRANCH   3   4
ATOM      4  C   UNL     1     188.404 183.031 183.520  1.00  0.00     0.000 C 
BRANCH   4   5
ATOM      5  C   UNL     1     188.180 183.595 184.934  1.00  0.00     0.000 C 
BRANCH   5   6
ATOM      6  C   UNL     1     188.443 185.108 185.009  1.00  0.00     0.000 C 
BRANCH   6   7
ATOM      7  C   UNL     1     188.505 185.764 183.619  1.00  0.00     0.000 C 
BRANCH   7   8
ATOM      8  C   UNL     1     188.235 187.279 183.677  1.00  0.00     0.000 C 
BRANCH   8   9
ATOM      9  C   UNL     1     187.461 187.796 182.452  1.00  0.00     0.000 C 
BRANCH   9  10
ATOM     10  C   UNL     1     186.888 186.657 181.589  1.00  0.00     0.000 C 
BRANCH  10  11
ATOM     11  C   UNL     1     186.602 187.088 180.135  1.00  0.00     0.000 C 
BRANCH  11  12
ATOM     12  C   UNL     1     186.826 185.972 179.095  1.00  0.00     0.000 C 
BRANCH  12  13
ATOM     13  C   UNL     1     186.969 184.552 179.675  1.00  0.00     0.006 C 
BRANCH  13  14
ATOM     14  C   UNL     1     188.105 183.723 179.053  1.00  0.00     0.053 C 
BRANCH  14  15
ATOM     15  C   UNL     1     189.259 183.562 179.995  1.00  0.00     0.041 C 
ATOM     16  O   UNL     1     189.790 184.571 180.528  1.00  0.00    -0.550 OA
ATOM     17  O   UNL     1     189.767 182.296 180.260  1.00  0.00    -0.550 OA
ENDBRANCH  14  15
ENDBRANCH  13  14
ENDBRANCH  12  13
ENDBRANCH  11  12
ENDBRANCH  10  11
ENDBRANCH   9  10
ENDBRANCH   8   9
ENDBRANCH   7   8
ENDBRANCH   6   7
ENDBRANCH   5   6
ENDBRANCH   4   5
ENDBRANCH   3   4
ENDBRANCH   2   3
ENDBRANCH   1   2
BRANCH   1  18
ATOM     18  C   UNL     1     184.272 183.850 184.637  1.00  0.00     0.000 C 
BRANCH  18  19
ATOM     19  C   UNL     1     184.862 185.252 184.382  1.00  0.00     0.000 C 
BRANCH  19  20
ATOM     20  C   UNL     1     184.035 186.400 185.001  1.00  0.00     0.000 C 
BRANCH  20  21
ATOM     21  C   UNL     1     184.517 187.786 184.535  1.00  0.00     0.000 C 
BRANCH  21  22
ATOM     22  C   UNL     1     183.468 188.546 183.698  1.00  0.00     0.000 C 
BRANCH  22  23
ATOM     23  C   UNL     1     183.810 188.718 182.205  1.00  0.00     0.000 C 
BRANCH  23  24
ATOM     24  C   UNL     1     183.079 187.770 181.233  1.00  0.00    -0.000 C 
BRANCH  24  25
ATOM     25  C   UNL     1     181.977 186.910 181.885  1.00  0.00    -0.000 C 
BRANCH  25  26
ATOM     26  C   UNL     1     182.257 185.403 181.785  1.00  0.00    -0.000 C 
BRANCH  26  27
ATOM     27  C   UNL     1     183.510 185.125 180.945  1.00  0.00    -0.000 C 
BRANCH  27  28
ATOM     28  C   UNL     1     183.305 183.984 179.933  1.00  0.00    -0.000 C 
BRANCH  28  29
ATOM     29  C   UNL     1     182.614 182.747 180.546  1.00  0.00    -0.000 C 
BRANCH  29  30
ATOM     30  C   UNL     1     183.486 181.482 180.447  1.00  0.00    -0.000 C 
BRANCH  30  31
ATOM     31  C   UNL     1     184.680 181.676 179.499  1.00  0.00    -0.003 C 
ATOM     32  C   UNL     1     185.853 180.757 179.843  1.00  0.00     0.004 C 
ENDBRANCH  30  31
ENDBRANCH  29  30
ENDBRANCH  28  29
ENDBRANCH  27  28
ENDBRANCH  26  27
ENDBRANCH  25  26
ENDBRANCH  24  25
ENDBRANCH  23  24
ENDBRANCH  22  23
ENDBRANCH  21  22
ENDBRANCH  20  21
ENDBRANCH  19  20
ENDBRANCH  18  19
ENDBRANCH   1  18
TORSDOF 28
ENDMDL
MODEL 2
REMARK VINA RESULT:     0.015      8.702     11.380
REMARK INTER + INTRA:          -7.589
REMARK INTER:                   0.000
REMARK INTRA:                  -7.589
REMARK UNBOUND:                -7.628
REMARK SMILES CCCCCCCCCCCCCCCCCCCCCCCCCCCCCC(=O)[O-]
REMARK SMILES IDX 16 1 17 2 18 3 19 4 20 5 21 6 22 7 23 8 24 9 25 10 26 11
REMARK SMILES IDX 27 12 28 13 29 14 30 15 31 16 32 17 15 18 14 19 13 20 12 21
REMARK SMILES IDX 11 22 10 23 9 24 8 25 7 26 6 27 5 28 4 29 3 30 2 31 1 32
REMARK H PARENT
REMARK Flexibility Score: inf
ROOT
ATOM      1  C   UNL     1     178.520 184.496 185.393  1.00  0.00     0.000 C 
ENDROOT
BRANCH   1   2
ATOM      2  C   UNL     1     178.800 183.416 184.331  1.00  0.00     0.000 C 
BRANCH   2   3
ATOM      3  C   UNL     1     179.926 182.436 184.727  1.00  0.00     0.000 C 
BRANCH   3   4
ATOM      4  C   UNL     1     180.393 182.631 186.179  1.00  0.00     0.000 C 
BRANCH   4   5
ATOM      5  C   UNL     1     180.742 181.297 186.862  1.00  0.00     0.000 C 
BRANCH   5   6
ATOM      6  C   UNL     1     180.625 180.102 185.902  1.00  0.00     0.000 C 
BRANCH   6   7
ATOM      7  C   UNL     1     179.812 178.942 186.503  1.00  0.00     0.000 C 
BRANCH   7   8
ATOM      8  C   UNL     1     179.704 179.038 188.036  1.00  0.00     0.000 C 
BRANCH   8   9
ATOM      9  C   UNL     1     179.685 177.660 188.721  1.00  0.00     0.000 C 
BRANCH   9  10
ATOM     10  C   UNL     1     178.448 177.460 189.616  1.00  0.00     0.000 C 
BRANCH  10  11
ATOM     11  C   UNL     1     177.318 178.469 189.316  1.00  0.00     0.000 C 
BRANCH  11  12
ATOM     12  C   UNL     1     176.121 177.861 188.560  1.00  0.00     0.000 C 
BRANCH  12  13
ATOM     13  C   UNL     1     176.290 177.759 187.032  1.00  0.00     0.006 C 
BRANCH  13  14
ATOM     14  C   UNL     1     176.164 176.332 186.471  1.00  0.00     0.053 C 
BRANCH  14  15
ATOM     15  C   UNL     1     177.477 175.612 186.474  1.00  0.00     0.041 C 
ATOM     16  O   UNL     1     177.746 174.786 187.384  1.00  0.00    -0.550 OA
ATOM     17  O   UNL     1     178.417 175.879 185.487  1.00  0.00    -0.550 OA
ENDBRANCH  14  15
ENDBRANCH  13  14
ENDBRANCH  12  13
ENDBRANCH  11  12
ENDBRANCH  10  11
ENDBRANCH   9  10
ENDBRANCH   8   9
ENDBRANCH   7   8
ENDBRANCH   6   7
ENDBRANCH   5   6
ENDBRANCH   4   5
ENDBRANCH   3   4
ENDBRANCH   2   3
ENDBRANCH   1   2
BRANCH   1  18
ATOM     18  C   UNL     1     177.084 185.049 185.395  1.00  0.00     0.000 C 
BRANCH  18  19
ATOM     19  C   UNL     1     176.413 185.123 186.781  1.00  0.00     0.000 C 
BRANCH  19  20
ATOM     20  C   UNL     1     177.229 184.448 187.906  1.00  0.00     0.000 C 
BRANCH  20  21
ATOM     21  C   UNL     1     176.545 183.178 188.443  1.00  0.00     0.000 C 
BRANCH  21  22
ATOM     22  C   UNL     1     177.286 181.881 188.063  1.00  0.00     0.000 C 
BRANCH  22  23
ATOM     23  C   UNL     1     176.934 181.297 186.680  1.00  0.00     0.000 C 
BRANCH  23  24
ATOM     24  C   UNL     1     175.447 181.366 186.278  1.00  0.00    -0.000 C 
BRANCH  24  25
ATOM     25  C   UNL     1     175.193 181.919 184.861  1.00  0.00    -0.000 C 
BRANCH  25  26
ATOM     26  C   UNL     1     174.274 181.018 184.022  1.00  0.00    -0.000 C 
BRANCH  26  27
ATOM     27  C   UNL     1     173.972 179.701 184.751  1.00  0.00    -0.000 C 
BRANCH  27  28
ATOM     28  C   UNL     1     174.350 178.463 183.918  1.00  0.00    -0.000 C 
BRANCH  28  29
ATOM     29  C   UNL     1     175.464 178.742 182.887  1.00  0.00    -0.000 C 
BRANCH  29  30
ATOM     30  C   UNL     1     176.860 178.375 183.422  1.00  0.00    -0.000 C 
BRANCH  30  31
ATOM     31  C   UNL     1     177.795 179.593 183.487  1.00  0.00    -0.003 C 
ATOM     32  C   UNL     1     177.605 180.539 182.300  1.00  0.00     0.004 C 
ENDBRANCH  30  31
ENDBRANCH  29  30
ENDBRANCH  28  29
ENDBRANCH  27  28
ENDBRANCH  26  27
ENDBRANCH  25  26
ENDBRANCH  24  25
ENDBRANCH  23  24
ENDBRANCH  22  23
ENDBRANCH  21  22
ENDBRANCH  20  21
ENDBRANCH  19  20
ENDBRANCH  18  19
ENDBRANCH   1  18
TORSDOF 28
ENDMDL
MODEL 3
REMARK VINA RESULT:     0.029      4.653      6.967
REMARK INTER + INTRA:          -7.552
REMARK INTER:                   0.000
REMARK INTRA:                  -7.552
REMARK UNBOUND:                -7.628
REMARK SMILES CCCCCCCCCCCCCCCCCCCCCCCCCCCCCC(=O)[O-]
REMARK SMILES IDX 16 1 17 2 18 3 19 4 20 5 21 6 22 7 23 8 24 9 25 10 26 11
REMARK SMILES IDX 27 12 28 13 29 14 30 15 31 16 32 17 15 18 14 19 13 20 12 21
REMARK SMILES IDX 11 22 10 23 9 24 8 25 7 26 6 27 5 28 4 29 3 30 2 31 1 32
REMARK H PARENT
REMARK Flexibility Score: inf
ROOT
ATOM      1  C   UNL     1     178.881 182.795 180.593  1.00  0.00     0.000 C 
ENDROOT
BRANCH   1   2
ATOM      2  C   UNL     1     179.467 181.569 179.867  1.00  0.00     0.000 C 
BRANCH   2   3
ATOM      3  C   UNL     1     180.875 181.173 180.360  1.00  0.00     0.000 C 
BRANCH   3   4
ATOM      4  C   UNL     1     180.891 179.805 181.062  1.00  0.00     0.000 C 
BRANCH   4   5
ATOM      5  C   UNL     1     182.319 179.337 181.393  1.00  0.00     0.000 C 
BRANCH   5   6
ATOM      6  C   UNL     1     183.387 180.333 180.911  1.00  0.00     0.000 C 
BRANCH   6   7
ATOM      7  C   UNL     1     184.549 179.642 180.179  1.00  0.00     0.000 C 
BRANCH   7   8
ATOM      8  C   UNL     1     185.139 180.521 179.060  1.00  0.00     0.000 C 
BRANCH   8   9
ATOM      9  C   UNL     1     184.139 181.565 178.530  1.00  0.00     0.000 C 
BRANCH   9  10
ATOM     10  C   UNL     1     184.407 181.952 177.064  1.00  0.00     0.000 C 
BRANCH  10  11
ATOM     11  C   UNL     1     183.114 182.234 176.270  1.00  0.00     0.000 C 
BRANCH  11  12
ATOM     12  C   UNL     1     181.844 181.639 176.910  1.00  0.00     0.000 C 
BRANCH  12  13
ATOM     13  C   UNL     1     181.383 180.290 176.324  1.00  0.00     0.006 C 
BRANCH  13  14
ATOM     14  C   UNL     1     181.147 179.189 177.372  1.00  0.00     0.053 C 
BRANCH  14  15
ATOM     15  C   UNL     1     182.348 178.309 177.538  1.00  0.00     0.041 C 
ATOM     16  O   UNL     1     182.379 177.443 178.449  1.00  0.00    -0.550 OA
ATOM     17  O   UNL     1     183.445 178.468 176.701  1.00  0.00    -0.550 OA
ENDBRANCH  14  15
ENDBRANCH  13  14
ENDBRANCH  12  13
ENDBRANCH  11  12
ENDBRANCH  10  11
ENDBRANCH   9  10
ENDBRANCH   8   9
ENDBRANCH   7   8
ENDBRANCH   6   7
ENDBRANCH   5   6
ENDBRANCH   4   5
ENDBRANCH   3   4
ENDBRANCH   2   3
ENDBRANCH   1   2
BRANCH   1  18
ATOM     18  C   UNL     1     178.720 182.633 182.116  1.00  0.00     0.000 C 
BRANCH  18  19
ATOM     19  C   UNL     1     179.695 183.470 182.968  1.00  0.00     0.000 C 
BRANCH  19  20
ATOM     20  C   UNL     1     180.733 182.626 183.740  1.00  0.00     0.000 C 
BRANCH  20  21
ATOM     21  C   UNL     1     182.179 182.962 183.334  1.00  0.00     0.000 C 
BRANCH  21  22
ATOM     22  C   UNL     1     182.286 184.211 182.436  1.00  0.00     0.000 C 
BRANCH  22  23
ATOM     23  C   UNL     1     183.054 184.014 181.115  1.00  0.00     0.000 C 
BRANCH  23  24
ATOM     24  C   UNL     1     182.338 184.501 179.839  1.00  0.00    -0.000 C 
BRANCH  24  25
ATOM     25  C   UNL     1     181.237 185.553 180.086  1.00  0.00    -0.000 C 
BRANCH  25  26
ATOM     26  C   UNL     1     180.318 185.752 178.872  1.00  0.00    -0.000 C 
BRANCH  26  27
ATOM     27  C   UNL     1     180.910 185.103 177.614  1.00  0.00    -0.000 C 
BRANCH  27  28
ATOM     28  C   UNL     1     179.859 184.881 176.511  1.00  0.00    -0.000 C 
BRANCH  28  29
ATOM     29  C   UNL     1     178.619 184.105 177.003  1.00  0.00    -0.000 C 
BRANCH  29  30
ATOM     30  C   UNL     1     178.492 182.723 176.336  1.00  0.00    -0.000 C 
BRANCH  30  31
ATOM     31  C   UNL     1     177.334 181.901 176.923  1.00  0.00    -0.003 C 
ATOM     32  C   UNL     1     177.547 180.395 176.764  1.00  0.00     0.004 C 
ENDBRANCH  30  31
ENDBRANCH  29  30
ENDBRANCH  28  29
ENDBRANCH  27  28
ENDBRANCH  26  27
ENDBRANCH  25  26
ENDBRANCH  24  25
ENDBRANCH  23  24
ENDBRANCH  22  23
ENDBRANCH  21  22
ENDBRANCH  20  21
ENDBRANCH  19  20
ENDBRANCH  18  19
ENDBRANCH   1  18
TORSDOF 28
ENDMDL
MODEL 4
REMARK VINA RESULT:     0.033      2.073      2.781
REMARK INTER + INTRA:          -7.541
REMARK INTER:                   0.000
REMARK INTRA:                  -7.541
REMARK UNBOUND:                -7.628
REMARK SMILES CCCCCCCCCCCCCCCCCCCCCCCCCCCCCC(=O)[O-]
REMARK SMILES IDX 16 1 17 2 18 3 19 4 20 5 21 6 22 7 23 8 24 9 25 10 26 11
REMARK SMILES IDX 27 12 28 13 29 14 30 15 31 16 32 17 15 18 14 19 13 20 12 21
REMARK SMILES IDX 11 22 10 23 9 24 8 25 7 26 6 27 5 28 4 29 3 30 2 31 1 32
REMARK H PARENT
REMARK Flexibility Score: inf
ROOT
ATOM      1  C   UNL     1     183.690 180.533 184.854  1.00  0.00     0.000 C 
ENDROOT
BRANCH   1   2
ATOM      2  C   UNL     1     184.897 180.917 183.979  1.00  0.00     0.000 C 
BRANCH   2   3
ATOM      3  C   UNL     1     186.164 180.083 184.271  1.00  0.00     0.000 C 
BRANCH   3   4
ATOM      4  C   UNL     1     187.358 180.954 184.695  1.00  0.00     0.000 C 
BRANCH   4   5
ATOM      5  C   UNL     1     187.150 181.592 186.080  1.00  0.00     0.000 C 
BRANCH   5   6
ATOM      6  C   UNL     1     187.359 183.115 186.059  1.00  0.00     0.000 C 
BRANCH   6   7
ATOM      7  C   UNL     1     187.327 183.694 184.635  1.00  0.00     0.000 C 
BRANCH   7   8
ATOM      8  C   UNL     1     187.072 185.213 184.629  1.00  0.00     0.000 C 
BRANCH   8   9
ATOM      9  C   UNL     1     186.169 185.663 183.466  1.00  0.00     0.000 C 
BRANCH   9  10
ATOM     10  C   UNL     1     185.607 184.478 182.659  1.00  0.00     0.000 C 
BRANCH  10  11
ATOM     11  C   UNL     1     185.371 184.821 181.173  1.00  0.00     0.000 C 
BRANCH  11  12
ATOM     12  C   UNL     1     185.694 183.665 180.205  1.00  0.00     0.000 C 
BRANCH  12  13
ATOM     13  C   UNL     1     185.833 182.278 180.860  1.00  0.00     0.006 C 
BRANCH  13  14
ATOM     14  C   UNL     1     186.920 181.387 180.237  1.00  0.00     0.053 C 
BRANCH  14  15
ATOM     15  C   UNL     1     188.107 181.240 181.139  1.00  0.00     0.041 C 
ATOM     16  O   UNL     1     188.669 182.258 181.619  1.00  0.00    -0.550 OA
ATOM     17  O   UNL     1     188.610 179.977 181.424  1.00  0.00    -0.550 OA
ENDBRANCH  14  15
ENDBRANCH  13  14
ENDBRANCH  12  13
ENDBRANCH  11  12
ENDBRANCH  10  11
ENDBRANCH   9  10
ENDBRANCH   8   9
ENDBRANCH   7   8
ENDBRANCH   6   7
ENDBRANCH   5   6
ENDBRANCH   4   5
ENDBRANCH   3   4
ENDBRANCH   2   3
ENDBRANCH   1   2
BRANCH   1  18
ATOM     18  C   UNL     1     183.218 181.627 185.829  1.00  0.00     0.000 C 
BRANCH  18  19
ATOM     19  C   UNL     1     183.734 183.046 185.518  1.00  0.00     0.000 C 
BRANCH  19  20
ATOM     20  C   UNL     1     182.850 184.173 186.097  1.00  0.00     0.000 C 
BRANCH  20  21
ATOM     21  C   UNL     1     183.223 185.557 185.535  1.00  0.00     0.000 C 
BRANCH  21  22
ATOM     22  C   UNL     1     182.101 186.195 184.693  1.00  0.00     0.000 C 
BRANCH  22  23
ATOM     23  C   UNL     1     182.426 186.398 183.200  1.00  0.00     0.000 C 
BRANCH  23  24
ATOM     24  C   UNL     1     181.832 185.355 182.232  1.00  0.00    -0.000 C 
BRANCH  24  25
ATOM     25  C   UNL     1     180.725 184.472 182.844  1.00  0.00    -0.000 C 
BRANCH  25  26
ATOM     26  C   UNL     1     181.116 182.988 182.916  1.00  0.00    -0.000 C 
BRANCH  26  27
ATOM     27  C   UNL     1     182.373 182.703 182.083  1.00  0.00    -0.000 C 
BRANCH  27  28
ATOM     28  C   UNL     1     182.159 181.578 181.054  1.00  0.00    -0.000 C 
BRANCH  28  29
ATOM     29  C   UNL     1     181.488 180.325 181.656  1.00  0.00    -0.000 C 
BRANCH  29  30
ATOM     30  C   UNL     1     182.449 179.124 181.722  1.00  0.00    -0.000 C 
BRANCH  30  31
ATOM     31  C   UNL     1     183.661 179.300 180.793  1.00  0.00    -0.003 C 
ATOM     32  C   UNL     1     184.838 178.412 181.195  1.00  0.00     0.004 C 
ENDBRANCH  30  31
ENDBRANCH  29  30
ENDBRANCH  28  29
ENDBRANCH  27  28
ENDBRANCH  26  27
ENDBRANCH  25  26
ENDBRANCH  24  25
ENDBRANCH  23  24
ENDBRANCH  22  23
ENDBRANCH  21  22
ENDBRANCH  20  21
ENDBRANCH  19  20
ENDBRANCH  18  19
ENDBRANCH   1  18
TORSDOF 28
ENDMDL
MODEL 5
REMARK VINA RESULT:     0.044      7.534     10.820
REMARK INTER + INTRA:          -7.512
REMARK INTER:                   0.000
REMARK INTRA:                  -7.512
REMARK UNBOUND:                -7.628
REMARK SMILES CCCCCCCCCCCCCCCCCCCCCCCCCCCCCC(=O)[O-]
REMARK SMILES IDX 16 1 17 2 18 3 19 4 20 5 21 6 22 7 23 8 24 9 25 10 26 11
REMARK SMILES IDX 27 12 28 13 29 14 30 15 31 16 32 17 15 18 14 19 13 20 12 21
REMARK SMILES IDX 11 22 10 23 9 24 8 25 7 26 6 27 5 28 4 29 3 30 2 31 1 32
REMARK H PARENT
REMARK Flexibility Score: inf
ROOT
ATOM      1  C   UNL     1     185.294 176.546 182.624  1.00  0.00     0.000 C 
ENDROOT
BRANCH   1   2
ATOM      2  C   UNL     1     186.727 175.982 182.573  1.00  0.00     0.000 C 
BRANCH   2   3
ATOM      3  C   UNL     1     186.975 174.831 183.571  1.00  0.00     0.000 C 
BRANCH   3   4
ATOM      4  C   UNL     1     186.493 173.472 183.035  1.00  0.00     0.000 C 
BRANCH   4   5
ATOM      5  C   UNL     1     185.969 172.558 184.155  1.00  0.00     0.000 C 
BRANCH   5   6
ATOM      6  C   UNL     1     184.562 172.015 183.856  1.00  0.00     0.000 C 
BRANCH   6   7
ATOM      7  C   UNL     1     183.737 172.970 182.976  1.00  0.00     0.000 C 
BRANCH   7   8
ATOM      8  C   UNL     1     182.881 173.941 183.813  1.00  0.00     0.000 C 
BRANCH   8   9
ATOM      9  C   UNL     1     182.393 173.321 185.133  1.00  0.00     0.000 C 
BRANCH   9  10
ATOM     10  C   UNL     1     182.678 174.219 186.351  1.00  0.00     0.000 C 
BRANCH  10  11
ATOM     11  C   UNL     1     184.016 173.885 187.044  1.00  0.00     0.000 C 
BRANCH  11  12
ATOM     12  C   UNL     1     185.099 174.968 186.869  1.00  0.00     0.000 C 
BRANCH  12  13
ATOM     13  C   UNL     1     184.646 176.237 186.121  1.00  0.00     0.006 C 
BRANCH  13  14
ATOM     14  C   UNL     1     185.575 177.449 186.305  1.00  0.00     0.053 C 
BRANCH  14  15
ATOM     15  C   UNL     1     184.907 178.730 185.909  1.00  0.00     0.041 C 
ATOM     16  O   UNL     1     185.210 179.296 184.827  1.00  0.00    -0.550 OA
ATOM     17  O   UNL     1     183.971 179.314 186.753  1.00  0.00    -0.550 OA
ENDBRANCH  14  15
ENDBRANCH  13  14
ENDBRANCH  12  13
ENDBRANCH  11  12
ENDBRANCH  10  11
ENDBRANCH   9  10
ENDBRANCH   8   9
ENDBRANCH   7   8
ENDBRANCH   6   7
ENDBRANCH   5   6
ENDBRANCH   4   5
ENDBRANCH   3   4
ENDBRANCH   2   3
ENDBRANCH   1   2
BRANCH   1  18
ATOM     18  C   UNL     1     184.604 176.694 181.256  1.00  0.00     0.000 C 
BRANCH  18  19
ATOM     19  C   UNL     1     184.652 175.439 180.361  1.00  0.00     0.000 C 
BRANCH  19  20
ATOM     20  C   UNL     1     183.261 174.918 179.940  1.00  0.00     0.000 C 
BRANCH  20  21
ATOM     21  C   UNL     1     182.116 175.744 180.553  1.00  0.00     0.000 C 
BRANCH  21  22
ATOM     22  C   UNL     1     180.771 174.992 180.584  1.00  0.00     0.000 C 
BRANCH  22  23
ATOM     23  C   UNL     1     179.985 175.093 181.906  1.00  0.00     0.000 C 
BRANCH  23  24
ATOM     24  C   UNL     1     178.707 175.954 181.867  1.00  0.00    -0.000 C 
BRANCH  24  25
ATOM     25  C   UNL     1     178.920 177.392 181.350  1.00  0.00    -0.000 C 
BRANCH  25  26
ATOM     26  C   UNL     1     178.617 178.460 182.411  1.00  0.00    -0.000 C 
BRANCH  26  27
ATOM     27  C   UNL     1     179.723 179.522 182.463  1.00  0.00    -0.000 C 
BRANCH  27  28
ATOM     28  C   UNL     1     181.093 178.973 182.026  1.00  0.00    -0.000 C 
BRANCH  28  29
ATOM     29  C   UNL     1     182.084 178.812 183.198  1.00  0.00    -0.000 C 
BRANCH  29  30
ATOM     30  C   UNL     1     181.960 177.440 183.884  1.00  0.00    -0.000 C 
BRANCH  30  31
ATOM     31  C   UNL     1     181.261 177.536 185.249  1.00  0.00    -0.003 C 
ATOM     32  C   UNL     1     180.030 176.633 185.340  1.00  0.00     0.004 C 
ENDBRANCH  30  31
ENDBRANCH  29  30
ENDBRANCH  28  29
ENDBRANCH  27  28
ENDBRANCH  26  27
ENDBRANCH  25  26
ENDBRANCH  24  25
ENDBRANCH  23  24
ENDBRANCH  22  23
ENDBRANCH  21  22
ENDBRANCH  20  21
ENDBRANCH  19  20
ENDBRANCH  18  19
ENDBRANCH   1  18
TORSDOF 28
ENDMDL
MODEL 6
REMARK VINA RESULT:     0.049      8.371     12.364
REMARK INTER + INTRA:          -7.499
REMARK INTER:                   0.000
REMARK INTRA:                  -7.499
REMARK UNBOUND:                -7.628
REMARK SMILES CCCCCCCCCCCCCCCCCCCCCCCCCCCCCC(=O)[O-]
REMARK SMILES IDX 16 1 17 2 18 3 19 4 20 5 21 6 22 7 23 8 24 9 25 10 26 11
REMARK SMILES IDX 27 12 28 13 29 14 30 15 31 16 32 17 15 18 14 19 13 20 12 21
REMARK SMILES IDX 11 22 10 23 9 24 8 25 7 26 6 27 5 28 4 29 3 30 2 31 1 32
REMARK H PARENT
REMARK Flexibility Score: inf
ROOT
ATOM      1  C   UNL     1     179.046 181.842 179.727  1.00  0.00     0.000 C 
ENDROOT
BRANCH   1   2
ATOM      2  C   UNL     1     179.869 181.257 178.564  1.00  0.00     0.000 C 
BRANCH   2   3
ATOM      3  C   UNL     1     179.129 180.155 177.775  1.00  0.00     0.000 C 
BRANCH   3   4
ATOM      4  C   UNL     1     177.641 180.480 177.565  1.00  0.00     0.000 C 
BRANCH   4   5
ATOM      5  C   UNL     1     176.723 179.352 178.066  1.00  0.00     0.000 C 
BRANCH   5   6
ATOM      6  C   UNL     1     177.513 178.182 178.674  1.00  0.00     0.000 C 
BRANCH   6   7
ATOM      7  C   UNL     1     177.020 177.807 180.082  1.00  0.00     0.000 C 
BRANCH   7   8
ATOM      8  C   UNL     1     176.210 178.940 180.738  1.00  0.00     0.000 C 
BRANCH   8   9
ATOM      9  C   UNL     1     176.367 178.979 182.268  1.00  0.00     0.000 C 
BRANCH   9  10
ATOM     10  C   UNL     1     177.361 177.925 182.789  1.00  0.00     0.000 C 
BRANCH  10  11
ATOM     11  C   UNL     1     176.917 177.286 184.122  1.00  0.00     0.000 C 
BRANCH  11  12
ATOM     12  C   UNL     1     176.588 175.784 184.017  1.00  0.00     0.000 C 
BRANCH  12  13
ATOM     13  C   UNL     1     175.865 175.357 182.726  1.00  0.00     0.006 C 
BRANCH  13  14
ATOM     14  C   UNL     1     174.336 175.521 182.770  1.00  0.00     0.053 C 
BRANCH  14  15
ATOM     15  C   UNL     1     173.818 176.257 181.572  1.00  0.00     0.041 C 
ATOM     16  O   UNL     1     174.054 175.830 180.413  1.00  0.00    -0.550 OA
ATOM     17  O   UNL     1     173.100 177.435 181.739  1.00  0.00    -0.550 OA
ENDBRANCH  14  15
ENDBRANCH  13  14
ENDBRANCH  12  13
ENDBRANCH  11  12
ENDBRANCH  10  11
ENDBRANCH   9  10
ENDBRANCH   8   9
ENDBRANCH   7   8
ENDBRANCH   6   7
ENDBRANCH   5   6
ENDBRANCH   4   5
ENDBRANCH   3   4
ENDBRANCH   2   3
ENDBRANCH   1   2
BRANCH   1  18
ATOM     18  C   UNL     1     179.158 181.074 181.056  1.00  0.00     0.000 C 
BRANCH  18  19
ATOM     19  C   UNL     1     180.590 180.935 181.612  1.00  0.00     0.000 C 
BRANCH  19  20
ATOM     20  C   UNL     1     180.977 179.488 181.988  1.00  0.00     0.000 C 
BRANCH  20  21
ATOM     21  C   UNL     1     180.483 178.462 180.953  1.00  0.00     0.000 C 
BRANCH  21  22
ATOM     22  C   UNL     1     181.522 178.152 179.858  1.00  0.00     0.000 C 
BRANCH  22  23
ATOM     23  C   UNL     1     181.085 177.115 178.804  1.00  0.00     0.000 C 
BRANCH  23  24
ATOM     24  C   UNL     1     180.929 175.666 179.308  1.00  0.00    -0.000 C 
BRANCH  24  25
ATOM     25  C   UNL     1     179.672 174.940 178.785  1.00  0.00    -0.000 C 
BRANCH  25  26
ATOM     26  C   UNL     1     178.715 174.518 179.910  1.00  0.00    -0.000 C 
BRANCH  26  27
ATOM     27  C   UNL     1     179.194 175.039 181.272  1.00  0.00    -0.000 C 
BRANCH  27  28
ATOM     28  C   UNL     1     179.393 173.912 182.301  1.00  0.00    -0.000 C 
BRANCH  28  29
ATOM     29  C   UNL     1     180.047 174.397 183.612  1.00  0.00    -0.000 C 
BRANCH  29  30
ATOM     30  C   UNL     1     180.395 175.896 183.572  1.00  0.00    -0.000 C 
BRANCH  30  31
ATOM     31  C   UNL     1     181.894 176.149 183.800  1.00  0.00    -0.003 C 
ATOM     32  C   UNL     1     182.733 175.851 182.557  1.00  0.00     0.004 C 
ENDBRANCH  30  31
ENDBRANCH  29  30
ENDBRANCH  28  29
ENDBRANCH  27  28
ENDBRANCH  26  27
ENDBRANCH  25  26
ENDBRANCH  24  25
ENDBRANCH  23  24
ENDBRANCH  22  23
ENDBRANCH  21  22
ENDBRANCH  20  21
ENDBRANCH  19  20
ENDBRANCH  18  19
ENDBRANCH   1  18
TORSDOF 28
ENDMDL
MODEL 7
REMARK VINA RESULT:     0.053      9.135     12.429
REMARK INTER + INTRA:          -7.488
REMARK INTER:                   0.000
REMARK INTRA:                  -7.488
REMARK UNBOUND:                -7.628
REMARK SMILES CCCCCCCCCCCCCCCCCCCCCCCCCCCCCC(=O)[O-]
REMARK SMILES IDX 16 1 17 2 18 3 19 4 20 5 21 6 22 7 23 8 24 9 25 10 26 11
REMARK SMILES IDX 27 12 28 13 29 14 30 15 31 16 32 17 15 18 14 19 13 20 12 21
REMARK SMILES IDX 11 22 10 23 9 24 8 25 7 26 6 27 5 28 4 29 3 30 2 31 1 32
REMARK H PARENT
REMARK Flexibility Score: inf
ROOT
ATOM      1  C   UNL     1     175.941 177.535 186.926  1.00  0.00     0.000 C 
ENDROOT
BRANCH   1   2
ATOM      2  C   UNL     1     174.705 176.935 186.229  1.00  0.00     0.000 C 
BRANCH   2   3
ATOM      3  C   UNL     1     173.921 177.954 185.375  1.00  0.00     0.000 C 
BRANCH   3   4
ATOM      4  C   UNL     1     174.095 177.717 183.866  1.00  0.00     0.000 C 
BRANCH   4   5
ATOM      5  C   UNL     1     174.352 179.025 183.097  1.00  0.00     0.000 C 
BRANCH   5   6
ATOM      6  C   UNL     1     174.791 180.171 184.023  1.00  0.00     0.000 C 
BRANCH   6   7
ATOM      7  C   UNL     1     175.884 181.051 183.395  1.00  0.00     0.000 C 
BRANCH   7   8
ATOM      8  C   UNL     1     175.915 180.935 181.859  1.00  0.00     0.000 C 
BRANCH   8   9
ATOM      9  C   UNL     1     177.335 180.726 181.305  1.00  0.00     0.000 C 
BRANCH   9  10
ATOM     10  C   UNL     1     178.249 179.967 182.284  1.00  0.00     0.000 C 
BRANCH  10  11
ATOM     11  C   UNL     1     178.592 178.541 181.805  1.00  0.00     0.000 C 
BRANCH  11  12
ATOM     12  C   UNL     1     177.534 177.483 182.178  1.00  0.00     0.000 C 
BRANCH  12  13
ATOM     13  C   UNL     1     177.637 176.926 183.610  1.00  0.00     0.006 C 
BRANCH  13  14
ATOM     14  C   UNL     1     177.972 175.427 183.687  1.00  0.00     0.053 C 
BRANCH  14  15
ATOM     15  C   UNL     1     176.891 174.646 184.369  1.00  0.00     0.041 C 
ATOM     16  O   UNL     1     177.102 174.114 185.489  1.00  0.00    -0.550 OA
ATOM     17  O   UNL     1     175.658 174.483 183.751  1.00  0.00    -0.550 OA
ENDBRANCH  14  15
ENDBRANCH  13  14
ENDBRANCH  12  13
ENDBRANCH  11  12
ENDBRANCH  10  11
ENDBRANCH   9  10
ENDBRANCH   8   9
ENDBRANCH   7   8
ENDBRANCH   6   7
ENDBRANCH   5   6
ENDBRANCH   4   5
ENDBRANCH   3   4
ENDBRANCH   2   3
ENDBRANCH   1   2
BRANCH   1  18
ATOM     18  C   UNL     1     175.735 178.941 187.518  1.00  0.00     0.000 C 
BRANCH  18  19
ATOM     19  C   UNL     1     176.837 179.964 187.172  1.00  0.00     0.000 C 
BRANCH  19  20
ATOM     20  C   UNL     1     177.827 179.474 186.093  1.00  0.00     0.000 C 
BRANCH  20  21
ATOM     21  C   UNL     1     178.946 180.494 185.819  1.00  0.00     0.000 C 
BRANCH  21  22
ATOM     22  C   UNL     1     180.204 180.265 186.680  1.00  0.00     0.000 C 
BRANCH  22  23
ATOM     23  C   UNL     1     181.394 179.608 185.954  1.00  0.00     0.000 C 
BRANCH  23  24
ATOM     24  C   UNL     1     181.090 179.007 184.567  1.00  0.00    -0.000 C 
BRANCH  24  25
ATOM     25  C   UNL     1     181.164 177.468 184.507  1.00  0.00    -0.000 C 
BRANCH  25  26
ATOM     26  C   UNL     1     181.742 176.847 185.788  1.00  0.00    -0.000 C 
BRANCH  26  27
ATOM     27  C   UNL     1     180.789 175.797 186.376  1.00  0.00    -0.000 C 
BRANCH  27  28
ATOM     28  C   UNL     1     179.459 176.406 186.856  1.00  0.00    -0.000 C 
BRANCH  28  29
ATOM     29  C   UNL     1     179.291 176.362 188.390  1.00  0.00    -0.000 C 
BRANCH  29  30
ATOM     30  C   UNL     1     179.673 177.696 189.057  1.00  0.00    -0.000 C 
BRANCH  30  31
ATOM     31  C   UNL     1     178.569 178.211 189.994  1.00  0.00    -0.003 C 
ATOM     32  C   UNL     1     177.515 177.145 190.297  1.00  0.00     0.004 C 
ENDBRANCH  30  31
ENDBRANCH  29  30
ENDBRANCH  28  29
ENDBRANCH  27  28
ENDBRANCH  26  27
ENDBRANCH  25  26
ENDBRANCH  24  25
ENDBRANCH  23  24
ENDBRANCH  22  23
ENDBRANCH  21  22
ENDBRANCH  20  21
ENDBRANCH  19  20
ENDBRANCH  18  19
ENDBRANCH   1  18
TORSDOF 28
ENDMDL
MODEL 8
REMARK VINA RESULT:     0.060      3.864      6.388
REMARK INTER + INTRA:          -7.469
REMARK INTER:                   0.000
REMARK INTRA:                  -7.469
REMARK UNBOUND:                -7.628
REMARK SMILES CCCCCCCCCCCCCCCCCCCCCCCCCCCCCC(=O)[O-]
REMARK SMILES IDX 16 1 17 2 18 3 19 4 20 5 21 6 22 7 23 8 24 9 25 10 26 11
REMARK SMILES IDX 27 12 28 13 29 14 30 15 31 16 32 17 15 18 14 19 13 20 12 21
REMARK SMILES IDX 11 22 10 23 9 24 8 25 7 26 6 27 5 28 4 29 3 30 2 31 1 32
REMARK H PARENT
REMARK Flexibility Score: inf
ROOT
ATOM      1  C   UNL     1     183.732 185.196 185.948  1.00  0.00     0.000 C 
ENDROOT
BRANCH   1   2
ATOM      2  C   UNL     1     184.145 183.833 186.534  1.00  0.00     0.000 C 
BRANCH   2   3
ATOM      3  C   UNL     1     185.605 183.441 186.217  1.00  0.00     0.000 C 
BRANCH   3   4
ATOM      4  C   UNL     1     186.331 182.843 187.434  1.00  0.00     0.000 C 
BRANCH   4   5
ATOM      5  C   UNL     1     187.548 181.995 187.026  1.00  0.00     0.000 C 
BRANCH   5   6
ATOM      6  C   UNL     1     187.608 181.751 185.509  1.00  0.00     0.000 C 
BRANCH   6   7
ATOM      7  C   UNL     1     188.231 180.390 185.155  1.00  0.00     0.000 C 
BRANCH   7   8
ATOM      8  C   UNL     1     187.559 179.741 183.931  1.00  0.00     0.000 C 
BRANCH   8   9
ATOM      9  C   UNL     1     186.366 180.557 183.402  1.00  0.00     0.000 C 
BRANCH   9  10
ATOM     10  C   UNL     1     185.025 179.817 183.561  1.00  0.00     0.000 C 
BRANCH  10  11
ATOM     11  C   UNL     1     184.027 180.568 184.467  1.00  0.00     0.000 C 
BRANCH  11  12
ATOM     12  C   UNL     1     184.084 180.144 185.948  1.00  0.00     0.000 C 
BRANCH  12  13
ATOM     13  C   UNL     1     184.727 178.770 186.215  1.00  0.00     0.006 C 
BRANCH  13  14
ATOM     14  C   UNL     1     185.764 178.763 187.350  1.00  0.00     0.053 C 
BRANCH  14  15
ATOM     15  C   UNL     1     185.151 179.116 188.670  1.00  0.00     0.041 C 
ATOM     16  O   UNL     1     185.699 179.965 189.419  1.00  0.00    -0.550 OA
ATOM     17  O   UNL     1     183.987 178.481 189.086  1.00  0.00    -0.550 OA
ENDBRANCH  14  15
ENDBRANCH  13  14
ENDBRANCH  12  13
ENDBRANCH  11  12
ENDBRANCH  10  11
ENDBRANCH   9  10
ENDBRANCH   8   9
ENDBRANCH   7   8
ENDBRANCH   6   7
ENDBRANCH   5   6
ENDBRANCH   4   5
ENDBRANCH   3   4
ENDBRANCH   2   3
ENDBRANCH   1   2
BRANCH   1  18
ATOM     18  C   UNL     1     184.818 186.285 186.005  1.00  0.00     0.000 C 
BRANCH  18  19
ATOM     19  C   UNL     1     185.171 186.782 187.421  1.00  0.00     0.000 C 
BRANCH  19  20
ATOM     20  C   UNL     1     186.676 186.694 187.758  1.00  0.00     0.000 C 
BRANCH  20  21
ATOM     21  C   UNL     1     187.564 186.811 186.506  1.00  0.00     0.000 C 
BRANCH  21  22
ATOM     22  C   UNL     1     188.588 185.666 186.377  1.00  0.00     0.000 C 
BRANCH  22  23
ATOM     23  C   UNL     1     188.800 185.124 184.950  1.00  0.00     0.000 C 
BRANCH  23  24
ATOM     24  C   UNL     1     187.738 185.532 183.908  1.00  0.00    -0.000 C 
BRANCH  24  25
ATOM     25  C   UNL     1     187.237 184.375 183.020  1.00  0.00    -0.000 C 
BRANCH  25  26
ATOM     26  C   UNL     1     185.938 184.715 182.273  1.00  0.00    -0.000 C 
BRANCH  26  27
ATOM     27  C   UNL     1     184.788 183.799 182.715  1.00  0.00    -0.000 C 
BRANCH  27  28
ATOM     28  C   UNL     1     184.120 183.075 181.532  1.00  0.00    -0.000 C 
BRANCH  28  29
ATOM     29  C   UNL     1     182.623 182.780 181.769  1.00  0.00    -0.000 C 
BRANCH  29  30
ATOM     30  C   UNL     1     182.108 183.396 183.082  1.00  0.00    -0.000 C 
BRANCH  30  31
ATOM     31  C   UNL     1     180.969 182.570 183.702  1.00  0.00    -0.003 C 
ATOM     32  C   UNL     1     180.865 182.761 185.215  1.00  0.00     0.004 C 
ENDBRANCH  30  31
ENDBRANCH  29  30
ENDBRANCH  28  29
ENDBRANCH  27  28
ENDBRANCH  26  27
ENDBRANCH  25  26
ENDBRANCH  24  25
ENDBRANCH  23  24
ENDBRANCH  22  23
ENDBRANCH  21  22
ENDBRANCH  20  21
ENDBRANCH  19  20
ENDBRANCH  18  19
ENDBRANCH   1  18
TORSDOF 28
ENDMDL
MODEL 9
REMARK VINA RESULT:     0.070      9.674     13.274
REMARK INTER + INTRA:          -7.442
REMARK INTER:                   0.000
REMARK INTRA:                  -7.442
REMARK UNBOUND:                -7.628
REMARK SMILES CCCCCCCCCCCCCCCCCCCCCCCCCCCCCC(=O)[O-]
REMARK SMILES IDX 16 1 17 2 18 3 19 4 20 5 21 6 22 7 23 8 24 9 25 10 26 11
REMARK SMILES IDX 27 12 28 13 29 14 30 15 31 16 32 17 15 18 14 19 13 20 12 21
REMARK SMILES IDX 11 22 10 23 9 24 8 25 7 26 6 27 5 28 4 29 3 30 2 31 1 32
REMARK H PARENT
REMARK Flexibility Score: inf
ROOT
ATOM      1  C   UNL     1     175.837 174.585 181.515  1.00  0.00     0.000 C 
ENDROOT
BRANCH   1   2
ATOM      2  C   UNL     1     175.746 174.318 183.029  1.00  0.00     0.000 C 
BRANCH   2   3
ATOM      3  C   UNL     1     176.724 175.169 183.867  1.00  0.00     0.000 C 
BRANCH   3   4
ATOM      4  C   UNL     1     176.003 176.038 184.912  1.00  0.00     0.000 C 
BRANCH   4   5
ATOM      5  C   UNL     1     176.042 177.533 184.552  1.00  0.00     0.000 C 
BRANCH   5   6
ATOM      6  C   UNL     1     174.838 177.959 183.696  1.00  0.00     0.000 C 
BRANCH   6   7
ATOM      7  C   UNL     1     173.538 177.252 184.113  1.00  0.00     0.000 C 
BRANCH   7   8
ATOM      8  C   UNL     1     172.842 176.562 182.925  1.00  0.00     0.000 C 
BRANCH   8   9
ATOM      9  C   UNL     1     172.974 177.354 181.613  1.00  0.00     0.000 C 
BRANCH   9  10
ATOM     10  C   UNL     1     172.804 176.467 180.365  1.00  0.00     0.000 C 
BRANCH  10  11
ATOM     11  C   UNL     1     172.727 177.280 179.055  1.00  0.00     0.000 C 
BRANCH  11  12
ATOM     12  C   UNL     1     173.722 176.818 177.972  1.00  0.00     0.000 C 
BRANCH  12  13
ATOM     13  C   UNL     1     174.295 175.401 178.166  1.00  0.00     0.006 C 
BRANCH  13  14
ATOM     14  C   UNL     1     175.588 175.125 177.381  1.00  0.00     0.053 C 
BRANCH  14  15
ATOM     15  C   UNL     1     175.405 175.337 175.910  1.00  0.00     0.041 C 
ATOM     16  O   UNL     1     176.094 176.196 175.301  1.00  0.00    -0.550 OA
ATOM     17  O   UNL     1     174.449 174.605 175.217  1.00  0.00    -0.550 OA
ENDBRANCH  14  15
ENDBRANCH  13  14
ENDBRANCH  12  13
ENDBRANCH  11  12
ENDBRANCH  10  11
ENDBRANCH   9  10
ENDBRANCH   8   9
ENDBRANCH   7   8
ENDBRANCH   6   7
ENDBRANCH   5   6
ENDBRANCH   4   5
ENDBRANCH   3   4
ENDBRANCH   2   3
ENDBRANCH   1   2
BRANCH   1  18
ATOM     18  C   UNL     1     176.436 175.950 181.130  1.00  0.00     0.000 C 
BRANCH  18  19
ATOM     19  C   UNL     1     177.737 175.884 180.305  1.00  0.00     0.000 C 
BRANCH  19  20
ATOM     20  C   UNL     1     178.920 176.646 180.943  1.00  0.00     0.000 C 
BRANCH  20  21
ATOM     21  C   UNL     1     178.453 177.789 181.861  1.00  0.00     0.000 C 
BRANCH  21  22
ATOM     22  C   UNL     1     179.296 179.072 181.713  1.00  0.00     0.000 C 
BRANCH  22  23
ATOM     23  C   UNL     1     179.036 180.162 182.772  1.00  0.00     0.000 C 
BRANCH  23  24
ATOM     24  C   UNL     1     177.560 180.551 182.991  1.00  0.00    -0.000 C 
BRANCH  24  25
ATOM     25  C   UNL     1     177.114 181.818 182.233  1.00  0.00    -0.000 C 
BRANCH  25  26
ATOM     26  C   UNL     1     176.500 181.508 180.859  1.00  0.00    -0.000 C 
BRANCH  26  27
ATOM     27  C   UNL     1     175.475 180.369 180.953  1.00  0.00    -0.000 C 
BRANCH  27  28
ATOM     28  C   UNL     1     175.721 179.264 179.910  1.00  0.00    -0.000 C 
BRANCH  28  29
ATOM     29  C   UNL     1     176.866 179.598 178.931  1.00  0.00    -0.000 C 
BRANCH  29  30
ATOM     30  C   UNL     1     176.954 178.590 177.771  1.00  0.00    -0.000 C 
BRANCH  30  31
ATOM     31  C   UNL     1     178.399 178.139 177.504  1.00  0.00    -0.003 C 
ATOM     32  C   UNL     1     179.430 179.130 178.046  1.00  0.00     0.004 C 
ENDBRANCH  30  31
ENDBRANCH  29  30
ENDBRANCH  28  29
ENDBRANCH  27  28
ENDBRANCH  26  27
ENDBRANCH  25  26
ENDBRANCH  24  25
ENDBRANCH  23  24
ENDBRANCH  22  23
ENDBRANCH  21  22
ENDBRANCH  20  21
ENDBRANCH  19  20
ENDBRANCH  18  19
ENDBRANCH   1  18
TORSDOF 28
ENDMDL
