MODEL 1
REMARK VINA RESULT:    -6.285      0.000      0.000
REMARK INTER + INTRA:          -7.892
REMARK INTER:                  -7.570
REMARK INTRA:                  -0.322
REMARK UNBOUND:                -0.322
REMARK SMILES O=c1c(O)c(-c2ccc(O)c(O)c2)oc2cc(O)cc(O)c12
REMARK SMILES IDX 5 1 3 2 2 3 1 4 22 5 20 6 19 7 17 8 16 9 15 10 14 11 6 12
REMARK SMILES IDX 7 13 8 14 9 15 13 16 11 17 10 18 12 20 4 22 21 24 18 26
REMARK H PARENT 10 19 12 21 4 23 21 25 18 27
REMARK Flexibility Score: inf
ROOT
ATOM      1  C   UNL     1       4.661 -42.243 -32.508  1.00  0.00     0.180 A 
ATOM      2  C   UNL     1       5.348 -41.795 -33.649  1.00  0.00     0.208 A 
ATOM      3  C   UNL     1       6.424 -42.554 -34.136  1.00  0.00     0.238 A 
ATOM      4  O   UNL     1       7.071 -42.120 -35.125  1.00  0.00    -0.285 OA
ATOM      5  C   UNL     1       6.788 -43.759 -33.488  1.00  0.00     0.111 A 
ATOM      6  C   UNL     1       7.835 -44.627 -33.920  1.00  0.00     0.134 A 
ATOM      7  C   UNL     1       8.193 -45.725 -33.128  1.00  0.00     0.093 A 
ATOM      8  C   UNL     1       7.498 -46.023 -31.952  1.00  0.00     0.123 A 
ATOM      9  C   UNL     1       6.436 -45.214 -31.554  1.00  0.00     0.094 A 
ATOM     10  C   UNL     1       6.079 -44.091 -32.305  1.00  0.00     0.146 A 
ATOM     11  O   UNL     1       5.067 -43.343 -31.883  1.00  0.00    -0.452 OA
ENDROOT
BRANCH   1  12
ATOM     12  C   UNL     1       3.501 -41.510 -31.949  1.00  0.00     0.025 A 
ATOM     13  C   UNL     1       2.209 -41.677 -32.472  1.00  0.00     0.016 A 
ATOM     14  C   UNL     1       1.128 -40.994 -31.914  1.00  0.00     0.051 A 
ATOM     15  C   UNL     1       1.309 -40.144 -30.817  1.00  0.00     0.157 A 
ATOM     16  C   UNL     1       3.681 -40.675 -30.835  1.00  0.00     0.062 A 
ATOM     17  C   UNL     1       2.602 -39.986 -30.268  1.00  0.00     0.158 A 
BRANCH  15  18
ATOM     18  O   UNL     1       0.187 -39.488 -30.308  1.00  0.00    -0.504 OA
ATOM     19  H   UNL     1      -0.126 -38.580 -30.621  1.00  0.00     0.293 HD
ENDBRANCH  15  18
BRANCH  17  20
ATOM     20  O   UNL     1       2.860 -39.163 -29.169  1.00  0.00    -0.504 OA
ATOM     21  H   UNL     1       2.495 -39.328 -28.243  1.00  0.00     0.293 HD
ENDBRANCH  17  20
ENDBRANCH   1  12
BRANCH   2  22
ATOM     22  O   UNL     1       4.987 -40.591 -34.260  1.00  0.00    -0.502 OA
ATOM     23  H   UNL     1       4.784 -39.752 -33.731  1.00  0.00     0.293 HD
ENDBRANCH   2  22
BRANCH   6  24
ATOM     24  O   UNL     1       8.531 -44.474 -35.123  1.00  0.00    -0.507 OA
ATOM     25  H   UNL     1       9.479 -44.780 -35.281  1.00  0.00     0.293 HD
ENDBRANCH   6  24
BRANCH   8  26
ATOM     26  O   UNL     1       7.850 -47.125 -31.178  1.00  0.00    -0.508 OA
ATOM     27  H   UNL     1       8.529 -47.053 -30.430  1.00  0.00     0.293 HD
ENDBRANCH   8  26
TORSDOF 6
ENDMDL
MODEL 2
REMARK VINA RESULT:    -6.265     10.842     14.848
REMARK INTER + INTRA:          -7.869
REMARK INTER:                  -7.750
REMARK INTRA:                  -0.119
REMARK UNBOUND:                -0.322
REMARK SMILES O=c1c(O)c(-c2ccc(O)c(O)c2)oc2cc(O)cc(O)c12
REMARK SMILES IDX 5 1 3 2 2 3 1 4 22 5 20 6 19 7 17 8 16 9 15 10 14 11 6 12
REMARK SMILES IDX 7 13 8 14 9 15 13 16 11 17 10 18 12 20 4 22 21 24 18 26
REMARK H PARENT 10 19 12 21 4 23 21 25 18 27
REMARK Flexibility Score: inf
ROOT
ATOM      1  C   UNL     1      -3.256 -32.128 -33.131  1.00  0.00     0.180 A 
ATOM      2  C   UNL     1      -4.224 -31.454 -33.895  1.00  0.00     0.208 A 
ATOM      3  C   UNL     1      -4.131 -30.060 -34.035  1.00  0.00     0.238 A 
ATOM      4  O   UNL     1      -5.031 -29.455 -34.674  1.00  0.00    -0.285 OA
ATOM      5  C   UNL     1      -3.063 -29.360 -33.424  1.00  0.00     0.111 A 
ATOM      6  C   UNL     1      -2.848 -27.953 -33.534  1.00  0.00     0.134 A 
ATOM      7  C   UNL     1      -1.834 -27.348 -32.781  1.00  0.00     0.093 A 
ATOM      8  C   UNL     1      -0.986 -28.109 -31.973  1.00  0.00     0.123 A 
ATOM      9  C   UNL     1      -1.151 -29.490 -31.906  1.00  0.00     0.094 A 
ATOM     10  C   UNL     1      -2.176 -30.118 -32.617  1.00  0.00     0.146 A 
ATOM     11  O   UNL     1      -2.303 -31.435 -32.517  1.00  0.00    -0.452 OA
ENDROOT
BRANCH   1  12
ATOM     12  C   UNL     1      -3.273 -33.599 -32.958  1.00  0.00     0.025 A 
ATOM     13  C   UNL     1      -3.441 -34.184 -31.694  1.00  0.00     0.016 A 
ATOM     14  C   UNL     1      -3.478 -35.573 -31.558  1.00  0.00     0.051 A 
ATOM     15  C   UNL     1      -3.359 -36.403 -32.678  1.00  0.00     0.157 A 
ATOM     16  C   UNL     1      -3.176 -34.429 -34.085  1.00  0.00     0.062 A 
ATOM     17  C   UNL     1      -3.211 -35.823 -33.959  1.00  0.00     0.158 A 
BRANCH  15  18
ATOM     18  O   UNL     1      -3.399 -37.784 -32.474  1.00  0.00    -0.504 OA
ATOM     19  H   UNL     1      -3.073 -38.240 -31.634  1.00  0.00     0.293 HD
ENDBRANCH  15  18
BRANCH  17  20
ATOM     20  O   UNL     1      -3.097 -36.586 -35.124  1.00  0.00    -0.504 OA
ATOM     21  H   UNL     1      -2.267 -36.622 -35.696  1.00  0.00     0.293 HD
ENDBRANCH  17  20
ENDBRANCH   1  12
BRANCH   2  22
ATOM     22  O   UNL     1      -5.283 -32.161 -34.471  1.00  0.00    -0.502 OA
ATOM     23  H   UNL     1      -5.229 -32.559 -35.401  1.00  0.00     0.293 HD
ENDBRANCH   2  22
BRANCH   6  24
ATOM     24  O   UNL     1      -3.579 -27.115 -34.382  1.00  0.00    -0.507 OA
ATOM     25  H   UNL     1      -3.582 -27.179 -35.389  1.00  0.00     0.293 HD
ENDBRANCH   6  24
BRANCH   8  26
ATOM     26  O   UNL     1       0.030 -27.502 -31.239  1.00  0.00    -0.508 OA
ATOM     27  H   UNL     1       0.115 -27.636 -30.239  1.00  0.00     0.293 HD
ENDBRANCH   8  26
TORSDOF 6
ENDMDL
MODEL 3
REMARK VINA RESULT:    -6.058      1.700      6.741
REMARK INTER + INTRA:          -7.620
REMARK INTER:                  -7.416
REMARK INTRA:                  -0.203
REMARK UNBOUND:                -0.322
REMARK SMILES O=c1c(O)c(-c2ccc(O)c(O)c2)oc2cc(O)cc(O)c12
REMARK SMILES IDX 5 1 3 2 2 3 1 4 22 5 20 6 19 7 17 8 16 9 15 10 14 11 6 12
REMARK SMILES IDX 7 13 8 14 9 15 13 16 11 17 10 18 12 20 4 22 21 24 18 26
REMARK H PARENT 10 19 12 21 4 23 21 25 18 27
REMARK Flexibility Score: inf
ROOT
ATOM      1  C   UNL     1       5.269 -43.132 -32.991  1.00  0.00     0.180 A 
ATOM      2  C   UNL     1       4.365 -42.991 -34.057  1.00  0.00     0.208 A 
ATOM      3  C   UNL     1       3.416 -41.956 -34.011  1.00  0.00     0.238 A 
ATOM      4  O   UNL     1       2.573 -41.868 -34.942  1.00  0.00    -0.285 OA
ATOM      5  C   UNL     1       3.395 -41.067 -32.910  1.00  0.00     0.111 A 
ATOM      6  C   UNL     1       2.504 -39.960 -32.779  1.00  0.00     0.134 A 
ATOM      7  C   UNL     1       2.485 -39.225 -31.587  1.00  0.00     0.093 A 
ATOM      8  C   UNL     1       3.370 -39.518 -30.546  1.00  0.00     0.123 A 
ATOM      9  C   UNL     1       4.283 -40.560 -30.689  1.00  0.00     0.094 A 
ATOM     10  C   UNL     1       4.302 -41.333 -31.852  1.00  0.00     0.146 A 
ATOM     11  O   UNL     1       5.182 -42.323 -31.941  1.00  0.00    -0.452 OA
ENDROOT
BRANCH   1  12
ATOM     12  C   UNL     1       6.314 -44.182 -32.978  1.00  0.00     0.025 A 
ATOM     13  C   UNL     1       7.366 -44.178 -33.907  1.00  0.00     0.016 A 
ATOM     14  C   UNL     1       8.353 -45.165 -33.860  1.00  0.00     0.051 A 
ATOM     15  C   UNL     1       8.316 -46.165 -32.883  1.00  0.00     0.157 A 
ATOM     16  C   UNL     1       6.288 -45.171 -31.983  1.00  0.00     0.062 A 
ATOM     17  C   UNL     1       7.273 -46.166 -31.929  1.00  0.00     0.158 A 
BRANCH  15  18
ATOM     18  O   UNL     1       9.331 -47.125 -32.894  1.00  0.00    -0.504 OA
ATOM     19  H   UNL     1       9.167 -48.118 -32.962  1.00  0.00     0.293 HD
ENDBRANCH  15  18
BRANCH  17  20
ATOM     20  O   UNL     1       7.176 -47.125 -30.918  1.00  0.00    -0.504 OA
ATOM     21  H   UNL     1       6.416 -47.172 -30.256  1.00  0.00     0.293 HD
ENDBRANCH  17  20
ENDBRANCH   1  12
BRANCH   2  22
ATOM     22  O   UNL     1       4.388 -43.893 -35.124  1.00  0.00    -0.502 OA
ATOM     23  H   UNL     1       3.666 -43.915 -35.834  1.00  0.00     0.293 HD
ENDBRANCH   2  22
BRANCH   6  24
ATOM     24  O   UNL     1       1.644 -39.525 -33.793  1.00  0.00    -0.507 OA
ATOM     25  H   UNL     1       1.531 -39.983 -34.686  1.00  0.00     0.293 HD
ENDBRANCH   6  24
BRANCH   8  26
ATOM     26  O   UNL     1       3.354 -38.773 -29.370  1.00  0.00    -0.508 OA
ATOM     27  H   UNL     1       3.338 -39.218 -28.460  1.00  0.00     0.293 HD
ENDBRANCH   8  26
TORSDOF 6
ENDMDL
MODEL 4
REMARK VINA RESULT:    -5.975      2.446      3.495
REMARK INTER + INTRA:          -7.519
REMARK INTER:                  -7.191
REMARK INTRA:                  -0.329
REMARK UNBOUND:                -0.322
REMARK SMILES O=c1c(O)c(-c2ccc(O)c(O)c2)oc2cc(O)cc(O)c12
REMARK SMILES IDX 5 1 3 2 2 3 1 4 22 5 20 6 19 7 17 8 16 9 15 10 14 11 6 12
REMARK SMILES IDX 7 13 8 14 9 15 13 16 11 17 10 18 12 20 4 22 21 24 18 26
REMARK H PARENT 10 19 12 21 4 23 21 25 18 27
REMARK Flexibility Score: inf
ROOT
ATOM      1  C   UNL     1       4.637 -40.602 -30.980  1.00  0.00     0.180 A 
ATOM      2  C   UNL     1       3.870 -40.416 -32.143  1.00  0.00     0.208 A 
ATOM      3  C   UNL     1       3.955 -41.368 -33.172  1.00  0.00     0.238 A 
ATOM      4  O   UNL     1       3.309 -41.169 -34.235  1.00  0.00    -0.285 OA
ATOM      5  C   UNL     1       4.791 -42.500 -33.019  1.00  0.00     0.111 A 
ATOM      6  C   UNL     1       4.923 -43.546 -33.981  1.00  0.00     0.134 A 
ATOM      7  C   UNL     1       5.878 -44.552 -33.782  1.00  0.00     0.093 A 
ATOM      8  C   UNL     1       6.660 -44.583 -32.624  1.00  0.00     0.123 A 
ATOM      9  C   UNL     1       6.496 -43.598 -31.653  1.00  0.00     0.094 A 
ATOM     10  C   UNL     1       5.577 -42.562 -31.840  1.00  0.00     0.146 A 
ATOM     11  O   UNL     1       5.461 -41.639 -30.893  1.00  0.00    -0.452 OA
ENDROOT
BRANCH   1  12
ATOM     12  C   UNL     1       4.582 -39.656 -29.842  1.00  0.00     0.025 A 
ATOM     13  C   UNL     1       3.595 -39.762 -28.849  1.00  0.00     0.016 A 
ATOM     14  C   UNL     1       3.578 -38.873 -27.773  1.00  0.00     0.051 A 
ATOM     15  C   UNL     1       4.548 -37.872 -27.658  1.00  0.00     0.157 A 
ATOM     16  C   UNL     1       5.569 -38.666 -29.716  1.00  0.00     0.062 A 
ATOM     17  C   UNL     1       5.560 -37.770 -28.641  1.00  0.00     0.158 A 
BRANCH  15  18
ATOM     18  O   UNL     1       4.472 -37.013 -26.560  1.00  0.00    -0.504 OA
ATOM     19  H   UNL     1       5.276 -36.608 -26.104  1.00  0.00     0.293 HD
ENDBRANCH  15  18
BRANCH  17  20
ATOM     20  O   UNL     1       6.567 -36.804 -28.588  1.00  0.00    -0.504 OA
ATOM     21  H   UNL     1       6.889 -36.280 -29.388  1.00  0.00     0.293 HD
ENDBRANCH  17  20
ENDBRANCH   1  12
BRANCH   2  22
ATOM     22  O   UNL     1       3.068 -39.281 -32.284  1.00  0.00    -0.502 OA
ATOM     23  H   UNL     1       2.096 -39.332 -32.563  1.00  0.00     0.293 HD
ENDBRANCH   2  22
BRANCH   6  24
ATOM     24  O   UNL     1       4.128 -43.660 -35.125  1.00  0.00    -0.507 OA
ATOM     25  H   UNL     1       3.640 -44.498 -35.404  1.00  0.00     0.293 HD
ENDBRANCH   6  24
BRANCH   8  26
ATOM     26  O   UNL     1       7.596 -45.594 -32.427  1.00  0.00    -0.508 OA
ATOM     27  H   UNL     1       7.692 -46.062 -31.533  1.00  0.00     0.293 HD
ENDBRANCH   8  26
TORSDOF 6
ENDMDL
MODEL 5
REMARK VINA RESULT:    -5.973      8.367     12.095
REMARK INTER + INTRA:          -7.517
REMARK INTER:                  -7.194
REMARK INTRA:                  -0.323
REMARK UNBOUND:                -0.322
REMARK SMILES O=c1c(O)c(-c2ccc(O)c(O)c2)oc2cc(O)cc(O)c12
REMARK SMILES IDX 5 1 3 2 2 3 1 4 22 5 20 6 19 7 17 8 16 9 15 10 14 11 6 12
REMARK SMILES IDX 7 13 8 14 9 15 13 16 11 17 10 18 12 20 4 22 21 24 18 26
REMARK H PARENT 10 19 12 21 4 23 21 25 18 27
REMARK Flexibility Score: inf
ROOT
ATOM      1  C   UNL     1       2.937 -32.829 -31.699  1.00  0.00     0.180 A 
ATOM      2  C   UNL     1       2.472 -31.846 -32.590  1.00  0.00     0.208 A 
ATOM      3  C   UNL     1       1.191 -31.304 -32.398  1.00  0.00     0.238 A 
ATOM      4  O   UNL     1       0.759 -30.465 -33.231  1.00  0.00    -0.285 OA
ATOM      5  C   UNL     1       0.398 -31.739 -31.309  1.00  0.00     0.111 A 
ATOM      6  C   UNL     1      -0.898 -31.230 -30.996  1.00  0.00     0.134 A 
ATOM      7  C   UNL     1      -1.646 -31.824 -29.973  1.00  0.00     0.093 A 
ATOM      8  C   UNL     1      -1.118 -32.869 -29.209  1.00  0.00     0.123 A 
ATOM      9  C   UNL     1       0.169 -33.333 -29.469  1.00  0.00     0.094 A 
ATOM     10  C   UNL     1       0.926 -32.783 -30.507  1.00  0.00     0.146 A 
ATOM     11  O   UNL     1       2.144 -33.263 -30.726  1.00  0.00    -0.452 OA
ENDROOT
BRANCH   1  12
ATOM     12  C   UNL     1       4.285 -33.429 -31.821  1.00  0.00     0.025 A 
ATOM     13  C   UNL     1       4.513 -34.557 -32.624  1.00  0.00     0.016 A 
ATOM     14  C   UNL     1       5.797 -35.091 -32.743  1.00  0.00     0.051 A 
ATOM     15  C   UNL     1       6.879 -34.506 -32.076  1.00  0.00     0.157 A 
ATOM     16  C   UNL     1       5.372 -32.827 -31.169  1.00  0.00     0.062 A 
ATOM     17  C   UNL     1       6.664 -33.356 -31.281  1.00  0.00     0.158 A 
BRANCH  15  18
ATOM     18  O   UNL     1       8.137 -35.091 -32.233  1.00  0.00    -0.504 OA
ATOM     19  H   UNL     1       8.282 -36.064 -32.459  1.00  0.00     0.293 HD
ENDBRANCH  15  18
BRANCH  17  20
ATOM     20  O   UNL     1       7.695 -32.711 -30.594  1.00  0.00    -0.504 OA
ATOM     21  H   UNL     1       8.106 -31.837 -30.885  1.00  0.00     0.293 HD
ENDBRANCH  17  20
ENDBRANCH   1  12
BRANCH   2  22
ATOM     22  O   UNL     1       3.263 -31.447 -33.671  1.00  0.00    -0.502 OA
ATOM     23  H   UNL     1       2.866 -31.153 -34.556  1.00  0.00     0.293 HD
ENDBRANCH   2  22
BRANCH   6  24
ATOM     24  O   UNL     1      -1.481 -30.131 -31.636  1.00  0.00    -0.507 OA
ATOM     25  H   UNL     1      -1.164 -29.178 -31.542  1.00  0.00     0.293 HD
ENDBRANCH   6  24
BRANCH   8  26
ATOM     26  O   UNL     1      -1.863 -33.445 -28.183  1.00  0.00    -0.508 OA
ATOM     27  H   UNL     1      -2.438 -34.265 -28.340  1.00  0.00     0.293 HD
ENDBRANCH   8  26
TORSDOF 6
ENDMDL
MODEL 6
REMARK VINA RESULT:    -5.911      9.806     12.725
REMARK INTER + INTRA:          -7.442
REMARK INTER:                  -7.139
REMARK INTRA:                  -0.303
REMARK UNBOUND:                -0.322
REMARK SMILES O=c1c(O)c(-c2ccc(O)c(O)c2)oc2cc(O)cc(O)c12
REMARK SMILES IDX 5 1 3 2 2 3 1 4 22 5 20 6 19 7 17 8 16 9 15 10 14 11 6 12
REMARK SMILES IDX 7 13 8 14 9 15 13 16 11 17 10 18 12 20 4 22 21 24 18 26
REMARK H PARENT 10 19 12 21 4 23 21 25 18 27
REMARK Flexibility Score: inf
ROOT
ATOM      1  C   UNL     1       0.335 -30.617 -32.980  1.00  0.00     0.180 A 
ATOM      2  C   UNL     1       1.375 -30.785 -33.910  1.00  0.00     0.208 A 
ATOM      3  C   UNL     1       2.411 -31.686 -33.615  1.00  0.00     0.238 A 
ATOM      4  O   UNL     1       3.369 -31.792 -34.426  1.00  0.00    -0.285 OA
ATOM      5  C   UNL     1       2.385 -32.419 -32.405  1.00  0.00     0.111 A 
ATOM      6  C   UNL     1       3.361 -33.388 -32.023  1.00  0.00     0.134 A 
ATOM      7  C   UNL     1       3.306 -33.958 -30.745  1.00  0.00     0.093 A 
ATOM      8  C   UNL     1       2.273 -33.641 -29.859  1.00  0.00     0.123 A 
ATOM      9  C   UNL     1       1.283 -32.741 -30.246  1.00  0.00     0.094 A 
ATOM     10  C   UNL     1       1.331 -32.129 -31.501  1.00  0.00     0.146 A 
ATOM     11  O   UNL     1       0.372 -31.270 -31.825  1.00  0.00    -0.452 OA
ENDROOT
BRANCH   1  12
ATOM     12  C   UNL     1      -0.805 -29.704 -33.230  1.00  0.00     0.025 A 
ATOM     13  C   UNL     1      -0.820 -28.397 -32.718  1.00  0.00     0.016 A 
ATOM     14  C   UNL     1      -1.894 -27.547 -32.987  1.00  0.00     0.051 A 
ATOM     15  C   UNL     1      -2.965 -27.977 -33.779  1.00  0.00     0.157 A 
ATOM     16  C   UNL     1      -1.867 -30.129 -34.043  1.00  0.00     0.062 A 
ATOM     17  C   UNL     1      -2.949 -29.284 -34.317  1.00  0.00     0.158 A 
BRANCH  15  18
ATOM     18  O   UNL     1      -4.010 -27.079 -34.006  1.00  0.00    -0.504 OA
ATOM     19  H   UNL     1      -4.808 -26.976 -33.396  1.00  0.00     0.293 HD
ENDBRANCH  15  18
BRANCH  17  20
ATOM     20  O   UNL     1      -3.976 -29.780 -35.124  1.00  0.00    -0.504 OA
ATOM     21  H   UNL     1      -4.793 -30.253 -34.769  1.00  0.00     0.293 HD
ENDBRANCH  17  20
ENDBRANCH   1  12
BRANCH   2  22
ATOM     22  O   UNL     1       1.393 -30.035 -35.089  1.00  0.00    -0.502 OA
ATOM     23  H   UNL     1       1.027 -29.092 -35.139  1.00  0.00     0.293 HD
ENDBRANCH   2  22
BRANCH   6  24
ATOM     24  O   UNL     1       4.380 -33.844 -32.865  1.00  0.00    -0.507 OA
ATOM     25  H   UNL     1       4.312 -34.652 -33.464  1.00  0.00     0.293 HD
ENDBRANCH   6  24
BRANCH   8  26
ATOM     26  O   UNL     1       2.217 -34.224 -28.596  1.00  0.00    -0.508 OA
ATOM     27  H   UNL     1       2.746 -33.852 -27.816  1.00  0.00     0.293 HD
ENDBRANCH   8  26
TORSDOF 6
ENDMDL
MODEL 7
REMARK VINA RESULT:    -5.902      8.275     12.462
REMARK INTER + INTRA:          -7.432
REMARK INTER:                  -7.109
REMARK INTRA:                  -0.323
REMARK UNBOUND:                -0.322
REMARK SMILES O=c1c(O)c(-c2ccc(O)c(O)c2)oc2cc(O)cc(O)c12
REMARK SMILES IDX 5 1 3 2 2 3 1 4 22 5 20 6 19 7 17 8 16 9 15 10 14 11 6 12
REMARK SMILES IDX 7 13 8 14 9 15 13 16 11 17 10 18 12 20 4 22 21 24 18 26
REMARK H PARENT 10 19 12 21 4 23 21 25 18 27
REMARK Flexibility Score: inf
ROOT
ATOM      1  C   UNL     1       2.916 -33.059 -31.392  1.00  0.00     0.180 A 
ATOM      2  C   UNL     1       2.156 -33.492 -30.292  1.00  0.00     0.208 A 
ATOM      3  C   UNL     1       0.866 -32.969 -30.109  1.00  0.00     0.238 A 
ATOM      4  O   UNL     1       0.210 -33.320 -29.093  1.00  0.00    -0.285 OA
ATOM      5  C   UNL     1       0.347 -32.033 -31.035  1.00  0.00     0.111 A 
ATOM      6  C   UNL     1      -0.963 -31.469 -30.969  1.00  0.00     0.134 A 
ATOM      7  C   UNL     1      -1.325 -30.455 -31.864  1.00  0.00     0.093 A 
ATOM      8  C   UNL     1      -0.446 -30.030 -32.864  1.00  0.00     0.123 A 
ATOM      9  C   UNL     1       0.813 -30.617 -32.973  1.00  0.00     0.094 A 
ATOM     10  C   UNL     1       1.215 -31.606 -32.072  1.00  0.00     0.146 A 
ATOM     11  O   UNL     1       2.427 -32.130 -32.206  1.00  0.00    -0.452 OA
ENDROOT
BRANCH   1  12
ATOM     12  C   UNL     1       4.275 -33.582 -31.666  1.00  0.00     0.025 A 
ATOM     13  C   UNL     1       4.480 -34.661 -32.540  1.00  0.00     0.016 A 
ATOM     14  C   UNL     1       5.771 -35.122 -32.802  1.00  0.00     0.051 A 
ATOM     15  C   UNL     1       6.881 -34.510 -32.209  1.00  0.00     0.157 A 
ATOM     16  C   UNL     1       5.388 -32.954 -31.088  1.00  0.00     0.062 A 
ATOM     17  C   UNL     1       6.687 -33.409 -31.343  1.00  0.00     0.158 A 
BRANCH  15  18
ATOM     18  O   UNL     1       8.145 -35.022 -32.509  1.00  0.00    -0.504 OA
ATOM     19  H   UNL     1       8.977 -34.457 -32.594  1.00  0.00     0.293 HD
ENDBRANCH  15  18
BRANCH  17  20
ATOM     20  O   UNL     1       7.747 -32.742 -30.723  1.00  0.00    -0.504 OA
ATOM     21  H   UNL     1       8.289 -33.127 -29.964  1.00  0.00     0.293 HD
ENDBRANCH  17  20
ENDBRANCH   1  12
BRANCH   2  22
ATOM     22  O   UNL     1       2.696 -34.400 -29.378  1.00  0.00    -0.502 OA
ATOM     23  H   UNL     1       2.853 -35.375 -29.607  1.00  0.00     0.293 HD
ENDBRANCH   2  22
BRANCH   6  24
ATOM     24  O   UNL     1      -1.948 -31.886 -30.069  1.00  0.00    -0.507 OA
ATOM     25  H   UNL     1      -2.579 -32.659 -30.224  1.00  0.00     0.293 HD
ENDBRANCH   6  24
BRANCH   8  26
ATOM     26  O   UNL     1      -0.818 -29.031 -33.759  1.00  0.00    -0.508 OA
ATOM     27  H   UNL     1      -0.490 -29.027 -34.718  1.00  0.00     0.293 HD
ENDBRANCH   8  26
TORSDOF 6
ENDMDL
MODEL 8
REMARK VINA RESULT:    -5.801      3.871      6.701
REMARK INTER + INTRA:          -7.310
REMARK INTER:                  -7.154
REMARK INTRA:                  -0.157
REMARK UNBOUND:                -0.322
REMARK SMILES O=c1c(O)c(-c2ccc(O)c(O)c2)oc2cc(O)cc(O)c12
REMARK SMILES IDX 5 1 3 2 2 3 1 4 22 5 20 6 19 7 17 8 16 9 15 10 14 11 6 12
REMARK SMILES IDX 7 13 8 14 9 15 13 16 11 17 10 18 12 20 4 22 21 24 18 26
REMARK H PARENT 10 19 12 21 4 23 21 25 18 27
REMARK Flexibility Score: inf
ROOT
ATOM      1  C   UNL     1       6.155 -40.825 -30.089  1.00  0.00     0.180 A 
ATOM      2  C   UNL     1       6.197 -41.727 -31.166  1.00  0.00     0.208 A 
ATOM      3  C   UNL     1       5.032 -41.937 -31.922  1.00  0.00     0.238 A 
ATOM      4  O   UNL     1       5.060 -42.787 -32.851  1.00  0.00    -0.285 OA
ATOM      5  C   UNL     1       3.848 -41.232 -31.602  1.00  0.00     0.111 A 
ATOM      6  C   UNL     1       2.622 -41.337 -32.326  1.00  0.00     0.134 A 
ATOM      7  C   UNL     1       1.476 -40.692 -31.843  1.00  0.00     0.093 A 
ATOM      8  C   UNL     1       1.529 -39.893 -30.698  1.00  0.00     0.123 A 
ATOM      9  C   UNL     1       2.735 -39.737 -30.019  1.00  0.00     0.094 A 
ATOM     10  C   UNL     1       3.886 -40.397 -30.456  1.00  0.00     0.146 A 
ATOM     11  O   UNL     1       5.012 -40.228 -29.773  1.00  0.00    -0.452 OA
ENDROOT
BRANCH   1  12
ATOM     12  C   UNL     1       7.348 -40.532 -29.260  1.00  0.00     0.025 A 
ATOM     13  C   UNL     1       7.910 -39.246 -29.218  1.00  0.00     0.016 A 
ATOM     14  C   UNL     1       9.020 -38.988 -28.412  1.00  0.00     0.051 A 
ATOM     15  C   UNL     1       9.582 -39.999 -27.624  1.00  0.00     0.157 A 
ATOM     16  C   UNL     1       7.896 -41.541 -28.455  1.00  0.00     0.062 A 
ATOM     17  C   UNL     1       9.010 -41.292 -27.643  1.00  0.00     0.158 A 
BRANCH  15  18
ATOM     18  O   UNL     1      10.693 -39.676 -26.843  1.00  0.00    -0.504 OA
ATOM     19  H   UNL     1      10.933 -40.144 -25.982  1.00  0.00     0.293 HD
ENDBRANCH  15  18
BRANCH  17  20
ATOM     20  O   UNL     1       9.508 -42.348 -26.877  1.00  0.00    -0.504 OA
ATOM     21  H   UNL     1       9.172 -43.298 -26.939  1.00  0.00     0.293 HD
ENDBRANCH  17  20
ENDBRANCH   1  12
BRANCH   2  22
ATOM     22  O   UNL     1       7.371 -42.429 -31.450  1.00  0.00    -0.502 OA
ATOM     23  H   UNL     1       8.052 -42.101 -32.125  1.00  0.00     0.293 HD
ENDBRANCH   2  22
BRANCH   6  24
ATOM     24  O   UNL     1       2.483 -42.034 -33.530  1.00  0.00    -0.507 OA
ATOM     25  H   UNL     1       3.245 -42.267 -34.150  1.00  0.00     0.293 HD
ENDBRANCH   6  24
BRANCH   8  26
ATOM     26  O   UNL     1       0.389 -39.244 -30.232  1.00  0.00    -0.508 OA
ATOM     27  H   UNL     1      -0.509 -39.711 -30.190  1.00  0.00     0.293 HD
ENDBRANCH   8  26
TORSDOF 6
ENDMDL
