MODEL 1
REMARK VINA RESULT:    -4.330      0.000      0.000
REMARK INTER + INTRA:          -8.820
REMARK INTER:                  -7.368
REMARK INTRA:                  -1.452
REMARK UNBOUND:                -1.452
REMARK SMILES CCCCCCCCCCCCCC(=O)[O-]
REMARK SMILES IDX 8 1 9 2 10 3 11 4 12 5 13 6 14 7 15 8 16 9 7 10 6 11 5 12
REMARK SMILES IDX 4 13 3 14 2 15 1 16
REMARK H PARENT
REMARK Flexibility Score: inf
ROOT
ATOM      1  C   UNL     1       7.316   5.243  15.125  1.00  0.00     0.000 C 
ENDROOT
BRANCH   1   2
ATOM      2  C   UNL     1       6.124   5.264  16.094  1.00  0.00     0.000 C 
BRANCH   2   3
ATOM      3  C   UNL     1       6.147   6.479  17.034  1.00  0.00     0.000 C 
BRANCH   3   4
ATOM      4  C   UNL     1       6.420   6.046  18.482  1.00  0.00     0.000 C 
BRANCH   4   5
ATOM      5  C   UNL     1       6.294   4.527  18.681  1.00  0.00     0.006 C 
BRANCH   5   6
ATOM      6  C   UNL     1       5.570   4.158  19.982  1.00  0.00     0.053 C 
BRANCH   6   7
ATOM      7  C   UNL     1       5.922   2.765  20.398  1.00  0.00     0.041 C 
ATOM      8  O   UNL     1       5.351   2.236  21.388  1.00  0.00    -0.550 OA
ATOM      9  O   UNL     1       6.916   2.068  19.724  1.00  0.00    -0.550 OA
ENDBRANCH   6   7
ENDBRANCH   5   6
ENDBRANCH   4   5
ENDBRANCH   3   4
ENDBRANCH   2   3
ENDBRANCH   1   2
BRANCH   1  10
ATOM     10  C   UNL     1       8.514   4.453  15.675  1.00  0.00     0.000 C 
BRANCH  10  11
ATOM     11  C   UNL     1       9.580   5.398  16.243  1.00  0.00    -0.000 C 
BRANCH  11  12
ATOM     12  C   UNL     1       9.554   6.753  15.519  1.00  0.00    -0.000 C 
BRANCH  12  13
ATOM     13  C   UNL     1      10.895   7.096  14.848  1.00  0.00    -0.000 C 
BRANCH  13  14
ATOM     14  C   UNL     1      11.184   6.322  13.547  1.00  0.00    -0.000 C 
BRANCH  14  15
ATOM     15  C   UNL     1      10.102   6.503  12.461  1.00  0.00    -0.003 C 
ATOM     16  C   UNL     1       9.424   5.185  12.087  1.00  0.00     0.004 C 
ENDBRANCH  14  15
ENDBRANCH  13  14
ENDBRANCH  12  13
ENDBRANCH  11  12
ENDBRANCH  10  11
ENDBRANCH   1  10
TORSDOF 12
ENDMDL
MODEL 2
REMARK VINA RESULT:    -4.314      3.365      7.117
REMARK INTER + INTRA:          -8.792
REMARK INTER:                  -7.288
REMARK INTRA:                  -1.504
REMARK UNBOUND:                -1.452
REMARK SMILES CCCCCCCCCCCCCC(=O)[O-]
REMARK SMILES IDX 8 1 9 2 10 3 11 4 12 5 13 6 14 7 15 8 16 9 7 10 6 11 5 12
REMARK SMILES IDX 4 13 3 14 2 15 1 16
REMARK H PARENT
REMARK Flexibility Score: inf
ROOT
ATOM      1  C   UNL     1       7.413   4.274  19.002  1.00  0.00     0.000 C 
ENDROOT
BRANCH   1   2
ATOM      2  C   UNL     1       6.131   4.733  18.287  1.00  0.00     0.000 C 
BRANCH   2   3
ATOM      3  C   UNL     1       6.354   5.973  17.409  1.00  0.00     0.000 C 
BRANCH   3   4
ATOM      4  C   UNL     1       6.295   5.607  15.919  1.00  0.00     0.000 C 
BRANCH   4   5
ATOM      5  C   UNL     1       7.679   5.281  15.333  1.00  0.00     0.006 C 
BRANCH   5   6
ATOM      6  C   UNL     1       8.809   6.063  16.016  1.00  0.00     0.053 C 
BRANCH   6   7
ATOM      7  C   UNL     1       9.779   6.574  14.997  1.00  0.00     0.041 C 
ATOM      8  O   UNL     1       9.790   6.091  13.834  1.00  0.00    -0.550 OA
ATOM      9  O   UNL     1      10.704   7.549  15.346  1.00  0.00    -0.550 OA
ENDBRANCH   6   7
ENDBRANCH   5   6
ENDBRANCH   4   5
ENDBRANCH   3   4
ENDBRANCH   2   3
ENDBRANCH   1   2
BRANCH   1  10
ATOM     10  C   UNL     1       7.206   2.995  19.828  1.00  0.00     0.000 C 
BRANCH  10  11
ATOM     11  C   UNL     1       5.716   2.657  19.952  1.00  0.00    -0.000 C 
BRANCH  11  12
ATOM     12  C   UNL     1       5.226   2.860  21.394  1.00  0.00    -0.000 C 
BRANCH  12  13
ATOM     13  C   UNL     1       4.432   4.164  21.577  1.00  0.00    -0.000 C 
BRANCH  13  14
ATOM     14  C   UNL     1       5.259   5.357  22.098  1.00  0.00    -0.000 C 
BRANCH  14  15
ATOM     15  C   UNL     1       5.124   6.630  21.236  1.00  0.00    -0.003 C 
ATOM     16  C   UNL     1       6.469   7.315  20.990  1.00  0.00     0.004 C 
ENDBRANCH  14  15
ENDBRANCH  13  14
ENDBRANCH  12  13
ENDBRANCH  11  12
ENDBRANCH  10  11
ENDBRANCH   1  10
TORSDOF 12
ENDMDL
MODEL 3
REMARK VINA RESULT:    -4.273      1.268      2.456
REMARK INTER + INTRA:          -8.723
REMARK INTER:                  -7.159
REMARK INTRA:                  -1.564
REMARK UNBOUND:                -1.452
REMARK SMILES CCCCCCCCCCCCCC(=O)[O-]
REMARK SMILES IDX 8 1 9 2 10 3 11 4 12 5 13 6 14 7 15 8 16 9 7 10 6 11 5 12
REMARK SMILES IDX 4 13 3 14 2 15 1 16
REMARK H PARENT
REMARK Flexibility Score: inf
ROOT
ATOM      1  C   UNL     1       9.497   5.494  16.228  1.00  0.00     0.000 C 
ENDROOT
BRANCH   1   2
ATOM      2  C   UNL     1       8.296   6.375  15.846  1.00  0.00     0.000 C 
BRANCH   2   3
ATOM      3  C   UNL     1       6.965   5.609  15.881  1.00  0.00     0.000 C 
BRANCH   3   4
ATOM      4  C   UNL     1       5.995   6.241  16.890  1.00  0.00     0.000 C 
BRANCH   4   5
ATOM      5  C   UNL     1       6.362   5.917  18.348  1.00  0.00     0.006 C 
BRANCH   5   6
ATOM      6  C   UNL     1       6.649   4.425  18.568  1.00  0.00     0.053 C 
BRANCH   6   7
ATOM      7  C   UNL     1       5.841   3.902  19.713  1.00  0.00     0.041 C 
ATOM      8  O   UNL     1       5.657   2.664  19.846  1.00  0.00    -0.550 OA
ATOM      9  O   UNL     1       5.251   4.785  20.608  1.00  0.00    -0.550 OA
ENDBRANCH   6   7
ENDBRANCH   5   6
ENDBRANCH   4   5
ENDBRANCH   3   4
ENDBRANCH   2   3
ENDBRANCH   1   2
BRANCH   1  10
ATOM     10  C   UNL     1      10.715   5.726  15.320  1.00  0.00     0.000 C 
BRANCH  10  11
ATOM     11  C   UNL     1      10.489   6.930  14.397  1.00  0.00    -0.000 C 
BRANCH  11  12
ATOM     12  C   UNL     1      10.852   6.583  12.945  1.00  0.00    -0.000 C 
BRANCH  12  13
ATOM     13  C   UNL     1       9.648   6.076  12.133  1.00  0.00    -0.000 C 
BRANCH  13  14
ATOM     14  C   UNL     1       9.511   4.542  12.068  1.00  0.00    -0.000 C 
BRANCH  14  15
ATOM     15  C   UNL     1       8.251   4.000  12.775  1.00  0.00    -0.003 C 
ATOM     16  C   UNL     1       8.571   2.866  13.751  1.00  0.00     0.004 C 
ENDBRANCH  14  15
ENDBRANCH  13  14
ENDBRANCH  12  13
ENDBRANCH  11  12
ENDBRANCH  10  11
ENDBRANCH   1  10
TORSDOF 12
ENDMDL
MODEL 4
REMARK VINA RESULT:    -4.268      2.006      3.991
REMARK INTER + INTRA:          -8.715
REMARK INTER:                  -7.339
REMARK INTRA:                  -1.377
REMARK UNBOUND:                -1.452
REMARK SMILES CCCCCCCCCCCCCC(=O)[O-]
REMARK SMILES IDX 8 1 9 2 10 3 11 4 12 5 13 6 14 7 15 8 16 9 7 10 6 11 5 12
REMARK SMILES IDX 4 13 3 14 2 15 1 16
REMARK H PARENT
REMARK Flexibility Score: inf
ROOT
ATOM      1  C   UNL     1       7.591   4.184  19.176  1.00  0.00     0.000 C 
ENDROOT
BRANCH   1   2
ATOM      2  C   UNL     1       7.347   2.821  19.842  1.00  0.00     0.000 C 
BRANCH   2   3
ATOM      3  C   UNL     1       5.857   2.543  20.091  1.00  0.00     0.000 C 
BRANCH   3   4
ATOM      4  C   UNL     1       5.548   2.522  21.596  1.00  0.00     0.000 C 
BRANCH   4   5
ATOM      5  C   UNL     1       4.327   3.380  21.962  1.00  0.00     0.006 C 
BRANCH   5   6
ATOM      6  C   UNL     1       4.540   4.870  21.665  1.00  0.00     0.053 C 
BRANCH   6   7
ATOM      7  C   UNL     1       5.627   5.424  22.533  1.00  0.00     0.041 C 
ATOM      8  O   UNL     1       5.542   5.341  23.786  1.00  0.00    -0.550 OA
ATOM      9  O   UNL     1       6.710   6.076  21.959  1.00  0.00    -0.550 OA
ENDBRANCH   6   7
ENDBRANCH   5   6
ENDBRANCH   4   5
ENDBRANCH   3   4
ENDBRANCH   2   3
ENDBRANCH   1   2
BRANCH   1  10
ATOM     10  C   UNL     1       6.335   4.743  18.489  1.00  0.00     0.000 C 
BRANCH  10  11
ATOM     11  C   UNL     1       6.438   6.262  18.308  1.00  0.00    -0.000 C 
BRANCH  11  12
ATOM     12  C   UNL     1       6.390   6.642  16.820  1.00  0.00    -0.000 C 
BRANCH  12  13
ATOM     13  C   UNL     1       6.593   5.435  15.889  1.00  0.00    -0.000 C 
BRANCH  13  14
ATOM     14  C   UNL     1       7.973   5.369  15.205  1.00  0.00    -0.000 C 
BRANCH  14  15
ATOM     15  C   UNL     1       9.045   6.249  15.882  1.00  0.00    -0.003 C 
ATOM     16  C   UNL     1      10.066   6.798  14.884  1.00  0.00     0.004 C 
ENDBRANCH  14  15
ENDBRANCH  13  14
ENDBRANCH  12  13
ENDBRANCH  11  12
ENDBRANCH  10  11
ENDBRANCH   1  10
TORSDOF 12
ENDMDL
MODEL 5
REMARK VINA RESULT:    -4.266      3.221      6.716
REMARK INTER + INTRA:          -8.710
REMARK INTER:                  -6.906
REMARK INTRA:                  -1.805
REMARK UNBOUND:                -1.452
REMARK SMILES CCCCCCCCCCCCCC(=O)[O-]
REMARK SMILES IDX 8 1 9 2 10 3 11 4 12 5 13 6 14 7 15 8 16 9 7 10 6 11 5 12
REMARK SMILES IDX 4 13 3 14 2 15 1 16
REMARK H PARENT
REMARK Flexibility Score: inf
ROOT
ATOM      1  C   UNL     1       8.653   4.554  15.918  1.00  0.00     0.000 C 
ENDROOT
BRANCH   1   2
ATOM      2  C   UNL     1       9.670   5.650  16.278  1.00  0.00     0.000 C 
BRANCH   2   3
ATOM      3  C   UNL     1       9.696   6.793  15.254  1.00  0.00     0.000 C 
BRANCH   3   4
ATOM      4  C   UNL     1      10.850   6.610  14.257  1.00  0.00     0.000 C 
BRANCH   4   5
ATOM      5  C   UNL     1      10.430   6.890  12.805  1.00  0.00     0.006 C 
BRANCH   5   6
ATOM      6  C   UNL     1       9.549   5.779  12.219  1.00  0.00     0.053 C 
BRANCH   6   7
ATOM      7  C   UNL     1      10.313   4.495  12.142  1.00  0.00     0.041 C 
ATOM      8  O   UNL     1      11.312   4.396  11.381  1.00  0.00    -0.550 OA
ATOM      9  O   UNL     1       9.894   3.391  12.873  1.00  0.00    -0.550 OA
ENDBRANCH   6   7
ENDBRANCH   5   6
ENDBRANCH   4   5
ENDBRANCH   3   4
ENDBRANCH   2   3
ENDBRANCH   1   2
BRANCH   1  10
ATOM     10  C   UNL     1       7.442   5.101  15.146  1.00  0.00     0.000 C 
BRANCH  10  11
ATOM     11  C   UNL     1       6.239   5.293  16.077  1.00  0.00    -0.000 C 
BRANCH  11  12
ATOM     12  C   UNL     1       6.180   6.734  16.606  1.00  0.00    -0.000 C 
BRANCH  12  13
ATOM     13  C   UNL     1       6.553   6.840  18.094  1.00  0.00    -0.000 C 
BRANCH  13  14
ATOM     14  C   UNL     1       6.264   5.575  18.925  1.00  0.00    -0.000 C 
BRANCH  14  15
ATOM     15  C   UNL     1       7.465   5.097  19.769  1.00  0.00    -0.003 C 
ATOM     16  C   UNL     1       7.960   3.712  19.350  1.00  0.00     0.004 C 
ENDBRANCH  14  15
ENDBRANCH  13  14
ENDBRANCH  12  13
ENDBRANCH  11  12
ENDBRANCH  10  11
ENDBRANCH   1  10
TORSDOF 12
ENDMDL
MODEL 6
REMARK VINA RESULT:    -4.230      3.248      6.889
REMARK INTER + INTRA:          -8.650
REMARK INTER:                  -6.723
REMARK INTRA:                  -1.927
REMARK UNBOUND:                -1.452
REMARK SMILES CCCCCCCCCCCCCC(=O)[O-]
REMARK SMILES IDX 8 1 9 2 10 3 11 4 12 5 13 6 14 7 15 8 16 9 7 10 6 11 5 12
REMARK SMILES IDX 4 13 3 14 2 15 1 16
REMARK H PARENT
REMARK Flexibility Score: inf
ROOT
ATOM      1  C   UNL     1       5.842   2.645  20.119  1.00  0.00     0.000 C 
ENDROOT
BRANCH   1   2
ATOM      2  C   UNL     1       7.321   3.046  19.996  1.00  0.00     0.000 C 
BRANCH   2   3
ATOM      3  C   UNL     1       7.521   4.320  19.161  1.00  0.00     0.000 C 
BRANCH   3   4
ATOM      4  C   UNL     1       6.254   4.654  18.359  1.00  0.00     0.000 C 
BRANCH   4   5
ATOM      5  C   UNL     1       6.343   6.014  17.649  1.00  0.00     0.006 C 
BRANCH   5   6
ATOM      6  C   UNL     1       6.257   5.890  16.122  1.00  0.00     0.053 C 
BRANCH   6   7
ATOM      7  C   UNL     1       7.579   5.476  15.557  1.00  0.00     0.041 C 
ATOM      8  O   UNL     1       8.628   6.093  15.881  1.00  0.00    -0.550 OA
ATOM      9  O   UNL     1       7.647   4.441  14.634  1.00  0.00    -0.550 OA
ENDBRANCH   6   7
ENDBRANCH   5   6
ENDBRANCH   4   5
ENDBRANCH   3   4
ENDBRANCH   2   3
ENDBRANCH   1   2
BRANCH   1  10
ATOM     10  C   UNL     1       5.438   2.308  21.563  1.00  0.00     0.000 C 
BRANCH  10  11
ATOM     11  C   UNL     1       5.048   3.576  22.334  1.00  0.00    -0.000 C 
BRANCH  11  12
ATOM     12  C   UNL     1       4.291   4.558  21.427  1.00  0.00    -0.000 C 
BRANCH  12  13
ATOM     13  C   UNL     1       4.855   5.987  21.494  1.00  0.00    -0.000 C 
BRANCH  13  14
ATOM     14  C   UNL     1       6.084   6.156  22.408  1.00  0.00    -0.000 C 
BRANCH  14  15
ATOM     15  C   UNL     1       7.230   6.967  21.767  1.00  0.00    -0.003 C 
ATOM     16  C   UNL     1       6.730   7.942  20.700  1.00  0.00     0.004 C 
ENDBRANCH  14  15
ENDBRANCH  13  14
ENDBRANCH  12  13
ENDBRANCH  11  12
ENDBRANCH  10  11
ENDBRANCH   1  10
TORSDOF 12
ENDMDL
MODEL 7
REMARK VINA RESULT:    -4.212      2.014      3.714
REMARK INTER + INTRA:          -8.620
REMARK INTER:                  -6.789
REMARK INTRA:                  -1.830
REMARK UNBOUND:                -1.452
REMARK SMILES CCCCCCCCCCCCCC(=O)[O-]
REMARK SMILES IDX 8 1 9 2 10 3 11 4 12 5 13 6 14 7 15 8 16 9 7 10 6 11 5 12
REMARK SMILES IDX 4 13 3 14 2 15 1 16
REMARK H PARENT
REMARK Flexibility Score: inf
ROOT
ATOM      1  C   UNL     1      10.022   6.724  15.642  1.00  0.00     0.000 C 
ENDROOT
BRANCH   1   2
ATOM      2  C   UNL     1       9.906   5.207  15.864  1.00  0.00     0.000 C 
BRANCH   2   3
ATOM      3  C   UNL     1       8.499   4.779  16.307  1.00  0.00     0.000 C 
BRANCH   3   4
ATOM      4  C   UNL     1       7.422   5.538  15.517  1.00  0.00     0.000 C 
BRANCH   4   5
ATOM      5  C   UNL     1       6.186   5.869  16.368  1.00  0.00     0.006 C 
BRANCH   5   6
ATOM      6  C   UNL     1       6.409   7.072  17.293  1.00  0.00     0.053 C 
BRANCH   6   7
ATOM      7  C   UNL     1       6.400   6.638  18.725  1.00  0.00     0.041 C 
ATOM      8  O   UNL     1       6.195   5.431  19.020  1.00  0.00    -0.550 OA
ATOM      9  O   UNL     1       6.570   7.574  19.736  1.00  0.00    -0.550 OA
ENDBRANCH   6   7
ENDBRANCH   5   6
ENDBRANCH   4   5
ENDBRANCH   3   4
ENDBRANCH   2   3
ENDBRANCH   1   2
BRANCH   1  10
ATOM     10  C   UNL     1      10.548   7.080  14.243  1.00  0.00     0.000 C 
BRANCH  10  11
ATOM     11  C   UNL     1      11.212   5.867  13.581  1.00  0.00    -0.000 C 
BRANCH  11  12
ATOM     12  C   UNL     1      10.669   5.652  12.160  1.00  0.00    -0.000 C 
BRANCH  12  13
ATOM     13  C   UNL     1       9.140   5.482  12.124  1.00  0.00    -0.000 C 
BRANCH  13  14
ATOM     14  C   UNL     1       8.655   4.082  11.699  1.00  0.00    -0.000 C 
BRANCH  14  15
ATOM     15  C   UNL     1       8.233   3.184  12.881  1.00  0.00    -0.003 C 
ATOM     16  C   UNL     1       9.418   2.446  13.506  1.00  0.00     0.004 C 
ENDBRANCH  14  15
ENDBRANCH  13  14
ENDBRANCH  12  13
ENDBRANCH  11  12
ENDBRANCH  10  11
ENDBRANCH   1  10
TORSDOF 12
ENDMDL
MODEL 8
REMARK VINA RESULT:    -4.202      4.142      5.794
REMARK INTER + INTRA:          -8.602
REMARK INTER:                  -7.059
REMARK INTRA:                  -1.543
REMARK UNBOUND:                -1.452
REMARK SMILES CCCCCCCCCCCCCC(=O)[O-]
REMARK SMILES IDX 8 1 9 2 10 3 11 4 12 5 13 6 14 7 15 8 16 9 7 10 6 11 5 12
REMARK SMILES IDX 4 13 3 14 2 15 1 16
REMARK H PARENT
REMARK Flexibility Score: inf
ROOT
ATOM      1  C   UNL     1       5.505   2.630  21.697  1.00  0.00     0.000 C 
ENDROOT
BRANCH   1   2
ATOM      2  C   UNL     1       4.550   3.758  22.119  1.00  0.00     0.000 C 
BRANCH   2   3
ATOM      3  C   UNL     1       5.264   5.107  22.289  1.00  0.00     0.000 C 
BRANCH   3   4
ATOM      4  C   UNL     1       4.774   6.122  21.245  1.00  0.00     0.000 C 
BRANCH   4   5
ATOM      5  C   UNL     1       5.470   7.487  21.374  1.00  0.00     0.006 C 
BRANCH   5   6
ATOM      6  C   UNL     1       6.990   7.396  21.192  1.00  0.00     0.053 C 
BRANCH   6   7
ATOM      7  C   UNL     1       7.653   8.630  21.717  1.00  0.00     0.041 C 
ATOM      8  O   UNL     1       6.971   9.658  21.968  1.00  0.00    -0.550 OA
ATOM      9  O   UNL     1       9.032   8.663  21.882  1.00  0.00    -0.550 OA
ENDBRANCH   6   7
ENDBRANCH   5   6
ENDBRANCH   4   5
ENDBRANCH   3   4
ENDBRANCH   2   3
ENDBRANCH   1   2
BRANCH   1  10
ATOM     10  C   UNL     1       5.850   2.674  20.201  1.00  0.00     0.000 C 
BRANCH  10  11
ATOM     11  C   UNL     1       7.341   2.964  19.989  1.00  0.00    -0.000 C 
BRANCH  11  12
ATOM     12  C   UNL     1       7.541   4.295  19.248  1.00  0.00    -0.000 C 
BRANCH  12  13
ATOM     13  C   UNL     1       6.355   4.654  18.336  1.00  0.00    -0.000 C 
BRANCH  13  14
ATOM     14  C   UNL     1       6.350   6.108  17.824  1.00  0.00    -0.000 C 
BRANCH  14  15
ATOM     15  C   UNL     1       6.039   6.235  16.318  1.00  0.00    -0.003 C 
ATOM     16  C   UNL     1       5.346   4.993  15.757  1.00  0.00     0.004 C 
ENDBRANCH  14  15
ENDBRANCH  13  14
ENDBRANCH  12  13
ENDBRANCH  11  12
ENDBRANCH  10  11
ENDBRANCH   1  10
TORSDOF 12
ENDMDL
MODEL 9
REMARK VINA RESULT:    -4.196      3.062      6.727
REMARK INTER + INTRA:          -8.591
REMARK INTER:                  -6.957
REMARK INTRA:                  -1.634
REMARK UNBOUND:                -1.452
REMARK SMILES CCCCCCCCCCCCCC(=O)[O-]
REMARK SMILES IDX 8 1 9 2 10 3 11 4 12 5 13 6 14 7 15 8 16 9 7 10 6 11 5 12
REMARK SMILES IDX 4 13 3 14 2 15 1 16
REMARK H PARENT
REMARK Flexibility Score: inf
ROOT
ATOM      1  C   UNL     1       6.369   7.390  18.254  1.00  0.00     0.000 C 
ENDROOT
BRANCH   1   2
ATOM      2  C   UNL     1       6.735   6.937  16.831  1.00  0.00     0.000 C 
BRANCH   2   3
ATOM      3  C   UNL     1       5.736   5.920  16.259  1.00  0.00     0.000 C 
BRANCH   3   4
ATOM      4  C   UNL     1       6.444   4.916  15.337  1.00  0.00     0.000 C 
BRANCH   4   5
ATOM      5  C   UNL     1       7.968   4.898  15.540  1.00  0.00     0.006 C 
BRANCH   5   6
ATOM      6  C   UNL     1       8.742   5.121  14.234  1.00  0.00     0.053 C 
BRANCH   6   7
ATOM      7  C   UNL     1       8.552   3.960  13.310  1.00  0.00     0.041 C 
ATOM      8  O   UNL     1       8.186   4.149  12.120  1.00  0.00    -0.550 OA
ATOM      9  O   UNL     1       8.733   2.664  13.776  1.00  0.00    -0.550 OA
ENDBRANCH   6   7
ENDBRANCH   5   6
ENDBRANCH   4   5
ENDBRANCH   3   4
ENDBRANCH   2   3
ENDBRANCH   1   2
BRANCH   1  10
ATOM     10  C   UNL     1       6.359   6.230  19.262  1.00  0.00     0.000 C 
BRANCH  10  11
ATOM     11  C   UNL     1       7.697   5.480  19.249  1.00  0.00    -0.000 C 
BRANCH  11  12
ATOM     12  C   UNL     1       7.475   3.964  19.152  1.00  0.00    -0.000 C 
BRANCH  12  13
ATOM     13  C   UNL     1       5.986   3.576  19.174  1.00  0.00    -0.000 C 
BRANCH  13  14
ATOM     14  C   UNL     1       5.601   2.549  20.257  1.00  0.00    -0.000 C 
BRANCH  14  15
ATOM     15  C   UNL     1       5.487   3.152  21.673  1.00  0.00    -0.003 C 
ATOM     16  C   UNL     1       4.442   4.266  21.753  1.00  0.00     0.004 C 
ENDBRANCH  14  15
ENDBRANCH  13  14
ENDBRANCH  12  13
ENDBRANCH  11  12
ENDBRANCH  10  11
ENDBRANCH   1  10
TORSDOF 12
ENDMDL
