MODEL 1
REMARK VINA RESULT:    -6.570      0.000      0.000
REMARK INTER + INTRA:          -8.470
REMARK INTER:                  -8.106
REMARK INTRA:                  -0.364
REMARK UNBOUND:                -0.364
REMARK SMILES Oc1cc(O)c2cc(O)c(-c3cc(O)c(O)c(O)c3)[o+]c2c1
REMARK SMILES IDX 10 1 20 2 21 3 22 4 2 5 3 6 4 7 6 8 7 9 8 10 11 11 12 12
REMARK SMILES IDX 13 13 19 14 15 15 17 16 14 17 16 19 18 21 9 23 1 25 5 27
REMARK H PARENT 14 18 16 20 18 22 9 24 1 26 5 28
REMARK Flexibility Score: inf
ROOT
ATOM      1  C   UNL     1     -60.423  22.227 -30.668  1.00  0.00     0.402 A 
ATOM      2  O   UNL     1     -61.301  21.355 -30.181  1.00  0.00    -0.202 OA
ATOM      3  C   UNL     1     -61.221  20.045 -30.391  1.00  0.00     0.368 A 
ATOM      4  C   UNL     1     -62.195  19.208 -29.841  1.00  0.00     0.162 A 
ATOM      5  C   UNL     1     -62.139  17.829 -30.047  1.00  0.00     0.128 A 
ATOM      6  C   UNL     1     -61.101  17.280 -30.809  1.00  0.00     0.093 A 
ATOM      7  C   UNL     1     -60.113  18.099 -31.372  1.00  0.00     0.136 A 
ATOM      8  C   UNL     1     -60.165  19.501 -31.162  1.00  0.00     0.125 A 
ATOM      9  C   UNL     1     -59.213  20.395 -31.675  1.00  0.00     0.078 A 
ATOM     10  C   UNL     1     -59.329  21.766 -31.422  1.00  0.00     0.223 A 
ENDROOT
BRANCH   1  11
ATOM     11  C   UNL     1     -60.626  23.665 -30.374  1.00  0.00     0.091 A 
ATOM     12  C   UNL     1     -61.462  24.427 -31.203  1.00  0.00     0.068 A 
ATOM     13  C   UNL     1     -61.657  25.790 -30.962  1.00  0.00     0.162 A 
ATOM     14  C   UNL     1     -59.955  24.297 -29.314  1.00  0.00     0.068 A 
ATOM     15  C   UNL     1     -61.000  26.414 -29.888  1.00  0.00     0.200 A 
ATOM     16  C   UNL     1     -60.143  25.664 -29.065  1.00  0.00     0.162 A 
BRANCH  13  17
ATOM     17  O   UNL     1     -62.508  26.510 -31.801  1.00  0.00    -0.504 OA
ATOM     18  H   UNL     1     -62.549  26.343 -32.799  1.00  0.00     0.293 HD
ENDBRANCH  13  17
BRANCH  15  19
ATOM     19  O   UNL     1     -61.202  27.775 -29.652  1.00  0.00    -0.502 OA
ATOM     20  H   UNL     1     -60.503  28.354 -29.204  1.00  0.00     0.293 HD
ENDBRANCH  15  19
BRANCH  16  21
ATOM     21  O   UNL     1     -59.477  26.279 -28.006  1.00  0.00    -0.504 OA
ATOM     22  H   UNL     1     -59.560  25.937 -27.056  1.00  0.00     0.293 HD
ENDBRANCH  16  21
ENDBRANCH   1  11
BRANCH  10  23
ATOM     23  O   UNL     1     -58.355  22.648 -31.890  1.00  0.00    -0.500 OA
ATOM     24  H   UNL     1     -58.582  23.402 -32.528  1.00  0.00     0.294 HD
ENDBRANCH  10  23
BRANCH   5  25
ATOM     25  O   UNL     1     -63.119  17.010 -29.490  1.00  0.00    -0.507 OA
ATOM     26  H   UNL     1     -63.975  17.392 -29.108  1.00  0.00     0.293 HD
ENDBRANCH   5  25
BRANCH   7  27
ATOM     27  O   UNL     1     -59.112  17.475 -32.123  1.00  0.00    -0.507 OA
ATOM     28  H   UNL     1     -59.193  17.248 -33.103  1.00  0.00     0.293 HD
ENDBRANCH   7  27
TORSDOF 7
ENDMDL
MODEL 2
REMARK VINA RESULT:    -6.553      0.065      1.795
REMARK INTER + INTRA:          -8.450
REMARK INTER:                  -8.082
REMARK INTRA:                  -0.368
REMARK UNBOUND:                -0.364
REMARK SMILES Oc1cc(O)c2cc(O)c(-c3cc(O)c(O)c(O)c3)[o+]c2c1
REMARK SMILES IDX 10 1 20 2 21 3 22 4 2 5 3 6 4 7 6 8 7 9 8 10 11 11 12 12
REMARK SMILES IDX 13 13 19 14 15 15 17 16 14 17 16 19 18 21 9 23 1 25 5 27
REMARK H PARENT 14 18 16 20 18 22 9 24 1 26 5 28
REMARK Flexibility Score: inf
ROOT
ATOM      1  C   UNL     1     -60.395  22.231 -30.749  1.00  0.00     0.402 A 
ATOM      2  O   UNL     1     -61.280  21.371 -30.253  1.00  0.00    -0.202 OA
ATOM      3  C   UNL     1     -61.205  20.057 -30.443  1.00  0.00     0.368 A 
ATOM      4  C   UNL     1     -62.186  19.233 -29.884  1.00  0.00     0.162 A 
ATOM      5  C   UNL     1     -62.135  17.852 -30.069  1.00  0.00     0.128 A 
ATOM      6  C   UNL     1     -61.096  17.286 -30.818  1.00  0.00     0.093 A 
ATOM      7  C   UNL     1     -60.101  18.091 -31.388  1.00  0.00     0.136 A 
ATOM      8  C   UNL     1     -60.148  19.496 -31.200  1.00  0.00     0.125 A 
ATOM      9  C   UNL     1     -59.189  20.378 -31.723  1.00  0.00     0.078 A 
ATOM     10  C   UNL     1     -59.299  21.753 -31.491  1.00  0.00     0.223 A 
ENDROOT
BRANCH   1  11
ATOM     11  C   UNL     1     -60.593  23.674 -30.478  1.00  0.00     0.091 A 
ATOM     12  C   UNL     1     -59.947  24.264 -29.380  1.00  0.00     0.068 A 
ATOM     13  C   UNL     1     -60.130  25.618 -29.087  1.00  0.00     0.162 A 
ATOM     14  C   UNL     1     -61.458  24.455 -31.261  1.00  0.00     0.068 A 
ATOM     15  C   UNL     1     -60.980  26.400 -29.887  1.00  0.00     0.200 A 
ATOM     16  C   UNL     1     -61.649  25.813 -30.974  1.00  0.00     0.162 A 
BRANCH  13  17
ATOM     17  O   UNL     1     -59.458  26.170 -27.997  1.00  0.00    -0.504 OA
ATOM     18  H   UNL     1     -59.904  26.295 -27.096  1.00  0.00     0.293 HD
ENDBRANCH  13  17
BRANCH  15  19
ATOM     19  O   UNL     1     -61.156  27.753 -29.590  1.00  0.00    -0.502 OA
ATOM     20  H   UNL     1     -60.380  28.403 -29.551  1.00  0.00     0.293 HD
ENDBRANCH  15  19
BRANCH  16  21
ATOM     21  O   UNL     1     -62.505  26.580 -31.764  1.00  0.00    -0.504 OA
ATOM     22  H   UNL     1     -63.100  27.295 -31.362  1.00  0.00     0.293 HD
ENDBRANCH  16  21
ENDBRANCH   1  11
BRANCH  10  23
ATOM     23  O   UNL     1     -58.320  22.623 -31.968  1.00  0.00    -0.500 OA
ATOM     24  H   UNL     1     -57.969  22.563 -32.916  1.00  0.00     0.294 HD
ENDBRANCH  10  23
BRANCH   5  25
ATOM     25  O   UNL     1     -63.121  17.046 -29.505  1.00  0.00    -0.507 OA
ATOM     26  H   UNL     1     -62.943  16.489 -28.678  1.00  0.00     0.293 HD
ENDBRANCH   5  25
BRANCH   7  27
ATOM     27  O   UNL     1     -59.100  17.451 -32.125  1.00  0.00    -0.507 OA
ATOM     28  H   UNL     1     -58.900  16.463 -32.076  1.00  0.00     0.293 HD
ENDBRANCH   7  27
TORSDOF 7
ENDMDL
MODEL 3
REMARK VINA RESULT:    -6.256      1.813      7.280
REMARK INTER + INTRA:          -8.083
REMARK INTER:                  -7.698
REMARK INTRA:                  -0.384
REMARK UNBOUND:                -0.364
REMARK SMILES Oc1cc(O)c2cc(O)c(-c3cc(O)c(O)c(O)c3)[o+]c2c1
REMARK SMILES IDX 10 1 20 2 21 3 22 4 2 5 3 6 4 7 6 8 7 9 8 10 11 11 12 12
REMARK SMILES IDX 13 13 19 14 15 15 17 16 14 17 16 19 18 21 9 23 1 25 5 27
REMARK H PARENT 14 18 16 20 18 22 9 24 1 26 5 28
REMARK Flexibility Score: inf
ROOT
ATOM      1  C   UNL     1     -60.345  20.073 -29.839  1.00  0.00     0.402 A 
ATOM      2  O   UNL     1     -61.238  20.788 -30.518  1.00  0.00    -0.202 OA
ATOM      3  C   UNL     1     -61.238  22.116 -30.549  1.00  0.00     0.368 A 
ATOM      4  C   UNL     1     -62.222  22.778 -31.289  1.00  0.00     0.162 A 
ATOM      5  C   UNL     1     -62.248  24.172 -31.338  1.00  0.00     0.128 A 
ATOM      6  C   UNL     1     -61.285  24.913 -30.643  1.00  0.00     0.093 A 
ATOM      7  C   UNL     1     -60.289  24.272 -29.894  1.00  0.00     0.136 A 
ATOM      8  C   UNL     1     -60.257  22.855 -29.844  1.00  0.00     0.125 A 
ATOM      9  C   UNL     1     -59.290  22.128 -29.132  1.00  0.00     0.078 A 
ATOM     10  C   UNL     1     -59.320  20.730 -29.133  1.00  0.00     0.223 A 
ENDROOT
BRANCH   1  11
ATOM     11  C   UNL     1     -60.456  18.597 -29.873  1.00  0.00     0.091 A 
ATOM     12  C   UNL     1     -59.926  17.890 -30.963  1.00  0.00     0.068 A 
ATOM     13  C   UNL     1     -60.034  16.498 -31.032  1.00  0.00     0.162 A 
ATOM     14  C   UNL     1     -61.132  17.890 -28.864  1.00  0.00     0.068 A 
ATOM     15  C   UNL     1     -60.692  15.793 -30.010  1.00  0.00     0.200 A 
ATOM     16  C   UNL     1     -61.246  16.494 -28.925  1.00  0.00     0.162 A 
BRANCH  13  17
ATOM     17  O   UNL     1     -59.480  15.831 -32.125  1.00  0.00    -0.504 OA
ATOM     18  H   UNL     1     -59.941  15.798 -33.026  1.00  0.00     0.293 HD
ENDBRANCH  13  17
BRANCH  15  19
ATOM     19  O   UNL     1     -60.793  14.403 -30.084  1.00  0.00    -0.502 OA
ATOM     20  H   UNL     1     -59.980  13.800 -30.048  1.00  0.00     0.293 HD
ENDBRANCH  15  19
BRANCH  16  21
ATOM     21  O   UNL     1     -61.913  15.803 -27.914  1.00  0.00    -0.504 OA
ATOM     22  H   UNL     1     -61.444  15.530 -27.059  1.00  0.00     0.293 HD
ENDBRANCH  16  21
ENDBRANCH   1  11
BRANCH  10  23
ATOM     23  O   UNL     1     -58.330  20.008 -28.466  1.00  0.00    -0.500 OA
ATOM     24  H   UNL     1     -57.984  19.126 -28.823  1.00  0.00     0.294 HD
ENDBRANCH  10  23
BRANCH   5  25
ATOM     25  O   UNL     1     -63.237  24.815 -32.080  1.00  0.00    -0.507 OA
ATOM     26  H   UNL     1     -63.227  24.811 -33.093  1.00  0.00     0.293 HD
ENDBRANCH   5  25
BRANCH   7  27
ATOM     27  O   UNL     1     -59.366  25.082 -29.226  1.00  0.00    -0.507 OA
ATOM     28  H   UNL     1     -59.358  25.233 -28.228  1.00  0.00     0.293 HD
ENDBRANCH   7  27
TORSDOF 7
ENDMDL
MODEL 4
REMARK VINA RESULT:    -6.008      1.539      6.930
REMARK INTER + INTRA:          -7.778
REMARK INTER:                  -8.128
REMARK INTRA:                   0.350
REMARK UNBOUND:                -0.364
REMARK SMILES Oc1cc(O)c2cc(O)c(-c3cc(O)c(O)c(O)c3)[o+]c2c1
REMARK SMILES IDX 10 1 20 2 21 3 22 4 2 5 3 6 4 7 6 8 7 9 8 10 11 11 12 12
REMARK SMILES IDX 13 13 19 14 15 15 17 16 14 17 16 19 18 21 9 23 1 25 5 27
REMARK H PARENT 14 18 16 20 18 22 9 24 1 26 5 28
REMARK Flexibility Score: inf
ROOT
ATOM      1  C   UNL     1     -60.223  22.474 -30.346  1.00  0.00     0.402 A 
ATOM      2  O   UNL     1     -61.111  23.451 -30.188  1.00  0.00    -0.202 OA
ATOM      3  C   UNL     1     -60.785  24.677 -29.789  1.00  0.00     0.368 A 
ATOM      4  C   UNL     1     -61.791  25.636 -29.648  1.00  0.00     0.162 A 
ATOM      5  C   UNL     1     -61.478  26.929 -29.229  1.00  0.00     0.128 A 
ATOM      6  C   UNL     1     -60.150  27.269 -28.947  1.00  0.00     0.093 A 
ATOM      7  C   UNL     1     -59.123  26.325 -29.080  1.00  0.00     0.136 A 
ATOM      8  C   UNL     1     -59.437  25.009 -29.509  1.00  0.00     0.125 A 
ATOM      9  C   UNL     1     -58.474  24.003 -29.684  1.00  0.00     0.078 A 
ATOM     10  C   UNL     1     -58.858  22.730 -30.115  1.00  0.00     0.223 A 
ENDROOT
BRANCH   1  11
ATOM     11  C   UNL     1     -60.712  21.147 -30.785  1.00  0.00     0.091 A 
ATOM     12  C   UNL     1     -62.077  20.843 -30.674  1.00  0.00     0.068 A 
ATOM     13  C   UNL     1     -62.564  19.592 -31.061  1.00  0.00     0.162 A 
ATOM     14  C   UNL     1     -59.830  20.162 -31.259  1.00  0.00     0.068 A 
ATOM     15  C   UNL     1     -61.682  18.617 -31.555  1.00  0.00     0.200 A 
ATOM     16  C   UNL     1     -60.309  18.903 -31.649  1.00  0.00     0.162 A 
BRANCH  13  17
ATOM     17  O   UNL     1     -63.931  19.335 -30.949  1.00  0.00    -0.504 OA
ATOM     18  H   UNL     1     -64.629  19.940 -31.363  1.00  0.00     0.293 HD
ENDBRANCH  13  17
BRANCH  15  19
ATOM     19  O   UNL     1     -62.176  17.370 -31.943  1.00  0.00    -0.502 OA
ATOM     20  H   UNL     1     -62.923  16.906 -31.441  1.00  0.00     0.293 HD
ENDBRANCH  15  19
BRANCH  16  21
ATOM     21  O   UNL     1     -59.425  17.936 -32.125  1.00  0.00    -0.504 OA
ATOM     22  H   UNL     1     -59.400  17.675 -33.104  1.00  0.00     0.293 HD
ENDBRANCH  16  21
ENDBRANCH   1  11
BRANCH  10  23
ATOM     23  O   UNL     1     -57.896  21.745 -30.336  1.00  0.00    -0.500 OA
ATOM     24  H   UNL     1     -57.010  21.747 -29.844  1.00  0.00     0.294 HD
ENDBRANCH  10  23
BRANCH   5  25
ATOM     25  O   UNL     1     -62.495  27.872 -29.093  1.00  0.00    -0.507 OA
ATOM     26  H   UNL     1     -62.530  28.505 -28.303  1.00  0.00     0.293 HD
ENDBRANCH   5  25
BRANCH   7  27
ATOM     27  O   UNL     1     -57.824  26.741 -28.777  1.00  0.00    -0.507 OA
ATOM     28  H   UNL     1     -57.013  26.533 -29.341  1.00  0.00     0.293 HD
ENDBRANCH   7  27
TORSDOF 7
ENDMDL
MODEL 5
REMARK VINA RESULT:    -6.003      2.051      3.454
REMARK INTER + INTRA:          -7.771
REMARK INTER:                  -7.883
REMARK INTRA:                   0.112
REMARK UNBOUND:                -0.364
REMARK SMILES Oc1cc(O)c2cc(O)c(-c3cc(O)c(O)c(O)c3)[o+]c2c1
REMARK SMILES IDX 10 1 20 2 21 3 22 4 2 5 3 6 4 7 6 8 7 9 8 10 11 11 12 12
REMARK SMILES IDX 13 13 19 14 15 15 17 16 14 17 16 19 18 21 9 23 1 25 5 27
REMARK H PARENT 14 18 16 20 18 22 9 24 1 26 5 28
REMARK Flexibility Score: inf
ROOT
ATOM      1  C   UNL     1     -60.520  24.445 -29.950  1.00  0.00     0.402 A 
ATOM      2  O   UNL     1     -59.936  23.581 -29.126  1.00  0.00    -0.202 OA
ATOM      3  C   UNL     1     -59.878  22.274 -29.361  1.00  0.00     0.368 A 
ATOM      4  C   UNL     1     -59.246  21.443 -28.432  1.00  0.00     0.162 A 
ATOM      5  C   UNL     1     -59.172  20.068 -28.651  1.00  0.00     0.128 A 
ATOM      6  C   UNL     1     -59.734  19.515 -29.808  1.00  0.00     0.093 A 
ATOM      7  C   UNL     1     -60.374  20.326 -30.753  1.00  0.00     0.136 A 
ATOM      8  C   UNL     1     -60.449  21.726 -30.536  1.00  0.00     0.125 A 
ATOM      9  C   UNL     1     -61.058  22.616 -31.434  1.00  0.00     0.078 A 
ATOM     10  C   UNL     1     -61.088  23.986 -31.153  1.00  0.00     0.223 A 
ENDROOT
BRANCH   1  11
ATOM     11  C   UNL     1     -60.530  25.878 -29.572  1.00  0.00     0.091 A 
ATOM     12  C   UNL     1     -59.466  26.400 -28.821  1.00  0.00     0.068 A 
ATOM     13  C   UNL     1     -59.457  27.742 -28.432  1.00  0.00     0.162 A 
ATOM     14  C   UNL     1     -61.609  26.714 -29.900  1.00  0.00     0.068 A 
ATOM     15  C   UNL     1     -60.528  28.581 -28.781  1.00  0.00     0.200 A 
ATOM     16  C   UNL     1     -61.609  28.062 -29.513  1.00  0.00     0.162 A 
BRANCH  13  17
ATOM     17  O   UNL     1     -58.373  28.226 -27.699  1.00  0.00    -0.504 OA
ATOM     18  H   UNL     1     -57.695  27.609 -27.268  1.00  0.00     0.293 HD
ENDBRANCH  13  17
BRANCH  15  19
ATOM     19  O   UNL     1     -60.511  29.921 -28.392  1.00  0.00    -0.502 OA
ATOM     20  H   UNL     1     -60.909  30.655 -28.965  1.00  0.00     0.293 HD
ENDBRANCH  15  19
BRANCH  16  21
ATOM     21  O   UNL     1     -62.684  28.885 -29.851  1.00  0.00    -0.504 OA
ATOM     22  H   UNL     1     -63.226  29.366 -29.143  1.00  0.00     0.293 HD
ENDBRANCH  16  21
ENDBRANCH   1  11
BRANCH  10  23
ATOM     23  O   UNL     1     -61.649  24.876 -32.069  1.00  0.00    -0.500 OA
ATOM     24  H   UNL     1     -62.163  24.552 -32.880  1.00  0.00     0.294 HD
ENDBRANCH  10  23
BRANCH   5  25
ATOM     25  O   UNL     1     -58.538  19.256 -27.713  1.00  0.00    -0.507 OA
ATOM     26  H   UNL     1     -57.656  18.800 -27.916  1.00  0.00     0.293 HD
ENDBRANCH   5  25
BRANCH   7  27
ATOM     27  O   UNL     1     -60.914  19.697 -31.880  1.00  0.00    -0.507 OA
ATOM     28  H   UNL     1     -61.777  19.174 -31.882  1.00  0.00     0.293 HD
ENDBRANCH   7  27
TORSDOF 7
ENDMDL
MODEL 6
REMARK VINA RESULT:    -5.997      2.075      3.025
REMARK INTER + INTRA:          -7.763
REMARK INTER:                  -7.962
REMARK INTRA:                   0.198
REMARK UNBOUND:                -0.364
REMARK SMILES Oc1cc(O)c2cc(O)c(-c3cc(O)c(O)c(O)c3)[o+]c2c1
REMARK SMILES IDX 10 1 20 2 21 3 22 4 2 5 3 6 4 7 6 8 7 9 8 10 11 11 12 12
REMARK SMILES IDX 13 13 19 14 15 15 17 16 14 17 16 19 18 21 9 23 1 25 5 27
REMARK H PARENT 14 18 16 20 18 22 9 24 1 26 5 28
REMARK Flexibility Score: inf
ROOT
ATOM      1  C   UNL     1     -60.535  24.525 -29.940  1.00  0.00     0.402 A 
ATOM      2  O   UNL     1     -59.982  23.621 -29.137  1.00  0.00    -0.202 OA
ATOM      3  C   UNL     1     -59.941  22.322 -29.419  1.00  0.00     0.368 A 
ATOM      4  C   UNL     1     -59.341  21.448 -28.510  1.00  0.00     0.162 A 
ATOM      5  C   UNL     1     -59.286  20.080 -28.778  1.00  0.00     0.128 A 
ATOM      6  C   UNL     1     -59.836  19.579 -29.964  1.00  0.00     0.093 A 
ATOM      7  C   UNL     1     -60.444  20.436 -30.891  1.00  0.00     0.136 A 
ATOM      8  C   UNL     1     -60.499  21.828 -30.623  1.00  0.00     0.125 A 
ATOM      9  C   UNL     1     -61.076  22.761 -31.499  1.00  0.00     0.078 A 
ATOM     10  C   UNL     1     -61.088  24.120 -31.169  1.00  0.00     0.223 A 
ENDROOT
BRANCH   1  11
ATOM     11  C   UNL     1     -60.527  25.943 -29.510  1.00  0.00     0.091 A 
ATOM     12  C   UNL     1     -61.579  26.787 -29.898  1.00  0.00     0.068 A 
ATOM     13  C   UNL     1     -61.588  28.134 -29.524  1.00  0.00     0.162 A 
ATOM     14  C   UNL     1     -59.461  26.477 -28.769  1.00  0.00     0.068 A 
ATOM     15  C   UNL     1     -60.530  28.658 -28.764  1.00  0.00     0.200 A 
ATOM     16  C   UNL     1     -59.461  27.827 -28.390  1.00  0.00     0.162 A 
BRANCH  13  17
ATOM     17  O   UNL     1     -62.659  28.936 -29.916  1.00  0.00    -0.504 OA
ATOM     18  H   UNL     1     -62.575  29.941 -30.008  1.00  0.00     0.293 HD
ENDBRANCH  13  17
BRANCH  15  19
ATOM     19  O   UNL     1     -60.547  30.004 -28.392  1.00  0.00    -0.502 OA
ATOM     20  H   UNL     1     -60.646  30.750 -29.069  1.00  0.00     0.293 HD
ENDBRANCH  15  19
BRANCH  16  21
ATOM     21  O   UNL     1     -58.399  28.344 -27.648  1.00  0.00    -0.504 OA
ATOM     22  H   UNL     1     -58.047  29.281 -27.807  1.00  0.00     0.293 HD
ENDBRANCH  16  21
ENDBRANCH   1  11
BRANCH  10  23
ATOM     23  O   UNL     1     -61.616  25.052 -32.062  1.00  0.00    -0.500 OA
ATOM     24  H   UNL     1     -62.615  25.152 -32.198  1.00  0.00     0.294 HD
ENDBRANCH  10  23
BRANCH   5  25
ATOM     25  O   UNL     1     -58.684  19.223 -27.859  1.00  0.00    -0.507 OA
ATOM     26  H   UNL     1     -58.935  19.235 -26.878  1.00  0.00     0.293 HD
ENDBRANCH   5  25
BRANCH   7  27
ATOM     27  O   UNL     1     -60.973  19.858 -32.049  1.00  0.00    -0.507 OA
ATOM     28  H   UNL     1     -60.585  19.978 -32.974  1.00  0.00     0.293 HD
ENDBRANCH   7  27
TORSDOF 7
ENDMDL
MODEL 7
REMARK VINA RESULT:    -5.840      1.736      1.905
REMARK INTER + INTRA:          -7.570
REMARK INTER:                  -7.954
REMARK INTRA:                   0.384
REMARK UNBOUND:                -0.364
REMARK SMILES Oc1cc(O)c2cc(O)c(-c3cc(O)c(O)c(O)c3)[o+]c2c1
REMARK SMILES IDX 10 1 20 2 21 3 22 4 2 5 3 6 4 7 6 8 7 9 8 10 11 11 12 12
REMARK SMILES IDX 13 13 19 14 15 15 17 16 14 17 16 19 18 21 9 23 1 25 5 27
REMARK H PARENT 14 18 16 20 18 22 9 24 1 26 5 28
REMARK Flexibility Score: inf
ROOT
ATOM      1  C   UNL     1     -60.039  23.252 -30.032  1.00  0.00     0.402 A 
ATOM      2  O   UNL     1     -61.189  22.620 -30.251  1.00  0.00    -0.202 OA
ATOM      3  C   UNL     1     -61.262  21.393 -30.757  1.00  0.00     0.368 A 
ATOM      4  C   UNL     1     -62.518  20.813 -30.955  1.00  0.00     0.162 A 
ATOM      5  C   UNL     1     -62.626  19.528 -31.487  1.00  0.00     0.128 A 
ATOM      6  C   UNL     1     -61.470  18.815 -31.826  1.00  0.00     0.093 A 
ATOM      7  C   UNL     1     -60.200  19.375 -31.638  1.00  0.00     0.136 A 
ATOM      8  C   UNL     1     -60.086  20.680 -31.094  1.00  0.00     0.125 A 
ATOM      9  C   UNL     1     -58.856  21.315 -30.859  1.00  0.00     0.078 A 
ATOM     10  C   UNL     1     -58.823  22.603 -30.315  1.00  0.00     0.223 A 
ENDROOT
BRANCH   1  11
ATOM     11  C   UNL     1     -60.089  24.623 -29.474  1.00  0.00     0.091 A 
ATOM     12  C   UNL     1     -61.333  25.219 -29.218  1.00  0.00     0.068 A 
ATOM     13  C   UNL     1     -61.411  26.519 -28.710  1.00  0.00     0.162 A 
ATOM     14  C   UNL     1     -58.917  25.363 -29.246  1.00  0.00     0.068 A 
ATOM     15  C   UNL     1     -60.236  27.248 -28.463  1.00  0.00     0.200 A 
ATOM     16  C   UNL     1     -58.986  26.668 -28.737  1.00  0.00     0.162 A 
BRANCH  13  17
ATOM     17  O   UNL     1     -62.667  27.071 -28.456  1.00  0.00    -0.504 OA
ATOM     18  H   UNL     1     -63.482  26.831 -29.006  1.00  0.00     0.293 HD
ENDBRANCH  13  17
BRANCH  15  19
ATOM     19  O   UNL     1     -60.322  28.545 -27.953  1.00  0.00    -0.502 OA
ATOM     20  H   UNL     1     -59.643  28.913 -27.298  1.00  0.00     0.293 HD
ENDBRANCH  15  19
BRANCH  16  21
ATOM     21  O   UNL     1     -57.815  27.391 -28.509  1.00  0.00    -0.504 OA
ATOM     22  H   UNL     1     -57.695  28.333 -28.861  1.00  0.00     0.293 HD
ENDBRANCH  16  21
ENDBRANCH   1  11
BRANCH  10  23
ATOM     23  O   UNL     1     -57.601  23.213 -30.035  1.00  0.00    -0.500 OA
ATOM     24  H   UNL     1     -56.740  22.682 -29.986  1.00  0.00     0.294 HD
ENDBRANCH  10  23
BRANCH   5  25
ATOM     25  O   UNL     1     -63.886  18.966 -31.677  1.00  0.00    -0.507 OA
ATOM     26  H   UNL     1     -64.701  19.540 -31.861  1.00  0.00     0.293 HD
ENDBRANCH   5  25
BRANCH   7  27
ATOM     27  O   UNL     1     -59.095  18.600 -32.004  1.00  0.00    -0.507 OA
ATOM     28  H   UNL     1     -59.142  17.624 -32.258  1.00  0.00     0.293 HD
ENDBRANCH   7  27
TORSDOF 7
ENDMDL
MODEL 8
REMARK VINA RESULT:    -5.798      1.535      7.047
REMARK INTER + INTRA:          -7.518
REMARK INTER:                  -7.897
REMARK INTRA:                   0.379
REMARK UNBOUND:                -0.364
REMARK SMILES Oc1cc(O)c2cc(O)c(-c3cc(O)c(O)c(O)c3)[o+]c2c1
REMARK SMILES IDX 10 1 20 2 21 3 22 4 2 5 3 6 4 7 6 8 7 9 8 10 11 11 12 12
REMARK SMILES IDX 13 13 19 14 15 15 17 16 14 17 16 19 18 21 9 23 1 25 5 27
REMARK H PARENT 14 18 16 20 18 22 9 24 1 26 5 28
REMARK Flexibility Score: inf
ROOT
ATOM      1  C   UNL     1     -60.265  22.500 -30.285  1.00  0.00     0.402 A 
ATOM      2  O   UNL     1     -61.141  23.497 -30.206  1.00  0.00    -0.202 OA
ATOM      3  C   UNL     1     -60.810  24.731 -29.838  1.00  0.00     0.368 A 
ATOM      4  C   UNL     1     -61.802  25.713 -29.780  1.00  0.00     0.162 A 
ATOM      5  C   UNL     1     -61.485  27.015 -29.395  1.00  0.00     0.128 A 
ATOM      6  C   UNL     1     -60.164  27.342 -29.064  1.00  0.00     0.093 A 
ATOM      7  C   UNL     1     -59.152  26.375 -29.113  1.00  0.00     0.136 A 
ATOM      8  C   UNL     1     -59.470  25.050 -29.507  1.00  0.00     0.125 A 
ATOM      9  C   UNL     1     -58.520  24.021 -29.598  1.00  0.00     0.078 A 
ATOM     10  C   UNL     1     -58.909  22.739 -29.999  1.00  0.00     0.223 A 
ENDROOT
BRANCH   1  11
ATOM     11  C   UNL     1     -60.759  21.165 -30.697  1.00  0.00     0.091 A 
ATOM     12  C   UNL     1     -59.855  20.224 -31.212  1.00  0.00     0.068 A 
ATOM     13  C   UNL     1     -60.294  18.964 -31.628  1.00  0.00     0.162 A 
ATOM     14  C   UNL     1     -62.124  20.839 -30.638  1.00  0.00     0.068 A 
ATOM     15  C   UNL     1     -61.657  18.634 -31.546  1.00  0.00     0.200 A 
ATOM     16  C   UNL     1     -62.574  19.578 -31.054  1.00  0.00     0.162 A 
BRANCH  13  17
ATOM     17  O   UNL     1     -59.361  18.051 -32.119  1.00  0.00    -0.504 OA
ATOM     18  H   UNL     1     -58.659  17.625 -31.526  1.00  0.00     0.293 HD
ENDBRANCH  13  17
BRANCH  15  19
ATOM     19  O   UNL     1     -62.089  17.373 -31.961  1.00  0.00    -0.502 OA
ATOM     20  H   UNL     1     -62.925  16.939 -31.589  1.00  0.00     0.293 HD
ENDBRANCH  15  19
BRANCH  16  21
ATOM     21  O   UNL     1     -63.931  19.264 -30.984  1.00  0.00    -0.504 OA
ATOM     22  H   UNL     1     -64.268  18.324 -31.157  1.00  0.00     0.293 HD
ENDBRANCH  16  21
ENDBRANCH   1  11
BRANCH  10  23
ATOM     23  O   UNL     1     -57.956  21.731 -30.138  1.00  0.00    -0.500 OA
ATOM     24  H   UNL     1     -57.748  21.087 -29.383  1.00  0.00     0.294 HD
ENDBRANCH  10  23
BRANCH   5  25
ATOM     25  O   UNL     1     -62.488  27.981 -29.343  1.00  0.00    -0.507 OA
ATOM     26  H   UNL     1     -62.448  28.753 -28.689  1.00  0.00     0.293 HD
ENDBRANCH   5  25
BRANCH   7  27
ATOM     27  O   UNL     1     -57.860  26.780 -28.764  1.00  0.00    -0.507 OA
ATOM     28  H   UNL     1     -57.650  27.469 -28.057  1.00  0.00     0.293 HD
ENDBRANCH   7  27
TORSDOF 7
ENDMDL
MODEL 9
REMARK VINA RESULT:    -5.781      1.736      7.585
REMARK INTER + INTRA:          -7.497
REMARK INTER:                  -7.158
REMARK INTRA:                  -0.339
REMARK UNBOUND:                -0.364
REMARK SMILES Oc1cc(O)c2cc(O)c(-c3cc(O)c(O)c(O)c3)[o+]c2c1
REMARK SMILES IDX 10 1 20 2 21 3 22 4 2 5 3 6 4 7 6 8 7 9 8 10 11 11 12 12
REMARK SMILES IDX 13 13 19 14 15 15 17 16 14 17 16 19 18 21 9 23 1 25 5 27
REMARK H PARENT 14 18 16 20 18 22 9 24 1 26 5 28
REMARK Flexibility Score: inf
ROOT
ATOM      1  C   UNL     1     -61.333  19.977 -30.505  1.00  0.00     0.402 A 
ATOM      2  O   UNL     1     -60.342  20.789 -30.147  1.00  0.00    -0.202 OA
ATOM      3  C   UNL     1     -60.421  22.114 -30.223  1.00  0.00     0.368 A 
ATOM      4  C   UNL     1     -59.324  22.883 -29.827  1.00  0.00     0.162 A 
ATOM      5  C   UNL     1     -59.377  24.275 -29.898  1.00  0.00     0.128 A 
ATOM      6  C   UNL     1     -60.535  24.906 -30.368  1.00  0.00     0.093 A 
ATOM      7  C   UNL     1     -61.647  24.156 -30.771  1.00  0.00     0.136 A 
ATOM      8  C   UNL     1     -61.599  22.740 -30.698  1.00  0.00     0.125 A 
ATOM      9  C   UNL     1     -62.668  21.910 -31.067  1.00  0.00     0.078 A 
ATOM     10  C   UNL     1     -62.547  20.521 -30.962  1.00  0.00     0.223 A 
ENDROOT
BRANCH   1  11
ATOM     11  C   UNL     1     -61.120  18.516 -30.384  1.00  0.00     0.091 A 
ATOM     12  C   UNL     1     -61.646  17.831 -29.278  1.00  0.00     0.068 A 
ATOM     13  C   UNL     1     -61.444  16.456 -29.127  1.00  0.00     0.162 A 
ATOM     14  C   UNL     1     -60.354  17.808 -31.324  1.00  0.00     0.068 A 
ATOM     15  C   UNL     1     -60.695  15.748 -30.082  1.00  0.00     0.200 A 
ATOM     16  C   UNL     1     -60.145  16.429 -31.181  1.00  0.00     0.162 A 
BRANCH  13  17
ATOM     17  O   UNL     1     -61.997  15.810 -28.022  1.00  0.00    -0.504 OA
ATOM     18  H   UNL     1     -61.445  15.222 -27.409  1.00  0.00     0.293 HD
ENDBRANCH  13  17
BRANCH  15  19
ATOM     19  O   UNL     1     -60.500  14.375 -29.926  1.00  0.00    -0.502 OA
ATOM     20  H   UNL     1     -60.682  13.900 -29.050  1.00  0.00     0.293 HD
ENDBRANCH  15  19
BRANCH  16  21
ATOM     21  O   UNL     1     -59.388  15.736 -32.124  1.00  0.00    -0.504 OA
ATOM     22  H   UNL     1     -59.708  14.860 -32.522  1.00  0.00     0.293 HD
ENDBRANCH  16  21
ENDBRANCH   1  11
BRANCH  10  23
ATOM     23  O   UNL     1     -63.628  19.698 -31.281  1.00  0.00    -0.500 OA
ATOM     24  H   UNL     1     -64.429  20.047 -31.793  1.00  0.00     0.294 HD
ENDBRANCH  10  23
BRANCH   5  25
ATOM     25  O   UNL     1     -58.273  25.027 -29.500  1.00  0.00    -0.507 OA
ATOM     26  H   UNL     1     -57.349  24.851 -29.874  1.00  0.00     0.293 HD
ENDBRANCH   5  25
BRANCH   7  27
ATOM     27  O   UNL     1     -62.764  24.860 -31.232  1.00  0.00    -0.507 OA
ATOM     28  H   UNL     1     -63.457  24.481 -31.860  1.00  0.00     0.293 HD
ENDBRANCH   7  27
TORSDOF 7
ENDMDL
