MODEL 1
REMARK VINA RESULT:     5.876      0.000      0.000
REMARK INTER + INTRA:          10.778
REMARK INTER:                  11.373
REMARK INTRA:                  -0.594
REMARK UNBOUND:                -0.594
REMARK SMILES CCCCCCCCCCCCCCCCCC(=O)[O-]
REMARK SMILES IDX 10 1 11 2 12 3 13 4 14 5 15 6 16 7 17 8 18 9 19 10 20 11
REMARK SMILES IDX 9 12 8 13 7 14 6 15 5 16 4 17 3 18 2 19 1 20
REMARK H PARENT
REMARK Flexibility Score: inf
ROOT
ATOM      1  C   UNL     1      -0.507 -19.331 -25.397  1.00  0.00     0.000 C 
ENDROOT
BRANCH   1   2
ATOM      2  C   UNL     1      -1.077 -20.502 -26.221  1.00  0.00     0.000 C 
BRANCH   2   3
ATOM      3  C   UNL     1      -0.563 -21.897 -25.812  1.00  0.00     0.000 C 
BRANCH   3   4
ATOM      4  C   UNL     1       0.704 -21.891 -24.933  1.00  0.00     0.000 C 
BRANCH   4   5
ATOM      5  C   UNL     1       1.550 -23.178 -24.999  1.00  0.00     0.000 C 
BRANCH   5   6
ATOM      6  C   UNL     1       0.751 -24.476 -25.223  1.00  0.00     0.000 C 
BRANCH   6   7
ATOM      7  C   UNL     1       1.600 -25.756 -25.361  1.00  0.00     0.006 C 
BRANCH   7   8
ATOM      8  C   UNL     1       1.975 -26.403 -24.016  1.00  0.00     0.053 C 
BRANCH   8   9
ATOM      9  C   UNL     1       3.090 -27.396 -24.150  1.00  0.00     0.041 C 
ATOM     10  O   UNL     1       3.055 -28.271 -25.055  1.00  0.00    -0.550 OA
ATOM     11  O   UNL     1       4.150 -27.379 -23.252  1.00  0.00    -0.550 OA
ENDBRANCH   8   9
ENDBRANCH   7   8
ENDBRANCH   6   7
ENDBRANCH   5   6
ENDBRANCH   4   5
ENDBRANCH   3   4
ENDBRANCH   2   3
ENDBRANCH   1   2
BRANCH   1  12
ATOM     12  C   UNL     1      -1.322 -18.026 -25.473  1.00  0.00     0.000 C 
BRANCH  12  13
ATOM     13  C   UNL     1      -1.014 -17.133 -26.693  1.00  0.00    -0.000 C 
BRANCH  13  14
ATOM     14  C   UNL     1      -1.754 -15.784 -26.715  1.00  0.00    -0.000 C 
BRANCH  14  15
ATOM     15  C   UNL     1      -1.446 -14.954 -27.970  1.00  0.00    -0.000 C 
BRANCH  15  16
ATOM     16  C   UNL     1      -0.528 -13.772 -27.635  1.00  0.00    -0.000 C 
BRANCH  16  17
ATOM     17  C   UNL     1      -1.271 -12.716 -26.800  1.00  0.00    -0.000 C 
BRANCH  17  18
ATOM     18  C   UNL     1      -0.760 -11.287 -27.080  1.00  0.00    -0.000 C 
BRANCH  18  19
ATOM     19  C   UNL     1       0.367 -11.229 -28.125  1.00  0.00    -0.003 C 
ATOM     20  C   UNL     1       1.732 -10.919 -27.516  1.00  0.00     0.004 C 
ENDBRANCH  18  19
ENDBRANCH  17  18
ENDBRANCH  16  17
ENDBRANCH  15  16
ENDBRANCH  14  15
ENDBRANCH  13  14
ENDBRANCH  12  13
ENDBRANCH   1  12
TORSDOF 16
ENDMDL
MODEL 2
REMARK VINA RESULT:     6.038      5.390     11.647
REMARK INTER + INTRA:          11.091
REMARK INTER:                  11.848
REMARK INTRA:                  -0.757
REMARK UNBOUND:                -0.594
REMARK SMILES CCCCCCCCCCCCCCCCCC(=O)[O-]
REMARK SMILES IDX 10 1 11 2 12 3 13 4 14 5 15 6 16 7 17 8 18 9 19 10 20 11
REMARK SMILES IDX 9 12 8 13 7 14 6 15 5 16 4 17 3 18 2 19 1 20
REMARK H PARENT
REMARK Flexibility Score: inf
ROOT
ATOM      1  C   UNL     1      -1.319 -19.240 -25.535  1.00  0.00     0.000 C 
ENDROOT
BRANCH   1   2
ATOM      2  C   UNL     1      -0.497 -17.986 -25.891  1.00  0.00     0.000 C 
BRANCH   2   3
ATOM      3  C   UNL     1      -1.149 -16.647 -25.494  1.00  0.00     0.000 C 
BRANCH   3   4
ATOM      4  C   UNL     1      -2.085 -16.039 -26.557  1.00  0.00     0.000 C 
BRANCH   4   5
ATOM      5  C   UNL     1      -1.414 -15.704 -27.904  1.00  0.00     0.000 C 
BRANCH   5   6
ATOM      6  C   UNL     1       0.057 -15.255 -27.807  1.00  0.00     0.000 C 
BRANCH   6   7
ATOM      7  C   UNL     1       0.292 -13.738 -27.947  1.00  0.00     0.006 C 
BRANCH   7   8
ATOM      8  C   UNL     1      -0.999 -12.919 -28.123  1.00  0.00     0.053 C 
BRANCH   8   9
ATOM      9  C   UNL     1      -1.353 -12.136 -26.895  1.00  0.00     0.041 C 
ATOM     10  O   UNL     1      -1.296 -10.878 -26.905  1.00  0.00    -0.550 OA
ATOM     11  O   UNL     1      -1.712 -12.797 -25.727  1.00  0.00    -0.550 OA
ENDBRANCH   8   9
ENDBRANCH   7   8
ENDBRANCH   6   7
ENDBRANCH   5   6
ENDBRANCH   4   5
ENDBRANCH   3   4
ENDBRANCH   2   3
ENDBRANCH   1   2
BRANCH   1  12
ATOM     12  C   UNL     1      -0.994 -20.490 -26.377  1.00  0.00     0.000 C 
BRANCH  12  13
ATOM     13  C   UNL     1      -0.950 -21.816 -25.590  1.00  0.00    -0.000 C 
BRANCH  13  14
ATOM     14  C   UNL     1       0.342 -22.055 -24.790  1.00  0.00    -0.000 C 
BRANCH  14  15
ATOM     15  C   UNL     1       1.314 -23.011 -25.496  1.00  0.00    -0.000 C 
BRANCH  15  16
ATOM     16  C   UNL     1       1.118 -24.452 -25.010  1.00  0.00    -0.000 C 
BRANCH  16  17
ATOM     17  C   UNL     1       1.442 -25.459 -26.124  1.00  0.00    -0.000 C 
BRANCH  17  18
ATOM     18  C   UNL     1       1.617 -26.893 -25.581  1.00  0.00    -0.000 C 
BRANCH  18  19
ATOM     19  C   UNL     1       2.392 -26.959 -24.254  1.00  0.00    -0.003 C 
ATOM     20  C   UNL     1       3.617 -27.868 -24.321  1.00  0.00     0.004 C 
ENDBRANCH  18  19
ENDBRANCH  17  18
ENDBRANCH  16  17
ENDBRANCH  15  16
ENDBRANCH  14  15
ENDBRANCH  13  14
ENDBRANCH  12  13
ENDBRANCH   1  12
TORSDOF 16
ENDMDL
MODEL 3
REMARK VINA RESULT:     8.051      5.485     12.133
REMARK INTER + INTRA:          14.987
REMARK INTER:                  15.450
REMARK INTRA:                  -0.463
REMARK UNBOUND:                -0.594
REMARK SMILES CCCCCCCCCCCCCCCCCC(=O)[O-]
REMARK SMILES IDX 10 1 11 2 12 3 13 4 14 5 15 6 16 7 17 8 18 9 19 10 20 11
REMARK SMILES IDX 9 12 8 13 7 14 6 15 5 16 4 17 3 18 2 19 1 20
REMARK H PARENT
REMARK Flexibility Score: inf
ROOT
ATOM      1  C   UNL     1      -0.296 -20.560 -26.014  1.00  0.00     0.000 C 
ENDROOT
BRANCH   1   2
ATOM      2  C   UNL     1      -0.477 -19.253 -25.218  1.00  0.00     0.000 C 
BRANCH   2   3
ATOM      3  C   UNL     1      -1.916 -18.701 -25.192  1.00  0.00     0.000 C 
BRANCH   3   4
ATOM      4  C   UNL     1      -2.022 -17.163 -25.206  1.00  0.00     0.000 C 
BRANCH   4   5
ATOM      5  C   UNL     1      -1.531 -16.487 -26.502  1.00  0.00     0.000 C 
BRANCH   5   6
ATOM      6  C   UNL     1      -1.649 -14.951 -26.524  1.00  0.00     0.000 C 
BRANCH   6   7
ATOM      7  C   UNL     1      -1.486 -14.298 -27.911  1.00  0.00     0.006 C 
BRANCH   7   8
ATOM      8  C   UNL     1      -0.124 -13.615 -28.124  1.00  0.00     0.053 C 
BRANCH   8   9
ATOM      9  C   UNL     1      -0.145 -12.164 -27.750  1.00  0.00     0.041 C 
ATOM     10  O   UNL     1       0.872 -11.445 -27.935  1.00  0.00    -0.550 OA
ATOM     11  O   UNL     1      -1.278 -11.612 -27.164  1.00  0.00    -0.550 OA
ENDBRANCH   8   9
ENDBRANCH   7   8
ENDBRANCH   6   7
ENDBRANCH   5   6
ENDBRANCH   4   5
ENDBRANCH   3   4
ENDBRANCH   2   3
ENDBRANCH   1   2
BRANCH   1  12
ATOM     12  C   UNL     1       0.336 -21.721 -25.221  1.00  0.00     0.000 C 
BRANCH  12  13
ATOM     13  C   UNL     1       0.047 -23.129 -25.781  1.00  0.00    -0.000 C 
BRANCH  13  14
ATOM     14  C   UNL     1       0.694 -24.286 -24.999  1.00  0.00    -0.000 C 
BRANCH  14  15
ATOM     15  C   UNL     1       0.658 -25.618 -25.764  1.00  0.00    -0.000 C 
BRANCH  15  16
ATOM     16  C   UNL     1       2.010 -26.338 -25.676  1.00  0.00    -0.000 C 
BRANCH  16  17
ATOM     17  C   UNL     1       2.385 -26.629 -24.215  1.00  0.00    -0.000 C 
BRANCH  17  18
ATOM     18  C   UNL     1       3.242 -27.905 -24.077  1.00  0.00    -0.000 C 
BRANCH  18  19
ATOM     19  C   UNL     1       4.708 -27.626 -23.707  1.00  0.00    -0.003 C 
ATOM     20  C   UNL     1       5.691 -28.049 -24.796  1.00  0.00     0.004 C 
ENDBRANCH  18  19
ENDBRANCH  17  18
ENDBRANCH  16  17
ENDBRANCH  15  16
ENDBRANCH  14  15
ENDBRANCH  13  14
ENDBRANCH  12  13
ENDBRANCH   1  12
TORSDOF 16
ENDMDL
