MODEL 1
REMARK VINA RESULT:    -4.779      0.000      0.000
REMARK INTER + INTRA:         -14.728
REMARK INTER:                 -12.042
REMARK INTRA:                  -2.687
REMARK UNBOUND:                -2.687
REMARK SMILES CCCCCCCCCCCCCCCCCCCCCCCCCCCC(=O)[O-]
REMARK SMILES IDX 15 1 16 2 17 3 18 4 19 5 20 6 21 7 22 8 23 9 24 10 25 11
REMARK SMILES IDX 26 12 27 13 28 14 29 15 30 16 14 17 13 18 12 19 11 20 10 21
REMARK SMILES IDX 9 22 8 23 7 24 6 25 5 26 4 27 3 28 2 29 1 30
REMARK H PARENT
REMARK Flexibility Score: inf
ROOT
ATOM      1  C   UNL     1      30.072  23.290 -19.730  1.00  0.00     0.000 C 
ENDROOT
BRANCH   1   2
ATOM      2  C   UNL     1      28.608  23.544 -20.130  1.00  0.00     0.000 C 
BRANCH   2   3
ATOM      3  C   UNL     1      27.618  23.434 -18.949  1.00  0.00     0.000 C 
BRANCH   3   4
ATOM      4  C   UNL     1      26.539  24.534 -18.935  1.00  0.00     0.000 C 
BRANCH   4   5
ATOM      5  C   UNL     1      26.702  25.591 -17.823  1.00  0.00     0.000 C 
BRANCH   5   6
ATOM      6  C   UNL     1      26.757  25.036 -16.387  1.00  0.00     0.000 C 
BRANCH   6   7
ATOM      7  C   UNL     1      28.180  25.027 -15.800  1.00  0.00     0.000 C 
BRANCH   7   8
ATOM      8  C   UNL     1      28.575  26.371 -15.171  1.00  0.00     0.000 C 
BRANCH   8   9
ATOM      9  C   UNL     1      29.917  26.906 -15.699  1.00  0.00     0.000 C 
BRANCH   9  10
ATOM     10  C   UNL     1      29.730  27.971 -16.791  1.00  0.00     0.000 C 
BRANCH  10  11
ATOM     11  C   UNL     1      28.292  28.515 -16.845  1.00  0.00     0.000 C 
BRANCH  11  12
ATOM     12  C   UNL     1      28.148  29.706 -17.809  1.00  0.00     0.006 C 
BRANCH  12  13
ATOM     13  C   UNL     1      26.694  30.045 -18.177  1.00  0.00     0.053 C 
BRANCH  13  14
ATOM     14  C   UNL     1      26.614  31.045 -19.291  1.00  0.00     0.041 C 
ATOM     15  O   UNL     1      25.799  32.004 -19.222  1.00  0.00    -0.550 OA
ATOM     16  O   UNL     1      27.406  30.892 -20.424  1.00  0.00    -0.550 OA
ENDBRANCH  13  14
ENDBRANCH  12  13
ENDBRANCH  11  12
ENDBRANCH  10  11
ENDBRANCH   9  10
ENDBRANCH   8   9
ENDBRANCH   7   8
ENDBRANCH   6   7
ENDBRANCH   5   6
ENDBRANCH   4   5
ENDBRANCH   3   4
ENDBRANCH   2   3
ENDBRANCH   1   2
BRANCH   1  17
ATOM     17  C   UNL     1      30.483  24.058 -18.465  1.00  0.00     0.000 C 
BRANCH  17  18
ATOM     18  C   UNL     1      32.006  24.320 -18.388  1.00  0.00     0.000 C 
BRANCH  18  19
ATOM     19  C   UNL     1      32.362  25.810 -18.239  1.00  0.00     0.000 C 
BRANCH  19  20
ATOM     20  C   UNL     1      33.702  26.075 -17.524  1.00  0.00     0.000 C 
BRANCH  20  21
ATOM     21  C   UNL     1      34.937  25.712 -18.378  1.00  0.00     0.000 C 
BRANCH  21  22
ATOM     22  C   UNL     1      34.807  26.190 -19.830  1.00  0.00    -0.000 C 
BRANCH  22  23
ATOM     23  C   UNL     1      35.985  27.091 -20.224  1.00  0.00    -0.000 C 
BRANCH  23  24
ATOM     24  C   UNL     1      37.228  26.884 -19.339  1.00  0.00    -0.000 C 
BRANCH  24  25
ATOM     25  C   UNL     1      38.403  27.841 -19.620  1.00  0.00    -0.000 C 
BRANCH  25  26
ATOM     26  C   UNL     1      38.477  29.015 -18.632  1.00  0.00    -0.000 C 
BRANCH  26  27
ATOM     27  C   UNL     1      39.365  28.664 -17.431  1.00  0.00    -0.000 C 
BRANCH  27  28
ATOM     28  C   UNL     1      38.559  28.213 -16.199  1.00  0.00    -0.000 C 
BRANCH  28  29
ATOM     29  C   UNL     1      38.562  26.695 -15.942  1.00  0.00    -0.003 C 
ATOM     30  C   UNL     1      37.665  26.280 -14.778  1.00  0.00     0.004 C 
ENDBRANCH  28  29
ENDBRANCH  27  28
ENDBRANCH  26  27
ENDBRANCH  25  26
ENDBRANCH  24  25
ENDBRANCH  23  24
ENDBRANCH  22  23
ENDBRANCH  21  22
ENDBRANCH  20  21
ENDBRANCH  19  20
ENDBRANCH  18  19
ENDBRANCH  17  18
ENDBRANCH   1  17
TORSDOF 26
ENDMDL
MODEL 2
REMARK VINA RESULT:    -4.748      3.704      6.060
REMARK INTER + INTRA:         -14.651
REMARK INTER:                  -9.925
REMARK INTRA:                  -4.726
REMARK UNBOUND:                -2.687
REMARK SMILES CCCCCCCCCCCCCCCCCCCCCCCCCCCC(=O)[O-]
REMARK SMILES IDX 15 1 16 2 17 3 18 4 19 5 20 6 21 7 22 8 23 9 24 10 25 11
REMARK SMILES IDX 26 12 27 13 28 14 29 15 30 16 14 17 13 18 12 19 11 20 10 21
REMARK SMILES IDX 9 22 8 23 7 24 6 25 5 26 4 27 3 28 2 29 1 30
REMARK H PARENT
REMARK Flexibility Score: inf
ROOT
ATOM      1  C   UNL     1      26.101  25.097 -19.094  1.00  0.00     0.000 C 
ENDROOT
BRANCH   1   2
ATOM      2  C   UNL     1      26.864  24.117 -20.002  1.00  0.00     0.000 C 
BRANCH   2   3
ATOM      3  C   UNL     1      28.369  24.013 -19.669  1.00  0.00     0.000 C 
BRANCH   3   4
ATOM      4  C   UNL     1      28.749  22.736 -18.893  1.00  0.00     0.000 C 
BRANCH   4   5
ATOM      5  C   UNL     1      29.682  22.963 -17.685  1.00  0.00     0.000 C 
BRANCH   5   6
ATOM      6  C   UNL     1      31.027  23.640 -18.008  1.00  0.00     0.000 C 
BRANCH   6   7
ATOM      7  C   UNL     1      31.313  24.864 -17.120  1.00  0.00     0.000 C 
BRANCH   7   8
ATOM      8  C   UNL     1      30.448  26.081 -17.483  1.00  0.00     0.000 C 
BRANCH   8   9
ATOM      9  C   UNL     1      30.525  27.202 -16.433  1.00  0.00     0.000 C 
BRANCH   9  10
ATOM     10  C   UNL     1      29.186  27.938 -16.268  1.00  0.00     0.000 C 
BRANCH  10  11
ATOM     11  C   UNL     1      28.973  29.024 -17.335  1.00  0.00     0.000 C 
BRANCH  11  12
ATOM     12  C   UNL     1      27.548  29.605 -17.310  1.00  0.00     0.006 C 
BRANCH  12  13
ATOM     13  C   UNL     1      26.790  29.469 -18.641  1.00  0.00     0.053 C 
BRANCH  13  14
ATOM     14  C   UNL     1      26.758  30.758 -19.405  1.00  0.00     0.041 C 
ATOM     15  O   UNL     1      25.992  31.689 -19.043  1.00  0.00    -0.550 OA
ATOM     16  O   UNL     1      27.541  30.912 -20.544  1.00  0.00    -0.550 OA
ENDBRANCH  13  14
ENDBRANCH  12  13
ENDBRANCH  11  12
ENDBRANCH  10  11
ENDBRANCH   9  10
ENDBRANCH   8   9
ENDBRANCH   7   8
ENDBRANCH   6   7
ENDBRANCH   5   6
ENDBRANCH   4   5
ENDBRANCH   3   4
ENDBRANCH   2   3
ENDBRANCH   1   2
BRANCH   1  17
ATOM     17  C   UNL     1      26.917  25.524 -17.864  1.00  0.00     0.000 C 
BRANCH  17  18
ATOM     18  C   UNL     1      26.413  24.875 -16.552  1.00  0.00     0.000 C 
BRANCH  18  19
ATOM     19  C   UNL     1      27.454  24.900 -15.420  1.00  0.00     0.000 C 
BRANCH  19  20
ATOM     20  C   UNL     1      27.133  25.889 -14.281  1.00  0.00     0.000 C 
BRANCH  20  21
ATOM     21  C   UNL     1      27.160  25.242 -12.879  1.00  0.00     0.000 C 
BRANCH  21  22
ATOM     22  C   UNL     1      28.175  25.914 -11.944  1.00  0.00    -0.000 C 
BRANCH  22  23
ATOM     23  C   UNL     1      29.199  26.737 -12.737  1.00  0.00    -0.000 C 
BRANCH  23  24
ATOM     24  C   UNL     1      30.633  26.189 -12.624  1.00  0.00    -0.000 C 
BRANCH  24  25
ATOM     25  C   UNL     1      30.747  24.654 -12.547  1.00  0.00    -0.000 C 
BRANCH  25  26
ATOM     26  C   UNL     1      30.966  23.994 -13.917  1.00  0.00    -0.000 C 
BRANCH  26  27
ATOM     27  C   UNL     1      31.373  22.523 -13.757  1.00  0.00    -0.000 C 
BRANCH  27  28
ATOM     28  C   UNL     1      32.374  22.056 -14.830  1.00  0.00    -0.000 C 
BRANCH  28  29
ATOM     29  C   UNL     1      33.652  22.907 -14.940  1.00  0.00    -0.003 C 
ATOM     30  C   UNL     1      34.316  22.820 -16.314  1.00  0.00     0.004 C 
ENDBRANCH  28  29
ENDBRANCH  27  28
ENDBRANCH  26  27
ENDBRANCH  25  26
ENDBRANCH  24  25
ENDBRANCH  23  24
ENDBRANCH  22  23
ENDBRANCH  21  22
ENDBRANCH  20  21
ENDBRANCH  19  20
ENDBRANCH  18  19
ENDBRANCH  17  18
ENDBRANCH   1  17
TORSDOF 26
ENDMDL
MODEL 3
REMARK VINA RESULT:    -4.697      3.841      6.011
REMARK INTER + INTRA:         -14.524
REMARK INTER:                  -8.889
REMARK INTRA:                  -5.635
REMARK UNBOUND:                -2.687
REMARK SMILES CCCCCCCCCCCCCCCCCCCCCCCCCCCC(=O)[O-]
REMARK SMILES IDX 15 1 16 2 17 3 18 4 19 5 20 6 21 7 22 8 23 9 24 10 25 11
REMARK SMILES IDX 26 12 27 13 28 14 29 15 30 16 14 17 13 18 12 19 11 20 10 21
REMARK SMILES IDX 9 22 8 23 7 24 6 25 5 26 4 27 3 28 2 29 1 30
REMARK H PARENT
REMARK Flexibility Score: inf
ROOT
ATOM      1  C   UNL     1      29.051  22.320 -19.882  1.00  0.00     0.000 C 
ENDROOT
BRANCH   1   2
ATOM      2  C   UNL     1      28.497  23.742 -20.076  1.00  0.00     0.000 C 
BRANCH   2   3
ATOM      3  C   UNL     1      27.042  23.771 -20.593  1.00  0.00     0.000 C 
BRANCH   3   4
ATOM      4  C   UNL     1      26.192  24.912 -20.000  1.00  0.00     0.000 C 
BRANCH   4   5
ATOM      5  C   UNL     1      26.064  24.896 -18.462  1.00  0.00     0.000 C 
BRANCH   5   6
ATOM      6  C   UNL     1      26.977  25.886 -17.714  1.00  0.00     0.000 C 
BRANCH   6   7
ATOM      7  C   UNL     1      27.142  25.542 -16.223  1.00  0.00     0.000 C 
BRANCH   7   8
ATOM      8  C   UNL     1      28.031  26.546 -15.473  1.00  0.00     0.000 C 
BRANCH   8   9
ATOM      9  C   UNL     1      28.790  27.493 -16.418  1.00  0.00     0.000 C 
BRANCH   9  10
ATOM     10  C   UNL     1      30.287  27.575 -16.082  1.00  0.00     0.000 C 
BRANCH  10  11
ATOM     11  C   UNL     1      30.988  26.208 -16.170  1.00  0.00     0.000 C 
BRANCH  11  12
ATOM     12  C   UNL     1      30.804  25.538 -17.544  1.00  0.00     0.006 C 
BRANCH  12  13
ATOM     13  C   UNL     1      31.935  24.570 -17.928  1.00  0.00     0.053 C 
BRANCH  13  14
ATOM     14  C   UNL     1      32.554  24.923 -19.247  1.00  0.00     0.041 C 
ATOM     15  O   UNL     1      33.473  25.783 -19.305  1.00  0.00    -0.550 OA
ATOM     16  O   UNL     1      32.083  24.336 -20.417  1.00  0.00    -0.550 OA
ENDBRANCH  13  14
ENDBRANCH  12  13
ENDBRANCH  11  12
ENDBRANCH  10  11
ENDBRANCH   9  10
ENDBRANCH   8   9
ENDBRANCH   7   8
ENDBRANCH   6   7
ENDBRANCH   5   6
ENDBRANCH   4   5
ENDBRANCH   3   4
ENDBRANCH   2   3
ENDBRANCH   1   2
BRANCH   1  17
ATOM     17  C   UNL     1      29.561  22.071 -18.455  1.00  0.00     0.000 C 
BRANCH  17  18
ATOM     18  C   UNL     1      28.479  22.319 -17.376  1.00  0.00     0.000 C 
BRANCH  18  19
ATOM     19  C   UNL     1      28.859  21.766 -15.992  1.00  0.00     0.000 C 
BRANCH  19  20
ATOM     20  C   UNL     1      30.368  21.812 -15.681  1.00  0.00     0.000 C 
BRANCH  20  21
ATOM     21  C   UNL     1      30.757  22.929 -14.687  1.00  0.00     0.000 C 
BRANCH  21  22
ATOM     22  C   UNL     1      29.536  23.542 -13.988  1.00  0.00    -0.000 C 
BRANCH  22  23
ATOM     23  C   UNL     1      29.908  24.087 -12.602  1.00  0.00    -0.000 C 
BRANCH  23  24
ATOM     24  C   UNL     1      30.101  25.614 -12.584  1.00  0.00    -0.000 C 
BRANCH  24  25
ATOM     25  C   UNL     1      31.565  26.092 -12.517  1.00  0.00    -0.000 C 
BRANCH  25  26
ATOM     26  C   UNL     1      32.520  25.038 -11.936  1.00  0.00    -0.000 C 
BRANCH  26  27
ATOM     27  C   UNL     1      33.909  25.145 -12.578  1.00  0.00    -0.000 C 
BRANCH  27  28
ATOM     28  C   UNL     1      34.176  24.043 -13.621  1.00  0.00    -0.000 C 
BRANCH  28  29
ATOM     29  C   UNL     1      34.200  24.526 -15.083  1.00  0.00    -0.003 C 
ATOM     30  C   UNL     1      34.570  26.001 -15.223  1.00  0.00     0.004 C 
ENDBRANCH  28  29
ENDBRANCH  27  28
ENDBRANCH  26  27
ENDBRANCH  25  26
ENDBRANCH  24  25
ENDBRANCH  23  24
ENDBRANCH  22  23
ENDBRANCH  21  22
ENDBRANCH  20  21
ENDBRANCH  19  20
ENDBRANCH  18  19
ENDBRANCH  17  18
ENDBRANCH   1  17
TORSDOF 26
ENDMDL
MODEL 4
REMARK VINA RESULT:    -4.633      4.116      8.150
REMARK INTER + INTRA:         -14.361
REMARK INTER:                  -9.195
REMARK INTRA:                  -5.166
REMARK UNBOUND:                -2.687
REMARK SMILES CCCCCCCCCCCCCCCCCCCCCCCCCCCC(=O)[O-]
REMARK SMILES IDX 15 1 16 2 17 3 18 4 19 5 20 6 21 7 22 8 23 9 24 10 25 11
REMARK SMILES IDX 26 12 27 13 28 14 29 15 30 16 14 17 13 18 12 19 11 20 10 21
REMARK SMILES IDX 9 22 8 23 7 24 6 25 5 26 4 27 3 28 2 29 1 30
REMARK H PARENT
REMARK Flexibility Score: inf
ROOT
ATOM      1  C   UNL     1      26.908  24.155 -18.105  1.00  0.00     0.000 C 
ENDROOT
BRANCH   1   2
ATOM      2  C   UNL     1      26.605  24.515 -19.569  1.00  0.00     0.000 C 
BRANCH   2   3
ATOM      3  C   UNL     1      27.391  23.661 -20.589  1.00  0.00     0.000 C 
BRANCH   3   4
ATOM      4  C   UNL     1      28.567  22.879 -19.972  1.00  0.00     0.000 C 
BRANCH   4   5
ATOM      5  C   UNL     1      29.941  23.571 -20.091  1.00  0.00     0.000 C 
BRANCH   5   6
ATOM      6  C   UNL     1      30.698  23.767 -18.763  1.00  0.00     0.000 C 
BRANCH   6   7
ATOM      7  C   UNL     1      32.227  23.710 -18.929  1.00  0.00     0.000 C 
BRANCH   7   8
ATOM      8  C   UNL     1      32.814  25.007 -19.508  1.00  0.00     0.000 C 
BRANCH   8   9
ATOM      9  C   UNL     1      33.123  26.056 -18.427  1.00  0.00     0.000 C 
BRANCH   9  10
ATOM     10  C   UNL     1      33.648  25.419 -17.130  1.00  0.00     0.000 C 
BRANCH  10  11
ATOM     11  C   UNL     1      35.171  25.568 -16.974  1.00  0.00     0.000 C 
BRANCH  11  12
ATOM     12  C   UNL     1      35.574  26.085 -15.581  1.00  0.00     0.006 C 
BRANCH  12  13
ATOM     13  C   UNL     1      34.398  26.231 -14.601  1.00  0.00     0.053 C 
BRANCH  13  14
ATOM     14  C   UNL     1      34.662  25.537 -13.299  1.00  0.00     0.041 C 
ATOM     15  O   UNL     1      34.245  24.363 -13.112  1.00  0.00    -0.550 OA
ATOM     16  O   UNL     1      35.328  26.203 -12.276  1.00  0.00    -0.550 OA
ENDBRANCH  13  14
ENDBRANCH  12  13
ENDBRANCH  11  12
ENDBRANCH  10  11
ENDBRANCH   9  10
ENDBRANCH   8   9
ENDBRANCH   7   8
ENDBRANCH   6   7
ENDBRANCH   5   6
ENDBRANCH   4   5
ENDBRANCH   3   4
ENDBRANCH   2   3
ENDBRANCH   1   2
BRANCH   1  17
ATOM     17  C   UNL     1      26.487  25.258 -17.123  1.00  0.00     0.000 C 
BRANCH  17  18
ATOM     18  C   UNL     1      27.427  26.487 -17.158  1.00  0.00     0.000 C 
BRANCH  18  19
ATOM     19  C   UNL     1      28.880  26.155 -16.775  1.00  0.00     0.000 C 
BRANCH  19  20
ATOM     20  C   UNL     1      29.802  27.384 -16.653  1.00  0.00     0.000 C 
BRANCH  20  21
ATOM     21  C   UNL     1      30.962  27.186 -15.653  1.00  0.00     0.000 C 
BRANCH  21  22
ATOM     22  C   UNL     1      30.810  25.902 -14.826  1.00  0.00    -0.000 C 
BRANCH  22  23
ATOM     23  C   UNL     1      30.894  26.198 -13.322  1.00  0.00    -0.000 C 
BRANCH  23  24
ATOM     24  C   UNL     1      29.632  25.774 -12.550  1.00  0.00    -0.000 C 
BRANCH  24  25
ATOM     25  C   UNL     1      28.317  26.417 -13.034  1.00  0.00    -0.000 C 
BRANCH  25  26
ATOM     26  C   UNL     1      27.287  25.390 -13.528  1.00  0.00    -0.000 C 
BRANCH  26  27
ATOM     27  C   UNL     1      27.791  23.959 -13.305  1.00  0.00    -0.000 C 
BRANCH  27  28
ATOM     28  C   UNL     1      27.507  23.028 -14.498  1.00  0.00    -0.000 C 
BRANCH  28  29
ATOM     29  C   UNL     1      28.741  22.666 -15.346  1.00  0.00    -0.003 C 
ATOM     30  C   UNL     1      29.977  22.349 -14.505  1.00  0.00     0.004 C 
ENDBRANCH  28  29
ENDBRANCH  27  28
ENDBRANCH  26  27
ENDBRANCH  25  26
ENDBRANCH  24  25
ENDBRANCH  23  24
ENDBRANCH  22  23
ENDBRANCH  21  22
ENDBRANCH  20  21
ENDBRANCH  19  20
ENDBRANCH  18  19
ENDBRANCH  17  18
ENDBRANCH   1  17
TORSDOF 26
ENDMDL
MODEL 5
REMARK VINA RESULT:    -4.633      3.642      7.682
REMARK INTER + INTRA:         -14.361
REMARK INTER:                  -9.180
REMARK INTRA:                  -5.181
REMARK UNBOUND:                -2.687
REMARK SMILES CCCCCCCCCCCCCCCCCCCCCCCCCCCC(=O)[O-]
REMARK SMILES IDX 15 1 16 2 17 3 18 4 19 5 20 6 21 7 22 8 23 9 24 10 25 11
REMARK SMILES IDX 26 12 27 13 28 14 29 15 30 16 14 17 13 18 12 19 11 20 10 21
REMARK SMILES IDX 9 22 8 23 7 24 6 25 5 26 4 27 3 28 2 29 1 30
REMARK H PARENT
REMARK Flexibility Score: inf
ROOT
ATOM      1  C   UNL     1      26.130  24.496 -18.793  1.00  0.00     0.000 C 
ENDROOT
BRANCH   1   2
ATOM      2  C   UNL     1      27.052  24.079 -19.952  1.00  0.00     0.000 C 
BRANCH   2   3
ATOM      3  C   UNL     1      28.540  23.980 -19.550  1.00  0.00     0.000 C 
BRANCH   3   4
ATOM      4  C   UNL     1      29.009  22.544 -19.244  1.00  0.00     0.000 C 
BRANCH   4   5
ATOM      5  C   UNL     1      29.752  22.374 -17.902  1.00  0.00     0.000 C 
BRANCH   5   6
ATOM      6  C   UNL     1      31.160  21.757 -18.001  1.00  0.00     0.000 C 
BRANCH   6   7
ATOM      7  C   UNL     1      32.252  22.796 -18.310  1.00  0.00     0.000 C 
BRANCH   7   8
ATOM      8  C   UNL     1      32.711  22.762 -19.776  1.00  0.00     0.000 C 
BRANCH   8   9
ATOM      9  C   UNL     1      32.430  24.078 -20.520  1.00  0.00     0.000 C 
BRANCH   9  10
ATOM     10  C   UNL     1      32.583  25.306 -19.608  1.00  0.00     0.000 C 
BRANCH  10  11
ATOM     11  C   UNL     1      34.052  25.727 -19.428  1.00  0.00     0.000 C 
BRANCH  11  12
ATOM     12  C   UNL     1      34.373  26.142 -17.981  1.00  0.00     0.006 C 
BRANCH  12  13
ATOM     13  C   UNL     1      35.663  25.521 -17.420  1.00  0.00     0.053 C 
BRANCH  13  14
ATOM     14  C   UNL     1      36.060  26.135 -16.111  1.00  0.00     0.041 C 
ATOM     15  O   UNL     1      35.290  26.060 -15.117  1.00  0.00    -0.550 OA
ATOM     16  O   UNL     1      37.260  26.830 -16.003  1.00  0.00    -0.550 OA
ENDBRANCH  13  14
ENDBRANCH  12  13
ENDBRANCH  11  12
ENDBRANCH  10  11
ENDBRANCH   9  10
ENDBRANCH   8   9
ENDBRANCH   7   8
ENDBRANCH   6   7
ENDBRANCH   5   6
ENDBRANCH   4   5
ENDBRANCH   3   4
ENDBRANCH   2   3
ENDBRANCH   1   2
BRANCH   1  17
ATOM     17  C   UNL     1      26.795  25.498 -17.837  1.00  0.00     0.000 C 
BRANCH  17  18
ATOM     18  C   UNL     1      26.561  25.154 -16.346  1.00  0.00     0.000 C 
BRANCH  18  19
ATOM     19  C   UNL     1      27.635  24.224 -15.757  1.00  0.00     0.000 C 
BRANCH  19  20
ATOM     20  C   UNL     1      28.011  24.531 -14.294  1.00  0.00     0.000 C 
BRANCH  20  21
ATOM     21  C   UNL     1      27.546  25.926 -13.820  1.00  0.00     0.000 C 
BRANCH  21  22
ATOM     22  C   UNL     1      28.437  26.494 -12.708  1.00  0.00    -0.000 C 
BRANCH  22  23
ATOM     23  C   UNL     1      29.630  25.569 -12.427  1.00  0.00    -0.000 C 
BRANCH  23  24
ATOM     24  C   UNL     1      30.991  26.263 -12.619  1.00  0.00    -0.000 C 
BRANCH  24  25
ATOM     25  C   UNL     1      31.849  25.721 -13.779  1.00  0.00    -0.000 C 
BRANCH  25  26
ATOM     26  C   UNL     1      31.745  26.567 -15.056  1.00  0.00    -0.000 C 
BRANCH  26  27
ATOM     27  C   UNL     1      31.216  25.727 -16.227  1.00  0.00    -0.000 C 
BRANCH  27  28
ATOM     28  C   UNL     1      30.176  26.475 -17.082  1.00  0.00    -0.000 C 
BRANCH  28  29
ATOM     29  C   UNL     1      29.387  27.567 -16.336  1.00  0.00    -0.003 C 
ATOM     30  C   UNL     1      29.227  28.853 -17.146  1.00  0.00     0.004 C 
ENDBRANCH  28  29
ENDBRANCH  27  28
ENDBRANCH  26  27
ENDBRANCH  25  26
ENDBRANCH  24  25
ENDBRANCH  23  24
ENDBRANCH  22  23
ENDBRANCH  21  22
ENDBRANCH  20  21
ENDBRANCH  19  20
ENDBRANCH  18  19
ENDBRANCH  17  18
ENDBRANCH   1  17
TORSDOF 26
ENDMDL
MODEL 6
REMARK VINA RESULT:    -4.556      3.820      9.279
REMARK INTER + INTRA:         -14.168
REMARK INTER:                  -9.516
REMARK INTRA:                  -4.652
REMARK UNBOUND:                -2.687
REMARK SMILES CCCCCCCCCCCCCCCCCCCCCCCCCCCC(=O)[O-]
REMARK SMILES IDX 15 1 16 2 17 3 18 4 19 5 20 6 21 7 22 8 23 9 24 10 25 11
REMARK SMILES IDX 26 12 27 13 28 14 29 15 30 16 14 17 13 18 12 19 11 20 10 21
REMARK SMILES IDX 9 22 8 23 7 24 6 25 5 26 4 27 3 28 2 29 1 30
REMARK H PARENT
REMARK Flexibility Score: inf
ROOT
ATOM      1  C   UNL     1      32.937  26.263 -15.304  1.00  0.00     0.000 C 
ENDROOT
BRANCH   1   2
ATOM      2  C   UNL     1      34.299  26.012 -14.634  1.00  0.00     0.000 C 
BRANCH   2   3
ATOM      3  C   UNL     1      34.927  24.650 -15.006  1.00  0.00     0.000 C 
BRANCH   3   4
ATOM      4  C   UNL     1      36.049  24.199 -14.049  1.00  0.00     0.000 C 
BRANCH   4   5
ATOM      5  C   UNL     1      37.482  24.442 -14.567  1.00  0.00     0.000 C 
BRANCH   5   6
ATOM      6  C   UNL     1      38.004  25.883 -14.411  1.00  0.00     0.000 C 
BRANCH   6   7
ATOM      7  C   UNL     1      38.291  26.568 -15.759  1.00  0.00     0.000 C 
BRANCH   7   8
ATOM      8  C   UNL     1      37.947  25.680 -16.965  1.00  0.00     0.000 C 
BRANCH   8   9
ATOM      9  C   UNL     1      36.928  26.332 -17.915  1.00  0.00     0.000 C 
BRANCH   9  10
ATOM     10  C   UNL     1      37.171  25.948 -19.383  1.00  0.00     0.000 C 
BRANCH  10  11
ATOM     11  C   UNL     1      36.833  27.090 -20.356  1.00  0.00     0.000 C 
BRANCH  11  12
ATOM     12  C   UNL     1      37.432  28.438 -19.914  1.00  0.00     0.006 C 
BRANCH  12  13
ATOM     13  C   UNL     1      38.951  28.550 -20.124  1.00  0.00     0.053 C 
BRANCH  13  14
ATOM     14  C   UNL     1      39.698  28.570 -18.825  1.00  0.00     0.041 C 
ATOM     15  O   UNL     1      39.262  29.244 -17.854  1.00  0.00    -0.550 OA
ATOM     16  O   UNL     1      40.900  27.882 -18.701  1.00  0.00    -0.550 OA
ENDBRANCH  13  14
ENDBRANCH  12  13
ENDBRANCH  11  12
ENDBRANCH  10  11
ENDBRANCH   9  10
ENDBRANCH   8   9
ENDBRANCH   7   8
ENDBRANCH   6   7
ENDBRANCH   5   6
ENDBRANCH   4   5
ENDBRANCH   3   4
ENDBRANCH   2   3
ENDBRANCH   1   2
BRANCH   1  17
ATOM     17  C   UNL     1      31.753  25.881 -14.404  1.00  0.00     0.000 C 
BRANCH  17  18
ATOM     18  C   UNL     1      30.435  26.583 -14.813  1.00  0.00     0.000 C 
BRANCH  18  19
ATOM     19  C   UNL     1      30.599  27.548 -16.000  1.00  0.00     0.000 C 
BRANCH  19  20
ATOM     20  C   UNL     1      29.334  27.713 -16.865  1.00  0.00     0.000 C 
BRANCH  20  21
ATOM     21  C   UNL     1      28.064  27.119 -16.216  1.00  0.00     0.000 C 
BRANCH  21  22
ATOM     22  C   UNL     1      27.283  26.214 -17.179  1.00  0.00    -0.000 C 
BRANCH  22  23
ATOM     23  C   UNL     1      26.869  24.904 -16.494  1.00  0.00    -0.000 C 
BRANCH  23  24
ATOM     24  C   UNL     1      28.041  23.924 -16.305  1.00  0.00    -0.000 C 
BRANCH  24  25
ATOM     25  C   UNL     1      28.935  23.720 -17.544  1.00  0.00    -0.000 C 
BRANCH  25  26
ATOM     26  C   UNL     1      30.434  23.686 -17.211  1.00  0.00    -0.000 C 
BRANCH  26  27
ATOM     27  C   UNL     1      31.228  24.583 -18.169  1.00  0.00    -0.000 C 
BRANCH  27  28
ATOM     28  C   UNL     1      32.702  24.161 -18.306  1.00  0.00    -0.000 C 
BRANCH  28  29
ATOM     29  C   UNL     1      33.526  24.995 -19.304  1.00  0.00    -0.003 C 
ATOM     30  C   UNL     1      33.343  26.501 -19.125  1.00  0.00     0.004 C 
ENDBRANCH  28  29
ENDBRANCH  27  28
ENDBRANCH  26  27
ENDBRANCH  25  26
ENDBRANCH  24  25
ENDBRANCH  23  24
ENDBRANCH  22  23
ENDBRANCH  21  22
ENDBRANCH  20  21
ENDBRANCH  19  20
ENDBRANCH  18  19
ENDBRANCH  17  18
ENDBRANCH   1  17
TORSDOF 26
ENDMDL
MODEL 7
REMARK VINA RESULT:    -4.550      3.986      6.598
REMARK INTER + INTRA:         -14.153
REMARK INTER:                  -9.137
REMARK INTRA:                  -5.016
REMARK UNBOUND:                -2.687
REMARK SMILES CCCCCCCCCCCCCCCCCCCCCCCCCCCC(=O)[O-]
REMARK SMILES IDX 15 1 16 2 17 3 18 4 19 5 20 6 21 7 22 8 23 9 24 10 25 11
REMARK SMILES IDX 26 12 27 13 28 14 29 15 30 16 14 17 13 18 12 19 11 20 10 21
REMARK SMILES IDX 9 22 8 23 7 24 6 25 5 26 4 27 3 28 2 29 1 30
REMARK H PARENT
REMARK Flexibility Score: inf
ROOT
ATOM      1  C   UNL     1      27.016  25.659 -16.108  1.00  0.00     0.000 C 
ENDROOT
BRANCH   1   2
ATOM      2  C   UNL     1      26.926  25.915 -17.622  1.00  0.00     0.000 C 
BRANCH   2   3
ATOM      3  C   UNL     1      26.142  24.825 -18.386  1.00  0.00     0.000 C 
BRANCH   3   4
ATOM      4  C   UNL     1      26.213  24.965 -19.920  1.00  0.00     0.000 C 
BRANCH   4   5
ATOM      5  C   UNL     1      27.066  23.894 -20.632  1.00  0.00     0.000 C 
BRANCH   5   6
ATOM      6  C   UNL     1      28.001  23.080 -19.717  1.00  0.00     0.000 C 
BRANCH   6   7
ATOM      7  C   UNL     1      29.381  22.821 -20.347  1.00  0.00     0.000 C 
BRANCH   7   8
ATOM      8  C   UNL     1      30.507  23.613 -19.665  1.00  0.00     0.000 C 
BRANCH   8   9
ATOM      9  C   UNL     1      30.103  24.156 -18.284  1.00  0.00     0.000 C 
BRANCH   9  10
ATOM     10  C   UNL     1      30.541  23.225 -17.142  1.00  0.00     0.000 C 
BRANCH  10  11
ATOM     11  C   UNL     1      29.554  23.234 -15.962  1.00  0.00     0.000 C 
BRANCH  11  12
ATOM     12  C   UNL     1      28.429  22.196 -16.126  1.00  0.00     0.006 C 
BRANCH  12  13
ATOM     13  C   UNL     1      28.816  20.774 -15.686  1.00  0.00     0.053 C 
BRANCH  13  14
ATOM     14  C   UNL     1      28.781  19.803 -16.828  1.00  0.00     0.041 C 
ATOM     15  O   UNL     1      28.370  18.627 -16.644  1.00  0.00    -0.550 OA
ATOM     16  O   UNL     1      29.246  20.184 -18.082  1.00  0.00    -0.550 OA
ENDBRANCH  13  14
ENDBRANCH  12  13
ENDBRANCH  11  12
ENDBRANCH  10  11
ENDBRANCH   9  10
ENDBRANCH   8   9
ENDBRANCH   7   8
ENDBRANCH   6   7
ENDBRANCH   5   6
ENDBRANCH   4   5
ENDBRANCH   3   4
ENDBRANCH   2   3
ENDBRANCH   1   2
BRANCH   1  17
ATOM     17  C   UNL     1      27.959  26.639 -15.395  1.00  0.00     0.000 C 
BRANCH  17  18
ATOM     18  C   UNL     1      29.161  27.066 -16.272  1.00  0.00     0.000 C 
BRANCH  18  19
ATOM     19  C   UNL     1      30.522  26.854 -15.587  1.00  0.00     0.000 C 
BRANCH  19  20
ATOM     20  C   UNL     1      30.445  26.689 -14.057  1.00  0.00     0.000 C 
BRANCH  20  21
ATOM     21  C   UNL     1      31.708  26.045 -13.443  1.00  0.00     0.000 C 
BRANCH  21  22
ATOM     22  C   UNL     1      31.971  24.636 -13.990  1.00  0.00    -0.000 C 
BRANCH  22  23
ATOM     23  C   UNL     1      33.040  23.911 -13.160  1.00  0.00    -0.000 C 
BRANCH  23  24
ATOM     24  C   UNL     1      34.360  23.700 -13.925  1.00  0.00    -0.000 C 
BRANCH  24  25
ATOM     25  C   UNL     1      34.303  24.011 -15.434  1.00  0.00    -0.000 C 
BRANCH  25  26
ATOM     26  C   UNL     1      35.075  25.281 -15.820  1.00  0.00    -0.000 C 
BRANCH  26  27
ATOM     27  C   UNL     1      34.153  26.295 -16.510  1.00  0.00    -0.000 C 
BRANCH  27  28
ATOM     28  C   UNL     1      33.255  25.655 -17.585  1.00  0.00    -0.000 C 
BRANCH  28  29
ATOM     29  C   UNL     1      33.304  26.339 -18.963  1.00  0.00    -0.003 C 
ATOM     30  C   UNL     1      34.680  26.261 -19.624  1.00  0.00     0.004 C 
ENDBRANCH  28  29
ENDBRANCH  27  28
ENDBRANCH  26  27
ENDBRANCH  25  26
ENDBRANCH  24  25
ENDBRANCH  23  24
ENDBRANCH  22  23
ENDBRANCH  21  22
ENDBRANCH  20  21
ENDBRANCH  19  20
ENDBRANCH  18  19
ENDBRANCH  17  18
ENDBRANCH   1  17
TORSDOF 26
ENDMDL
MODEL 8
REMARK VINA RESULT:    -4.482      3.840      7.755
REMARK INTER + INTRA:         -13.981
REMARK INTER:                  -9.248
REMARK INTRA:                  -4.733
REMARK UNBOUND:                -2.687
REMARK SMILES CCCCCCCCCCCCCCCCCCCCCCCCCCCC(=O)[O-]
REMARK SMILES IDX 15 1 16 2 17 3 18 4 19 5 20 6 21 7 22 8 23 9 24 10 25 11
REMARK SMILES IDX 26 12 27 13 28 14 29 15 30 16 14 17 13 18 12 19 11 20 10 21
REMARK SMILES IDX 9 22 8 23 7 24 6 25 5 26 4 27 3 28 2 29 1 30
REMARK H PARENT
REMARK Flexibility Score: inf
ROOT
ATOM      1  C   UNL     1      27.560  23.377 -19.852  1.00  0.00     0.000 C 
ENDROOT
BRANCH   1   2
ATOM      2  C   UNL     1      26.708  24.649 -20.010  1.00  0.00     0.000 C 
BRANCH   2   3
ATOM      3  C   UNL     1      25.768  24.914 -18.813  1.00  0.00     0.000 C 
BRANCH   3   4
ATOM      4  C   UNL     1      26.505  25.282 -17.510  1.00  0.00     0.000 C 
BRANCH   4   5
ATOM      5  C   UNL     1      27.273  26.619 -17.554  1.00  0.00     0.000 C 
BRANCH   5   6
ATOM      6  C   UNL     1      28.192  26.892 -16.347  1.00  0.00     0.000 C 
BRANCH   6   7
ATOM      7  C   UNL     1      29.547  27.501 -16.748  1.00  0.00     0.000 C 
BRANCH   7   8
ATOM      8  C   UNL     1      30.742  26.652 -16.290  1.00  0.00     0.000 C 
BRANCH   8   9
ATOM      9  C   UNL     1      31.294  25.747 -17.405  1.00  0.00     0.000 C 
BRANCH   9  10
ATOM     10  C   UNL     1      32.791  25.448 -17.224  1.00  0.00     0.000 C 
BRANCH  10  11
ATOM     11  C   UNL     1      33.676  26.269 -18.177  1.00  0.00     0.000 C 
BRANCH  11  12
ATOM     12  C   UNL     1      35.054  25.621 -18.407  1.00  0.00     0.006 C 
BRANCH  12  13
ATOM     13  C   UNL     1      35.640  24.931 -17.164  1.00  0.00     0.053 C 
BRANCH  13  14
ATOM     14  C   UNL     1      36.321  25.904 -16.248  1.00  0.00     0.041 C 
ATOM     15  O   UNL     1      37.263  26.622 -16.676  1.00  0.00    -0.550 OA
ATOM     16  O   UNL     1      35.944  25.984 -14.912  1.00  0.00    -0.550 OA
ENDBRANCH  13  14
ENDBRANCH  12  13
ENDBRANCH  11  12
ENDBRANCH  10  11
ENDBRANCH   9  10
ENDBRANCH   8   9
ENDBRANCH   7   8
ENDBRANCH   6   7
ENDBRANCH   5   6
ENDBRANCH   4   5
ENDBRANCH   3   4
ENDBRANCH   2   3
ENDBRANCH   1   2
BRANCH   1  17
ATOM     17  C   UNL     1      29.051  23.683 -19.649  1.00  0.00     0.000 C 
BRANCH  17  18
ATOM     18  C   UNL     1      29.711  22.781 -18.578  1.00  0.00     0.000 C 
BRANCH  18  19
ATOM     19  C   UNL     1      28.729  22.299 -17.496  1.00  0.00     0.000 C 
BRANCH  19  20
ATOM     20  C   UNL     1      28.888  23.003 -16.134  1.00  0.00     0.000 C 
BRANCH  20  21
ATOM     21  C   UNL     1      28.698  22.057 -14.927  1.00  0.00     0.000 C 
BRANCH  21  22
ATOM     22  C   UNL     1      27.598  22.539 -13.972  1.00  0.00    -0.000 C 
BRANCH  22  23
ATOM     23  C   UNL     1      27.078  23.924 -14.381  1.00  0.00    -0.000 C 
BRANCH  23  24
ATOM     24  C   UNL     1      26.672  24.796 -13.179  1.00  0.00    -0.000 C 
BRANCH  24  25
ATOM     25  C   UNL     1      27.828  25.215 -12.249  1.00  0.00    -0.000 C 
BRANCH  25  26
ATOM     26  C   UNL     1      28.541  26.496 -12.708  1.00  0.00    -0.000 C 
BRANCH  26  27
ATOM     27  C   UNL     1      30.057  26.277 -12.795  1.00  0.00    -0.000 C 
BRANCH  27  28
ATOM     28  C   UNL     1      30.436  24.821 -13.123  1.00  0.00    -0.000 C 
BRANCH  28  29
ATOM     29  C   UNL     1      31.949  24.550 -13.221  1.00  0.00    -0.003 C 
ATOM     30  C   UNL     1      32.779  25.825 -13.369  1.00  0.00     0.004 C 
ENDBRANCH  28  29
ENDBRANCH  27  28
ENDBRANCH  26  27
ENDBRANCH  25  26
ENDBRANCH  24  25
ENDBRANCH  23  24
ENDBRANCH  22  23
ENDBRANCH  21  22
ENDBRANCH  20  21
ENDBRANCH  19  20
ENDBRANCH  18  19
ENDBRANCH  17  18
ENDBRANCH   1  17
TORSDOF 26
ENDMDL
MODEL 9
REMARK VINA RESULT:    -4.446      4.181      7.781
REMARK INTER + INTRA:         -13.889
REMARK INTER:                  -8.561
REMARK INTRA:                  -5.329
REMARK UNBOUND:                -2.687
REMARK SMILES CCCCCCCCCCCCCCCCCCCCCCCCCCCC(=O)[O-]
REMARK SMILES IDX 15 1 16 2 17 3 18 4 19 5 20 6 21 7 22 8 23 9 24 10 25 11
REMARK SMILES IDX 26 12 27 13 28 14 29 15 30 16 14 17 13 18 12 19 11 20 10 21
REMARK SMILES IDX 9 22 8 23 7 24 6 25 5 26 4 27 3 28 2 29 1 30
REMARK H PARENT
REMARK Flexibility Score: inf
ROOT
ATOM      1  C   UNL     1      30.326  26.030 -14.813  1.00  0.00     0.000 C 
ENDROOT
BRANCH   1   2
ATOM      2  C   UNL     1      30.581  26.392 -13.339  1.00  0.00     0.000 C 
BRANCH   2   3
ATOM      3  C   UNL     1      29.294  26.730 -12.555  1.00  0.00     0.000 C 
BRANCH   3   4
ATOM      4  C   UNL     1      28.635  25.509 -11.882  1.00  0.00     0.000 C 
BRANCH   4   5
ATOM      5  C   UNL     1      27.175  25.244 -12.304  1.00  0.00     0.000 C 
BRANCH   5   6
ATOM      6  C   UNL     1      26.900  23.844 -12.885  1.00  0.00     0.000 C 
BRANCH   6   7
ATOM      7  C   UNL     1      26.921  23.816 -14.423  1.00  0.00     0.000 C 
BRANCH   7   8
ATOM      8  C   UNL     1      28.042  22.930 -14.989  1.00  0.00     0.000 C 
BRANCH   8   9
ATOM      9  C   UNL     1      28.178  21.592 -14.243  1.00  0.00     0.000 C 
BRANCH   9  10
ATOM     10  C   UNL     1      29.618  21.333 -13.771  1.00  0.00     0.000 C 
BRANCH  10  11
ATOM     11  C   UNL     1      30.382  22.634 -13.468  1.00  0.00     0.000 C 
BRANCH  11  12
ATOM     12  C   UNL     1      31.907  22.425 -13.424  1.00  0.00     0.006 C 
BRANCH  12  13
ATOM     13  C   UNL     1      32.687  23.268 -14.445  1.00  0.00     0.053 C 
BRANCH  13  14
ATOM     14  C   UNL     1      33.630  24.227 -13.780  1.00  0.00     0.041 C 
ATOM     15  O   UNL     1      34.001  24.028 -12.593  1.00  0.00    -0.550 OA
ATOM     16  O   UNL     1      34.060  25.363 -14.457  1.00  0.00    -0.550 OA
ENDBRANCH  13  14
ENDBRANCH  12  13
ENDBRANCH  11  12
ENDBRANCH  10  11
ENDBRANCH   9  10
ENDBRANCH   8   9
ENDBRANCH   7   8
ENDBRANCH   6   7
ENDBRANCH   5   6
ENDBRANCH   4   5
ENDBRANCH   3   4
ENDBRANCH   2   3
ENDBRANCH   1   2
BRANCH   1  17
ATOM     17  C   UNL     1      30.665  27.178 -15.774  1.00  0.00     0.000 C 
BRANCH  17  18
ATOM     18  C   UNL     1      29.455  27.628 -16.627  1.00  0.00     0.000 C 
BRANCH  18  19
ATOM     19  C   UNL     1      28.151  26.893 -16.272  1.00  0.00     0.000 C 
BRANCH  19  20
ATOM     20  C   UNL     1      27.233  26.607 -17.478  1.00  0.00     0.000 C 
BRANCH  20  21
ATOM     21  C   UNL     1      26.968  25.102 -17.705  1.00  0.00     0.000 C 
BRANCH  21  22
ATOM     22  C   UNL     1      26.390  24.812 -19.096  1.00  0.00    -0.000 C 
BRANCH  22  23
ATOM     23  C   UNL     1      27.210  23.737 -19.823  1.00  0.00    -0.000 C 
BRANCH  23  24
ATOM     24  C   UNL     1      28.724  23.856 -19.568  1.00  0.00    -0.000 C 
BRANCH  24  25
ATOM     25  C   UNL     1      29.306  22.832 -18.573  1.00  0.00    -0.000 C 
BRANCH  25  26
ATOM     26  C   UNL     1      30.326  23.445 -17.602  1.00  0.00    -0.000 C 
BRANCH  26  27
ATOM     27  C   UNL     1      31.160  24.529 -18.298  1.00  0.00    -0.000 C 
BRANCH  27  28
ATOM     28  C   UNL     1      32.605  24.606 -17.771  1.00  0.00    -0.000 C 
BRANCH  28  29
ATOM     29  C   UNL     1      33.285  25.977 -17.937  1.00  0.00    -0.003 C 
ATOM     30  C   UNL     1      33.497  26.370 -19.398  1.00  0.00     0.004 C 
ENDBRANCH  28  29
ENDBRANCH  27  28
ENDBRANCH  26  27
ENDBRANCH  25  26
ENDBRANCH  24  25
ENDBRANCH  23  24
ENDBRANCH  22  23
ENDBRANCH  21  22
ENDBRANCH  20  21
ENDBRANCH  19  20
ENDBRANCH  18  19
ENDBRANCH  17  18
ENDBRANCH   1  17
TORSDOF 26
ENDMDL
