MODEL 1
REMARK VINA RESULT:    -5.126      0.000      0.000
REMARK INTER + INTRA:         -10.340
REMARK INTER:                  -8.722
REMARK INTRA:                  -1.618
REMARK UNBOUND:                -1.618
REMARK SMILES CCCCCCCCCCCCCC(=O)[O-]
REMARK SMILES IDX 8 1 9 2 10 3 11 4 12 5 13 6 14 7 15 8 16 9 7 10 6 11 5 12
REMARK SMILES IDX 4 13 3 14 2 15 1 16
REMARK H PARENT
REMARK Flexibility Score: inf
ROOT
ATOM      1  C   UNL     1      20.796  22.853   9.616  1.00  0.00     0.000 C 
ENDROOT
BRANCH   1   2
ATOM      2  C   UNL     1      20.992  23.437   8.208  1.00  0.00     0.000 C 
BRANCH   2   3
ATOM      3  C   UNL     1      19.730  23.250   7.356  1.00  0.00     0.000 C 
BRANCH   3   4
ATOM      4  C   UNL     1      20.016  22.365   6.135  1.00  0.00     0.000 C 
BRANCH   4   5
ATOM      5  C   UNL     1      21.457  21.826   6.104  1.00  0.00     0.006 C 
BRANCH   5   6
ATOM      6  C   UNL     1      21.566  20.312   6.362  1.00  0.00     0.053 C 
BRANCH   6   7
ATOM      7  C   UNL     1      22.824  19.937   7.084  1.00  0.00     0.041 C 
ATOM      8  O   UNL     1      23.606  19.080   6.595  1.00  0.00    -0.550 OA
ATOM      9  O   UNL     1      23.116  20.510   8.315  1.00  0.00    -0.550 OA
ENDBRANCH   6   7
ENDBRANCH   5   6
ENDBRANCH   4   5
ENDBRANCH   3   4
ENDBRANCH   2   3
ENDBRANCH   1   2
BRANCH   1  10
ATOM     10  C   UNL     1      19.517  22.009   9.733  1.00  0.00     0.000 C 
BRANCH  10  11
ATOM     11  C   UNL     1      18.661  22.400  10.951  1.00  0.00    -0.000 C 
BRANCH  11  12
ATOM     12  C   UNL     1      17.261  22.898  10.557  1.00  0.00    -0.000 C 
BRANCH  12  13
ATOM     13  C   UNL     1      17.100  24.416  10.750  1.00  0.00    -0.000 C 
BRANCH  13  14
ATOM     14  C   UNL     1      17.608  25.222   9.544  1.00  0.00    -0.000 C 
BRANCH  14  15
ATOM     15  C   UNL     1      18.889  26.010   9.856  1.00  0.00    -0.003 C 
ATOM     16  C   UNL     1      18.986  27.266   8.994  1.00  0.00     0.004 C 
ENDBRANCH  14  15
ENDBRANCH  13  14
ENDBRANCH  12  13
ENDBRANCH  11  12
ENDBRANCH  10  11
ENDBRANCH   1  10
TORSDOF 12
ENDMDL
MODEL 2
REMARK VINA RESULT:    -5.090      3.086      5.630
REMARK INTER + INTRA:         -10.279
REMARK INTER:                  -8.447
REMARK INTRA:                  -1.832
REMARK UNBOUND:                -1.618
REMARK SMILES CCCCCCCCCCCCCC(=O)[O-]
REMARK SMILES IDX 8 1 9 2 10 3 11 4 12 5 13 6 14 7 15 8 16 9 7 10 6 11 5 12
REMARK SMILES IDX 4 13 3 14 2 15 1 16
REMARK H PARENT
REMARK Flexibility Score: inf
ROOT
ATOM      1  C   UNL     1      19.159  22.614   5.727  1.00  0.00     0.000 C 
ENDROOT
BRANCH   1   2
ATOM      2  C   UNL     1      17.892  21.891   6.211  1.00  0.00     0.000 C 
BRANCH   2   3
ATOM      3  C   UNL     1      16.922  22.871   6.882  1.00  0.00     0.000 C 
BRANCH   3   4
ATOM      4  C   UNL     1      17.598  24.225   7.141  1.00  0.00     0.000 C 
BRANCH   4   5
ATOM      5  C   UNL     1      17.088  24.919   8.417  1.00  0.00     0.006 C 
BRANCH   5   6
ATOM      6  C   UNL     1      17.464  26.409   8.511  1.00  0.00     0.053 C 
BRANCH   6   7
ATOM      7  C   UNL     1      18.693  26.647   9.334  1.00  0.00     0.041 C 
ATOM      8  O   UNL     1      19.431  27.640   9.102  1.00  0.00    -0.550 OA
ATOM      9  O   UNL     1      19.040  25.752  10.339  1.00  0.00    -0.550 OA
ENDBRANCH   6   7
ENDBRANCH   5   6
ENDBRANCH   4   5
ENDBRANCH   3   4
ENDBRANCH   2   3
ENDBRANCH   1   2
BRANCH   1  10
ATOM     10  C   UNL     1      20.385  21.689   5.680  1.00  0.00     0.000 C 
BRANCH  10  11
ATOM     11  C   UNL     1      21.189  21.705   6.993  1.00  0.00    -0.000 C 
BRANCH  11  12
ATOM     12  C   UNL     1      21.164  23.076   7.687  1.00  0.00    -0.000 C 
BRANCH  12  13
ATOM     13  C   UNL     1      20.714  22.986   9.156  1.00  0.00    -0.000 C 
BRANCH  13  14
ATOM     14  C   UNL     1      19.814  21.768   9.423  1.00  0.00    -0.000 C 
BRANCH  14  15
ATOM     15  C   UNL     1      18.504  22.143  10.131  1.00  0.00    -0.003 C 
ATOM     16  C   UNL     1      18.567  21.805  11.619  1.00  0.00     0.004 C 
ENDBRANCH  14  15
ENDBRANCH  13  14
ENDBRANCH  12  13
ENDBRANCH  11  12
ENDBRANCH  10  11
ENDBRANCH   1  10
TORSDOF 12
ENDMDL
MODEL 3
REMARK VINA RESULT:    -5.018      2.638      3.453
REMARK INTER + INTRA:         -10.155
REMARK INTER:                  -8.431
REMARK INTRA:                  -1.725
REMARK UNBOUND:                -1.618
REMARK SMILES CCCCCCCCCCCCCC(=O)[O-]
REMARK SMILES IDX 8 1 9 2 10 3 11 4 12 5 13 6 14 7 15 8 16 9 7 10 6 11 5 12
REMARK SMILES IDX 4 13 3 14 2 15 1 16
REMARK H PARENT
REMARK Flexibility Score: inf
ROOT
ATOM      1  C   UNL     1      21.524  22.776   9.381  1.00  0.00     0.000 C 
ENDROOT
BRANCH   1   2
ATOM      2  C   UNL     1      21.164  23.438   8.042  1.00  0.00     0.000 C 
BRANCH   2   3
ATOM      3  C   UNL     1      21.201  22.418   6.897  1.00  0.00     0.000 C 
BRANCH   3   4
ATOM      4  C   UNL     1      19.874  22.407   6.125  1.00  0.00     0.000 C 
BRANCH   4   5
ATOM      5  C   UNL     1      18.821  23.358   6.722  1.00  0.00     0.006 C 
BRANCH   5   6
ATOM      6  C   UNL     1      17.373  23.018   6.325  1.00  0.00     0.053 C 
BRANCH   6   7
ATOM      7  C   UNL     1      17.052  21.564   6.494  1.00  0.00     0.041 C 
ATOM      8  O   UNL     1      16.969  21.061   7.646  1.00  0.00    -0.550 OA
ATOM      9  O   UNL     1      16.875  20.756   5.378  1.00  0.00    -0.550 OA
ENDBRANCH   6   7
ENDBRANCH   5   6
ENDBRANCH   4   5
ENDBRANCH   3   4
ENDBRANCH   2   3
ENDBRANCH   1   2
BRANCH   1  10
ATOM     10  C   UNL     1      20.442  22.983  10.452  1.00  0.00     0.000 C 
BRANCH  10  11
ATOM     11  C   UNL     1      19.203  22.099  10.221  1.00  0.00    -0.000 C 
BRANCH  11  12
ATOM     12  C   UNL     1      18.319  21.978  11.473  1.00  0.00    -0.000 C 
BRANCH  12  13
ATOM     13  C   UNL     1      17.054  22.849  11.386  1.00  0.00    -0.000 C 
BRANCH  13  14
ATOM     14  C   UNL     1      16.963  23.629  10.065  1.00  0.00    -0.000 C 
BRANCH  14  15
ATOM     15  C   UNL     1      17.089  25.147  10.263  1.00  0.00    -0.003 C 
ATOM     16  C   UNL     1      18.123  25.742   9.310  1.00  0.00     0.004 C 
ENDBRANCH  14  15
ENDBRANCH  13  14
ENDBRANCH  12  13
ENDBRANCH  11  12
ENDBRANCH  10  11
ENDBRANCH   1  10
TORSDOF 12
ENDMDL
MODEL 4
REMARK VINA RESULT:    -4.912      1.622      2.411
REMARK INTER + INTRA:          -9.976
REMARK INTER:                  -8.040
REMARK INTRA:                  -1.936
REMARK UNBOUND:                -1.618
REMARK SMILES CCCCCCCCCCCCCC(=O)[O-]
REMARK SMILES IDX 8 1 9 2 10 3 11 4 12 5 13 6 14 7 15 8 16 9 7 10 6 11 5 12
REMARK SMILES IDX 4 13 3 14 2 15 1 16
REMARK H PARENT
REMARK Flexibility Score: inf
ROOT
ATOM      1  C   UNL     1      17.389  21.367   7.926  1.00  0.00     0.000 C 
ENDROOT
BRANCH   1   2
ATOM      2  C   UNL     1      16.924  22.632   7.187  1.00  0.00     0.000 C 
BRANCH   2   3
ATOM      3  C   UNL     1      18.111  23.358   6.541  1.00  0.00     0.000 C 
BRANCH   3   4
ATOM      4  C   UNL     1      19.018  22.373   5.790  1.00  0.00     0.000 C 
BRANCH   4   5
ATOM      5  C   UNL     1      20.484  22.427   6.255  1.00  0.00     0.006 C 
BRANCH   5   6
ATOM      6  C   UNL     1      20.695  23.197   7.571  1.00  0.00     0.053 C 
BRANCH   6   7
ATOM      7  C   UNL     1      21.514  22.431   8.565  1.00  0.00     0.041 C 
ATOM      8  O   UNL     1      21.926  21.273   8.291  1.00  0.00    -0.550 OA
ATOM      9  O   UNL     1      21.796  22.984   9.808  1.00  0.00    -0.550 OA
ENDBRANCH   6   7
ENDBRANCH   5   6
ENDBRANCH   4   5
ENDBRANCH   3   4
ENDBRANCH   2   3
ENDBRANCH   1   2
BRANCH   1  10
ATOM     10  C   UNL     1      16.916  21.330   9.387  1.00  0.00     0.000 C 
BRANCH  10  11
ATOM     11  C   UNL     1      18.069  21.530  10.388  1.00  0.00    -0.000 C 
BRANCH  11  12
ATOM     12  C   UNL     1      18.420  23.011  10.599  1.00  0.00    -0.000 C 
BRANCH  12  13
ATOM     13  C   UNL     1      17.171  23.903  10.710  1.00  0.00    -0.000 C 
BRANCH  13  14
ATOM     14  C   UNL     1      17.325  25.231   9.952  1.00  0.00    -0.000 C 
BRANCH  14  15
ATOM     15  C   UNL     1      18.782  25.528   9.566  1.00  0.00    -0.003 C 
ATOM     16  C   UNL     1      18.909  26.903   8.915  1.00  0.00     0.004 C 
ENDBRANCH  14  15
ENDBRANCH  13  14
ENDBRANCH  12  13
ENDBRANCH  11  12
ENDBRANCH  10  11
ENDBRANCH   1  10
TORSDOF 12
ENDMDL
MODEL 5
REMARK VINA RESULT:    -4.889      2.952      6.459
REMARK INTER + INTRA:          -9.937
REMARK INTER:                  -8.646
REMARK INTRA:                  -1.291
REMARK UNBOUND:                -1.618
REMARK SMILES CCCCCCCCCCCCCC(=O)[O-]
REMARK SMILES IDX 8 1 9 2 10 3 11 4 12 5 13 6 14 7 15 8 16 9 7 10 6 11 5 12
REMARK SMILES IDX 4 13 3 14 2 15 1 16
REMARK H PARENT
REMARK Flexibility Score: inf
ROOT
ATOM      1  C   UNL     1      20.612  22.815   9.851  1.00  0.00     0.000 C 
ENDROOT
BRANCH   1   2
ATOM      2  C   UNL     1      19.286  22.038   9.852  1.00  0.00     0.000 C 
BRANCH   2   3
ATOM      3  C   UNL     1      18.705  21.944  11.268  1.00  0.00     0.000 C 
BRANCH   3   4
ATOM      4  C   UNL     1      17.263  22.470  11.308  1.00  0.00     0.000 C 
BRANCH   4   5
ATOM      5  C   UNL     1      16.926  23.395  10.125  1.00  0.00     0.006 C 
BRANCH   5   6
ATOM      6  C   UNL     1      16.958  24.895  10.474  1.00  0.00     0.053 C 
BRANCH   6   7
ATOM      7  C   UNL     1      17.999  25.647   9.702  1.00  0.00     0.041 C 
ATOM      8  O   UNL     1      19.098  25.944  10.241  1.00  0.00    -0.550 OA
ATOM      9  O   UNL     1      17.744  26.048   8.397  1.00  0.00    -0.550 OA
ENDBRANCH   6   7
ENDBRANCH   5   6
ENDBRANCH   4   5
ENDBRANCH   3   4
ENDBRANCH   2   3
ENDBRANCH   1   2
BRANCH   1  10
ATOM     10  C   UNL     1      21.028  23.272   8.444  1.00  0.00     0.000 C 
BRANCH  10  11
ATOM     11  C   UNL     1      19.840  23.334   7.467  1.00  0.00    -0.000 C 
BRANCH  11  12
ATOM     12  C   UNL     1      20.056  22.468   6.215  1.00  0.00    -0.000 C 
BRANCH  12  13
ATOM     13  C   UNL     1      21.353  21.644   6.287  1.00  0.00    -0.000 C 
BRANCH  13  14
ATOM     14  C   UNL     1      21.732  21.021   4.933  1.00  0.00    -0.000 C 
BRANCH  14  15
ATOM     15  C   UNL     1      22.604  19.765   5.082  1.00  0.00    -0.003 C 
ATOM     16  C   UNL     1      22.881  19.459   6.551  1.00  0.00     0.004 C 
ENDBRANCH  14  15
ENDBRANCH  13  14
ENDBRANCH  12  13
ENDBRANCH  11  12
ENDBRANCH  10  11
ENDBRANCH   1  10
TORSDOF 12
ENDMDL
MODEL 6
REMARK VINA RESULT:    -4.861      1.857      2.156
REMARK INTER + INTRA:          -9.889
REMARK INTER:                  -8.288
REMARK INTRA:                  -1.601
REMARK UNBOUND:                -1.618
REMARK SMILES CCCCCCCCCCCCCC(=O)[O-]
REMARK SMILES IDX 8 1 9 2 10 3 11 4 12 5 13 6 14 7 15 8 16 9 7 10 6 11 5 12
REMARK SMILES IDX 4 13 3 14 2 15 1 16
REMARK H PARENT
REMARK Flexibility Score: inf
ROOT
ATOM      1  C   UNL     1      20.338  23.311  10.368  1.00  0.00     0.000 C 
ENDROOT
BRANCH   1   2
ATOM      2  C   UNL     1      21.358  22.663   9.420  1.00  0.00     0.000 C 
BRANCH   2   3
ATOM      3  C   UNL     1      21.382  23.381   8.065  1.00  0.00     0.000 C 
BRANCH   3   4
ATOM      4  C   UNL     1      21.222  22.383   6.909  1.00  0.00     0.000 C 
BRANCH   4   5
ATOM      5  C   UNL     1      19.850  22.476   6.217  1.00  0.00     0.006 C 
BRANCH   5   6
ATOM      6  C   UNL     1      19.756  21.678   4.903  1.00  0.00     0.053 C 
BRANCH   6   7
ATOM      7  C   UNL     1      20.271  20.278   5.038  1.00  0.00     0.041 C 
ATOM      8  O   UNL     1      21.242  19.887   4.337  1.00  0.00    -0.550 OA
ATOM      9  O   UNL     1      19.659  19.393   5.917  1.00  0.00    -0.550 OA
ENDBRANCH   6   7
ENDBRANCH   5   6
ENDBRANCH   4   5
ENDBRANCH   3   4
ENDBRANCH   2   3
ENDBRANCH   1   2
BRANCH   1  10
ATOM     10  C   UNL     1      19.171  22.372  10.712  1.00  0.00     0.000 C 
BRANCH  10  11
ATOM     11  C   UNL     1      18.249  22.108   9.508  1.00  0.00    -0.000 C 
BRANCH  11  12
ATOM     12  C   UNL     1      17.064  23.084   9.442  1.00  0.00    -0.000 C 
BRANCH  12  13
ATOM     13  C   UNL     1      17.132  24.011   8.216  1.00  0.00    -0.000 C 
BRANCH  13  14
ATOM     14  C   UNL     1      17.302  25.489   8.602  1.00  0.00    -0.000 C 
BRANCH  14  15
ATOM     15  C   UNL     1      18.757  25.968   8.486  1.00  0.00    -0.003 C 
ATOM     16  C   UNL     1      18.964  27.282   9.234  1.00  0.00     0.004 C 
ENDBRANCH  14  15
ENDBRANCH  13  14
ENDBRANCH  12  13
ENDBRANCH  11  12
ENDBRANCH  10  11
ENDBRANCH   1  10
TORSDOF 12
ENDMDL
MODEL 7
REMARK VINA RESULT:    -4.850      3.423      6.143
REMARK INTER + INTRA:          -9.870
REMARK INTER:                  -8.005
REMARK INTRA:                  -1.865
REMARK UNBOUND:                -1.618
REMARK SMILES CCCCCCCCCCCCCC(=O)[O-]
REMARK SMILES IDX 8 1 9 2 10 3 11 4 12 5 13 6 14 7 15 8 16 9 7 10 6 11 5 12
REMARK SMILES IDX 4 13 3 14 2 15 1 16
REMARK H PARENT
REMARK Flexibility Score: inf
ROOT
ATOM      1  C   UNL     1      20.249  23.013  10.307  1.00  0.00     0.000 C 
ENDROOT
BRANCH   1   2
ATOM      2  C   UNL     1      18.943  22.221  10.479  1.00  0.00     0.000 C 
BRANCH   2   3
ATOM      3  C   UNL     1      17.724  23.150  10.412  1.00  0.00     0.000 C 
BRANCH   3   4
ATOM      4  C   UNL     1      17.274  23.365   8.960  1.00  0.00     0.000 C 
BRANCH   4   5
ATOM      5  C   UNL     1      17.075  24.849   8.603  1.00  0.00     0.006 C 
BRANCH   5   6
ATOM      6  C   UNL     1      18.389  25.639   8.455  1.00  0.00     0.053 C 
BRANCH   6   7
ATOM      7  C   UNL     1      18.281  27.044   8.964  1.00  0.00     0.041 C 
ATOM      8  O   UNL     1      19.317  27.688   9.275  1.00  0.00    -0.550 OA
ATOM      9  O   UNL     1      17.033  27.631   9.123  1.00  0.00    -0.550 OA
ENDBRANCH   6   7
ENDBRANCH   5   6
ENDBRANCH   4   5
ENDBRANCH   3   4
ENDBRANCH   2   3
ENDBRANCH   1   2
BRANCH   1  10
ATOM     10  C   UNL     1      21.177  22.401   9.247  1.00  0.00     0.000 C 
BRANCH  10  11
ATOM     11  C   UNL     1      21.299  23.281   7.989  1.00  0.00    -0.000 C 
BRANCH  11  12
ATOM     12  C   UNL     1      20.310  22.876   6.884  1.00  0.00    -0.000 C 
BRANCH  12  13
ATOM     13  C   UNL     1      20.785  21.647   6.089  1.00  0.00    -0.000 C 
BRANCH  13  14
ATOM     14  C   UNL     1      20.052  20.360   6.500  1.00  0.00    -0.000 C 
BRANCH  14  15
ATOM     15  C   UNL     1      18.564  20.594   6.797  1.00  0.00    -0.003 C 
ATOM     16  C   UNL     1      18.086  19.707   7.943  1.00  0.00     0.004 C 
ENDBRANCH  14  15
ENDBRANCH  13  14
ENDBRANCH  12  13
ENDBRANCH  11  12
ENDBRANCH  10  11
ENDBRANCH   1  10
TORSDOF 12
ENDMDL
MODEL 8
REMARK VINA RESULT:    -4.838      1.457      3.124
REMARK INTER + INTRA:          -9.849
REMARK INTER:                  -8.025
REMARK INTRA:                  -1.825
REMARK UNBOUND:                -1.618
REMARK SMILES CCCCCCCCCCCCCC(=O)[O-]
REMARK SMILES IDX 8 1 9 2 10 3 11 4 12 5 13 6 14 7 15 8 16 9 7 10 6 11 5 12
REMARK SMILES IDX 4 13 3 14 2 15 1 16
REMARK H PARENT
REMARK Flexibility Score: inf
ROOT
ATOM      1  C   UNL     1      19.544  22.655  10.470  1.00  0.00     0.000 C 
ENDROOT
BRANCH   1   2
ATOM      2  C   UNL     1      20.898  23.359  10.286  1.00  0.00     0.000 C 
BRANCH   2   3
ATOM      3  C   UNL     1      21.730  22.673   9.195  1.00  0.00     0.000 C 
BRANCH   3   4
ATOM      4  C   UNL     1      21.304  23.146   7.798  1.00  0.00     0.000 C 
BRANCH   4   5
ATOM      5  C   UNL     1      21.580  22.105   6.699  1.00  0.00     0.006 C 
BRANCH   5   6
ATOM      6  C   UNL     1      21.671  20.657   7.216  1.00  0.00     0.053 C 
BRANCH   6   7
ATOM      7  C   UNL     1      22.399  19.749   6.272  1.00  0.00     0.041 C 
ATOM      8  O   UNL     1      23.544  19.315   6.565  1.00  0.00    -0.550 OA
ATOM      9  O   UNL     1      21.826  19.408   5.054  1.00  0.00    -0.550 OA
ENDBRANCH   6   7
ENDBRANCH   5   6
ENDBRANCH   4   5
ENDBRANCH   3   4
ENDBRANCH   2   3
ENDBRANCH   1   2
BRANCH   1  10
ATOM     10  C   UNL     1      18.352  23.590  10.210  1.00  0.00     0.000 C 
BRANCH  10  11
ATOM     11  C   UNL     1      18.790  24.997   9.763  1.00  0.00    -0.000 C 
BRANCH  11  12
ATOM     12  C   UNL     1      18.347  25.328   8.329  1.00  0.00    -0.000 C 
BRANCH  12  13
ATOM     13  C   UNL     1      17.354  24.297   7.766  1.00  0.00    -0.000 C 
BRANCH  13  14
ATOM     14  C   UNL     1      17.893  23.577   6.520  1.00  0.00    -0.000 C 
BRANCH  14  15
ATOM     15  C   UNL     1      17.826  22.048   6.643  1.00  0.00    -0.003 C 
ATOM     16  C   UNL     1      18.264  21.372   5.347  1.00  0.00     0.004 C 
ENDBRANCH  14  15
ENDBRANCH  13  14
ENDBRANCH  12  13
ENDBRANCH  11  12
ENDBRANCH  10  11
ENDBRANCH   1  10
TORSDOF 12
ENDMDL
MODEL 9
REMARK VINA RESULT:    -4.765      1.455      3.179
REMARK INTER + INTRA:          -9.726
REMARK INTER:                  -7.546
REMARK INTRA:                  -2.180
REMARK UNBOUND:                -1.618
REMARK SMILES CCCCCCCCCCCCCC(=O)[O-]
REMARK SMILES IDX 8 1 9 2 10 3 11 4 12 5 13 6 14 7 15 8 16 9 7 10 6 11 5 12
REMARK SMILES IDX 4 13 3 14 2 15 1 16
REMARK H PARENT
REMARK Flexibility Score: inf
ROOT
ATOM      1  C   UNL     1      17.746  23.518   6.558  1.00  0.00     0.000 C 
ENDROOT
BRANCH   1   2
ATOM      2  C   UNL     1      17.617  21.989   6.616  1.00  0.00     0.000 C 
BRANCH   2   3
ATOM      3  C   UNL     1      18.948  21.311   6.269  1.00  0.00     0.000 C 
BRANCH   3   4
ATOM      4  C   UNL     1      20.038  22.353   5.979  1.00  0.00     0.000 C 
BRANCH   4   5
ATOM      5  C   UNL     1      21.413  21.963   6.549  1.00  0.00     0.006 C 
BRANCH   5   6
ATOM      6  C   UNL     1      21.457  20.553   7.168  1.00  0.00     0.053 C 
BRANCH   6   7
ATOM      7  C   UNL     1      22.283  19.594   6.367  1.00  0.00     0.041 C 
ATOM      8  O   UNL     1      21.762  18.937   5.428  1.00  0.00    -0.550 OA
ATOM      9  O   UNL     1      23.623  19.401   6.679  1.00  0.00    -0.550 OA
ENDBRANCH   6   7
ENDBRANCH   5   6
ENDBRANCH   4   5
ENDBRANCH   3   4
ENDBRANCH   2   3
ENDBRANCH   1   2
BRANCH   1  10
ATOM     10  C   UNL     1      16.875  24.225   7.609  1.00  0.00     0.000 C 
BRANCH  10  11
ATOM     11  C   UNL     1      17.647  25.308   8.385  1.00  0.00    -0.000 C 
BRANCH  11  12
ATOM     12  C   UNL     1      19.135  24.967   8.557  1.00  0.00    -0.000 C 
BRANCH  12  13
ATOM     13  C   UNL     1      19.432  24.289   9.906  1.00  0.00    -0.000 C 
BRANCH  13  14
ATOM     14  C   UNL     1      20.125  22.927   9.742  1.00  0.00    -0.000 C 
BRANCH  14  15
ATOM     15  C   UNL     1      19.206  21.748  10.095  1.00  0.00    -0.003 C 
ATOM     16  C   UNL     1      17.952  22.227  10.822  1.00  0.00     0.004 C 
ENDBRANCH  14  15
ENDBRANCH  13  14
ENDBRANCH  12  13
ENDBRANCH  11  12
ENDBRANCH  10  11
ENDBRANCH   1  10
TORSDOF 12
ENDMDL
