MODEL 1
REMARK VINA RESULT:    -5.850      0.000      0.000
REMARK INTER + INTRA:          -7.375
REMARK INTER:                  -7.047
REMARK INTRA:                  -0.328
REMARK UNBOUND:                -0.328
REMARK SMILES O=c1c(O)c(-c2ccc(O)c(O)c2)oc2cc(O)cc(O)c12
REMARK SMILES IDX 5 1 3 2 2 3 1 4 22 5 20 6 19 7 17 8 16 9 15 10 14 11 6 12
REMARK SMILES IDX 7 13 8 14 9 15 13 16 11 17 10 18 12 20 4 22 21 24 18 26
REMARK H PARENT 10 19 12 21 4 23 21 25 18 27
REMARK Flexibility Score: inf
ROOT
ATOM      1  C   UNL     1      14.297   5.334  19.712  1.00  0.00     0.180 A 
ATOM      2  C   UNL     1      15.546   5.975  19.636  1.00  0.00     0.208 A 
ATOM      3  C   UNL     1      15.978   6.755  20.720  1.00  0.00     0.238 A 
ATOM      4  O   UNL     1      17.120   7.282  20.669  1.00  0.00    -0.285 OA
ATOM      5  C   UNL     1      15.149   6.899  21.859  1.00  0.00     0.111 A 
ATOM      6  C   UNL     1      15.469   7.699  22.998  1.00  0.00     0.134 A 
ATOM      7  C   UNL     1      14.635   7.664  24.122  1.00  0.00     0.093 A 
ATOM      8  C   UNL     1      13.459   6.908  24.123  1.00  0.00     0.123 A 
ATOM      9  C   UNL     1      13.109   6.172  22.995  1.00  0.00     0.094 A 
ATOM     10  C   UNL     1      13.939   6.159  21.871  1.00  0.00     0.146 A 
ATOM     11  O   UNL     1      13.572   5.435  20.821  1.00  0.00    -0.452 OA
ENDROOT
BRANCH   1  12
ATOM     12  C   UNL     1      13.763   4.515  18.600  1.00  0.00     0.025 A 
ATOM     13  C   UNL     1      13.900   3.118  18.643  1.00  0.00     0.016 A 
ATOM     14  C   UNL     1      13.385   2.324  17.615  1.00  0.00     0.051 A 
ATOM     15  C   UNL     1      12.712   2.914  16.538  1.00  0.00     0.157 A 
ATOM     16  C   UNL     1      13.068   5.101  17.526  1.00  0.00     0.062 A 
ATOM     17  C   UNL     1      12.549   4.304  16.496  1.00  0.00     0.158 A 
BRANCH  15  18
ATOM     18  O   UNL     1      12.198   2.126  15.510  1.00  0.00    -0.504 OA
ATOM     19  H   UNL     1      12.799   1.713  14.806  1.00  0.00     0.293 HD
ENDBRANCH  15  18
BRANCH  17  20
ATOM     20  O   UNL     1      11.866   4.888  15.429  1.00  0.00    -0.504 OA
ATOM     21  H   UNL     1      11.580   5.860  15.450  1.00  0.00     0.293 HD
ENDBRANCH  17  20
ENDBRANCH   1  12
BRANCH   2  22
ATOM     22  O   UNL     1      16.358   5.801  18.511  1.00  0.00    -0.502 OA
ATOM     23  H   UNL     1      17.157   6.393  18.321  1.00  0.00     0.293 HD
ENDBRANCH   2  22
BRANCH   6  24
ATOM     24  O   UNL     1      16.569   8.558  23.063  1.00  0.00    -0.507 OA
ATOM     25  H   UNL     1      16.777   9.169  23.839  1.00  0.00     0.293 HD
ENDBRANCH   6  24
BRANCH   8  26
ATOM     26  O   UNL     1      12.628   6.892  25.241  1.00  0.00    -0.508 OA
ATOM     27  H   UNL     1      12.952   7.204  26.149  1.00  0.00     0.293 HD
ENDBRANCH   8  26
TORSDOF 6
ENDMDL
MODEL 2
REMARK VINA RESULT:    -5.810      1.625      7.050
REMARK INTER + INTRA:          -7.326
REMARK INTER:                  -7.006
REMARK INTRA:                  -0.321
REMARK UNBOUND:                -0.328
REMARK SMILES O=c1c(O)c(-c2ccc(O)c(O)c2)oc2cc(O)cc(O)c12
REMARK SMILES IDX 5 1 3 2 2 3 1 4 22 5 20 6 19 7 17 8 16 9 15 10 14 11 6 12
REMARK SMILES IDX 7 13 8 14 9 15 13 16 11 17 10 18 12 20 4 22 21 24 18 26
REMARK H PARENT 10 19 12 21 4 23 21 25 18 27
REMARK Flexibility Score: inf
ROOT
ATOM      1  C   UNL     1      13.307   6.026  20.393  1.00  0.00     0.180 A 
ATOM      2  C   UNL     1      12.588   6.881  19.539  1.00  0.00     0.208 A 
ATOM      3  C   UNL     1      12.247   6.430  18.254  1.00  0.00     0.238 A 
ATOM      4  O   UNL     1      11.557   7.180  17.515  1.00  0.00    -0.285 OA
ATOM      5  C   UNL     1      12.641   5.138  17.833  1.00  0.00     0.111 A 
ATOM      6  C   UNL     1      12.385   4.594  16.538  1.00  0.00     0.134 A 
ATOM      7  C   UNL     1      12.706   3.257  16.274  1.00  0.00     0.093 A 
ATOM      8  C   UNL     1      13.334   2.464  17.238  1.00  0.00     0.123 A 
ATOM      9  C   UNL     1      13.643   3.004  18.485  1.00  0.00     0.094 A 
ATOM     10  C   UNL     1      13.302   4.324  18.789  1.00  0.00     0.146 A 
ATOM     11  O   UNL     1      13.605   4.795  19.992  1.00  0.00    -0.452 OA
ENDROOT
BRANCH   1  12
ATOM     12  C   UNL     1      13.725   6.438  21.752  1.00  0.00     0.025 A 
ATOM     13  C   UNL     1      14.972   7.058  21.934  1.00  0.00     0.016 A 
ATOM     14  C   UNL     1      15.376   7.475  23.205  1.00  0.00     0.051 A 
ATOM     15  C   UNL     1      14.534   7.291  24.309  1.00  0.00     0.157 A 
ATOM     16  C   UNL     1      12.874   6.275  22.861  1.00  0.00     0.062 A 
ATOM     17  C   UNL     1      13.279   6.695  24.136  1.00  0.00     0.158 A 
BRANCH  15  18
ATOM     18  O   UNL     1      14.934   7.704  25.579  1.00  0.00    -0.504 OA
ATOM     19  H   UNL     1      15.317   7.051  26.253  1.00  0.00     0.293 HD
ENDBRANCH  15  18
BRANCH  17  20
ATOM     20  O   UNL     1      12.436   6.527  25.234  1.00  0.00    -0.504 OA
ATOM     21  H   UNL     1      11.468   6.250  25.123  1.00  0.00     0.293 HD
ENDBRANCH  17  20
ENDBRANCH   1  12
BRANCH   2  22
ATOM     22  O   UNL     1      12.190   8.145  19.984  1.00  0.00    -0.502 OA
ATOM     23  H   UNL     1      12.854   8.854  20.272  1.00  0.00     0.293 HD
ENDBRANCH   2  22
BRANCH   6  24
ATOM     24  O   UNL     1      11.845   5.327  15.477  1.00  0.00    -0.507 OA
ATOM     25  H   UNL     1      11.905   5.062  14.505  1.00  0.00     0.293 HD
ENDBRANCH   6  24
BRANCH   8  26
ATOM     26  O   UNL     1      13.664   1.139  16.962  1.00  0.00    -0.508 OA
ATOM     27  H   UNL     1      14.567   0.886  16.578  1.00  0.00     0.293 HD
ENDBRANCH   8  26
TORSDOF 6
ENDMDL
MODEL 3
REMARK VINA RESULT:    -5.690      9.761     11.769
REMARK INTER + INTRA:          -7.182
REMARK INTER:                  -6.859
REMARK INTRA:                  -0.323
REMARK UNBOUND:                -0.328
REMARK SMILES O=c1c(O)c(-c2ccc(O)c(O)c2)oc2cc(O)cc(O)c12
REMARK SMILES IDX 5 1 3 2 2 3 1 4 22 5 20 6 19 7 17 8 16 9 15 10 14 11 6 12
REMARK SMILES IDX 7 13 8 14 9 15 13 16 11 17 10 18 12 20 4 22 21 24 18 26
REMARK H PARENT 10 19 12 21 4 23 21 25 18 27
REMARK Flexibility Score: inf
ROOT
ATOM      1  C   UNL     1       8.747  13.995  20.795  1.00  0.00     0.180 A 
ATOM      2  C   UNL     1       8.522  12.965  19.865  1.00  0.00     0.208 A 
ATOM      3  C   UNL     1       7.272  12.325  19.846  1.00  0.00     0.238 A 
ATOM      4  O   UNL     1       7.059  11.442  18.975  1.00  0.00    -0.285 OA
ATOM      5  C   UNL     1       6.269  12.712  20.767  1.00  0.00     0.111 A 
ATOM      6  C   UNL     1       4.981  12.105  20.863  1.00  0.00     0.134 A 
ATOM      7  C   UNL     1       4.021  12.654  21.722  1.00  0.00     0.093 A 
ATOM      8  C   UNL     1       4.325  13.749  22.536  1.00  0.00     0.123 A 
ATOM      9  C   UNL     1       5.599  14.311  22.492  1.00  0.00     0.094 A 
ATOM     10  C   UNL     1       6.566  13.807  21.619  1.00  0.00     0.146 A 
ATOM     11  O   UNL     1       7.763  14.379  21.601  1.00  0.00    -0.452 OA
ENDROOT
BRANCH   1  12
ATOM     12  C   UNL     1      10.046  14.699  20.892  1.00  0.00     0.025 A 
ATOM     13  C   UNL     1      11.056  14.176  21.715  1.00  0.00     0.016 A 
ATOM     14  C   UNL     1      12.296  14.813  21.805  1.00  0.00     0.051 A 
ATOM     15  C   UNL     1      12.550  15.973  21.062  1.00  0.00     0.157 A 
ATOM     16  C   UNL     1      10.312  15.853  20.132  1.00  0.00     0.062 A 
ATOM     17  C   UNL     1      11.557  16.491  20.220  1.00  0.00     0.158 A 
BRANCH  15  18
ATOM     18  O   UNL     1      13.785  16.611  21.149  1.00  0.00    -0.504 OA
ATOM     19  H   UNL     1      14.178  17.117  20.364  1.00  0.00     0.293 HD
ENDBRANCH  15  18
BRANCH  17  20
ATOM     20  O   UNL     1      11.817  17.637  19.470  1.00  0.00    -0.504 OA
ATOM     21  H   UNL     1      12.749  17.854  19.137  1.00  0.00     0.293 HD
ENDBRANCH  17  20
ENDBRANCH   1  12
BRANCH   2  22
ATOM     22  O   UNL     1       9.520  12.614  18.950  1.00  0.00    -0.502 OA
ATOM     23  H   UNL     1       9.575  13.022  18.024  1.00  0.00     0.293 HD
ENDBRANCH   2  22
BRANCH   6  24
ATOM     24  O   UNL     1       4.606  10.954  20.164  1.00  0.00    -0.507 OA
ATOM     25  H   UNL     1       4.979  10.032  20.331  1.00  0.00     0.293 HD
ENDBRANCH   6  24
BRANCH   8  26
ATOM     26  O   UNL     1       3.369  14.279  23.399  1.00  0.00    -0.508 OA
ATOM     27  H   UNL     1       2.481  13.817  23.555  1.00  0.00     0.293 HD
ENDBRANCH   8  26
TORSDOF 6
ENDMDL
MODEL 4
REMARK VINA RESULT:    -5.597      3.350      4.325
REMARK INTER + INTRA:          -7.070
REMARK INTER:                  -6.781
REMARK INTRA:                  -0.289
REMARK UNBOUND:                -0.328
REMARK SMILES O=c1c(O)c(-c2ccc(O)c(O)c2)oc2cc(O)cc(O)c12
REMARK SMILES IDX 5 1 3 2 2 3 1 4 22 5 20 6 19 7 17 8 16 9 15 10 14 11 6 12
REMARK SMILES IDX 7 13 8 14 9 15 13 16 11 17 10 18 12 20 4 22 21 24 18 26
REMARK H PARENT 10 19 12 21 4 23 21 25 18 27
REMARK Flexibility Score: inf
ROOT
ATOM      1  C   UNL     1      14.491   7.079  18.107  1.00  0.00     0.180 A 
ATOM      2  C   UNL     1      15.423   6.947  19.152  1.00  0.00     0.208 A 
ATOM      3  C   UNL     1      14.966   6.594  20.432  1.00  0.00     0.238 A 
ATOM      4  O   UNL     1      15.811   6.424  21.349  1.00  0.00    -0.285 OA
ATOM      5  C   UNL     1      13.583   6.393  20.655  1.00  0.00     0.111 A 
ATOM      6  C   UNL     1      13.005   6.072  21.920  1.00  0.00     0.134 A 
ATOM      7  C   UNL     1      11.641   5.767  22.000  1.00  0.00     0.093 A 
ATOM      8  C   UNL     1      10.821   5.835  20.869  1.00  0.00     0.123 A 
ATOM      9  C   UNL     1      11.365   6.205  19.642  1.00  0.00     0.094 A 
ATOM     10  C   UNL     1      12.730   6.480  19.525  1.00  0.00     0.146 A 
ATOM     11  O   UNL     1      13.208   6.819  18.334  1.00  0.00    -0.452 OA
ENDROOT
BRANCH   1  12
ATOM     12  C   UNL     1      14.893   7.472  16.738  1.00  0.00     0.025 A 
ATOM     13  C   UNL     1      14.754   8.810  16.334  1.00  0.00     0.016 A 
ATOM     14  C   UNL     1      15.147   9.207  15.053  1.00  0.00     0.051 A 
ATOM     15  C   UNL     1      15.698   8.276  14.163  1.00  0.00     0.157 A 
ATOM     16  C   UNL     1      15.466   6.545  15.848  1.00  0.00     0.062 A 
ATOM     17  C   UNL     1      15.862   6.944  14.563  1.00  0.00     0.158 A 
BRANCH  15  18
ATOM     18  O   UNL     1      16.090   8.667  12.885  1.00  0.00    -0.504 OA
ATOM     19  H   UNL     1      17.055   8.893  12.672  1.00  0.00     0.293 HD
ENDBRANCH  15  18
BRANCH  17  20
ATOM     20  O   UNL     1      16.424   6.022  13.681  1.00  0.00    -0.504 OA
ATOM     21  H   UNL     1      16.723   6.291  12.751  1.00  0.00     0.293 HD
ENDBRANCH  17  20
ENDBRANCH   1  12
BRANCH   2  22
ATOM     22  O   UNL     1      16.787   7.129  18.903  1.00  0.00    -0.502 OA
ATOM     23  H   UNL     1      17.130   7.760  18.189  1.00  0.00     0.293 HD
ENDBRANCH   2  22
BRANCH   6  24
ATOM     24  O   UNL     1      13.716   6.066  23.124  1.00  0.00    -0.507 OA
ATOM     25  H   UNL     1      13.326   5.821  24.022  1.00  0.00     0.293 HD
ENDBRANCH   6  24
BRANCH   8  26
ATOM     26  O   UNL     1       9.462   5.545  20.960  1.00  0.00    -0.508 OA
ATOM     27  H   UNL     1       8.791   5.936  20.309  1.00  0.00     0.293 HD
ENDBRANCH   8  26
TORSDOF 6
ENDMDL
MODEL 5
REMARK VINA RESULT:    -5.587     15.347     16.201
REMARK INTER + INTRA:          -7.058
REMARK INTER:                  -6.769
REMARK INTRA:                  -0.288
REMARK UNBOUND:                -0.328
REMARK SMILES O=c1c(O)c(-c2ccc(O)c(O)c2)oc2cc(O)cc(O)c12
REMARK SMILES IDX 5 1 3 2 2 3 1 4 22 5 20 6 19 7 17 8 16 9 15 10 14 11 6 12
REMARK SMILES IDX 7 13 8 14 9 15 13 16 11 17 10 18 12 20 4 22 21 24 18 26
REMARK H PARENT 10 19 12 21 4 23 21 25 18 27
REMARK Flexibility Score: inf
ROOT
ATOM      1  C   UNL     1       6.875  17.134  28.378  1.00  0.00     0.180 A 
ATOM      2  C   UNL     1       7.992  17.572  27.645  1.00  0.00     0.208 A 
ATOM      3  C   UNL     1       9.275  17.397  28.188  1.00  0.00     0.238 A 
ATOM      4  O   UNL     1      10.273  17.742  27.503  1.00  0.00    -0.285 OA
ATOM      5  C   UNL     1       9.425  16.802  29.463  1.00  0.00     0.111 A 
ATOM      6  C   UNL     1      10.674  16.612  30.126  1.00  0.00     0.134 A 
ATOM      7  C   UNL     1      10.717  15.894  31.327  1.00  0.00     0.093 A 
ATOM      8  C   UNL     1       9.545  15.414  31.922  1.00  0.00     0.123 A 
ATOM      9  C   UNL     1       8.315  15.646  31.311  1.00  0.00     0.094 A 
ATOM     10  C   UNL     1       8.245  16.329  30.094  1.00  0.00     0.146 A 
ATOM     11  O   UNL     1       7.054  16.519  29.542  1.00  0.00    -0.452 OA
ENDROOT
BRANCH   1  12
ATOM     12  C   UNL     1       5.490  17.306  27.883  1.00  0.00     0.025 A 
ATOM     13  C   UNL     1       4.871  18.562  27.984  1.00  0.00     0.016 A 
ATOM     14  C   UNL     1       3.573  18.752  27.504  1.00  0.00     0.051 A 
ATOM     15  C   UNL     1       2.881  17.692  26.903  1.00  0.00     0.157 A 
ATOM     16  C   UNL     1       4.799  16.250  27.260  1.00  0.00     0.062 A 
ATOM     17  C   UNL     1       3.497  16.441  26.777  1.00  0.00     0.158 A 
BRANCH  15  18
ATOM     18  O   UNL     1       1.585  17.877  26.424  1.00  0.00    -0.504 OA
ATOM     19  H   UNL     1       0.786  17.453  26.880  1.00  0.00     0.293 HD
ENDBRANCH  15  18
BRANCH  17  20
ATOM     20  O   UNL     1       2.811  15.392  26.166  1.00  0.00    -0.504 OA
ATOM     21  H   UNL     1       2.268  15.534  25.322  1.00  0.00     0.293 HD
ENDBRANCH  17  20
ENDBRANCH   1  12
BRANCH   2  22
ATOM     22  O   UNL     1       7.822  18.138  26.377  1.00  0.00    -0.502 OA
ATOM     23  H   UNL     1       8.277  19.000  26.102  1.00  0.00     0.293 HD
ENDBRANCH   2  22
BRANCH   6  24
ATOM     24  O   UNL     1      11.889  17.128  29.665  1.00  0.00    -0.507 OA
ATOM     25  H   UNL     1      12.124  17.266  28.694  1.00  0.00     0.293 HD
ENDBRANCH   6  24
BRANCH   8  26
ATOM     26  O   UNL     1       9.595  14.714  33.125  1.00  0.00    -0.508 OA
ATOM     27  H   UNL     1      10.477  14.448  33.548  1.00  0.00     0.293 HD
ENDBRANCH   8  26
TORSDOF 6
ENDMDL
MODEL 6
REMARK VINA RESULT:    -5.476      5.394      6.940
REMARK INTER + INTRA:          -6.924
REMARK INTER:                  -6.621
REMARK INTRA:                  -0.303
REMARK UNBOUND:                -0.328
REMARK SMILES O=c1c(O)c(-c2ccc(O)c(O)c2)oc2cc(O)cc(O)c12
REMARK SMILES IDX 5 1 3 2 2 3 1 4 22 5 20 6 19 7 17 8 16 9 15 10 14 11 6 12
REMARK SMILES IDX 7 13 8 14 9 15 13 16 11 17 10 18 12 20 4 22 21 24 18 26
REMARK H PARENT 10 19 12 21 4 23 21 25 18 27
REMARK Flexibility Score: inf
ROOT
ATOM      1  C   UNL     1       9.861   8.012  19.309  1.00  0.00     0.180 A 
ATOM      2  C   UNL     1      10.569   7.847  18.105  1.00  0.00     0.208 A 
ATOM      3  C   UNL     1      11.596   6.891  18.045  1.00  0.00     0.238 A 
ATOM      4  O   UNL     1      12.190   6.711  16.950  1.00  0.00    -0.285 OA
ATOM      5  C   UNL     1      11.912   6.124  19.192  1.00  0.00     0.111 A 
ATOM      6  C   UNL     1      12.960   5.157  19.256  1.00  0.00     0.134 A 
ATOM      7  C   UNL     1      13.099   4.363  20.401  1.00  0.00     0.093 A 
ATOM      8  C   UNL     1      12.268   4.548  21.510  1.00  0.00     0.123 A 
ATOM      9  C   UNL     1      11.282   5.531  21.480  1.00  0.00     0.094 A 
ATOM     10  C   UNL     1      11.096   6.313  20.337  1.00  0.00     0.146 A 
ATOM     11  O   UNL     1      10.137   7.231  20.347  1.00  0.00    -0.452 OA
ENDROOT
BRANCH   1  12
ATOM     12  C   UNL     1       8.782   9.016  19.457  1.00  0.00     0.025 A 
ATOM     13  C   UNL     1       7.442   8.596  19.452  1.00  0.00     0.016 A 
ATOM     14  C   UNL     1       6.410   9.524  19.611  1.00  0.00     0.051 A 
ATOM     15  C   UNL     1       6.703  10.882  19.793  1.00  0.00     0.157 A 
ATOM     16  C   UNL     1       9.072  10.378  19.661  1.00  0.00     0.062 A 
ATOM     17  C   UNL     1       8.036  11.308  19.823  1.00  0.00     0.158 A 
BRANCH  15  18
ATOM     18  O   UNL     1       5.676  11.810  19.952  1.00  0.00    -0.504 OA
ATOM     19  H   UNL     1       5.590  12.616  19.342  1.00  0.00     0.293 HD
ENDBRANCH  15  18
BRANCH  17  20
ATOM     20  O   UNL     1       8.325  12.658  20.019  1.00  0.00    -0.504 OA
ATOM     21  H   UNL     1       8.671  13.004  20.907  1.00  0.00     0.293 HD
ENDBRANCH  17  20
ENDBRANCH   1  12
BRANCH   2  22
ATOM     22  O   UNL     1      10.225   8.600  16.979  1.00  0.00    -0.502 OA
ATOM     23  H   UNL     1       9.336   9.079  16.896  1.00  0.00     0.293 HD
ENDBRANCH   2  22
BRANCH   6  24
ATOM     24  O   UNL     1      13.899   4.956  18.240  1.00  0.00    -0.507 OA
ATOM     25  H   UNL     1      13.837   5.348  17.313  1.00  0.00     0.293 HD
ENDBRANCH   6  24
BRANCH   8  26
ATOM     26  O   UNL     1      12.424   3.765  22.651  1.00  0.00    -0.508 OA
ATOM     27  H   UNL     1      13.305   3.722  23.150  1.00  0.00     0.293 HD
ENDBRANCH   8  26
TORSDOF 6
ENDMDL
MODEL 7
REMARK VINA RESULT:    -5.432      3.223      4.783
REMARK INTER + INTRA:          -6.871
REMARK INTER:                  -6.629
REMARK INTRA:                  -0.242
REMARK UNBOUND:                -0.328
REMARK SMILES O=c1c(O)c(-c2ccc(O)c(O)c2)oc2cc(O)cc(O)c12
REMARK SMILES IDX 5 1 3 2 2 3 1 4 22 5 20 6 19 7 17 8 16 9 15 10 14 11 6 12
REMARK SMILES IDX 7 13 8 14 9 15 13 16 11 17 10 18 12 20 4 22 21 24 18 26
REMARK H PARENT 10 19 12 21 4 23 21 25 18 27
REMARK Flexibility Score: inf
ROOT
ATOM      1  C   UNL     1      13.193   7.309  18.400  1.00  0.00     0.180 A 
ATOM      2  C   UNL     1      11.788   7.271  18.357  1.00  0.00     0.208 A 
ATOM      3  C   UNL     1      11.080   6.923  19.518  1.00  0.00     0.238 A 
ATOM      4  O   UNL     1       9.822   6.944  19.488  1.00  0.00    -0.285 OA
ATOM      5  C   UNL     1      11.785   6.603  20.703  1.00  0.00     0.111 A 
ATOM      6  C   UNL     1      11.171   6.198  21.927  1.00  0.00     0.134 A 
ATOM      7  C   UNL     1      11.958   6.032  23.073  1.00  0.00     0.093 A 
ATOM      8  C   UNL     1      13.346   6.193  23.023  1.00  0.00     0.123 A 
ATOM      9  C   UNL     1      13.961   6.530  21.819  1.00  0.00     0.094 A 
ATOM     10  C   UNL     1      13.197   6.737  20.668  1.00  0.00     0.146 A 
ATOM     11  O   UNL     1      13.822   7.068  19.544  1.00  0.00    -0.452 OA
ENDROOT
BRANCH   1  12
ATOM     12  C   UNL     1      14.009   7.643  17.210  1.00  0.00     0.025 A 
ATOM     13  C   UNL     1      14.087   8.976  16.777  1.00  0.00     0.016 A 
ATOM     14  C   UNL     1      14.868   9.316  15.670  1.00  0.00     0.051 A 
ATOM     15  C   UNL     1      15.595   8.331  14.989  1.00  0.00     0.157 A 
ATOM     16  C   UNL     1      14.757   6.660  16.536  1.00  0.00     0.062 A 
ATOM     17  C   UNL     1      15.543   7.001  15.426  1.00  0.00     0.158 A 
BRANCH  15  18
ATOM     18  O   UNL     1      16.374   8.666  13.884  1.00  0.00    -0.504 OA
ATOM     19  H   UNL     1      17.291   8.259  13.738  1.00  0.00     0.293 HD
ENDBRANCH  15  18
BRANCH  17  20
ATOM     20  O   UNL     1      16.278   6.025  14.756  1.00  0.00    -0.504 OA
ATOM     21  H   UNL     1      16.077   5.776  13.794  1.00  0.00     0.293 HD
ENDBRANCH  17  20
ENDBRANCH   1  12
BRANCH   2  22
ATOM     22  O   UNL     1      11.112   7.613  17.182  1.00  0.00    -0.502 OA
ATOM     23  H   UNL     1      10.922   8.574  16.924  1.00  0.00     0.293 HD
ENDBRANCH   2  22
BRANCH   6  24
ATOM     24  O   UNL     1       9.808   5.921  22.061  1.00  0.00    -0.507 OA
ATOM     25  H   UNL     1       9.379   5.029  21.865  1.00  0.00     0.293 HD
ENDBRANCH   6  24
BRANCH   8  26
ATOM     26  O   UNL     1      14.123   6.011  24.164  1.00  0.00    -0.508 OA
ATOM     27  H   UNL     1      13.704   5.814  25.066  1.00  0.00     0.293 HD
ENDBRANCH   8  26
TORSDOF 6
ENDMDL
MODEL 8
REMARK VINA RESULT:    -5.426      1.713      6.507
REMARK INTER + INTRA:          -6.864
REMARK INTER:                  -6.712
REMARK INTRA:                  -0.152
REMARK UNBOUND:                -0.328
REMARK SMILES O=c1c(O)c(-c2ccc(O)c(O)c2)oc2cc(O)cc(O)c12
REMARK SMILES IDX 5 1 3 2 2 3 1 4 22 5 20 6 19 7 17 8 16 9 15 10 14 11 6 12
REMARK SMILES IDX 7 13 8 14 9 15 13 16 11 17 10 18 12 20 4 22 21 24 18 26
REMARK H PARENT 10 19 12 21 4 23 21 25 18 27
REMARK Flexibility Score: inf
ROOT
ATOM      1  C   UNL     1      13.824   5.888  20.356  1.00  0.00     0.180 A 
ATOM      2  C   UNL     1      15.180   6.074  20.033  1.00  0.00     0.208 A 
ATOM      3  C   UNL     1      15.590   5.919  18.699  1.00  0.00     0.238 A 
ATOM      4  O   UNL     1      16.794   6.141  18.408  1.00  0.00    -0.285 OA
ATOM      5  C   UNL     1      14.643   5.565  17.708  1.00  0.00     0.111 A 
ATOM      6  C   UNL     1      14.955   5.343  16.333  1.00  0.00     0.134 A 
ATOM      7  C   UNL     1      13.919   5.125  15.416  1.00  0.00     0.093 A 
ATOM      8  C   UNL     1      12.588   5.057  15.837  1.00  0.00     0.123 A 
ATOM      9  C   UNL     1      12.280   5.214  17.186  1.00  0.00     0.094 A 
ATOM     10  C   UNL     1      13.289   5.468  18.118  1.00  0.00     0.146 A 
ATOM     11  O   UNL     1      12.949   5.621  19.392  1.00  0.00    -0.452 OA
ENDROOT
BRANCH   1  12
ATOM     12  C   UNL     1      13.320   6.010  21.743  1.00  0.00     0.025 A 
ATOM     13  C   UNL     1      13.352   7.259  22.383  1.00  0.00     0.016 A 
ATOM     14  C   UNL     1      12.862   7.401  23.683  1.00  0.00     0.051 A 
ATOM     15  C   UNL     1      12.320   6.299  24.358  1.00  0.00     0.157 A 
ATOM     16  C   UNL     1      12.756   4.911  22.416  1.00  0.00     0.062 A 
ATOM     17  C   UNL     1      12.262   5.053  23.721  1.00  0.00     0.158 A 
BRANCH  15  18
ATOM     18  O   UNL     1      11.832   6.436  25.655  1.00  0.00    -0.504 OA
ATOM     19  H   UNL     1      11.201   5.753  26.060  1.00  0.00     0.293 HD
ENDBRANCH  15  18
BRANCH  17  20
ATOM     20  O   UNL     1      11.709   3.961  24.389  1.00  0.00    -0.504 OA
ATOM     21  H   UNL     1      10.834   4.036  24.894  1.00  0.00     0.293 HD
ENDBRANCH  17  20
ENDBRANCH   1  12
BRANCH   2  22
ATOM     22  O   UNL     1      16.093   6.445  21.024  1.00  0.00    -0.502 OA
ATOM     23  H   UNL     1      16.140   5.979  21.922  1.00  0.00     0.293 HD
ENDBRANCH   2  22
BRANCH   6  24
ATOM     24  O   UNL     1      16.257   5.299  15.825  1.00  0.00    -0.507 OA
ATOM     25  H   UNL     1      16.626   4.555  15.252  1.00  0.00     0.293 HD
ENDBRANCH   6  24
BRANCH   8  26
ATOM     26  O   UNL     1      11.565   4.824  14.920  1.00  0.00    -0.508 OA
ATOM     27  H   UNL     1      11.524   5.317  14.035  1.00  0.00     0.293 HD
ENDBRANCH   8  26
TORSDOF 6
ENDMDL
MODEL 9
REMARK VINA RESULT:    -5.412      9.715     10.823
REMARK INTER + INTRA:          -6.847
REMARK INTER:                  -6.525
REMARK INTRA:                  -0.322
REMARK UNBOUND:                -0.328
REMARK SMILES O=c1c(O)c(-c2ccc(O)c(O)c2)oc2cc(O)cc(O)c12
REMARK SMILES IDX 5 1 3 2 2 3 1 4 22 5 20 6 19 7 17 8 16 9 15 10 14 11 6 12
REMARK SMILES IDX 7 13 8 14 9 15 13 16 11 17 10 18 12 20 4 22 21 24 18 26
REMARK H PARENT 10 19 12 21 4 23 21 25 18 27
REMARK Flexibility Score: inf
ROOT
ATOM      1  C   UNL     1       9.316  14.095  21.134  1.00  0.00     0.180 A 
ATOM      2  C   UNL     1       9.883  14.104  22.421  1.00  0.00     0.208 A 
ATOM      3  C   UNL     1      11.180  14.612  22.591  1.00  0.00     0.238 A 
ATOM      4  O   UNL     1      11.660  14.667  23.753  1.00  0.00    -0.285 OA
ATOM      5  C   UNL     1      11.901  15.091  21.471  1.00  0.00     0.111 A 
ATOM      6  C   UNL     1      13.237  15.590  21.521  1.00  0.00     0.134 A 
ATOM      7  C   UNL     1      13.806  16.159  20.374  1.00  0.00     0.093 A 
ATOM      8  C   UNL     1      13.109  16.187  19.163  1.00  0.00     0.123 A 
ATOM      9  C   UNL     1      11.827  15.647  19.090  1.00  0.00     0.094 A 
ATOM     10  C   UNL     1      11.220  15.106  20.226  1.00  0.00     0.146 A 
ATOM     11  O   UNL     1       9.993  14.612  20.115  1.00  0.00    -0.452 OA
ENDROOT
BRANCH   1  12
ATOM     12  C   UNL     1       7.964  13.553  20.872  1.00  0.00     0.025 A 
ATOM     13  C   UNL     1       7.812  12.191  20.567  1.00  0.00     0.016 A 
ATOM     14  C   UNL     1       6.543  11.654  20.338  1.00  0.00     0.051 A 
ATOM     15  C   UNL     1       5.406  12.468  20.424  1.00  0.00     0.157 A 
ATOM     16  C   UNL     1       6.817  14.362  20.978  1.00  0.00     0.062 A 
ATOM     17  C   UNL     1       5.543  13.823  20.750  1.00  0.00     0.158 A 
BRANCH  15  18
ATOM     18  O   UNL     1       4.139  11.937  20.194  1.00  0.00    -0.504 OA
ATOM     19  H   UNL     1       3.297  12.444  20.445  1.00  0.00     0.293 HD
ENDBRANCH  15  18
BRANCH  17  20
ATOM     20  O   UNL     1       4.409  14.627  20.849  1.00  0.00    -0.504 OA
ATOM     21  H   UNL     1       3.748  14.710  20.086  1.00  0.00     0.293 HD
ENDBRANCH  17  20
ENDBRANCH   1  12
BRANCH   2  22
ATOM     22  O   UNL     1       9.144  13.646  23.517  1.00  0.00    -0.502 OA
ATOM     23  H   UNL     1       9.054  12.662  23.739  1.00  0.00     0.293 HD
ENDBRANCH   2  22
BRANCH   6  24
ATOM     24  O   UNL     1      14.052  15.528  22.655  1.00  0.00    -0.507 OA
ATOM     25  H   UNL     1      14.305  16.320  23.227  1.00  0.00     0.293 HD
ENDBRANCH   6  24
BRANCH   8  26
ATOM     26  O   UNL     1      13.688  16.740  18.023  1.00  0.00    -0.508 OA
ATOM     27  H   UNL     1      13.134  17.237  17.335  1.00  0.00     0.293 HD
ENDBRANCH   8  26
TORSDOF 6
ENDMDL
