MODEL 1
REMARK VINA RESULT:    -6.223      0.000      0.000
REMARK INTER + INTRA:         -11.134
REMARK INTER:                  -9.133
REMARK INTRA:                  -2.001
REMARK UNBOUND:                -2.001
REMARK SMILES O=c1c(O[C@@H]2O[C@@H](CO)[C@@H](O)[C@H](O)[C@@H]2O)c(-c2ccc(O)c(O)c2)oc2cc(O)cc(O)c12
REMARK SMILES IDX 4 1 3 2 16 3 25 4 2 5 26 6 1 7 33 8 27 9 31 10 28 11 30 12
REMARK SMILES IDX 17 13 18 14 19 15 20 16 24 17 22 18 21 19 23 21 32 23 29 25
REMARK SMILES IDX 5 27 14 28 6 29 12 30 7 31 10 32 15 33 13 35 8 37 9 38 11 40
REMARK H PARENT 21 20 23 22 32 24 29 26 15 34 13 36 9 39 11 41
REMARK Flexibility Score: inf
ROOT
ATOM      1  O   UNL     1     103.116 111.922 112.452  1.00  0.00    -0.454 OA
ENDROOT
BRANCH   1   2
ATOM      2  C   UNL     1     102.543 110.758 111.890  1.00  0.00     0.214 A 
ATOM      3  C   UNL     1     103.204 109.533 112.095  1.00  0.00     0.180 A 
ATOM      4  O   UNL     1     102.659 108.397 111.682  1.00  0.00    -0.452 OA
ATOM      5  C   UNL     1     101.324 110.743 111.168  1.00  0.00     0.239 A 
ATOM      6  C   UNL     1     101.517 108.337 111.012  1.00  0.00     0.146 A 
ATOM      7  O   UNL     1     100.681 111.810 111.005  1.00  0.00    -0.285 OA
ATOM      8  C   UNL     1     100.814 109.518 110.670  1.00  0.00     0.111 A 
ATOM      9  C   UNL     1     101.020 107.082 110.651  1.00  0.00     0.094 A 
ATOM     10  C   UNL     1      99.623 109.398 109.891  1.00  0.00     0.134 A 
ATOM     11  C   UNL     1      99.822 106.972 109.952  1.00  0.00     0.123 A 
ATOM     12  C   UNL     1      99.128 108.125 109.577  1.00  0.00     0.093 A 
BRANCH   3  13
ATOM     13  C   UNL     1     104.502 109.465 112.790  1.00  0.00     0.025 A 
ATOM     14  C   UNL     1     104.543 109.355 114.184  1.00  0.00     0.016 A 
ATOM     15  C   UNL     1     105.769 109.272 114.847  1.00  0.00     0.051 A 
ATOM     16  C   UNL     1     106.971 109.281 114.129  1.00  0.00     0.157 A 
ATOM     17  C   UNL     1     105.701 109.445 112.062  1.00  0.00     0.062 A 
ATOM     18  C   UNL     1     106.936 109.363 112.716  1.00  0.00     0.158 A 
BRANCH  16  19
ATOM     19  O   UNL     1     108.163 109.207 114.852  1.00  0.00    -0.504 OA
ATOM     20  H   UNL     1     108.847 108.472 114.739  1.00  0.00     0.293 HD
ENDBRANCH  16  19
BRANCH  18  21
ATOM     21  O   UNL     1     108.091 109.358 111.932  1.00  0.00    -0.504 OA
ATOM     22  H   UNL     1     108.224 109.944 111.120  1.00  0.00     0.293 HD
ENDBRANCH  18  21
ENDBRANCH   3  13
BRANCH  10  23
ATOM     23  O   UNL     1      98.913 110.487 109.378  1.00  0.00    -0.507 OA
ATOM     24  H   UNL     1      99.104 111.452 109.606  1.00  0.00     0.293 HD
ENDBRANCH  10  23
BRANCH  11  25
ATOM     25  O   UNL     1      99.333 105.710 109.621  1.00  0.00    -0.508 OA
ATOM     26  H   UNL     1      99.903 105.033 109.126  1.00  0.00     0.293 HD
ENDBRANCH  11  25
ENDBRANCH   1   2
BRANCH   1  27
ATOM     27  C   UNL     1     103.714 113.016 111.744  1.00  0.00     0.339 C 
ATOM     28  C   UNL     1     103.141 114.377 112.207  1.00  0.00     0.214 C 
ATOM     29  O   UNL     1     105.129 112.984 111.836  1.00  0.00    -0.332 OA
ATOM     30  C   UNL     1     103.710 114.837 113.569  1.00  0.00     0.180 C 
ATOM     31  C   UNL     1     105.564 113.153 113.174  1.00  0.00     0.179 C 
ATOM     32  C   UNL     1     105.226 114.580 113.669  1.00  0.00     0.177 C 
BRANCH  28  33
ATOM     33  O   UNL     1     101.738 114.326 112.270  1.00  0.00    -0.384 OA
ATOM     34  H   UNL     1     101.479 113.381 112.117  1.00  0.00     0.211 HD
ENDBRANCH  28  33
BRANCH  30  35
ATOM     35  O   UNL     1     103.017 114.267 114.652  1.00  0.00    -0.387 OA
ATOM     36  H   UNL     1     103.646 114.185 115.408  1.00  0.00     0.211 HD
ENDBRANCH  30  35
BRANCH  31  37
ATOM     37  C   UNL     1     107.072 112.864 113.232  1.00  0.00     0.191 C 
BRANCH  37  38
ATOM     38  O   UNL     1     107.680 113.138 111.997  1.00  0.00    -0.394 OA
ATOM     39  H   UNL     1     108.422 112.489 111.890  1.00  0.00     0.210 HD
ENDBRANCH  37  38
ENDBRANCH  31  37
BRANCH  32  40
ATOM     40  O   UNL     1     105.899 115.535 112.883  1.00  0.00    -0.387 OA
ATOM     41  H   UNL     1     105.296 115.780 112.135  1.00  0.00     0.211 HD
ENDBRANCH  32  40
ENDBRANCH   1  27
TORSDOF 12
ENDMDL
MODEL 2
REMARK VINA RESULT:    -6.067      9.846     12.320
REMARK INTER + INTRA:         -10.905
REMARK INTER:                  -9.382
REMARK INTRA:                  -1.523
REMARK UNBOUND:                -2.001
REMARK SMILES O=c1c(O[C@@H]2O[C@@H](CO)[C@@H](O)[C@H](O)[C@@H]2O)c(-c2ccc(O)c(O)c2)oc2cc(O)cc(O)c12
REMARK SMILES IDX 4 1 3 2 16 3 25 4 2 5 26 6 1 7 33 8 27 9 31 10 28 11 30 12
REMARK SMILES IDX 17 13 18 14 19 15 20 16 24 17 22 18 21 19 23 21 32 23 29 25
REMARK SMILES IDX 5 27 14 28 6 29 12 30 7 31 10 32 15 33 13 35 8 37 9 38 11 40
REMARK H PARENT 21 20 23 22 32 24 29 26 15 34 13 36 9 39 11 41
REMARK Flexibility Score: inf
ROOT
ATOM      1  O   UNL     1     111.509 118.973 111.594  1.00  0.00    -0.454 OA
ENDROOT
BRANCH   1   2
ATOM      2  C   UNL     1     111.081 118.916 110.248  1.00  0.00     0.214 A 
ATOM      3  C   UNL     1     109.815 119.443 109.936  1.00  0.00     0.180 A 
ATOM      4  O   UNL     1     109.407 119.512 108.676  1.00  0.00    -0.452 OA
ATOM      5  C   UNL     1     111.866 118.399 109.188  1.00  0.00     0.239 A 
ATOM      6  C   UNL     1     110.112 119.049 107.654  1.00  0.00     0.146 A 
ATOM      7  O   UNL     1     113.021 117.963 109.421  1.00  0.00    -0.285 OA
ATOM      8  C   UNL     1     111.362 118.415 107.864  1.00  0.00     0.111 A 
ATOM      9  C   UNL     1     109.598 119.201 106.364  1.00  0.00     0.094 A 
ATOM     10  C   UNL     1     112.047 117.876 106.733  1.00  0.00     0.134 A 
ATOM     11  C   UNL     1     110.307 118.734 105.262  1.00  0.00     0.123 A 
ATOM     12  C   UNL     1     111.527 118.078 105.448  1.00  0.00     0.093 A 
BRANCH   3  13
ATOM     13  C   UNL     1     108.912 119.954 110.984  1.00  0.00     0.025 A 
ATOM     14  C   UNL     1     109.192 121.172 111.613  1.00  0.00     0.016 A 
ATOM     15  C   UNL     1     108.333 121.669 112.594  1.00  0.00     0.051 A 
ATOM     16  C   UNL     1     107.174 120.969 112.950  1.00  0.00     0.157 A 
ATOM     17  C   UNL     1     107.739 119.262 111.314  1.00  0.00     0.062 A 
ATOM     18  C   UNL     1     106.870 119.751 112.297  1.00  0.00     0.158 A 
BRANCH  16  19
ATOM     19  O   UNL     1     106.362 121.515 113.946  1.00  0.00    -0.504 OA
ATOM     20  H   UNL     1     106.446 121.292 114.928  1.00  0.00     0.293 HD
ENDBRANCH  16  19
BRANCH  18  21
ATOM     21  O   UNL     1     105.724 119.007 112.584  1.00  0.00    -0.504 OA
ATOM     22  H   UNL     1     104.786 119.302 112.354  1.00  0.00     0.293 HD
ENDBRANCH  18  21
ENDBRANCH   3  13
BRANCH  10  23
ATOM     23  O   UNL     1     113.217 117.115 106.819  1.00  0.00    -0.507 OA
ATOM     24  H   UNL     1     113.561 116.691 107.668  1.00  0.00     0.293 HD
ENDBRANCH  10  23
BRANCH  11  25
ATOM     25  O   UNL     1     109.787 118.916 103.982  1.00  0.00    -0.508 OA
ATOM     26  H   UNL     1     108.952 118.429 103.675  1.00  0.00     0.293 HD
ENDBRANCH  11  25
ENDBRANCH   1   2
BRANCH   1  27
ATOM     27  C   UNL     1     111.094 118.117 112.667  1.00  0.00     0.339 C 
ATOM     28  C   UNL     1     112.200 117.105 113.050  1.00  0.00     0.214 C 
ATOM     29  O   UNL     1     110.656 118.865 113.790  1.00  0.00    -0.332 OA
ATOM     30  C   UNL     1     113.336 117.741 113.885  1.00  0.00     0.180 C 
ATOM     31  C   UNL     1     111.711 119.634 114.343  1.00  0.00     0.179 C 
ATOM     32  C   UNL     1     112.784 118.702 114.956  1.00  0.00     0.177 C 
BRANCH  28  33
ATOM     33  O   UNL     1     112.736 116.501 111.900  1.00  0.00    -0.384 OA
ATOM     34  H   UNL     1     112.525 115.533 111.960  1.00  0.00     0.211 HD
ENDBRANCH  28  33
BRANCH  30  35
ATOM     35  O   UNL     1     114.300 118.368 113.075  1.00  0.00    -0.387 OA
ATOM     36  H   UNL     1     114.135 118.099 112.140  1.00  0.00     0.211 HD
ENDBRANCH  30  35
BRANCH  31  37
ATOM     37  C   UNL     1     111.115 120.592 115.385  1.00  0.00     0.191 C 
BRANCH  37  38
ATOM     38  O   UNL     1     111.972 120.726 116.487  1.00  0.00    -0.394 OA
ATOM     39  H   UNL     1     112.019 121.693 116.701  1.00  0.00     0.210 HD
ENDBRANCH  37  38
ENDBRANCH  31  37
BRANCH  32  40
ATOM     40  O   UNL     1     112.225 117.942 116.000  1.00  0.00    -0.387 OA
ATOM     41  H   UNL     1     111.239 117.967 115.888  1.00  0.00     0.211 HD
ENDBRANCH  32  40
ENDBRANCH   1  27
TORSDOF 12
ENDMDL
MODEL 3
REMARK VINA RESULT:    -5.879      1.809      5.902
REMARK INTER + INTRA:         -10.629
REMARK INTER:                  -9.198
REMARK INTRA:                  -1.431
REMARK UNBOUND:                -2.001
REMARK SMILES O=c1c(O[C@@H]2O[C@@H](CO)[C@@H](O)[C@H](O)[C@@H]2O)c(-c2ccc(O)c(O)c2)oc2cc(O)cc(O)c12
REMARK SMILES IDX 4 1 3 2 16 3 25 4 2 5 26 6 1 7 33 8 27 9 31 10 28 11 30 12
REMARK SMILES IDX 17 13 18 14 19 15 20 16 24 17 22 18 21 19 23 21 32 23 29 25
REMARK SMILES IDX 5 27 14 28 6 29 12 30 7 31 10 32 15 33 13 35 8 37 9 38 11 40
REMARK H PARENT 21 20 23 22 32 24 29 26 15 34 13 36 9 39 11 41
REMARK Flexibility Score: inf
ROOT
ATOM      1  O   UNL     1     103.129 111.179 112.715  1.00  0.00    -0.454 OA
ENDROOT
BRANCH   1   2
ATOM      2  C   UNL     1     104.263 110.344 112.593  1.00  0.00     0.214 A 
ATOM      3  C   UNL     1     104.079 109.056 112.055  1.00  0.00     0.180 A 
ATOM      4  O   UNL     1     105.120 108.270 111.820  1.00  0.00    -0.452 OA
ATOM      5  C   UNL     1     105.579 110.736 112.941  1.00  0.00     0.239 A 
ATOM      6  C   UNL     1     106.367 108.601 112.121  1.00  0.00     0.146 A 
ATOM      7  O   UNL     1     105.790 111.894 113.380  1.00  0.00    -0.285 OA
ATOM      8  C   UNL     1     106.657 109.836 112.751  1.00  0.00     0.111 A 
ATOM      9  C   UNL     1     107.391 107.706 111.802  1.00  0.00     0.094 A 
ATOM     10  C   UNL     1     108.011 110.112 113.113  1.00  0.00     0.134 A 
ATOM     11  C   UNL     1     108.716 108.016 112.096  1.00  0.00     0.123 A 
ATOM     12  C   UNL     1     109.022 109.215 112.745  1.00  0.00     0.093 A 
BRANCH   3  13
ATOM     13  C   UNL     1     102.738 108.548 111.714  1.00  0.00     0.025 A 
ATOM     14  C   UNL     1     102.162 108.871 110.480  1.00  0.00     0.016 A 
ATOM     15  C   UNL     1     100.899 108.379 110.144  1.00  0.00     0.051 A 
ATOM     16  C   UNL     1     100.200 107.545 111.025  1.00  0.00     0.157 A 
ATOM     17  C   UNL     1     102.056 107.690 112.588  1.00  0.00     0.062 A 
ATOM     18  C   UNL     1     100.789 107.191 112.262  1.00  0.00     0.158 A 
BRANCH  16  19
ATOM     19  O   UNL     1      98.937 107.096 110.635  1.00  0.00    -0.504 OA
ATOM     20  H   UNL     1      98.133 107.069 111.246  1.00  0.00     0.293 HD
ENDBRANCH  16  19
BRANCH  18  21
ATOM     21  O   UNL     1     100.163 106.350 113.183  1.00  0.00    -0.504 OA
ATOM     22  H   UNL     1     100.106 106.539 114.173  1.00  0.00     0.293 HD
ENDBRANCH  18  21
ENDBRANCH   3  13
BRANCH  10  23
ATOM     23  O   UNL     1     108.409 111.229 113.854  1.00  0.00    -0.507 OA
ATOM     24  H   UNL     1     109.363 111.429 114.118  1.00  0.00     0.293 HD
ENDBRANCH  10  23
BRANCH  11  25
ATOM     25  O   UNL     1     109.725 107.119 111.749  1.00  0.00    -0.508 OA
ATOM     26  H   UNL     1     109.627 106.491 110.959  1.00  0.00     0.293 HD
ENDBRANCH  11  25
ENDBRANCH   1   2
BRANCH   1  27
ATOM     27  C   UNL     1     102.594 112.057 111.716  1.00  0.00     0.339 C 
ATOM     28  C   UNL     1     101.107 112.388 111.984  1.00  0.00     0.214 C 
ATOM     29  O   UNL     1     103.377 113.232 111.583  1.00  0.00    -0.332 OA
ATOM     30  C   UNL     1     100.915 113.423 113.117  1.00  0.00     0.180 C 
ATOM     31  C   UNL     1     103.360 114.003 112.772  1.00  0.00     0.179 C 
ATOM     32  C   UNL     1     101.941 114.569 113.020  1.00  0.00     0.177 C 
BRANCH  28  33
ATOM     33  O   UNL     1     100.386 111.219 112.281  1.00  0.00    -0.384 OA
ATOM     34  H   UNL     1      99.510 111.507 112.648  1.00  0.00     0.211 HD
ENDBRANCH  28  33
BRANCH  30  35
ATOM     35  O   UNL     1     100.929 112.823 114.389  1.00  0.00    -0.387 OA
ATOM     36  H   UNL     1     101.304 113.474 115.029  1.00  0.00     0.211 HD
ENDBRANCH  30  35
BRANCH  31  37
ATOM     37  C   UNL     1     104.411 115.115 112.643  1.00  0.00     0.191 C 
BRANCH  37  38
ATOM     38  O   UNL     1     104.326 115.738 111.388  1.00  0.00    -0.394 OA
ATOM     39  H   UNL     1     104.855 115.186 110.756  1.00  0.00     0.210 HD
ENDBRANCH  37  38
ENDBRANCH  31  37
BRANCH  32  40
ATOM     40  O   UNL     1     101.569 115.419 111.961  1.00  0.00    -0.387 OA
ATOM     41  H   UNL     1     100.842 116.006 112.294  1.00  0.00     0.211 HD
ENDBRANCH  32  40
ENDBRANCH   1  27
TORSDOF 12
ENDMDL
MODEL 4
REMARK VINA RESULT:    -5.857      1.956      4.610
REMARK INTER + INTRA:         -10.598
REMARK INTER:                  -8.891
REMARK INTRA:                  -1.707
REMARK UNBOUND:                -2.001
REMARK SMILES O=c1c(O[C@@H]2O[C@@H](CO)[C@@H](O)[C@H](O)[C@@H]2O)c(-c2ccc(O)c(O)c2)oc2cc(O)cc(O)c12
REMARK SMILES IDX 4 1 3 2 16 3 25 4 2 5 26 6 1 7 33 8 27 9 31 10 28 11 30 12
REMARK SMILES IDX 17 13 18 14 19 15 20 16 24 17 22 18 21 19 23 21 32 23 29 25
REMARK SMILES IDX 5 27 14 28 6 29 12 30 7 31 10 32 15 33 13 35 8 37 9 38 11 40
REMARK H PARENT 21 20 23 22 32 24 29 26 15 34 13 36 9 39 11 41
REMARK Flexibility Score: inf
ROOT
ATOM      1  O   UNL     1     104.216 110.349 113.583  1.00  0.00    -0.454 OA
ENDROOT
BRANCH   1   2
ATOM      2  C   UNL     1     103.182 109.963 112.701  1.00  0.00     0.214 A 
ATOM      3  C   UNL     1     102.721 110.912 111.769  1.00  0.00     0.180 A 
ATOM      4  O   UNL     1     101.829 110.573 110.849  1.00  0.00    -0.452 OA
ATOM      5  C   UNL     1     102.607 108.668 112.670  1.00  0.00     0.239 A 
ATOM      6  C   UNL     1     101.274 109.372 110.778  1.00  0.00     0.146 A 
ATOM      7  O   UNL     1     103.025 107.780 113.454  1.00  0.00    -0.285 OA
ATOM      8  C   UNL     1     101.595 108.368 111.724  1.00  0.00     0.111 A 
ATOM      9  C   UNL     1     100.365 109.117 109.749  1.00  0.00     0.094 A 
ATOM     10  C   UNL     1     100.917 107.113 111.639  1.00  0.00     0.134 A 
ATOM     11  C   UNL     1      99.762 107.868 109.633  1.00  0.00     0.123 A 
ATOM     12  C   UNL     1     100.041 106.872 110.573  1.00  0.00     0.093 A 
BRANCH   3  13
ATOM     13  C   UNL     1     103.227 112.296 111.766  1.00  0.00     0.025 A 
ATOM     14  C   UNL     1     104.546 112.557 111.378  1.00  0.00     0.016 A 
ATOM     15  C   UNL     1     105.026 113.868 111.357  1.00  0.00     0.051 A 
ATOM     16  C   UNL     1     104.194 114.939 111.705  1.00  0.00     0.157 A 
ATOM     17  C   UNL     1     102.380 113.366 112.088  1.00  0.00     0.062 A 
ATOM     18  C   UNL     1     102.850 114.685 112.070  1.00  0.00     0.158 A 
BRANCH  16  19
ATOM     19  O   UNL     1     104.737 116.225 111.674  1.00  0.00    -0.504 OA
ATOM     20  H   UNL     1     105.369 116.554 110.957  1.00  0.00     0.293 HD
ENDBRANCH  16  19
BRANCH  18  21
ATOM     21  O   UNL     1     101.956 115.701 112.411  1.00  0.00    -0.504 OA
ATOM     22  H   UNL     1     102.134 116.394 113.124  1.00  0.00     0.293 HD
ENDBRANCH  18  21
ENDBRANCH   3  13
BRANCH  10  23
ATOM     23  O   UNL     1     101.045 106.092 112.584  1.00  0.00    -0.507 OA
ATOM     24  H   UNL     1     100.269 105.622 113.026  1.00  0.00     0.293 HD
ENDBRANCH  10  23
BRANCH  11  25
ATOM     25  O   UNL     1      98.875 107.627 108.585  1.00  0.00    -0.508 OA
ATOM     26  H   UNL     1      97.878 107.534 108.745  1.00  0.00     0.293 HD
ENDBRANCH  11  25
ENDBRANCH   1   2
BRANCH   1  27
ATOM     27  C   UNL     1     104.067 110.866 114.912  1.00  0.00     0.339 C 
ATOM     28  C   UNL     1     104.745 109.952 115.960  1.00  0.00     0.214 C 
ATOM     29  O   UNL     1     104.532 112.203 115.005  1.00  0.00    -0.332 OA
ATOM     30  C   UNL     1     106.283 110.100 115.985  1.00  0.00     0.180 C 
ATOM     31  C   UNL     1     105.924 112.286 114.750  1.00  0.00     0.179 C 
ATOM     32  C   UNL     1     106.714 111.576 115.875  1.00  0.00     0.177 C 
BRANCH  28  33
ATOM     33  O   UNL     1     104.400 108.607 115.739  1.00  0.00    -0.384 OA
ATOM     34  H   UNL     1     105.176 108.061 116.028  1.00  0.00     0.211 HD
ENDBRANCH  28  33
BRANCH  30  35
ATOM     35  O   UNL     1     106.907 109.306 115.006  1.00  0.00    -0.387 OA
ATOM     36  H   UNL     1     107.728 109.769 114.714  1.00  0.00     0.211 HD
ENDBRANCH  30  35
BRANCH  31  37
ATOM     37  C   UNL     1     106.304 113.769 114.624  1.00  0.00     0.191 C 
BRANCH  37  38
ATOM     38  O   UNL     1     105.274 114.591 115.105  1.00  0.00    -0.394 OA
ATOM     39  H   UNL     1     104.682 114.019 115.658  1.00  0.00     0.210 HD
ENDBRANCH  37  38
ENDBRANCH  31  37
BRANCH  32  40
ATOM     40  O   UNL     1     106.473 112.210 117.109  1.00  0.00    -0.387 OA
ATOM     41  H   UNL     1     107.037 111.759 117.789  1.00  0.00     0.211 HD
ENDBRANCH  32  40
ENDBRANCH   1  27
TORSDOF 12
ENDMDL
MODEL 5
REMARK VINA RESULT:    -5.641      4.194      8.197
REMARK INTER + INTRA:         -10.281
REMARK INTER:                  -8.193
REMARK INTRA:                  -2.087
REMARK UNBOUND:                -2.001
REMARK SMILES O=c1c(O[C@@H]2O[C@@H](CO)[C@@H](O)[C@H](O)[C@@H]2O)c(-c2ccc(O)c(O)c2)oc2cc(O)cc(O)c12
REMARK SMILES IDX 4 1 3 2 16 3 25 4 2 5 26 6 1 7 33 8 27 9 31 10 28 11 30 12
REMARK SMILES IDX 17 13 18 14 19 15 20 16 24 17 22 18 21 19 23 21 32 23 29 25
REMARK SMILES IDX 5 27 14 28 6 29 12 30 7 31 10 32 15 33 13 35 8 37 9 38 11 40
REMARK H PARENT 21 20 23 22 32 24 29 26 15 34 13 36 9 39 11 41
REMARK Flexibility Score: inf
ROOT
ATOM      1  O   UNL     1     108.329 115.919 112.636  1.00  0.00    -0.454 OA
ENDROOT
BRANCH   1   2
ATOM      2  C   UNL     1     107.040 115.480 112.258  1.00  0.00     0.214 A 
ATOM      3  C   UNL     1     106.063 116.456 111.990  1.00  0.00     0.180 A 
ATOM      4  O   UNL     1     104.870 116.104 111.530  1.00  0.00    -0.452 OA
ATOM      5  C   UNL     1     106.682 114.119 112.096  1.00  0.00     0.239 A 
ATOM      6  C   UNL     1     104.497 114.845 111.354  1.00  0.00     0.146 A 
ATOM      7  O   UNL     1     107.541 113.220 112.281  1.00  0.00    -0.285 OA
ATOM      8  C   UNL     1     105.370 113.778 111.682  1.00  0.00     0.111 A 
ATOM      9  C   UNL     1     103.224 114.591 110.838  1.00  0.00     0.094 A 
ATOM     10  C   UNL     1     104.892 112.441 111.535  1.00  0.00     0.134 A 
ATOM     11  C   UNL     1     102.794 113.284 110.632  1.00  0.00     0.123 A 
ATOM     12  C   UNL     1     103.627 112.216 110.976  1.00  0.00     0.093 A 
BRANCH   3  13
ATOM     13  C   UNL     1     106.334 117.892 112.183  1.00  0.00     0.025 A 
ATOM     14  C   UNL     1     106.880 118.646 111.139  1.00  0.00     0.016 A 
ATOM     15  C   UNL     1     107.124 120.010 111.310  1.00  0.00     0.051 A 
ATOM     16  C   UNL     1     106.812 120.645 112.518  1.00  0.00     0.157 A 
ATOM     17  C   UNL     1     105.992 118.527 113.385  1.00  0.00     0.062 A 
ATOM     18  C   UNL     1     106.232 119.894 113.569  1.00  0.00     0.158 A 
BRANCH  16  19
ATOM     19  O   UNL     1     107.090 122.009 112.630  1.00  0.00    -0.504 OA
ATOM     20  H   UNL     1     107.083 122.517 113.503  1.00  0.00     0.293 HD
ENDBRANCH  16  19
BRANCH  18  21
ATOM     21  O   UNL     1     105.876 120.460 114.794  1.00  0.00    -0.504 OA
ATOM     22  H   UNL     1     105.900 121.451 114.986  1.00  0.00     0.293 HD
ENDBRANCH  18  21
ENDBRANCH   3  13
BRANCH  10  23
ATOM     23  O   UNL     1     105.602 111.309 111.945  1.00  0.00    -0.507 OA
ATOM     24  H   UNL     1     106.444 110.971 111.502  1.00  0.00     0.293 HD
ENDBRANCH  10  23
BRANCH  11  25
ATOM     25  O   UNL     1     101.529 113.053 110.094  1.00  0.00    -0.508 OA
ATOM     26  H   UNL     1     101.066 112.157 110.195  1.00  0.00     0.293 HD
ENDBRANCH  11  25
ENDBRANCH   1   2
BRANCH   1  27
ATOM     27  C   UNL     1     108.890 115.914 113.955  1.00  0.00     0.339 C 
ATOM     28  C   UNL     1     110.226 115.135 114.005  1.00  0.00     0.214 C 
ATOM     29  O   UNL     1     109.031 117.230 114.466  1.00  0.00    -0.332 OA
ATOM     30  C   UNL     1     111.411 115.933 113.414  1.00  0.00     0.180 C 
ATOM     31  C   UNL     1     109.951 117.987 113.698  1.00  0.00     0.179 C 
ATOM     32  C   UNL     1     111.378 117.409 113.854  1.00  0.00     0.177 C 
BRANCH  28  33
ATOM     33  O   UNL     1     110.104 113.902 113.340  1.00  0.00    -0.384 OA
ATOM     34  H   UNL     1     109.602 113.298 113.948  1.00  0.00     0.211 HD
ENDBRANCH  28  33
BRANCH  30  35
ATOM     35  O   UNL     1     111.484 115.813 112.015  1.00  0.00    -0.387 OA
ATOM     36  H   UNL     1     110.996 114.996 111.752  1.00  0.00     0.211 HD
ENDBRANCH  30  35
BRANCH  31  37
ATOM     37  C   UNL     1     109.868 119.452 114.152  1.00  0.00     0.191 C 
BRANCH  37  38
ATOM     38  O   UNL     1     109.416 119.539 115.477  1.00  0.00    -0.394 OA
ATOM     39  H   UNL     1     108.685 118.876 115.578  1.00  0.00     0.210 HD
ENDBRANCH  37  38
ENDBRANCH  31  37
BRANCH  32  40
ATOM     40  O   UNL     1     111.786 117.489 115.199  1.00  0.00    -0.387 OA
ATOM     41  H   UNL     1     110.973 117.405 115.760  1.00  0.00     0.211 HD
ENDBRANCH  32  40
ENDBRANCH   1  27
TORSDOF 12
ENDMDL
MODEL 6
REMARK VINA RESULT:    -5.550      9.040     11.901
REMARK INTER + INTRA:         -10.146
REMARK INTER:                  -9.272
REMARK INTRA:                  -0.874
REMARK UNBOUND:                -2.001
REMARK SMILES O=c1c(O[C@@H]2O[C@@H](CO)[C@@H](O)[C@H](O)[C@@H]2O)c(-c2ccc(O)c(O)c2)oc2cc(O)cc(O)c12
REMARK SMILES IDX 4 1 3 2 16 3 25 4 2 5 26 6 1 7 33 8 27 9 31 10 28 11 30 12
REMARK SMILES IDX 17 13 18 14 19 15 20 16 24 17 22 18 21 19 23 21 32 23 29 25
REMARK SMILES IDX 5 27 14 28 6 29 12 30 7 31 10 32 15 33 13 35 8 37 9 38 11 40
REMARK H PARENT 21 20 23 22 32 24 29 26 15 34 13 36 9 39 11 41
REMARK Flexibility Score: inf
ROOT
ATOM      1  O   UNL     1     111.197 118.102 111.676  1.00  0.00    -0.454 OA
ENDROOT
BRANCH   1   2
ATOM      2  C   UNL     1     110.862 118.273 110.313  1.00  0.00     0.214 A 
ATOM      3  C   UNL     1     109.735 119.057 110.004  1.00  0.00     0.180 A 
ATOM      4  O   UNL     1     109.436 119.338 108.744  1.00  0.00    -0.452 OA
ATOM      5  C   UNL     1     111.612 117.736 109.238  1.00  0.00     0.239 A 
ATOM      6  C   UNL     1     110.116 118.866 107.710  1.00  0.00     0.146 A 
ATOM      7  O   UNL     1     112.651 117.069 109.472  1.00  0.00    -0.285 OA
ATOM      8  C   UNL     1     111.213 117.990 107.902  1.00  0.00     0.111 A 
ATOM      9  C   UNL     1     109.728 119.250 106.424  1.00  0.00     0.094 A 
ATOM     10  C   UNL     1     111.867 117.458 106.749  1.00  0.00     0.134 A 
ATOM     11  C   UNL     1     110.417 118.782 105.309  1.00  0.00     0.123 A 
ATOM     12  C   UNL     1     111.483 117.893 105.474  1.00  0.00     0.093 A 
BRANCH   3  13
ATOM     13  C   UNL     1     108.869 119.611 111.061  1.00  0.00     0.025 A 
ATOM     14  C   UNL     1     109.219 120.808 111.695  1.00  0.00     0.016 A 
ATOM     15  C   UNL     1     108.395 121.347 112.685  1.00  0.00     0.051 A 
ATOM     16  C   UNL     1     107.202 120.709 113.045  1.00  0.00     0.157 A 
ATOM     17  C   UNL     1     107.661 118.983 111.396  1.00  0.00     0.062 A 
ATOM     18  C   UNL     1     106.826 119.513 112.387  1.00  0.00     0.158 A 
BRANCH  16  19
ATOM     19  O   UNL     1     106.427 121.293 114.049  1.00  0.00    -0.504 OA
ATOM     20  H   UNL     1     106.648 122.172 114.494  1.00  0.00     0.293 HD
ENDBRANCH  16  19
BRANCH  18  21
ATOM     21  O   UNL     1     105.644 118.831 112.677  1.00  0.00    -0.504 OA
ATOM     22  H   UNL     1     105.226 118.141 112.069  1.00  0.00     0.293 HD
ENDBRANCH  18  21
ENDBRANCH   3  13
BRANCH  10  23
ATOM     23  O   UNL     1     112.871 116.487 106.800  1.00  0.00    -0.507 OA
ATOM     24  H   UNL     1     112.702 115.494 106.870  1.00  0.00     0.293 HD
ENDBRANCH  10  23
BRANCH  11  25
ATOM     25  O   UNL     1     110.029 119.196 104.036  1.00  0.00    -0.508 OA
ATOM     26  H   UNL     1     110.383 118.744 103.201  1.00  0.00     0.293 HD
ENDBRANCH  11  25
ENDBRANCH   1   2
BRANCH   1  27
ATOM     27  C   UNL     1     112.405 117.536 112.201  1.00  0.00     0.339 C 
ATOM     28  C   UNL     1     113.105 118.500 113.188  1.00  0.00     0.214 C 
ATOM     29  O   UNL     1     112.172 116.265 112.787  1.00  0.00    -0.332 OA
ATOM     30  C   UNL     1     112.423 118.544 114.574  1.00  0.00     0.180 C 
ATOM     31  C   UNL     1     111.312 116.363 113.910  1.00  0.00     0.179 C 
ATOM     32  C   UNL     1     112.014 117.137 115.052  1.00  0.00     0.177 C 
BRANCH  28  33
ATOM     33  O   UNL     1     113.171 119.796 112.648  1.00  0.00    -0.384 OA
ATOM     34  H   UNL     1     114.124 119.967 112.428  1.00  0.00     0.211 HD
ENDBRANCH  28  33
BRANCH  30  35
ATOM     35  O   UNL     1     111.335 119.435 114.600  1.00  0.00    -0.387 OA
ATOM     36  H   UNL     1     110.824 119.269 115.428  1.00  0.00     0.211 HD
ENDBRANCH  30  35
BRANCH  31  37
ATOM     37  C   UNL     1     110.911 114.943 114.337  1.00  0.00     0.191 C 
BRANCH  37  38
ATOM     38  O   UNL     1     112.038 114.111 114.423  1.00  0.00    -0.394 OA
ATOM     39  H   UNL     1     112.835 114.692 114.322  1.00  0.00     0.210 HD
ENDBRANCH  37  38
ENDBRANCH  31  37
BRANCH  32  40
ATOM     40  O   UNL     1     113.169 116.447 115.464  1.00  0.00    -0.387 OA
ATOM     41  H   UNL     1     113.459 116.843 116.326  1.00  0.00     0.211 HD
ENDBRANCH  32  40
ENDBRANCH   1  27
TORSDOF 12
ENDMDL
MODEL 7
REMARK VINA RESULT:    -5.545      1.729      4.781
REMARK INTER + INTRA:         -10.139
REMARK INTER:                  -9.218
REMARK INTRA:                  -0.921
REMARK UNBOUND:                -2.001
REMARK SMILES O=c1c(O[C@@H]2O[C@@H](CO)[C@@H](O)[C@H](O)[C@@H]2O)c(-c2ccc(O)c(O)c2)oc2cc(O)cc(O)c12
REMARK SMILES IDX 4 1 3 2 16 3 25 4 2 5 26 6 1 7 33 8 27 9 31 10 28 11 30 12
REMARK SMILES IDX 17 13 18 14 19 15 20 16 24 17 22 18 21 19 23 21 32 23 29 25
REMARK SMILES IDX 5 27 14 28 6 29 12 30 7 31 10 32 15 33 13 35 8 37 9 38 11 40
REMARK H PARENT 21 20 23 22 32 24 29 26 15 34 13 36 9 39 11 41
REMARK Flexibility Score: inf
ROOT
ATOM      1  O   UNL     1     104.520 110.284 113.635  1.00  0.00    -0.454 OA
ENDROOT
BRANCH   1   2
ATOM      2  C   UNL     1     103.432 109.944 112.798  1.00  0.00     0.214 A 
ATOM      3  C   UNL     1     102.917 110.940 111.949  1.00  0.00     0.180 A 
ATOM      4  O   UNL     1     101.969 110.650 111.069  1.00  0.00    -0.452 OA
ATOM      5  C   UNL     1     102.855 108.652 112.733  1.00  0.00     0.239 A 
ATOM      6  C   UNL     1     101.408 109.454 110.968  1.00  0.00     0.146 A 
ATOM      7  O   UNL     1     103.318 107.723 113.442  1.00  0.00    -0.285 OA
ATOM      8  C   UNL     1     101.786 108.401 111.837  1.00  0.00     0.111 A 
ATOM      9  C   UNL     1     100.437 109.252 109.984  1.00  0.00     0.094 A 
ATOM     10  C   UNL     1     101.102 107.152 111.727  1.00  0.00     0.134 A 
ATOM     11  C   UNL     1      99.826 108.010 109.839  1.00  0.00     0.123 A 
ATOM     12  C   UNL     1     100.161 106.966 110.705  1.00  0.00     0.093 A 
BRANCH   3  13
ATOM     13  C   UNL     1     103.424 112.324 111.989  1.00  0.00     0.025 A 
ATOM     14  C   UNL     1     103.905 112.925 110.821  1.00  0.00     0.016 A 
ATOM     15  C   UNL     1     104.371 114.241 110.848  1.00  0.00     0.051 A 
ATOM     16  C   UNL     1     104.347 114.982 112.035  1.00  0.00     0.157 A 
ATOM     17  C   UNL     1     103.370 113.070 113.175  1.00  0.00     0.062 A 
ATOM     18  C   UNL     1     103.834 114.390 113.214  1.00  0.00     0.158 A 
BRANCH  16  19
ATOM     19  O   UNL     1     104.837 116.289 111.999  1.00  0.00    -0.504 OA
ATOM     20  H   UNL     1     105.745 116.542 111.635  1.00  0.00     0.293 HD
ENDBRANCH  16  19
BRANCH  18  21
ATOM     21  O   UNL     1     103.760 115.071 114.431  1.00  0.00    -0.504 OA
ATOM     22  H   UNL     1     104.452 114.996 115.163  1.00  0.00     0.293 HD
ENDBRANCH  18  21
ENDBRANCH   3  13
BRANCH  10  23
ATOM     23  O   UNL     1     101.286 106.081 112.606  1.00  0.00    -0.507 OA
ATOM     24  H   UNL     1     100.692 105.883 113.397  1.00  0.00     0.293 HD
ENDBRANCH  10  23
BRANCH  11  25
ATOM     25  O   UNL     1      98.876 107.824 108.837  1.00  0.00    -0.508 OA
ATOM     26  H   UNL     1      97.947 108.225 108.905  1.00  0.00     0.293 HD
ENDBRANCH  11  25
ENDBRANCH   1   2
BRANCH   1  27
ATOM     27  C   UNL     1     105.821 110.721 113.222  1.00  0.00     0.339 C 
ATOM     28  C   UNL     1     106.691 111.144 114.429  1.00  0.00     0.214 C 
ATOM     29  O   UNL     1     106.470 109.743 112.425  1.00  0.00    -0.332 OA
ATOM     30  C   UNL     1     107.254 109.939 115.217  1.00  0.00     0.180 C 
ATOM     31  C   UNL     1     106.716 108.556 113.161  1.00  0.00     0.179 C 
ATOM     32  C   UNL     1     107.755 108.827 114.276  1.00  0.00     0.177 C 
BRANCH  28  33
ATOM     33  O   UNL     1     105.963 111.980 115.293  1.00  0.00    -0.384 OA
ATOM     34  H   UNL     1     106.167 112.914 115.026  1.00  0.00     0.211 HD
ENDBRANCH  28  33
BRANCH  30  35
ATOM     35  O   UNL     1     106.332 109.445 116.157  1.00  0.00    -0.387 OA
ATOM     36  H   UNL     1     106.222 110.124 116.865  1.00  0.00     0.211 HD
ENDBRANCH  30  35
BRANCH  31  37
ATOM     37  C   UNL     1     107.188 107.471 112.183  1.00  0.00     0.191 C 
BRANCH  37  38
ATOM     38  O   UNL     1     107.886 108.038 111.106  1.00  0.00    -0.394 OA
ATOM     39  H   UNL     1     107.514 108.947 110.968  1.00  0.00     0.210 HD
ENDBRANCH  37  38
ENDBRANCH  31  37
BRANCH  32  40
ATOM     40  O   UNL     1     108.977 109.232 113.708  1.00  0.00    -0.387 OA
ATOM     41  H   UNL     1     109.674 108.601 114.025  1.00  0.00     0.211 HD
ENDBRANCH  32  40
ENDBRANCH   1  27
TORSDOF 12
ENDMDL
MODEL 8
REMARK VINA RESULT:    -5.540      9.653     11.339
REMARK INTER + INTRA:         -10.132
REMARK INTER:                  -8.125
REMARK INTRA:                  -2.006
REMARK UNBOUND:                -2.001
REMARK SMILES O=c1c(O[C@@H]2O[C@@H](CO)[C@@H](O)[C@H](O)[C@@H]2O)c(-c2ccc(O)c(O)c2)oc2cc(O)cc(O)c12
REMARK SMILES IDX 4 1 3 2 16 3 25 4 2 5 26 6 1 7 33 8 27 9 31 10 28 11 30 12
REMARK SMILES IDX 17 13 18 14 19 15 20 16 24 17 22 18 21 19 23 21 32 23 29 25
REMARK SMILES IDX 5 27 14 28 6 29 12 30 7 31 10 32 15 33 13 35 8 37 9 38 11 40
REMARK H PARENT 21 20 23 22 32 24 29 26 15 34 13 36 9 39 11 41
REMARK Flexibility Score: inf
ROOT
ATOM      1  O   UNL     1     109.060 119.030 111.990  1.00  0.00    -0.454 OA
ENDROOT
BRANCH   1   2
ATOM      2  C   UNL     1     110.028 118.707 111.012  1.00  0.00     0.214 A 
ATOM      3  C   UNL     1     111.196 118.045 111.432  1.00  0.00     0.180 A 
ATOM      4  O   UNL     1     112.087 117.625 110.545  1.00  0.00    -0.452 OA
ATOM      5  C   UNL     1     109.876 118.975 109.629  1.00  0.00     0.239 A 
ATOM      6  C   UNL     1     111.980 117.845 109.243  1.00  0.00     0.146 A 
ATOM      7  O   UNL     1     108.826 119.523 109.209  1.00  0.00    -0.285 OA
ATOM      8  C   UNL     1     110.891 118.583 108.719  1.00  0.00     0.111 A 
ATOM      9  C   UNL     1     112.966 117.331 108.396  1.00  0.00     0.094 A 
ATOM     10  C   UNL     1     110.861 118.847 107.316  1.00  0.00     0.134 A 
ATOM     11  C   UNL     1     112.891 117.534 107.021  1.00  0.00     0.123 A 
ATOM     12  C   UNL     1     111.841 118.285 106.486  1.00  0.00     0.093 A 
BRANCH   3  13
ATOM     13  C   UNL     1     111.457 117.774 112.857  1.00  0.00     0.025 A 
ATOM     14  C   UNL     1     111.224 116.497 113.380  1.00  0.00     0.016 A 
ATOM     15  C   UNL     1     111.486 116.230 114.725  1.00  0.00     0.051 A 
ATOM     16  C   UNL     1     112.000 117.226 115.564  1.00  0.00     0.157 A 
ATOM     17  C   UNL     1     112.000 118.768 113.684  1.00  0.00     0.062 A 
ATOM     18  C   UNL     1     112.266 118.511 115.035  1.00  0.00     0.158 A 
BRANCH  16  19
ATOM     19  O   UNL     1     112.230 116.898 116.902  1.00  0.00    -0.504 OA
ATOM     20  H   UNL     1     112.615 116.016 117.209  1.00  0.00     0.293 HD
ENDBRANCH  16  19
BRANCH  18  21
ATOM     21  O   UNL     1     112.796 119.549 115.804  1.00  0.00    -0.504 OA
ATOM     22  H   UNL     1     113.178 119.427 116.731  1.00  0.00     0.293 HD
ENDBRANCH  18  21
ENDBRANCH   3  13
BRANCH  10  23
ATOM     23  O   UNL     1     109.917 119.670 106.696  1.00  0.00    -0.507 OA
ATOM     24  H   UNL     1     110.051 120.120 105.802  1.00  0.00     0.293 HD
ENDBRANCH  10  23
BRANCH  11  25
ATOM     25  O   UNL     1     113.872 116.994 106.192  1.00  0.00    -0.508 OA
ATOM     26  H   UNL     1     114.845 116.962 106.473  1.00  0.00     0.293 HD
ENDBRANCH  11  25
ENDBRANCH   1   2
BRANCH   1  27
ATOM     27  C   UNL     1     108.724 120.337 112.471  1.00  0.00     0.339 C 
ATOM     28  C   UNL     1     107.220 120.648 112.278  1.00  0.00     0.214 C 
ATOM     29  O   UNL     1     109.126 120.516 113.820  1.00  0.00    -0.332 OA
ATOM     30  C   UNL     1     106.320 119.941 113.318  1.00  0.00     0.180 C 
ATOM     31  C   UNL     1     108.433 119.634 114.687  1.00  0.00     0.179 C 
ATOM     32  C   UNL     1     106.930 120.002 114.732  1.00  0.00     0.177 C 
BRANCH  28  33
ATOM     33  O   UNL     1     106.808 120.302 110.979  1.00  0.00    -0.384 OA
ATOM     34  H   UNL     1     106.725 121.150 110.470  1.00  0.00     0.211 HD
ENDBRANCH  28  33
BRANCH  30  35
ATOM     35  O   UNL     1     106.015 118.621 112.943  1.00  0.00    -0.387 OA
ATOM     36  H   UNL     1     105.164 118.369 113.375  1.00  0.00     0.211 HD
ENDBRANCH  30  35
BRANCH  31  37
ATOM     37  C   UNL     1     109.087 119.708 116.075  1.00  0.00     0.191 C 
BRANCH  37  38
ATOM     38  O   UNL     1     109.874 120.863 116.195  1.00  0.00    -0.394 OA
ATOM     39  H   UNL     1     110.723 120.590 116.627  1.00  0.00     0.210 HD
ENDBRANCH  37  38
ENDBRANCH  31  37
BRANCH  32  40
ATOM     40  O   UNL     1     106.768 121.305 115.238  1.00  0.00    -0.387 OA
ATOM     41  H   UNL     1     105.977 121.701 114.789  1.00  0.00     0.211 HD
ENDBRANCH  32  40
ENDBRANCH   1  27
TORSDOF 12
ENDMDL
MODEL 9
REMARK VINA RESULT:    -5.515      9.202     12.290
REMARK INTER + INTRA:         -10.096
REMARK INTER:                  -8.010
REMARK INTRA:                  -2.086
REMARK UNBOUND:                -2.001
REMARK SMILES O=c1c(O[C@@H]2O[C@@H](CO)[C@@H](O)[C@H](O)[C@@H]2O)c(-c2ccc(O)c(O)c2)oc2cc(O)cc(O)c12
REMARK SMILES IDX 4 1 3 2 16 3 25 4 2 5 26 6 1 7 33 8 27 9 31 10 28 11 30 12
REMARK SMILES IDX 17 13 18 14 19 15 20 16 24 17 22 18 21 19 23 21 32 23 29 25
REMARK SMILES IDX 5 27 14 28 6 29 12 30 7 31 10 32 15 33 13 35 8 37 9 38 11 40
REMARK H PARENT 21 20 23 22 32 24 29 26 15 34 13 36 9 39 11 41
REMARK Flexibility Score: inf
ROOT
ATOM      1  O   UNL     1     109.393 119.147 110.620  1.00  0.00    -0.454 OA
ENDROOT
BRANCH   1   2
ATOM      2  C   UNL     1     110.257 119.268 109.508  1.00  0.00     0.214 A 
ATOM      3  C   UNL     1     111.640 119.356 109.755  1.00  0.00     0.180 A 
ATOM      4  O   UNL     1     112.503 119.364 108.748  1.00  0.00    -0.452 OA
ATOM      5  C   UNL     1     109.821 119.266 108.160  1.00  0.00     0.239 A 
ATOM      6  C   UNL     1     112.140 119.354 107.475  1.00  0.00     0.146 A 
ATOM      7  O   UNL     1     108.599 119.142 107.899  1.00  0.00    -0.285 OA
ATOM      8  C   UNL     1     110.770 119.360 107.112  1.00  0.00     0.111 A 
ATOM      9  C   UNL     1     113.136 119.336 106.496  1.00  0.00     0.094 A 
ATOM     10  C   UNL     1     110.436 119.416 105.724  1.00  0.00     0.134 A 
ATOM     11  C   UNL     1     112.799 119.320 105.145  1.00  0.00     0.123 A 
ATOM     12  C   UNL     1     111.455 119.357 104.765  1.00  0.00     0.093 A 
BRANCH   3  13
ATOM     13  C   UNL     1     112.176 119.416 111.127  1.00  0.00     0.025 A 
ATOM     14  C   UNL     1     112.511 118.235 111.798  1.00  0.00     0.016 A 
ATOM     15  C   UNL     1     113.035 118.286 113.091  1.00  0.00     0.051 A 
ATOM     16  C   UNL     1     113.248 119.515 113.727  1.00  0.00     0.157 A 
ATOM     17  C   UNL     1     112.414 120.651 111.746  1.00  0.00     0.062 A 
ATOM     18  C   UNL     1     112.938 120.715 113.043  1.00  0.00     0.158 A 
BRANCH  16  19
ATOM     19  O   UNL     1     113.764 119.498 115.024  1.00  0.00    -0.504 OA
ATOM     20  H   UNL     1     113.306 119.920 115.820  1.00  0.00     0.293 HD
ENDBRANCH  16  19
BRANCH  18  21
ATOM     21  O   UNL     1     113.140 121.977 113.603  1.00  0.00    -0.504 OA
ATOM     22  H   UNL     1     112.674 122.306 114.436  1.00  0.00     0.293 HD
ENDBRANCH  18  21
ENDBRANCH   3  13
BRANCH  10  23
ATOM     23  O   UNL     1     109.133 119.559 105.241  1.00  0.00    -0.507 OA
ATOM     24  H   UNL     1     108.636 120.437 105.190  1.00  0.00     0.293 HD
ENDBRANCH  10  23
BRANCH  11  25
ATOM     25  O   UNL     1     113.808 119.280 104.186  1.00  0.00    -0.508 OA
ATOM     26  H   UNL     1     114.189 118.401 103.853  1.00  0.00     0.293 HD
ENDBRANCH  11  25
ENDBRANCH   1   2
BRANCH   1  27
ATOM     27  C   UNL     1     108.607 120.186 111.218  1.00  0.00     0.339 C 
ATOM     28  C   UNL     1     107.103 119.822 111.245  1.00  0.00     0.214 C 
ATOM     29  O   UNL     1     109.088 120.525 112.509  1.00  0.00    -0.332 OA
ATOM     30  C   UNL     1     106.751 118.803 112.353  1.00  0.00     0.180 C 
ATOM     31  C   UNL     1     108.969 119.434 113.407  1.00  0.00     0.179 C 
ATOM     32  C   UNL     1     107.476 119.124 113.674  1.00  0.00     0.177 C 
BRANCH  28  33
ATOM     33  O   UNL     1     106.693 119.328 109.995  1.00  0.00    -0.384 OA
ATOM     34  H   UNL     1     105.789 119.700 109.823  1.00  0.00     0.211 HD
ENDBRANCH  28  33
BRANCH  30  35
ATOM     35  O   UNL     1     106.983 117.477 111.945  1.00  0.00    -0.387 OA
ATOM     36  H   UNL     1     107.141 116.932 112.752  1.00  0.00     0.211 HD
ENDBRANCH  30  35
BRANCH  31  37
ATOM     37  C   UNL     1     109.725 119.787 114.697  1.00  0.00     0.191 C 
BRANCH  37  38
ATOM     38  O   UNL     1     109.678 121.168 114.941  1.00  0.00    -0.394 OA
ATOM     39  H   UNL     1     109.250 121.586 114.151  1.00  0.00     0.210 HD
ENDBRANCH  37  38
ENDBRANCH  31  37
BRANCH  32  40
ATOM     40  O   UNL     1     106.853 120.234 114.273  1.00  0.00    -0.387 OA
ATOM     41  H   UNL     1     105.995 120.385 113.797  1.00  0.00     0.211 HD
ENDBRANCH  32  40
ENDBRANCH   1  27
TORSDOF 12
ENDMDL
