MODEL 1
REMARK VINA RESULT:    -4.810      0.000      0.000
REMARK INTER + INTRA:         -10.255
REMARK INTER:                  -8.747
REMARK INTRA:                  -1.508
REMARK UNBOUND:                -1.508
REMARK SMILES CCCCCCCCCCCCCCCC(=O)[O-]
REMARK SMILES IDX 9 1 10 2 11 3 12 4 13 5 14 6 15 7 16 8 17 9 18 10 8 11 7 12
REMARK SMILES IDX 6 13 5 14 4 15 3 16 2 17 1 18
REMARK H PARENT
REMARK Flexibility Score: inf
ROOT
ATOM      1  C   UNL     1      -4.913  23.170  48.882  1.00  0.00     0.000 C 
ENDROOT
BRANCH   1   2
ATOM      2  C   UNL     1      -5.375  22.264  47.735  1.00  0.00     0.000 C 
BRANCH   2   3
ATOM      3  C   UNL     1      -4.637  20.921  47.765  1.00  0.00     0.000 C 
BRANCH   3   4
ATOM      4  C   UNL     1      -3.593  20.888  48.888  1.00  0.00     0.000 C 
BRANCH   4   5
ATOM      5  C   UNL     1      -3.053  19.465  49.096  1.00  0.00     0.000 C 
BRANCH   5   6
ATOM      6  C   UNL     1      -3.802  18.414  48.256  1.00  0.00     0.006 C 
BRANCH   6   7
ATOM      7  C   UNL     1      -2.892  17.538  47.381  1.00  0.00     0.053 C 
BRANCH   7   8
ATOM      8  C   UNL     1      -1.773  18.325  46.770  1.00  0.00     0.041 C 
ATOM      9  O   UNL     1      -2.015  19.188  45.886  1.00  0.00    -0.550 OA
ATOM     10  O   UNL     1      -0.468  18.129  47.202  1.00  0.00    -0.550 OA
ENDBRANCH   7   8
ENDBRANCH   6   7
ENDBRANCH   5   6
ENDBRANCH   4   5
ENDBRANCH   3   4
ENDBRANCH   2   3
ENDBRANCH   1   2
BRANCH   1  11
ATOM     11  C   UNL     1      -5.759  24.448  48.948  1.00  0.00     0.000 C 
BRANCH  11  12
ATOM     12  C   UNL     1      -5.943  24.912  50.401  1.00  0.00    -0.000 C 
BRANCH  12  13
ATOM     13  C   UNL     1      -4.879  24.341  51.355  1.00  0.00    -0.000 C 
BRANCH  13  14
ATOM     14  C   UNL     1      -4.134  25.382  52.219  1.00  0.00    -0.000 C 
BRANCH  14  15
ATOM     15  C   UNL     1      -2.598  25.257  52.215  1.00  0.00    -0.000 C 
BRANCH  15  16
ATOM     16  C   UNL     1      -2.088  23.828  52.513  1.00  0.00    -0.000 C 
BRANCH  16  17
ATOM     17  C   UNL     1      -1.094  23.302  51.465  1.00  0.00    -0.003 C 
ATOM     18  C   UNL     1      -1.427  23.762  50.047  1.00  0.00     0.004 C 
ENDBRANCH  16  17
ENDBRANCH  15  16
ENDBRANCH  14  15
ENDBRANCH  13  14
ENDBRANCH  12  13
ENDBRANCH  11  12
ENDBRANCH   1  11
TORSDOF 14
ENDMDL
MODEL 2
REMARK VINA RESULT:    -4.798      1.646      3.440
REMARK INTER + INTRA:         -10.233
REMARK INTER:                  -9.054
REMARK INTRA:                  -1.179
REMARK UNBOUND:                -1.508
REMARK SMILES CCCCCCCCCCCCCCCC(=O)[O-]
REMARK SMILES IDX 9 1 10 2 11 3 12 4 13 5 14 6 15 7 16 8 17 9 18 10 8 11 7 12
REMARK SMILES IDX 6 13 5 14 4 15 3 16 2 17 1 18
REMARK H PARENT
REMARK Flexibility Score: inf
ROOT
ATOM      1  C   UNL     1      -3.943  20.562  48.525  1.00  0.00     0.000 C 
ENDROOT
BRANCH   1   2
ATOM      2  C   UNL     1      -4.248  19.060  48.520  1.00  0.00     0.000 C 
BRANCH   2   3
ATOM      3  C   UNL     1      -2.962  18.237  48.668  1.00  0.00     0.000 C 
BRANCH   3   4
ATOM      4  C   UNL     1      -2.640  17.479  47.374  1.00  0.00     0.000 C 
BRANCH   4   5
ATOM      5  C   UNL     1      -1.572  18.217  46.555  1.00  0.00     0.000 C 
BRANCH   5   6
ATOM      6  C   UNL     1      -0.408  18.734  47.421  1.00  0.00     0.006 C 
BRANCH   6   7
ATOM      7  C   UNL     1       0.283  19.991  46.867  1.00  0.00     0.053 C 
BRANCH   7   8
ATOM      8  C   UNL     1      -0.598  21.199  46.947  1.00  0.00     0.041 C 
ATOM      9  O   UNL     1      -1.253  21.573  45.938  1.00  0.00    -0.550 OA
ATOM     10  O   UNL     1      -0.724  21.890  48.145  1.00  0.00    -0.550 OA
ENDBRANCH   7   8
ENDBRANCH   6   7
ENDBRANCH   5   6
ENDBRANCH   4   5
ENDBRANCH   3   4
ENDBRANCH   2   3
ENDBRANCH   1   2
BRANCH   1  11
ATOM     11  C   UNL     1      -4.528  21.246  47.283  1.00  0.00     0.000 C 
BRANCH  11  12
ATOM     12  C   UNL     1      -5.490  22.377  47.679  1.00  0.00    -0.000 C 
BRANCH  12  13
ATOM     13  C   UNL     1      -4.963  23.236  48.843  1.00  0.00    -0.000 C 
BRANCH  13  14
ATOM     14  C   UNL     1      -5.907  24.363  49.315  1.00  0.00    -0.000 C 
BRANCH  14  15
ATOM     15  C   UNL     1      -5.470  25.083  50.606  1.00  0.00    -0.000 C 
BRANCH  15  16
ATOM     16  C   UNL     1      -4.746  24.166  51.618  1.00  0.00    -0.000 C 
BRANCH  16  17
ATOM     17  C   UNL     1      -3.537  24.833  52.293  1.00  0.00    -0.003 C 
ATOM     18  C   UNL     1      -3.917  26.071  53.102  1.00  0.00     0.004 C 
ENDBRANCH  16  17
ENDBRANCH  15  16
ENDBRANCH  14  15
ENDBRANCH  13  14
ENDBRANCH  12  13
ENDBRANCH  11  12
ENDBRANCH   1  11
TORSDOF 14
ENDMDL
MODEL 3
REMARK VINA RESULT:    -4.755      2.094      4.484
REMARK INTER + INTRA:         -10.156
REMARK INTER:                  -8.235
REMARK INTRA:                  -1.920
REMARK UNBOUND:                -1.508
REMARK SMILES CCCCCCCCCCCCCCCC(=O)[O-]
REMARK SMILES IDX 9 1 10 2 11 3 12 4 13 5 14 6 15 7 16 8 17 9 18 10 8 11 7 12
REMARK SMILES IDX 6 13 5 14 4 15 3 16 2 17 1 18
REMARK H PARENT
REMARK Flexibility Score: inf
ROOT
ATOM      1  C   UNL     1      -3.264  24.240  51.668  1.00  0.00     0.000 C 
ENDROOT
BRANCH   1   2
ATOM      2  C   UNL     1      -4.780  24.101  51.842  1.00  0.00     0.000 C 
BRANCH   2   3
ATOM      3  C   UNL     1      -5.513  24.373  50.523  1.00  0.00     0.000 C 
BRANCH   3   4
ATOM      4  C   UNL     1      -4.697  23.873  49.325  1.00  0.00     0.000 C 
BRANCH   4   5
ATOM      5  C   UNL     1      -5.618  23.394  48.193  1.00  0.00     0.000 C 
BRANCH   5   6
ATOM      6  C   UNL     1      -5.219  22.012  47.643  1.00  0.00     0.006 C 
BRANCH   6   7
ATOM      7  C   UNL     1      -4.321  21.191  48.583  1.00  0.00     0.053 C 
BRANCH   7   8
ATOM      8  C   UNL     1      -4.026  19.830  48.032  1.00  0.00     0.041 C 
ATOM      9  O   UNL     1      -3.294  19.704  47.015  1.00  0.00    -0.550 OA
ATOM     10  O   UNL     1      -4.530  18.700  48.662  1.00  0.00    -0.550 OA
ENDBRANCH   7   8
ENDBRANCH   6   7
ENDBRANCH   5   6
ENDBRANCH   4   5
ENDBRANCH   3   4
ENDBRANCH   2   3
ENDBRANCH   1   2
BRANCH   1  11
ATOM     11  C   UNL     1      -2.661  25.116  52.773  1.00  0.00     0.000 C 
BRANCH  11  12
ATOM     12  C   UNL     1      -3.685  26.142  53.281  1.00  0.00    -0.000 C 
BRANCH  12  13
ATOM     13  C   UNL     1      -3.563  27.510  52.586  1.00  0.00    -0.000 C 
BRANCH  13  14
ATOM     14  C   UNL     1      -4.585  27.776  51.459  1.00  0.00    -0.000 C 
BRANCH  14  15
ATOM     15  C   UNL     1      -3.994  27.820  50.037  1.00  0.00    -0.000 C 
BRANCH  15  16
ATOM     16  C   UNL     1      -5.042  27.618  48.918  1.00  0.00    -0.000 C 
BRANCH  16  17
ATOM     17  C   UNL     1      -6.461  28.046  49.325  1.00  0.00    -0.003 C 
ATOM     18  C   UNL     1      -7.514  26.983  49.016  1.00  0.00     0.004 C 
ENDBRANCH  16  17
ENDBRANCH  15  16
ENDBRANCH  14  15
ENDBRANCH  13  14
ENDBRANCH  12  13
ENDBRANCH  11  12
ENDBRANCH   1  11
TORSDOF 14
ENDMDL
MODEL 4
REMARK VINA RESULT:    -4.726      1.146      2.053
REMARK INTER + INTRA:         -10.101
REMARK INTER:                  -9.211
REMARK INTRA:                  -0.891
REMARK UNBOUND:                -1.508
REMARK SMILES CCCCCCCCCCCCCCCC(=O)[O-]
REMARK SMILES IDX 9 1 10 2 11 3 12 4 13 5 14 6 15 7 16 8 17 9 18 10 8 11 7 12
REMARK SMILES IDX 6 13 5 14 4 15 3 16 2 17 1 18
REMARK H PARENT
REMARK Flexibility Score: inf
ROOT
ATOM      1  C   UNL     1      -4.626  23.392  48.690  1.00  0.00     0.000 C 
ENDROOT
BRANCH   1   2
ATOM      2  C   UNL     1      -5.400  22.408  47.806  1.00  0.00     0.000 C 
BRANCH   2   3
ATOM      3  C   UNL     1      -4.527  21.207  47.425  1.00  0.00     0.000 C 
BRANCH   3   4
ATOM      4  C   UNL     1      -4.022  20.472  48.673  1.00  0.00     0.000 C 
BRANCH   4   5
ATOM      5  C   UNL     1      -4.285  18.963  48.567  1.00  0.00     0.000 C 
BRANCH   5   6
ATOM      6  C   UNL     1      -3.013  18.120  48.773  1.00  0.00     0.006 C 
BRANCH   6   7
ATOM      7  C   UNL     1      -2.346  17.651  47.470  1.00  0.00     0.053 C 
BRANCH   7   8
ATOM      8  C   UNL     1      -1.241  18.568  47.042  1.00  0.00     0.041 C 
ATOM      9  O   UNL     1      -0.053  18.331  47.387  1.00  0.00    -0.550 OA
ATOM     10  O   UNL     1      -1.519  19.664  46.235  1.00  0.00    -0.550 OA
ENDBRANCH   7   8
ENDBRANCH   6   7
ENDBRANCH   5   6
ENDBRANCH   4   5
ENDBRANCH   3   4
ENDBRANCH   2   3
ENDBRANCH   1   2
BRANCH   1  11
ATOM     11  C   UNL     1      -5.438  24.671  48.930  1.00  0.00     0.000 C 
BRANCH  11  12
ATOM     12  C   UNL     1      -5.899  24.764  50.393  1.00  0.00    -0.000 C 
BRANCH  12  13
ATOM     13  C   UNL     1      -4.893  24.147  51.381  1.00  0.00    -0.000 C 
BRANCH  13  14
ATOM     14  C   UNL     1      -4.101  25.158  52.240  1.00  0.00    -0.000 C 
BRANCH  14  15
ATOM     15  C   UNL     1      -2.653  24.746  52.565  1.00  0.00    -0.000 C 
BRANCH  15  16
ATOM     16  C   UNL     1      -1.988  25.613  53.659  1.00  0.00    -0.000 C 
BRANCH  16  17
ATOM     17  C   UNL     1      -2.843  26.815  54.091  1.00  0.00    -0.003 C 
ATOM     18  C   UNL     1      -2.278  28.149  53.607  1.00  0.00     0.004 C 
ENDBRANCH  16  17
ENDBRANCH  15  16
ENDBRANCH  14  15
ENDBRANCH  13  14
ENDBRANCH  12  13
ENDBRANCH  11  12
ENDBRANCH   1  11
TORSDOF 14
ENDMDL
MODEL 5
REMARK VINA RESULT:    -4.682      3.551      6.768
REMARK INTER + INTRA:         -10.023
REMARK INTER:                  -8.112
REMARK INTRA:                  -1.911
REMARK UNBOUND:                -1.508
REMARK SMILES CCCCCCCCCCCCCCCC(=O)[O-]
REMARK SMILES IDX 9 1 10 2 11 3 12 4 13 5 14 6 15 7 16 8 17 9 18 10 8 11 7 12
REMARK SMILES IDX 6 13 5 14 4 15 3 16 2 17 1 18
REMARK H PARENT
REMARK Flexibility Score: inf
ROOT
ATOM      1  C   UNL     1      -5.432  22.439  47.730  1.00  0.00     0.000 C 
ENDROOT
BRANCH   1   2
ATOM      2  C   UNL     1      -4.669  23.766  47.639  1.00  0.00     0.000 C 
BRANCH   2   3
ATOM      3  C   UNL     1      -5.559  24.941  48.060  1.00  0.00     0.000 C 
BRANCH   3   4
ATOM      4  C   UNL     1      -5.150  25.479  49.437  1.00  0.00     0.000 C 
BRANCH   4   5
ATOM      5  C   UNL     1      -5.789  24.651  50.562  1.00  0.00     0.000 C 
BRANCH   5   6
ATOM      6  C   UNL     1      -4.748  24.050  51.525  1.00  0.00     0.006 C 
BRANCH   6   7
ATOM      7  C   UNL     1      -3.403  24.796  51.550  1.00  0.00     0.053 C 
BRANCH   7   8
ATOM      8  C   UNL     1      -3.155  25.464  52.867  1.00  0.00     0.041 C 
ATOM      9  O   UNL     1      -4.057  26.162  53.403  1.00  0.00    -0.550 OA
ATOM     10  O   UNL     1      -1.942  25.288  53.519  1.00  0.00    -0.550 OA
ENDBRANCH   7   8
ENDBRANCH   6   7
ENDBRANCH   5   6
ENDBRANCH   4   5
ENDBRANCH   3   4
ENDBRANCH   2   3
ENDBRANCH   1   2
BRANCH   1  11
ATOM     11  C   UNL     1      -4.552  21.340  48.339  1.00  0.00     0.000 C 
BRANCH  11  12
ATOM     12  C   UNL     1      -3.193  21.904  48.781  1.00  0.00    -0.000 C 
BRANCH  12  13
ATOM     13  C   UNL     1      -2.003  21.234  48.070  1.00  0.00    -0.000 C 
BRANCH  13  14
ATOM     14  C   UNL     1      -2.224  20.897  46.580  1.00  0.00    -0.000 C 
BRANCH  14  15
ATOM     15  C   UNL     1      -1.956  19.429  46.195  1.00  0.00    -0.000 C 
BRANCH  15  16
ATOM     16  C   UNL     1      -2.995  18.435  46.763  1.00  0.00    -0.000 C 
BRANCH  16  17
ATOM     17  C   UNL     1      -2.413  17.474  47.812  1.00  0.00    -0.003 C 
ATOM     18  C   UNL     1      -2.859  17.806  49.234  1.00  0.00     0.004 C 
ENDBRANCH  16  17
ENDBRANCH  15  16
ENDBRANCH  14  15
ENDBRANCH  13  14
ENDBRANCH  12  13
ENDBRANCH  11  12
ENDBRANCH   1  11
TORSDOF 14
ENDMDL
MODEL 6
REMARK VINA RESULT:    -4.675      3.801      7.541
REMARK INTER + INTRA:         -10.009
REMARK INTER:                  -9.120
REMARK INTRA:                  -0.890
REMARK UNBOUND:                -1.508
REMARK SMILES CCCCCCCCCCCCCCCC(=O)[O-]
REMARK SMILES IDX 9 1 10 2 11 3 12 4 13 5 14 6 15 7 16 8 17 9 18 10 8 11 7 12
REMARK SMILES IDX 6 13 5 14 4 15 3 16 2 17 1 18
REMARK H PARENT
REMARK Flexibility Score: inf
ROOT
ATOM      1  C   UNL     1      -5.054  21.604  47.704  1.00  0.00     0.000 C 
ENDROOT
BRANCH   1   2
ATOM      2  C   UNL     1      -5.221  23.039  48.216  1.00  0.00     0.000 C 
BRANCH   2   3
ATOM      3  C   UNL     1      -4.484  23.238  49.545  1.00  0.00     0.000 C 
BRANCH   3   4
ATOM      4  C   UNL     1      -5.232  24.226  50.449  1.00  0.00     0.000 C 
BRANCH   4   5
ATOM      5  C   UNL     1      -4.448  24.490  51.743  1.00  0.00     0.000 C 
BRANCH   5   6
ATOM      6  C   UNL     1      -4.176  25.987  51.981  1.00  0.00     0.006 C 
BRANCH   6   7
ATOM      7  C   UNL     1      -3.920  26.358  53.451  1.00  0.00     0.053 C 
BRANCH   7   8
ATOM      8  C   UNL     1      -2.459  26.494  53.751  1.00  0.00     0.041 C 
ATOM      9  O   UNL     1      -1.760  25.471  53.975  1.00  0.00    -0.550 OA
ATOM     10  O   UNL     1      -1.862  27.748  53.748  1.00  0.00    -0.550 OA
ENDBRANCH   7   8
ENDBRANCH   6   7
ENDBRANCH   5   6
ENDBRANCH   4   5
ENDBRANCH   3   4
ENDBRANCH   2   3
ENDBRANCH   1   2
BRANCH   1  11
ATOM     11  C   UNL     1      -3.968  20.862  48.493  1.00  0.00     0.000 C 
BRANCH  11  12
ATOM     12  C   UNL     1      -4.287  19.362  48.589  1.00  0.00    -0.000 C 
BRANCH  12  13
ATOM     13  C   UNL     1      -3.114  18.531  49.141  1.00  0.00    -0.000 C 
BRANCH  13  14
ATOM     14  C   UNL     1      -2.664  17.348  48.256  1.00  0.00    -0.000 C 
BRANCH  14  15
ATOM     15  C   UNL     1      -2.698  17.617  46.739  1.00  0.00    -0.000 C 
BRANCH  15  16
ATOM     16  C   UNL     1      -1.629  18.627  46.259  1.00  0.00    -0.000 C 
BRANCH  16  17
ATOM     17  C   UNL     1      -0.190  18.198  46.589  1.00  0.00    -0.003 C 
ATOM     18  C   UNL     1       0.625  19.311  47.246  1.00  0.00     0.004 C 
ENDBRANCH  16  17
ENDBRANCH  15  16
ENDBRANCH  14  15
ENDBRANCH  13  14
ENDBRANCH  12  13
ENDBRANCH  11  12
ENDBRANCH   1  11
TORSDOF 14
ENDMDL
MODEL 7
REMARK VINA RESULT:    -4.575      3.741      6.820
REMARK INTER + INTRA:          -9.828
REMARK INTER:                  -7.735
REMARK INTRA:                  -2.093
REMARK UNBOUND:                -1.508
REMARK SMILES CCCCCCCCCCCCCCCC(=O)[O-]
REMARK SMILES IDX 9 1 10 2 11 3 12 4 13 5 14 6 15 7 16 8 17 9 18 10 8 11 7 12
REMARK SMILES IDX 6 13 5 14 4 15 3 16 2 17 1 18
REMARK H PARENT
REMARK Flexibility Score: inf
ROOT
ATOM      1  C   UNL     1      -2.576  23.033  46.132  1.00  0.00     0.000 C 
ENDROOT
BRANCH   1   2
ATOM      2  C   UNL     1      -3.401  23.801  47.170  1.00  0.00     0.000 C 
BRANCH   2   3
ATOM      3  C   UNL     1      -4.903  23.597  46.941  1.00  0.00     0.000 C 
BRANCH   3   4
ATOM      4  C   UNL     1      -5.604  23.159  48.234  1.00  0.00     0.000 C 
BRANCH   4   5
ATOM      5  C   UNL     1      -4.794  23.582  49.469  1.00  0.00     0.000 C 
BRANCH   5   6
ATOM      6  C   UNL     1      -5.574  24.530  50.398  1.00  0.00     0.006 C 
BRANCH   6   7
ATOM      7  C   UNL     1      -6.718  25.292  49.709  1.00  0.00     0.053 C 
BRANCH   7   8
ATOM      8  C   UNL     1      -6.313  26.680  49.318  1.00  0.00     0.041 C 
ATOM      9  O   UNL     1      -5.525  26.862  48.352  1.00  0.00    -0.550 OA
ATOM     10  O   UNL     1      -6.832  27.774  49.997  1.00  0.00    -0.550 OA
ENDBRANCH   7   8
ENDBRANCH   6   7
ENDBRANCH   5   6
ENDBRANCH   4   5
ENDBRANCH   3   4
ENDBRANCH   2   3
ENDBRANCH   1   2
BRANCH   1  11
ATOM     11  C   UNL     1      -2.357  21.579  46.570  1.00  0.00     0.000 C 
BRANCH  11  12
ATOM     12  C   UNL     1      -1.872  21.511  48.026  1.00  0.00    -0.000 C 
BRANCH  12  13
ATOM     13  C   UNL     1      -2.807  20.693  48.935  1.00  0.00    -0.000 C 
BRANCH  13  14
ATOM     14  C   UNL     1      -3.945  19.940  48.211  1.00  0.00    -0.000 C 
BRANCH  14  15
ATOM     15  C   UNL     1      -4.069  18.446  48.567  1.00  0.00    -0.000 C 
BRANCH  15  16
ATOM     16  C   UNL     1      -2.715  17.701  48.618  1.00  0.00    -0.000 C 
BRANCH  16  17
ATOM     17  C   UNL     1      -2.132  17.395  47.228  1.00  0.00    -0.003 C 
ATOM     18  C   UNL     1      -0.801  18.100  46.975  1.00  0.00     0.004 C 
ENDBRANCH  16  17
ENDBRANCH  15  16
ENDBRANCH  14  15
ENDBRANCH  13  14
ENDBRANCH  12  13
ENDBRANCH  11  12
ENDBRANCH   1  11
TORSDOF 14
ENDMDL
MODEL 8
REMARK VINA RESULT:    -4.568      3.464      6.949
REMARK INTER + INTRA:          -9.814
REMARK INTER:                  -8.206
REMARK INTRA:                  -1.608
REMARK UNBOUND:                -1.508
REMARK SMILES CCCCCCCCCCCCCCCC(=O)[O-]
REMARK SMILES IDX 9 1 10 2 11 3 12 4 13 5 14 6 15 7 16 8 17 9 18 10 8 11 7 12
REMARK SMILES IDX 6 13 5 14 4 15 3 16 2 17 1 18
REMARK H PARENT
REMARK Flexibility Score: inf
ROOT
ATOM      1  C   UNL     1      -4.241  18.871  48.510  1.00  0.00     0.000 C 
ENDROOT
BRANCH   1   2
ATOM      2  C   UNL     1      -3.882  20.359  48.576  1.00  0.00     0.000 C 
BRANCH   2   3
ATOM      3  C   UNL     1      -4.256  21.074  47.272  1.00  0.00     0.000 C 
BRANCH   3   4
ATOM      4  C   UNL     1      -5.325  22.147  47.518  1.00  0.00     0.000 C 
BRANCH   4   5
ATOM      5  C   UNL     1      -5.005  22.963  48.779  1.00  0.00     0.000 C 
BRANCH   5   6
ATOM      6  C   UNL     1      -5.916  24.194  48.939  1.00  0.00     0.006 C 
BRANCH   6   7
ATOM      7  C   UNL     1      -5.843  24.860  50.323  1.00  0.00     0.053 C 
BRANCH   7   8
ATOM      8  C   UNL     1      -5.235  26.228  50.257  1.00  0.00     0.041 C 
ATOM      9  O   UNL     1      -4.108  26.395  49.719  1.00  0.00    -0.550 OA
ATOM     10  O   UNL     1      -5.927  27.322  50.759  1.00  0.00    -0.550 OA
ENDBRANCH   7   8
ENDBRANCH   6   7
ENDBRANCH   5   6
ENDBRANCH   4   5
ENDBRANCH   3   4
ENDBRANCH   2   3
ENDBRANCH   1   2
BRANCH   1  11
ATOM     11  C   UNL     1      -2.979  18.006  48.394  1.00  0.00     0.000 C 
BRANCH  11  12
ATOM     12  C   UNL     1      -2.788  17.502  46.955  1.00  0.00    -0.000 C 
BRANCH  12  13
ATOM     13  C   UNL     1      -1.700  18.274  46.186  1.00  0.00    -0.000 C 
BRANCH  13  14
ATOM     14  C   UNL     1      -0.312  18.313  46.861  1.00  0.00    -0.000 C 
BRANCH  14  15
ATOM     15  C   UNL     1       0.220  19.724  47.181  1.00  0.00    -0.000 C 
BRANCH  15  16
ATOM     16  C   UNL     1      -0.684  20.865  46.659  1.00  0.00    -0.000 C 
BRANCH  16  17
ATOM     17  C   UNL     1      -0.253  22.258  47.146  1.00  0.00    -0.003 C 
ATOM     18  C   UNL     1      -1.042  22.730  48.366  1.00  0.00     0.004 C 
ENDBRANCH  16  17
ENDBRANCH  15  16
ENDBRANCH  14  15
ENDBRANCH  13  14
ENDBRANCH  12  13
ENDBRANCH  11  12
ENDBRANCH   1  11
TORSDOF 14
ENDMDL
MODEL 9
REMARK VINA RESULT:    -4.566      1.174      2.791
REMARK INTER + INTRA:          -9.811
REMARK INTER:                  -8.176
REMARK INTRA:                  -1.635
REMARK UNBOUND:                -1.508
REMARK SMILES CCCCCCCCCCCCCCCC(=O)[O-]
REMARK SMILES IDX 9 1 10 2 11 3 12 4 13 5 14 6 15 7 16 8 17 9 18 10 8 11 7 12
REMARK SMILES IDX 6 13 5 14 4 15 3 16 2 17 1 18
REMARK H PARENT
REMARK Flexibility Score: inf
ROOT
ATOM      1  C   UNL     1      -4.506  25.325  50.813  1.00  0.00     0.000 C 
ENDROOT
BRANCH   1   2
ATOM      2  C   UNL     1      -5.446  24.379  50.059  1.00  0.00     0.000 C 
BRANCH   2   3
ATOM      3  C   UNL     1      -4.702  23.637  48.943  1.00  0.00     0.000 C 
BRANCH   3   4
ATOM      4  C   UNL     1      -5.681  22.889  48.028  1.00  0.00     0.000 C 
BRANCH   4   5
ATOM      5  C   UNL     1      -5.056  21.590  47.499  1.00  0.00     0.000 C 
BRANCH   5   6
ATOM      6  C   UNL     1      -4.221  20.853  48.563  1.00  0.00     0.006 C 
BRANCH   6   7
ATOM      7  C   UNL     1      -4.237  19.321  48.431  1.00  0.00     0.053 C 
BRANCH   7   8
ATOM      8  C   UNL     1      -3.081  18.815  47.624  1.00  0.00     0.041 C 
ATOM      9  O   UNL     1      -1.943  19.342  47.748  1.00  0.00    -0.550 OA
ATOM     10  O   UNL     1      -3.251  17.740  46.762  1.00  0.00    -0.550 OA
ENDBRANCH   7   8
ENDBRANCH   6   7
ENDBRANCH   5   6
ENDBRANCH   4   5
ENDBRANCH   3   4
ENDBRANCH   2   3
ENDBRANCH   1   2
BRANCH   1  11
ATOM     11  C   UNL     1      -4.263  24.832  52.245  1.00  0.00     0.000 C 
BRANCH  11  12
ATOM     12  C   UNL     1      -3.522  25.893  53.074  1.00  0.00    -0.000 C 
BRANCH  12  13
ATOM     13  C   UNL     1      -2.094  25.467  53.461  1.00  0.00    -0.000 C 
BRANCH  13  14
ATOM     14  C   UNL     1      -1.735  23.996  53.155  1.00  0.00    -0.000 C 
BRANCH  14  15
ATOM     15  C   UNL     1      -0.518  23.799  52.230  1.00  0.00    -0.000 C 
BRANCH  15  16
ATOM     16  C   UNL     1      -0.812  24.093  50.741  1.00  0.00    -0.000 C 
BRANCH  16  17
ATOM     17  C   UNL     1      -1.455  22.910  49.999  1.00  0.00    -0.003 C 
ATOM     18  C   UNL     1      -1.043  22.835  48.530  1.00  0.00     0.004 C 
ENDBRANCH  16  17
ENDBRANCH  15  16
ENDBRANCH  14  15
ENDBRANCH  13  14
ENDBRANCH  12  13
ENDBRANCH  11  12
ENDBRANCH   1  11
TORSDOF 14
ENDMDL
