MODEL 1
REMARK VINA RESULT:    -4.395      0.000      0.000
REMARK INTER + INTRA:          -8.436
REMARK INTER:                  -6.964
REMARK INTRA:                  -1.471
REMARK UNBOUND:                -1.471
REMARK SMILES CCCCCCCCCCCC(=O)[O-]
REMARK SMILES IDX 7 1 8 2 9 3 10 4 11 5 12 6 13 7 14 8 6 9 5 10 4 11 3 12 2 13
REMARK SMILES IDX 1 14
REMARK H PARENT
REMARK Flexibility Score: inf
ROOT
ATOM      1  C   UNL     1      61.913  29.366  24.956  1.00  0.00     0.000 C 
ENDROOT
BRANCH   1   2
ATOM      2  C   UNL     1      63.406  29.544  24.628  1.00  0.00     0.000 C 
BRANCH   2   3
ATOM      3  C   UNL     1      64.334  28.929  25.690  1.00  0.00     0.000 C 
BRANCH   3   4
ATOM      4  C   UNL     1      65.279  27.868  25.103  1.00  0.00     0.006 C 
BRANCH   4   5
ATOM      5  C   UNL     1      64.767  26.437  25.314  1.00  0.00     0.053 C 
BRANCH   5   6
ATOM      6  C   UNL     1      64.623  25.736  24.000  1.00  0.00     0.041 C 
ATOM      7  O   UNL     1      65.621  25.593  23.246  1.00  0.00    -0.550 OA
ATOM      8  O   UNL     1      63.376  25.284  23.586  1.00  0.00    -0.550 OA
ENDBRANCH   5   6
ENDBRANCH   4   5
ENDBRANCH   3   4
ENDBRANCH   2   3
ENDBRANCH   1   2
BRANCH   1   9
ATOM      9  C   UNL     1      61.328  27.976  24.643  1.00  0.00     0.000 C 
BRANCH   9  10
ATOM     10  C   UNL     1      60.570  27.362  25.832  1.00  0.00    -0.000 C 
BRANCH  10  11
ATOM     11  C   UNL     1      61.482  27.053  27.032  1.00  0.00    -0.000 C 
BRANCH  11  12
ATOM     12  C   UNL     1      61.198  27.877  28.303  1.00  0.00    -0.000 C 
BRANCH  12  13
ATOM     13  C   UNL     1      62.444  28.587  28.848  1.00  0.00    -0.003 C 
ATOM     14  C   UNL     1      62.349  30.098  28.647  1.00  0.00     0.004 C 
ENDBRANCH  12  13
ENDBRANCH  11  12
ENDBRANCH  10  11
ENDBRANCH   9  10
ENDBRANCH   1   9
TORSDOF 10
ENDMDL
MODEL 2
REMARK VINA RESULT:    -4.310     13.157     14.952
REMARK INTER + INTRA:          -8.301
REMARK INTER:                  -6.952
REMARK INTRA:                  -1.349
REMARK UNBOUND:                -1.471
REMARK SMILES CCCCCCCCCCCC(=O)[O-]
REMARK SMILES IDX 7 1 8 2 9 3 10 4 11 5 12 6 13 7 14 8 6 9 5 10 4 11 3 12 2 13
REMARK SMILES IDX 1 14
REMARK H PARENT
REMARK Flexibility Score: inf
ROOT
ATOM      1  C   UNL     1      60.390  28.282  13.232  1.00  0.00     0.000 C 
ENDROOT
BRANCH   1   2
ATOM      2  C   UNL     1      61.704  28.961  12.807  1.00  0.00     0.000 C 
BRANCH   2   3
ATOM      3  C   UNL     1      62.003  30.244  13.602  1.00  0.00     0.000 C 
BRANCH   3   4
ATOM      4  C   UNL     1      61.973  31.504  12.721  1.00  0.00     0.006 C 
BRANCH   4   5
ATOM      5  C   UNL     1      60.562  32.091  12.576  1.00  0.00     0.053 C 
BRANCH   5   6
ATOM      6  C   UNL     1      59.970  32.363  13.923  1.00  0.00     0.041 C 
ATOM      7  O   UNL     1      58.902  31.792  14.271  1.00  0.00    -0.550 OA
ATOM      8  O   UNL     1      60.568  33.283  14.774  1.00  0.00    -0.550 OA
ENDBRANCH   5   6
ENDBRANCH   4   5
ENDBRANCH   3   4
ENDBRANCH   2   3
ENDBRANCH   1   2
BRANCH   1   9
ATOM      9  C   UNL     1      59.266  28.300  12.180  1.00  0.00     0.000 C 
BRANCH   9  10
ATOM     10  C   UNL     1      59.616  29.142  10.942  1.00  0.00    -0.000 C 
BRANCH  10  11
ATOM     11  C   UNL     1      59.649  28.317   9.643  1.00  0.00    -0.000 C 
BRANCH  11  12
ATOM     12  C   UNL     1      61.040  28.161   8.999  1.00  0.00    -0.000 C 
BRANCH  12  13
ATOM     13  C   UNL     1      61.923  29.404   9.170  1.00  0.00    -0.003 C 
ATOM     14  C   UNL     1      63.362  29.015   9.499  1.00  0.00     0.004 C 
ENDBRANCH  12  13
ENDBRANCH  11  12
ENDBRANCH  10  11
ENDBRANCH   9  10
ENDBRANCH   1   9
TORSDOF 10
ENDMDL
MODEL 3
REMARK VINA RESULT:    -4.263     13.191     14.853
REMARK INTER + INTRA:          -8.227
REMARK INTER:                  -6.712
REMARK INTRA:                  -1.514
REMARK UNBOUND:                -1.471
REMARK SMILES CCCCCCCCCCCC(=O)[O-]
REMARK SMILES IDX 7 1 8 2 9 3 10 4 11 5 12 6 13 7 14 8 6 9 5 10 4 11 3 12 2 13
REMARK SMILES IDX 1 14
REMARK H PARENT
REMARK Flexibility Score: inf
ROOT
ATOM      1  C   UNL     1      63.220  29.105  10.289  1.00  0.00     0.000 C 
ENDROOT
BRANCH   1   2
ATOM      2  C   UNL     1      63.332  29.669  11.717  1.00  0.00     0.000 C 
BRANCH   2   3
ATOM      3  C   UNL     1      62.882  31.136  11.821  1.00  0.00     0.000 C 
BRANCH   3   4
ATOM      4  C   UNL     1      62.032  31.404  13.074  1.00  0.00     0.006 C 
BRANCH   4   5
ATOM      5  C   UNL     1      60.828  32.311  12.790  1.00  0.00     0.053 C 
BRANCH   5   6
ATOM      6  C   UNL     1      59.987  32.460  14.018  1.00  0.00     0.041 C 
ATOM      7  O   UNL     1      58.991  31.710  14.198  1.00  0.00    -0.550 OA
ATOM      8  O   UNL     1      60.272  33.460  14.941  1.00  0.00    -0.550 OA
ENDBRANCH   5   6
ENDBRANCH   4   5
ENDBRANCH   3   4
ENDBRANCH   2   3
ENDBRANCH   1   2
BRANCH   1   9
ATOM      9  C   UNL     1      61.974  29.547   9.499  1.00  0.00     0.000 C 
BRANCH   9  10
ATOM     10  C   UNL     1      61.076  28.369   9.086  1.00  0.00    -0.000 C 
BRANCH  10  11
ATOM     11  C   UNL     1      59.775  28.289   9.905  1.00  0.00    -0.000 C 
BRANCH  11  12
ATOM     12  C   UNL     1      59.626  29.356  11.006  1.00  0.00    -0.000 C 
BRANCH  12  13
ATOM     13  C   UNL     1      59.233  28.763  12.366  1.00  0.00    -0.003 C 
ATOM     14  C   UNL     1      60.408  28.029  13.007  1.00  0.00     0.004 C 
ENDBRANCH  12  13
ENDBRANCH  11  12
ENDBRANCH  10  11
ENDBRANCH   9  10
ENDBRANCH   1   9
TORSDOF 10
ENDMDL
MODEL 4
REMARK VINA RESULT:    -4.259      0.774      2.484
REMARK INTER + INTRA:          -8.220
REMARK INTER:                  -6.714
REMARK INTRA:                  -1.506
REMARK UNBOUND:                -1.471
REMARK SMILES CCCCCCCCCCCC(=O)[O-]
REMARK SMILES IDX 7 1 8 2 9 3 10 4 11 5 12 6 13 7 14 8 6 9 5 10 4 11 3 12 2 13
REMARK SMILES IDX 1 14
REMARK H PARENT
REMARK Flexibility Score: inf
ROOT
ATOM      1  C   UNL     1      63.368  30.354  27.132  1.00  0.00     0.000 C 
ENDROOT
BRANCH   1   2
ATOM      2  C   UNL     1      64.444  29.289  26.853  1.00  0.00     0.000 C 
BRANCH   2   3
ATOM      3  C   UNL     1      65.198  29.526  25.533  1.00  0.00     0.000 C 
BRANCH   3   4
ATOM      4  C   UNL     1      65.533  28.216  24.802  1.00  0.00     0.006 C 
BRANCH   4   5
ATOM      5  C   UNL     1      64.832  26.998  25.417  1.00  0.00     0.053 C 
BRANCH   5   6
ATOM      6  C   UNL     1      64.612  25.944  24.379  1.00  0.00     0.041 C 
ATOM      7  O   UNL     1      65.572  25.549  23.665  1.00  0.00    -0.550 OA
ATOM      8  O   UNL     1      63.338  25.431  24.165  1.00  0.00    -0.550 OA
ENDBRANCH   5   6
ENDBRANCH   4   5
ENDBRANCH   3   4
ENDBRANCH   2   3
ENDBRANCH   1   2
BRANCH   1   9
ATOM      9  C   UNL     1      62.370  30.007  28.252  1.00  0.00     0.000 C 
BRANCH   9  10
ATOM     10  C   UNL     1      62.381  28.514  28.625  1.00  0.00    -0.000 C 
BRANCH  10  11
ATOM     11  C   UNL     1      61.168  27.747  28.070  1.00  0.00    -0.000 C 
BRANCH  11  12
ATOM     12  C   UNL     1      61.406  27.021  26.732  1.00  0.00    -0.000 C 
BRANCH  12  13
ATOM     13  C   UNL     1      60.607  27.627  25.570  1.00  0.00    -0.003 C 
ATOM     14  C   UNL     1      61.508  28.447  24.651  1.00  0.00     0.004 C 
ENDBRANCH  12  13
ENDBRANCH  11  12
ENDBRANCH  10  11
ENDBRANCH   9  10
ENDBRANCH   1   9
TORSDOF 10
ENDMDL
MODEL 5
REMARK VINA RESULT:    -4.257     12.300     14.115
REMARK INTER + INTRA:          -8.217
REMARK INTER:                  -6.779
REMARK INTRA:                  -1.439
REMARK UNBOUND:                -1.471
REMARK SMILES CCCCCCCCCCCC(=O)[O-]
REMARK SMILES IDX 7 1 8 2 9 3 10 4 11 5 12 6 13 7 14 8 6 9 5 10 4 11 3 12 2 13
REMARK SMILES IDX 1 14
REMARK H PARENT
REMARK Flexibility Score: inf
ROOT
ATOM      1  C   UNL     1      63.004  29.743  13.744  1.00  0.00     0.000 C 
ENDROOT
BRANCH   1   2
ATOM      2  C   UNL     1      63.308  30.800  12.667  1.00  0.00     0.000 C 
BRANCH   2   3
ATOM      3  C   UNL     1      62.701  32.177  12.985  1.00  0.00     0.000 C 
BRANCH   3   4
ATOM      4  C   UNL     1      61.210  32.261  12.623  1.00  0.00     0.006 C 
BRANCH   4   5
ATOM      5  C   UNL     1      60.387  33.015  13.676  1.00  0.00     0.053 C 
BRANCH   5   6
ATOM      6  C   UNL     1      59.766  32.052  14.639  1.00  0.00     0.041 C 
ATOM      7  O   UNL     1      58.564  31.705  14.500  1.00  0.00    -0.550 OA
ATOM      8  O   UNL     1      60.500  31.578  15.720  1.00  0.00    -0.550 OA
ENDBRANCH   5   6
ENDBRANCH   4   5
ENDBRANCH   3   4
ENDBRANCH   2   3
ENDBRANCH   1   2
BRANCH   1   9
ATOM      9  C   UNL     1      62.171  28.537  13.272  1.00  0.00     0.000 C 
BRANCH   9  10
ATOM     10  C   UNL     1      60.664  28.714  13.524  1.00  0.00    -0.000 C 
BRANCH  10  11
ATOM     11  C   UNL     1      59.797  28.230  12.348  1.00  0.00    -0.000 C 
BRANCH  11  12
ATOM     12  C   UNL     1      59.799  29.146  11.110  1.00  0.00    -0.000 C 
BRANCH  12  13
ATOM     13  C   UNL     1      60.509  28.521   9.901  1.00  0.00    -0.003 C 
ATOM     14  C   UNL     1      61.830  29.229   9.613  1.00  0.00     0.004 C 
ENDBRANCH  12  13
ENDBRANCH  11  12
ENDBRANCH  10  11
ENDBRANCH   9  10
ENDBRANCH   1   9
TORSDOF 10
ENDMDL
MODEL 6
REMARK VINA RESULT:    -4.225     12.979     14.315
REMARK INTER + INTRA:          -8.167
REMARK INTER:                  -6.866
REMARK INTRA:                  -1.301
REMARK UNBOUND:                -1.471
REMARK SMILES CCCCCCCCCCCC(=O)[O-]
REMARK SMILES IDX 7 1 8 2 9 3 10 4 11 5 12 6 13 7 14 8 6 9 5 10 4 11 3 12 2 13
REMARK SMILES IDX 1 14
REMARK H PARENT
REMARK Flexibility Score: inf
ROOT
ATOM      1  C   UNL     1      62.697  29.188  12.882  1.00  0.00     0.000 C 
ENDROOT
BRANCH   1   2
ATOM      2  C   UNL     1      61.331  28.659  13.355  1.00  0.00     0.000 C 
BRANCH   2   3
ATOM      3  C   UNL     1      60.304  28.541  12.217  1.00  0.00     0.000 C 
BRANCH   3   4
ATOM      4  C   UNL     1      60.233  29.810  11.352  1.00  0.00     0.006 C 
BRANCH   4   5
ATOM      5  C   UNL     1      59.949  29.505   9.875  1.00  0.00     0.053 C 
BRANCH   5   6
ATOM      6  C   UNL     1      60.968  28.552   9.335  1.00  0.00     0.041 C 
ATOM      7  O   UNL     1      60.612  27.429   8.890  1.00  0.00    -0.550 OA
ATOM      8  O   UNL     1      62.317  28.883   9.368  1.00  0.00    -0.550 OA
ENDBRANCH   5   6
ENDBRANCH   4   5
ENDBRANCH   3   4
ENDBRANCH   2   3
ENDBRANCH   1   2
BRANCH   1   9
ATOM      9  C   UNL     1      63.257  30.380  13.679  1.00  0.00     0.000 C 
BRANCH   9  10
ATOM     10  C   UNL     1      63.058  31.727  12.964  1.00  0.00    -0.000 C 
BRANCH  10  11
ATOM     11  C   UNL     1      62.983  32.919  13.936  1.00  0.00    -0.000 C 
BRANCH  11  12
ATOM     12  C   UNL     1      61.613  33.134  14.606  1.00  0.00    -0.000 C 
BRANCH  12  13
ATOM     13  C   UNL     1      60.434  32.880  13.656  1.00  0.00    -0.003 C 
ATOM     14  C   UNL     1      59.423  31.921  14.279  1.00  0.00     0.004 C 
ENDBRANCH  12  13
ENDBRANCH  11  12
ENDBRANCH  10  11
ENDBRANCH   9  10
ENDBRANCH   1   9
TORSDOF 10
ENDMDL
MODEL 7
REMARK VINA RESULT:    -4.193      1.023      2.477
REMARK INTER + INTRA:          -8.115
REMARK INTER:                  -6.676
REMARK INTRA:                  -1.439
REMARK UNBOUND:                -1.471
REMARK SMILES CCCCCCCCCCCC(=O)[O-]
REMARK SMILES IDX 7 1 8 2 9 3 10 4 11 5 12 6 13 7 14 8 6 9 5 10 4 11 3 12 2 13
REMARK SMILES IDX 1 14
REMARK H PARENT
REMARK Flexibility Score: inf
ROOT
ATOM      1  C   UNL     1      60.738  27.660  26.460  1.00  0.00     0.000 C 
ENDROOT
BRANCH   1   2
ATOM      2  C   UNL     1      60.879  27.783  24.932  1.00  0.00     0.000 C 
BRANCH   2   3
ATOM      3  C   UNL     1      61.981  28.768  24.506  1.00  0.00     0.000 C 
BRANCH   3   4
ATOM      4  C   UNL     1      63.018  28.124  23.572  1.00  0.00     0.006 C 
BRANCH   4   5
ATOM      5  C   UNL     1      64.180  27.474  24.336  1.00  0.00     0.053 C 
BRANCH   5   6
ATOM      6  C   UNL     1      64.285  26.023  23.989  1.00  0.00     0.041 C 
ATOM      7  O   UNL     1      63.280  25.271  24.099  1.00  0.00    -0.550 OA
ATOM      8  O   UNL     1      65.504  25.488  23.592  1.00  0.00    -0.550 OA
ENDBRANCH   5   6
ENDBRANCH   4   5
ENDBRANCH   3   4
ENDBRANCH   2   3
ENDBRANCH   1   2
BRANCH   1   9
ATOM      9  C   UNL     1      61.844  26.851  27.163  1.00  0.00     0.000 C 
BRANCH   9  10
ATOM     10  C   UNL     1      62.132  27.344  28.591  1.00  0.00    -0.000 C 
BRANCH  10  11
ATOM     11  C   UNL     1      61.536  28.733  28.879  1.00  0.00    -0.000 C 
BRANCH  11  12
ATOM     12  C   UNL     1      62.562  29.876  29.001  1.00  0.00    -0.000 C 
BRANCH  12  13
ATOM     13  C   UNL     1      62.995  30.441  27.642  1.00  0.00    -0.003 C 
ATOM     14  C   UNL     1      64.367  29.907  27.236  1.00  0.00     0.004 C 
ENDBRANCH  12  13
ENDBRANCH  11  12
ENDBRANCH  10  11
ENDBRANCH   9  10
ENDBRANCH   1   9
TORSDOF 10
ENDMDL
MODEL 8
REMARK VINA RESULT:    -4.168     12.859     14.193
REMARK INTER + INTRA:          -8.076
REMARK INTER:                  -7.029
REMARK INTRA:                  -1.047
REMARK UNBOUND:                -1.471
REMARK SMILES CCCCCCCCCCCC(=O)[O-]
REMARK SMILES IDX 7 1 8 2 9 3 10 4 11 5 12 6 13 7 14 8 6 9 5 10 4 11 3 12 2 13
REMARK SMILES IDX 1 14
REMARK H PARENT
REMARK Flexibility Score: inf
ROOT
ATOM      1  C   UNL     1      61.867  28.710  13.349  1.00  0.00     0.000 C 
ENDROOT
BRANCH   1   2
ATOM      2  C   UNL     1      63.295  29.112  12.941  1.00  0.00     0.000 C 
BRANCH   2   3
ATOM      3  C   UNL     1      63.352  29.846  11.590  1.00  0.00     0.000 C 
BRANCH   3   4
ATOM      4  C   UNL     1      62.872  28.969  10.423  1.00  0.00     0.006 C 
BRANCH   4   5
ATOM      5  C   UNL     1      61.860  29.687   9.520  1.00  0.00     0.053 C 
BRANCH   5   6
ATOM      6  C   UNL     1      60.591  28.898   9.429  1.00  0.00     0.041 C 
ATOM      7  O   UNL     1      59.485  29.448   9.675  1.00  0.00    -0.550 OA
ATOM      8  O   UNL     1      60.634  27.544   9.122  1.00  0.00    -0.550 OA
ENDBRANCH   5   6
ENDBRANCH   4   5
ENDBRANCH   3   4
ENDBRANCH   2   3
ENDBRANCH   1   2
BRANCH   1   9
ATOM      9  C   UNL     1      60.998  29.846  13.921  1.00  0.00     0.000 C 
BRANCH   9  10
ATOM     10  C   UNL     1      60.035  30.445  12.882  1.00  0.00    -0.000 C 
BRANCH  10  11
ATOM     11  C   UNL     1      60.160  31.974  12.758  1.00  0.00    -0.000 C 
BRANCH  11  12
ATOM     12  C   UNL     1      61.146  32.634  13.741  1.00  0.00    -0.000 C 
BRANCH  12  13
ATOM     13  C   UNL     1      60.445  33.442  14.842  1.00  0.00    -0.003 C 
ATOM     14  C   UNL     1      61.413  33.789  15.970  1.00  0.00     0.004 C 
ENDBRANCH  12  13
ENDBRANCH  11  12
ENDBRANCH  10  11
ENDBRANCH   9  10
ENDBRANCH   1   9
TORSDOF 10
ENDMDL
MODEL 9
REMARK VINA RESULT:    -4.150      2.743      4.945
REMARK INTER + INTRA:          -8.048
REMARK INTER:                  -6.573
REMARK INTRA:                  -1.475
REMARK UNBOUND:                -1.471
REMARK SMILES CCCCCCCCCCCC(=O)[O-]
REMARK SMILES IDX 7 1 8 2 9 3 10 4 11 5 12 6 13 7 14 8 6 9 5 10 4 11 3 12 2 13
REMARK SMILES IDX 1 14
REMARK H PARENT
REMARK Flexibility Score: inf
ROOT
ATOM      1  C   UNL     1      63.384  30.408  24.492  1.00  0.00     0.000 C 
ENDROOT
BRANCH   1   2
ATOM      2  C   UNL     1      62.665  29.538  25.539  1.00  0.00     0.000 C 
BRANCH   2   3
ATOM      3  C   UNL     1      61.625  28.589  24.922  1.00  0.00     0.000 C 
BRANCH   3   4
ATOM      4  C   UNL     1      60.929  27.711  25.974  1.00  0.00     0.006 C 
BRANCH   4   5
ATOM      5  C   UNL     1      61.921  27.023  26.921  1.00  0.00     0.053 C 
BRANCH   5   6
ATOM      6  C   UNL     1      61.591  27.343  28.345  1.00  0.00     0.041 C 
ATOM      7  O   UNL     1      62.375  28.049  29.033  1.00  0.00    -0.550 OA
ATOM      8  O   UNL     1      60.443  26.821  28.927  1.00  0.00    -0.550 OA
ENDBRANCH   5   6
ENDBRANCH   4   5
ENDBRANCH   3   4
ENDBRANCH   2   3
ENDBRANCH   1   2
BRANCH   1   9
ATOM      9  C   UNL     1      64.748  29.875  24.015  1.00  0.00     0.000 C 
BRANCH   9  10
ATOM     10  C   UNL     1      65.357  28.838  24.974  1.00  0.00    -0.000 C 
BRANCH  10  11
ATOM     11  C   UNL     1      65.611  27.475  24.304  1.00  0.00    -0.000 C 
BRANCH  11  12
ATOM     12  C   UNL     1      64.862  26.285  24.933  1.00  0.00    -0.000 C 
BRANCH  12  13
ATOM     13  C   UNL     1      63.828  25.659  23.987  1.00  0.00    -0.003 C 
ATOM     14  C   UNL     1      63.737  26.440  22.678  1.00  0.00     0.004 C 
ENDBRANCH  12  13
ENDBRANCH  11  12
ENDBRANCH  10  11
ENDBRANCH   9  10
ENDBRANCH   1   9
TORSDOF 10
ENDMDL
