MODEL 1
REMARK VINA RESULT:    -3.501      0.000      0.000
REMARK INTER + INTRA:          -8.072
REMARK INTER:                  -6.366
REMARK INTRA:                  -1.707
REMARK UNBOUND:                -1.707
REMARK SMILES CCCCCCCCCCCCCCCC(=O)[O-]
REMARK SMILES IDX 9 1 10 2 11 3 12 4 13 5 14 6 15 7 16 8 17 9 18 10 8 11 7 12
REMARK SMILES IDX 6 13 5 14 4 15 3 16 2 17 1 18
REMARK H PARENT
REMARK Flexibility Score: inf
ROOT
ATOM      1  C   UNL     1     -17.939  25.491  35.783  1.00  0.00     0.000 C 
ENDROOT
BRANCH   1   2
ATOM      2  C   UNL     1     -17.519  26.596  36.767  1.00  0.00     0.000 C 
BRANCH   2   3
ATOM      3  C   UNL     1     -17.365  27.966  36.085  1.00  0.00     0.000 C 
BRANCH   3   4
ATOM      4  C   UNL     1     -17.982  27.999  34.677  1.00  0.00     0.000 C 
BRANCH   4   5
ATOM      5  C   UNL     1     -16.926  27.954  33.563  1.00  0.00     0.000 C 
BRANCH   5   6
ATOM      6  C   UNL     1     -17.505  27.337  32.281  1.00  0.00     0.006 C 
BRANCH   6   7
ATOM      7  C   UNL     1     -17.319  25.815  32.232  1.00  0.00     0.053 C 
BRANCH   7   8
ATOM      8  C   UNL     1     -15.903  25.438  31.920  1.00  0.00     0.041 C 
ATOM      9  O   UNL     1     -15.485  25.473  30.733  1.00  0.00    -0.550 OA
ATOM     10  O   UNL     1     -15.054  25.016  32.936  1.00  0.00    -0.550 OA
ENDBRANCH   7   8
ENDBRANCH   6   7
ENDBRANCH   5   6
ENDBRANCH   4   5
ENDBRANCH   3   4
ENDBRANCH   2   3
ENDBRANCH   1   2
BRANCH   1  11
ATOM     11  C   UNL     1     -17.024  24.257  35.859  1.00  0.00     0.000 C 
BRANCH  11  12
ATOM     12  C   UNL     1     -17.793  22.974  36.214  1.00  0.00    -0.000 C 
BRANCH  12  13
ATOM     13  C   UNL     1     -18.121  22.117  34.978  1.00  0.00    -0.000 C 
BRANCH  13  14
ATOM     14  C   UNL     1     -17.227  22.449  33.772  1.00  0.00    -0.000 C 
BRANCH  14  15
ATOM     15  C   UNL     1     -16.284  21.291  33.401  1.00  0.00    -0.000 C 
BRANCH  15  16
ATOM     16  C   UNL     1     -14.797  21.651  33.575  1.00  0.00    -0.000 C 
BRANCH  16  17
ATOM     17  C   UNL     1     -14.302  21.684  35.031  1.00  0.00    -0.003 C 
ATOM     18  C   UNL     1     -13.208  22.724  35.268  1.00  0.00     0.004 C 
ENDBRANCH  16  17
ENDBRANCH  15  16
ENDBRANCH  14  15
ENDBRANCH  13  14
ENDBRANCH  12  13
ENDBRANCH  11  12
ENDBRANCH   1  11
TORSDOF 14
ENDMDL
MODEL 2
REMARK VINA RESULT:    -3.210     14.279     16.338
REMARK INTER + INTRA:          -7.544
REMARK INTER:                  -6.584
REMARK INTRA:                  -0.961
REMARK UNBOUND:                -1.707
REMARK SMILES CCCCCCCCCCCCCCCC(=O)[O-]
REMARK SMILES IDX 9 1 10 2 11 3 12 4 13 5 14 6 15 7 16 8 17 9 18 10 8 11 7 12
REMARK SMILES IDX 6 13 5 14 4 15 3 16 2 17 1 18
REMARK H PARENT
REMARK Flexibility Score: inf
ROOT
ATOM      1  C   UNL     1      -3.896  25.432  25.362  1.00  0.00     0.000 C 
ENDROOT
BRANCH   1   2
ATOM      2  C   UNL     1      -3.449  26.486  26.389  1.00  0.00     0.000 C 
BRANCH   2   3
ATOM      3  C   UNL     1      -2.284  27.351  25.878  1.00  0.00     0.000 C 
BRANCH   3   4
ATOM      4  C   UNL     1      -2.396  27.668  24.378  1.00  0.00     0.000 C 
BRANCH   4   5
ATOM      5  C   UNL     1      -1.055  27.534  23.641  1.00  0.00     0.000 C 
BRANCH   5   6
ATOM      6  C   UNL     1      -0.101  26.602  24.402  1.00  0.00     0.006 C 
BRANCH   6   7
ATOM      7  C   UNL     1       0.732  25.725  23.459  1.00  0.00     0.053 C 
BRANCH   7   8
ATOM      8  C   UNL     1       0.262  24.302  23.463  1.00  0.00     0.041 C 
ATOM      9  O   UNL     1       0.687  23.492  22.598  1.00  0.00    -0.550 OA
ATOM     10  O   UNL     1      -0.673  23.880  24.401  1.00  0.00    -0.550 OA
ENDBRANCH   7   8
ENDBRANCH   6   7
ENDBRANCH   5   6
ENDBRANCH   4   5
ENDBRANCH   3   4
ENDBRANCH   2   3
ENDBRANCH   1   2
BRANCH   1  11
ATOM     11  C   UNL     1      -3.686  23.994  25.865  1.00  0.00     0.000 C 
BRANCH  11  12
ATOM     12  C   UNL     1      -4.905  23.453  26.630  1.00  0.00    -0.000 C 
BRANCH  12  13
ATOM     13  C   UNL     1      -6.219  23.617  25.846  1.00  0.00    -0.000 C 
BRANCH  13  14
ATOM     14  C   UNL     1      -7.434  23.052  26.599  1.00  0.00    -0.000 C 
BRANCH  14  15
ATOM     15  C   UNL     1      -8.735  23.156  25.784  1.00  0.00    -0.000 C 
BRANCH  15  16
ATOM     16  C   UNL     1      -8.710  24.306  24.761  1.00  0.00    -0.000 C 
BRANCH  16  17
ATOM     17  C   UNL     1      -9.912  24.348  23.802  1.00  0.00    -0.003 C 
ATOM     18  C   UNL     1     -10.587  22.989  23.627  1.00  0.00     0.004 C 
ENDBRANCH  16  17
ENDBRANCH  15  16
ENDBRANCH  14  15
ENDBRANCH  13  14
ENDBRANCH  12  13
ENDBRANCH  11  12
ENDBRANCH   1  11
TORSDOF 14
ENDMDL
MODEL 3
REMARK VINA RESULT:    -3.169     13.926     15.966
REMARK INTER + INTRA:          -7.470
REMARK INTER:                  -6.657
REMARK INTRA:                  -0.813
REMARK UNBOUND:                -1.707
REMARK SMILES CCCCCCCCCCCCCCCC(=O)[O-]
REMARK SMILES IDX 9 1 10 2 11 3 12 4 13 5 14 6 15 7 16 8 17 9 18 10 8 11 7 12
REMARK SMILES IDX 6 13 5 14 4 15 3 16 2 17 1 18
REMARK H PARENT
REMARK Flexibility Score: inf
ROOT
ATOM      1  C   UNL     1      -4.596  24.417  25.336  1.00  0.00     0.000 C 
ENDROOT
BRANCH   1   2
ATOM      2  C   UNL     1      -3.242  25.113  25.555  1.00  0.00     0.000 C 
BRANCH   2   3
ATOM      3  C   UNL     1      -3.396  26.582  25.984  1.00  0.00     0.000 C 
BRANCH   3   4
ATOM      4  C   UNL     1      -2.254  27.472  25.466  1.00  0.00     0.000 C 
BRANCH   4   5
ATOM      5  C   UNL     1      -1.985  27.279  23.966  1.00  0.00     0.000 C 
BRANCH   5   6
ATOM      6  C   UNL     1      -0.479  27.333  23.667  1.00  0.00     0.006 C 
BRANCH   6   7
ATOM      7  C   UNL     1       0.296  26.212  24.373  1.00  0.00     0.053 C 
BRANCH   7   8
ATOM      8  C   UNL     1       0.243  24.929  23.600  1.00  0.00     0.041 C 
ATOM      9  O   UNL     1      -0.420  23.954  24.038  1.00  0.00    -0.550 OA
ATOM     10  O   UNL     1       0.954  24.801  22.413  1.00  0.00    -0.550 OA
ENDBRANCH   7   8
ENDBRANCH   6   7
ENDBRANCH   5   6
ENDBRANCH   4   5
ENDBRANCH   3   4
ENDBRANCH   2   3
ENDBRANCH   1   2
BRANCH   1  11
ATOM     11  C   UNL     1      -5.072  23.650  26.581  1.00  0.00     0.000 C 
BRANCH  11  12
ATOM     12  C   UNL     1      -6.189  22.643  26.262  1.00  0.00    -0.000 C 
BRANCH  12  13
ATOM     13  C   UNL     1      -7.541  23.040  26.881  1.00  0.00    -0.000 C 
BRANCH  13  14
ATOM     14  C   UNL     1      -8.611  23.352  25.821  1.00  0.00    -0.000 C 
BRANCH  14  15
ATOM     15  C   UNL     1      -9.663  22.237  25.699  1.00  0.00    -0.000 C 
BRANCH  15  16
ATOM     16  C   UNL     1     -10.381  22.236  24.337  1.00  0.00    -0.000 C 
BRANCH  16  17
ATOM     17  C   UNL     1     -10.349  23.578  23.585  1.00  0.00    -0.003 C 
ATOM     18  C   UNL     1     -11.102  23.538  22.255  1.00  0.00     0.004 C 
ENDBRANCH  16  17
ENDBRANCH  15  16
ENDBRANCH  14  15
ENDBRANCH  13  14
ENDBRANCH  12  13
ENDBRANCH  11  12
ENDBRANCH   1  11
TORSDOF 14
ENDMDL
MODEL 4
REMARK VINA RESULT:    -3.140     13.272     15.575
REMARK INTER + INTRA:          -7.417
REMARK INTER:                  -6.540
REMARK INTRA:                  -0.877
REMARK UNBOUND:                -1.707
REMARK SMILES CCCCCCCCCCCCCCCC(=O)[O-]
REMARK SMILES IDX 9 1 10 2 11 3 12 4 13 5 14 6 15 7 16 8 17 9 18 10 8 11 7 12
REMARK SMILES IDX 6 13 5 14 4 15 3 16 2 17 1 18
REMARK H PARENT
REMARK Flexibility Score: inf
ROOT
ATOM      1  C   UNL     1      -4.194  23.974  26.564  1.00  0.00     0.000 C 
ENDROOT
BRANCH   1   2
ATOM      2  C   UNL     1      -5.494  23.722  25.782  1.00  0.00     0.000 C 
BRANCH   2   3
ATOM      3  C   UNL     1      -6.504  22.874  26.574  1.00  0.00     0.000 C 
BRANCH   3   4
ATOM      4  C   UNL     1      -7.960  23.301  26.321  1.00  0.00     0.000 C 
BRANCH   4   5
ATOM      5  C   UNL     1      -8.954  22.140  26.475  1.00  0.00     0.000 C 
BRANCH   5   6
ATOM      6  C   UNL     1     -10.279  22.454  25.764  1.00  0.00     0.006 C 
BRANCH   6   7
ATOM      7  C   UNL     1     -10.207  22.186  24.255  1.00  0.00     0.053 C 
BRANCH   7   8
ATOM      8  C   UNL     1     -10.448  23.430  23.456  1.00  0.00     0.041 C 
ATOM      9  O   UNL     1     -11.231  23.409  22.472  1.00  0.00    -0.550 OA
ATOM     10  O   UNL     1      -9.780  24.606  23.780  1.00  0.00    -0.550 OA
ENDBRANCH   7   8
ENDBRANCH   6   7
ENDBRANCH   5   6
ENDBRANCH   4   5
ENDBRANCH   3   4
ENDBRANCH   2   3
ENDBRANCH   1   2
BRANCH   1  11
ATOM     11  C   UNL     1      -3.226  24.904  25.813  1.00  0.00     0.000 C 
BRANCH  11  12
ATOM     12  C   UNL     1      -3.473  26.389  26.125  1.00  0.00    -0.000 C 
BRANCH  12  13
ATOM     13  C   UNL     1      -2.665  27.329  25.213  1.00  0.00    -0.000 C 
BRANCH  13  14
ATOM     14  C   UNL     1      -1.572  28.098  25.973  1.00  0.00    -0.000 C 
BRANCH  14  15
ATOM     15  C   UNL     1      -0.181  27.929  25.337  1.00  0.00    -0.000 C 
BRANCH  15  16
ATOM     16  C   UNL     1      -0.240  27.347  23.913  1.00  0.00    -0.000 C 
BRANCH  16  17
ATOM     17  C   UNL     1       0.617  26.089  23.689  1.00  0.00    -0.003 C 
ATOM     18  C   UNL     1      -0.137  24.791  23.975  1.00  0.00     0.004 C 
ENDBRANCH  16  17
ENDBRANCH  15  16
ENDBRANCH  14  15
ENDBRANCH  13  14
ENDBRANCH  12  13
ENDBRANCH  11  12
ENDBRANCH   1  11
TORSDOF 14
ENDMDL
MODEL 5
REMARK VINA RESULT:    -3.092      1.884      5.199
REMARK INTER + INTRA:          -7.329
REMARK INTER:                  -6.077
REMARK INTRA:                  -1.252
REMARK UNBOUND:                -1.707
REMARK SMILES CCCCCCCCCCCCCCCC(=O)[O-]
REMARK SMILES IDX 9 1 10 2 11 3 12 4 13 5 14 6 15 7 16 8 17 9 18 10 8 11 7 12
REMARK SMILES IDX 6 13 5 14 4 15 3 16 2 17 1 18
REMARK H PARENT
REMARK Flexibility Score: inf
ROOT
ATOM      1  C   UNL     1     -17.417  24.598  35.544  1.00  0.00     0.000 C 
ENDROOT
BRANCH   1   2
ATOM      2  C   UNL     1     -17.859  23.324  36.283  1.00  0.00     0.000 C 
BRANCH   2   3
ATOM      3  C   UNL     1     -18.104  22.143  35.328  1.00  0.00     0.000 C 
BRANCH   3   4
ATOM      4  C   UNL     1     -17.449  22.349  33.953  1.00  0.00     0.000 C 
BRANCH   4   5
ATOM      5  C   UNL     1     -16.622  21.137  33.500  1.00  0.00     0.000 C 
BRANCH   5   6
ATOM      6  C   UNL     1     -15.154  21.527  33.273  1.00  0.00     0.006 C 
BRANCH   6   7
ATOM      7  C   UNL     1     -14.688  22.627  34.235  1.00  0.00     0.053 C 
BRANCH   7   8
ATOM      8  C   UNL     1     -13.681  22.116  35.219  1.00  0.00     0.041 C 
ATOM      9  O   UNL     1     -14.060  21.558  36.281  1.00  0.00    -0.550 OA
ATOM     10  O   UNL     1     -12.323  22.285  34.977  1.00  0.00    -0.550 OA
ENDBRANCH   7   8
ENDBRANCH   6   7
ENDBRANCH   5   6
ENDBRANCH   4   5
ENDBRANCH   3   4
ENDBRANCH   2   3
ENDBRANCH   1   2
BRANCH   1  11
ATOM     11  C   UNL     1     -17.646  25.872  36.376  1.00  0.00     0.000 C 
BRANCH  11  12
ATOM     12  C   UNL     1     -18.125  27.056  35.521  1.00  0.00    -0.000 C 
BRANCH  12  13
ATOM     13  C   UNL     1     -16.989  28.037  35.178  1.00  0.00    -0.000 C 
BRANCH  13  14
ATOM     14  C   UNL     1     -16.664  28.067  33.676  1.00  0.00    -0.000 C 
BRANCH  14  15
ATOM     15  C   UNL     1     -17.748  27.384  32.824  1.00  0.00    -0.000 C 
BRANCH  15  16
ATOM     16  C   UNL     1     -17.423  25.913  32.507  1.00  0.00    -0.000 C 
BRANCH  16  17
ATOM     17  C   UNL     1     -16.231  25.701  31.558  1.00  0.00    -0.003 C 
ATOM     18  C   UNL     1     -14.996  25.139  32.262  1.00  0.00     0.004 C 
ENDBRANCH  16  17
ENDBRANCH  15  16
ENDBRANCH  14  15
ENDBRANCH  13  14
ENDBRANCH  12  13
ENDBRANCH  11  12
ENDBRANCH   1  11
TORSDOF 14
ENDMDL
MODEL 6
REMARK VINA RESULT:    -3.085     13.948     16.235
REMARK INTER + INTRA:          -7.317
REMARK INTER:                  -6.162
REMARK INTRA:                  -1.155
REMARK UNBOUND:                -1.707
REMARK SMILES CCCCCCCCCCCCCCCC(=O)[O-]
REMARK SMILES IDX 9 1 10 2 11 3 12 4 13 5 14 6 15 7 16 8 17 9 18 10 8 11 7 12
REMARK SMILES IDX 6 13 5 14 4 15 3 16 2 17 1 18
REMARK H PARENT
REMARK Flexibility Score: inf
ROOT
ATOM      1  C   UNL     1      -3.745  25.534  25.173  1.00  0.00     0.000 C 
ENDROOT
BRANCH   1   2
ATOM      2  C   UNL     1      -3.491  24.118  25.715  1.00  0.00     0.000 C 
BRANCH   2   3
ATOM      3  C   UNL     1      -4.621  23.627  26.636  1.00  0.00     0.000 C 
BRANCH   3   4
ATOM      4  C   UNL     1      -5.976  23.543  25.915  1.00  0.00     0.000 C 
BRANCH   4   5
ATOM      5  C   UNL     1      -6.987  22.651  26.651  1.00  0.00     0.000 C 
BRANCH   5   6
ATOM      6  C   UNL     1      -8.399  23.251  26.585  1.00  0.00     0.006 C 
BRANCH   6   7
ATOM      7  C   UNL     1      -9.251  22.613  25.480  1.00  0.00     0.053 C 
BRANCH   7   8
ATOM      8  C   UNL     1      -9.598  23.599  24.406  1.00  0.00     0.041 C 
ATOM      9  O   UNL     1      -9.005  24.708  24.350  1.00  0.00    -0.550 OA
ATOM     10  O   UNL     1     -10.599  23.307  23.488  1.00  0.00    -0.550 OA
ENDBRANCH   7   8
ENDBRANCH   6   7
ENDBRANCH   5   6
ENDBRANCH   4   5
ENDBRANCH   3   4
ENDBRANCH   2   3
ENDBRANCH   1   2
BRANCH   1  11
ATOM     11  C   UNL     1      -3.328  26.630  26.168  1.00  0.00     0.000 C 
BRANCH  11  12
ATOM     12  C   UNL     1      -2.369  27.658  25.547  1.00  0.00    -0.000 C 
BRANCH  12  13
ATOM     13  C   UNL     1      -2.002  27.322  24.090  1.00  0.00    -0.000 C 
BRANCH  13  14
ATOM     14  C   UNL     1      -0.484  27.317  23.846  1.00  0.00    -0.000 C 
BRANCH  14  15
ATOM     15  C   UNL     1       0.226  26.162  24.573  1.00  0.00    -0.000 C 
BRANCH  15  16
ATOM     16  C   UNL     1      -0.231  24.775  24.082  1.00  0.00    -0.000 C 
BRANCH  16  17
ATOM     17  C   UNL     1       0.540  24.229  22.868  1.00  0.00    -0.003 C 
ATOM     18  C   UNL     1       0.134  22.805  22.492  1.00  0.00     0.004 C 
ENDBRANCH  16  17
ENDBRANCH  15  16
ENDBRANCH  14  15
ENDBRANCH  13  14
ENDBRANCH  12  13
ENDBRANCH  11  12
ENDBRANCH   1  11
TORSDOF 14
ENDMDL
MODEL 7
REMARK VINA RESULT:    -3.016     18.169     20.612
REMARK INTER + INTRA:          -7.191
REMARK INTER:                  -6.009
REMARK INTRA:                  -1.182
REMARK UNBOUND:                -1.707
REMARK SMILES CCCCCCCCCCCCCCCC(=O)[O-]
REMARK SMILES IDX 9 1 10 2 11 3 12 4 13 5 14 6 15 7 16 8 17 9 18 10 8 11 7 12
REMARK SMILES IDX 6 13 5 14 4 15 3 16 2 17 1 18
REMARK H PARENT
REMARK Flexibility Score: inf
ROOT
ATOM      1  C   UNL     1      -0.514  24.100  24.298  1.00  0.00     0.000 C 
ENDROOT
BRANCH   1   2
ATOM      2  C   UNL     1      -0.477  22.795  23.487  1.00  0.00     0.000 C 
BRANCH   2   3
ATOM      3  C   UNL     1       0.478  22.874  22.283  1.00  0.00     0.000 C 
BRANCH   3   4
ATOM      4  C   UNL     1      -0.024  22.064  21.076  1.00  0.00     0.000 C 
BRANCH   4   5
ATOM      5  C   UNL     1       1.117  21.578  20.170  1.00  0.00     0.000 C 
BRANCH   5   6
ATOM      6  C   UNL     1       0.718  20.296  19.425  1.00  0.00     0.006 C 
BRANCH   6   7
ATOM      7  C   UNL     1       1.592  19.098  19.818  1.00  0.00     0.053 C 
BRANCH   7   8
ATOM      8  C   UNL     1       0.775  17.861  20.037  1.00  0.00     0.041 C 
ATOM      9  O   UNL     1       0.043  17.415  19.116  1.00  0.00    -0.550 OA
ATOM     10  O   UNL     1       0.797  17.221  21.270  1.00  0.00    -0.550 OA
ENDBRANCH   7   8
ENDBRANCH   6   7
ENDBRANCH   5   6
ENDBRANCH   4   5
ENDBRANCH   3   4
ENDBRANCH   2   3
ENDBRANCH   1   2
BRANCH   1  11
ATOM     11  C   UNL     1       0.395  25.189  23.702  1.00  0.00     0.000 C 
BRANCH  11  12
ATOM     12  C   UNL     1       0.132  26.576  24.312  1.00  0.00    -0.000 C 
BRANCH  12  13
ATOM     13  C   UNL     1      -0.849  27.416  23.475  1.00  0.00    -0.000 C 
BRANCH  13  14
ATOM     14  C   UNL     1      -2.209  27.606  24.168  1.00  0.00    -0.000 C 
BRANCH  14  15
ATOM     15  C   UNL     1      -2.109  27.507  25.700  1.00  0.00    -0.000 C 
BRANCH  15  16
ATOM     16  C   UNL     1      -3.230  26.650  26.318  1.00  0.00    -0.000 C 
BRANCH  16  17
ATOM     17  C   UNL     1      -3.855  25.614  25.369  1.00  0.00    -0.003 C 
ATOM     18  C   UNL     1      -3.861  24.199  25.946  1.00  0.00     0.004 C 
ENDBRANCH  16  17
ENDBRANCH  15  16
ENDBRANCH  14  15
ENDBRANCH  13  14
ENDBRANCH  12  13
ENDBRANCH  11  12
ENDBRANCH   1  11
TORSDOF 14
ENDMDL
MODEL 8
REMARK VINA RESULT:    -2.903     17.819     20.091
REMARK INTER + INTRA:          -6.985
REMARK INTER:                  -5.512
REMARK INTRA:                  -1.473
REMARK UNBOUND:                -1.707
REMARK SMILES CCCCCCCCCCCCCCCC(=O)[O-]
REMARK SMILES IDX 9 1 10 2 11 3 12 4 13 5 14 6 15 7 16 8 17 9 18 10 8 11 7 12
REMARK SMILES IDX 6 13 5 14 4 15 3 16 2 17 1 18
REMARK H PARENT
REMARK Flexibility Score: inf
ROOT
ATOM      1  C   UNL     1      -0.425  24.307  24.298  1.00  0.00     0.000 C 
ENDROOT
BRANCH   1   2
ATOM      2  C   UNL     1      -0.263  23.077  23.389  1.00  0.00     0.000 C 
BRANCH   2   3
ATOM      3  C   UNL     1       0.876  23.245  22.368  1.00  0.00     0.000 C 
BRANCH   3   4
ATOM      4  C   UNL     1       0.554  22.594  21.012  1.00  0.00     0.000 C 
BRANCH   4   5
ATOM      5  C   UNL     1       0.761  23.551  19.830  1.00  0.00     0.000 C 
BRANCH   5   6
ATOM      6  C   UNL     1       1.549  24.797  20.263  1.00  0.00     0.006 C 
BRANCH   6   7
ATOM      7  C   UNL     1       0.774  26.095  20.003  1.00  0.00     0.053 C 
BRANCH   7   8
ATOM      8  C   UNL     1       0.508  26.301  18.543  1.00  0.00     0.041 C 
ATOM      9  O   UNL     1       1.461  26.518  17.750  1.00  0.00    -0.550 OA
ATOM     10  O   UNL     1      -0.796  26.286  18.063  1.00  0.00    -0.550 OA
ENDBRANCH   7   8
ENDBRANCH   6   7
ENDBRANCH   5   6
ENDBRANCH   4   5
ENDBRANCH   3   4
ENDBRANCH   2   3
ENDBRANCH   1   2
BRANCH   1  11
ATOM     11  C   UNL     1       0.195  25.576  23.690  1.00  0.00     0.000 C 
BRANCH  11  12
ATOM     12  C   UNL     1      -0.412  26.865  24.267  1.00  0.00    -0.000 C 
BRANCH  12  13
ATOM     13  C   UNL     1      -1.951  26.866  24.227  1.00  0.00    -0.000 C 
BRANCH  13  14
ATOM     14  C   UNL     1      -2.577  27.481  25.489  1.00  0.00    -0.000 C 
BRANCH  14  15
ATOM     15  C   UNL     1      -3.434  26.473  26.274  1.00  0.00    -0.000 C 
BRANCH  15  16
ATOM     16  C   UNL     1      -3.744  25.197  25.471  1.00  0.00    -0.000 C 
BRANCH  16  17
ATOM     17  C   UNL     1      -3.951  23.930  26.318  1.00  0.00    -0.003 C 
ATOM     18  C   UNL     1      -5.359  23.349  26.194  1.00  0.00     0.004 C 
ENDBRANCH  16  17
ENDBRANCH  15  16
ENDBRANCH  14  15
ENDBRANCH  13  14
ENDBRANCH  12  13
ENDBRANCH  11  12
ENDBRANCH   1  11
TORSDOF 14
ENDMDL
MODEL 9
REMARK VINA RESULT:    -2.641     17.625     19.699
REMARK INTER + INTRA:          -6.509
REMARK INTER:                  -5.254
REMARK INTRA:                  -1.255
REMARK UNBOUND:                -1.707
REMARK SMILES CCCCCCCCCCCCCCCC(=O)[O-]
REMARK SMILES IDX 9 1 10 2 11 3 12 4 13 5 14 6 15 7 16 8 17 9 18 10 8 11 7 12
REMARK SMILES IDX 6 13 5 14 4 15 3 16 2 17 1 18
REMARK H PARENT
REMARK Flexibility Score: inf
ROOT
ATOM      1  C   UNL     1       0.209  25.097  23.517  1.00  0.00     0.000 C 
ENDROOT
BRANCH   1   2
ATOM      2  C   UNL     1       0.544  26.346  24.350  1.00  0.00     0.000 C 
BRANCH   2   3
ATOM      3  C   UNL     1      -0.256  27.583  23.906  1.00  0.00     0.000 C 
BRANCH   3   4
ATOM      4  C   UNL     1      -1.772  27.401  24.081  1.00  0.00     0.000 C 
BRANCH   4   5
ATOM      5  C   UNL     1      -2.192  27.296  25.554  1.00  0.00     0.000 C 
BRANCH   5   6
ATOM      6  C   UNL     1      -3.468  26.453  25.703  1.00  0.00     0.006 C 
BRANCH   6   7
ATOM      7  C   UNL     1      -3.203  24.955  25.499  1.00  0.00     0.053 C 
BRANCH   7   8
ATOM      8  C   UNL     1      -4.112  24.111  26.339  1.00  0.00     0.041 C 
ATOM      9  O   UNL     1      -5.044  23.456  25.803  1.00  0.00    -0.550 OA
ATOM     10  O   UNL     1      -3.950  24.073  27.719  1.00  0.00    -0.550 OA
ENDBRANCH   7   8
ENDBRANCH   6   7
ENDBRANCH   5   6
ENDBRANCH   4   5
ENDBRANCH   3   4
ENDBRANCH   2   3
ENDBRANCH   1   2
BRANCH   1  11
ATOM     11  C   UNL     1       1.248  24.827  22.416  1.00  0.00     0.000 C 
BRANCH  11  12
ATOM     12  C   UNL     1       1.464  23.326  22.165  1.00  0.00    -0.000 C 
BRANCH  12  13
ATOM     13  C   UNL     1       0.180  22.609  21.708  1.00  0.00    -0.000 C 
BRANCH  13  14
ATOM     14  C   UNL     1       0.422  21.655  20.527  1.00  0.00    -0.000 C 
BRANCH  14  15
ATOM     15  C   UNL     1      -0.138  22.201  19.203  1.00  0.00    -0.000 C 
BRANCH  15  16
ATOM     16  C   UNL     1       0.787  23.241  18.544  1.00  0.00    -0.000 C 
BRANCH  16  17
ATOM     17  C   UNL     1       0.079  24.501  18.019  1.00  0.00    -0.003 C 
ATOM     18  C   UNL     1       0.290  25.723  18.913  1.00  0.00     0.004 C 
ENDBRANCH  16  17
ENDBRANCH  15  16
ENDBRANCH  14  15
ENDBRANCH  13  14
ENDBRANCH  12  13
ENDBRANCH  11  12
ENDBRANCH   1  11
TORSDOF 14
ENDMDL
