MODEL 1
REMARK VINA RESULT:    -6.220      0.000      0.000
REMARK INTER + INTRA:          -6.882
REMARK INTER:                  -6.765
REMARK INTRA:                  -0.118
REMARK UNBOUND:                -0.118
REMARK SMILES C[C@H]1[C@H]2C3=CC[C@@H]4[C@]5(C)CC[C@@H](O)C(C)(C)[C@@H]5CC[C@]4(C)[C@@]3(C)CC[C@@]2(C(=O)[O-])CC[C@@H]1C
REMARK SMILES IDX 26 1 30 2 25 3 3 4 31 5 24 6 4 7 2 8 32 9 22 10 5 11 1 12
REMARK SMILES IDX 33 13 23 14 20 15 6 16 7 17 19 18 21 19 8 20 18 21 17 22
REMARK SMILES IDX 10 23 9 24 14 25 11 26 12 27 15 28 16 29 27 30 28 31 29 32
REMARK SMILES IDX 13 33
REMARK H PARENT 13 34
REMARK Flexibility Score: inf
ROOT
ATOM      1  C   UNL     1     -41.229 -28.805 -38.121  1.00  0.00     0.017 C 
ATOM      2  C   UNL     1     -41.942 -29.060 -36.803  1.00  0.00     0.014 C 
ATOM      3  C   UNL     1     -42.078 -30.120 -38.716  1.00  0.00     0.014 C 
ATOM      4  C   UNL     1     -41.674 -27.903 -39.318  1.00  0.00     0.030 C 
ATOM      5  C   UNL     1     -43.330 -28.216 -36.859  1.00  0.00     0.004 C 
ATOM      6  C   UNL     1     -41.489 -30.691 -39.975  1.00  0.00     0.013 C 
ATOM      7  C   UNL     1     -40.549 -28.406 -40.338  1.00  0.00    -0.063 C 
ATOM      8  C   UNL     1     -42.534 -26.543 -38.943  1.00  0.00    -0.003 C 
ATOM      9  C   UNL     1     -43.411 -26.783 -37.574  1.00  0.00    -0.011 C 
ATOM     10  C   UNL     1     -40.905 -29.702 -41.029  1.00  0.00    -0.006 C 
ATOM     11  C   UNL     1     -39.274 -28.387 -39.911  1.00  0.00    -0.027 C 
ATOM     12  C   UNL     1     -41.725 -25.208 -38.915  1.00  0.00     0.008 C 
ATOM     13  C   UNL     1     -44.799 -25.947 -37.443  1.00  0.00     0.008 C 
ATOM     14  C   UNL     1     -42.081 -29.397 -42.019  1.00  0.00     0.017 C 
ATOM     15  C   UNL     1     -39.625 -30.415 -41.818  1.00  0.00    -0.020 C 
ATOM     16  C   UNL     1     -38.486 -29.739 -39.625  1.00  0.00     0.032 C 
ATOM     17  C   UNL     1     -38.292 -30.625 -40.876  1.00  0.00     0.006 C 
ATOM     18  C   UNL     1     -39.188 -29.525 -43.031  1.00  0.00     0.008 C 
ATOM     19  C   UNL     1     -40.074 -31.791 -42.398  1.00  0.00     0.012 C 
ATOM     20  C   UNL     1     -36.837 -30.666 -41.719  1.00  0.00    -0.025 C 
ATOM     21  C   UNL     1     -37.964 -28.633 -42.823  1.00  0.00     0.005 C 
ATOM     22  C   UNL     1     -36.634 -29.278 -42.305  1.00  0.00     0.003 C 
ATOM     23  C   UNL     1     -35.437 -31.141 -41.070  1.00  0.00     0.010 C 
ATOM     24  C   UNL     1     -36.953 -31.795 -42.787  1.00  0.00     0.012 C 
ATOM     25  C   UNL     1     -35.641 -28.357 -41.496  1.00  0.00    -0.006 C 
ATOM     26  C   UNL     1     -35.365 -30.529 -39.684  1.00  0.00     0.033 C 
ATOM     27  C   UNL     1     -35.183 -28.949 -40.001  1.00  0.00     0.120 C 
ATOM     28  C   UNL     1     -34.411 -28.119 -42.423  1.00  0.00     0.014 C 
ATOM     29  C   UNL     1     -36.179 -26.933 -41.214  1.00  0.00     0.014 C 
ENDROOT
BRANCH   1  30
ATOM     30  C   UNL     1     -40.390 -27.457 -37.627  1.00  0.00     0.048 C 
ATOM     31  O   UNL     1     -39.624 -27.419 -36.590  1.00  0.00    -0.550 OA
ATOM     32  O   UNL     1     -39.424 -27.561 -36.648  1.00  0.00    -0.550 OA
ENDBRANCH   1  30
BRANCH  27  33
ATOM     33  O   UNL     1     -33.856 -28.591 -39.735  1.00  0.00    -0.393 OA
ATOM     34  H   UNL     1     -33.527 -29.205 -39.010  1.00  0.00     0.210 HD
ENDBRANCH  27  33
TORSDOF 2
ENDMDL
MODEL 2
REMARK VINA RESULT:    -6.174      2.951      5.331
REMARK INTER + INTRA:          -6.833
REMARK INTER:                  -6.714
REMARK INTRA:                  -0.119
REMARK UNBOUND:                -0.118
REMARK SMILES C[C@H]1[C@H]2C3=CC[C@@H]4[C@]5(C)CC[C@@H](O)C(C)(C)[C@@H]5CC[C@]4(C)[C@@]3(C)CC[C@@]2(C(=O)[O-])CC[C@@H]1C
REMARK SMILES IDX 26 1 30 2 25 3 3 4 31 5 24 6 4 7 2 8 32 9 22 10 5 11 1 12
REMARK SMILES IDX 33 13 23 14 20 15 6 16 7 17 19 18 21 19 8 20 18 21 17 22
REMARK SMILES IDX 10 23 9 24 14 25 11 26 12 27 15 28 16 29 27 30 28 31 29 32
REMARK SMILES IDX 13 33
REMARK H PARENT 13 34
REMARK Flexibility Score: inf
ROOT
ATOM      1  C   UNL     1     -44.395 -26.322 -38.463  1.00  0.00     0.017 C 
ATOM      2  C   UNL     1     -45.634 -25.567 -38.915  1.00  0.00     0.014 C 
ATOM      3  C   UNL     1     -43.572 -24.875 -38.646  1.00  0.00     0.014 C 
ATOM      4  C   UNL     1     -43.841 -26.520 -37.014  1.00  0.00     0.030 C 
ATOM      5  C   UNL     1     -46.308 -24.943 -37.574  1.00  0.00     0.004 C 
ATOM      6  C   UNL     1     -42.081 -25.043 -38.736  1.00  0.00     0.013 C 
ATOM      7  C   UNL     1     -42.439 -27.155 -37.453  1.00  0.00    -0.063 C 
ATOM      8  C   UNL     1     -44.956 -26.617 -35.800  1.00  0.00    -0.003 C 
ATOM      9  C   UNL     1     -46.291 -25.737 -36.180  1.00  0.00    -0.011 C 
ATOM     10  C   UNL     1     -41.406 -26.120 -37.833  1.00  0.00    -0.006 C 
ATOM     11  C   UNL     1     -42.471 -28.187 -38.314  1.00  0.00    -0.027 C 
ATOM     12  C   UNL     1     -45.304 -28.056 -35.304  1.00  0.00     0.008 C 
ATOM     13  C   UNL     1     -47.125 -25.103 -34.937  1.00  0.00     0.008 C 
ATOM     14  C   UNL     1     -40.989 -25.370 -36.522  1.00  0.00     0.017 C 
ATOM     15  C   UNL     1     -40.079 -26.752 -38.613  1.00  0.00    -0.020 C 
ATOM     16  C   UNL     1     -41.955 -28.022 -39.810  1.00  0.00     0.032 C 
ATOM     17  C   UNL     1     -40.451 -27.685 -39.916  1.00  0.00     0.006 C 
ATOM     18  C   UNL     1     -39.264 -27.656 -37.625  1.00  0.00     0.008 C 
ATOM     19  C   UNL     1     -39.135 -25.592 -39.055  1.00  0.00     0.012 C 
ATOM     20  C   UNL     1     -39.302 -28.855 -40.292  1.00  0.00    -0.025 C 
ATOM     21  C   UNL     1     -39.476 -29.165 -37.742  1.00  0.00     0.005 C 
ATOM     22  C   UNL     1     -39.301 -29.849 -39.141  1.00  0.00     0.003 C 
ATOM     23  C   UNL     1     -39.291 -29.693 -41.672  1.00  0.00     0.010 C 
ATOM     24  C   UNL     1     -37.943 -28.121 -40.496  1.00  0.00     0.012 C 
ATOM     25  C   UNL     1     -40.111 -31.176 -39.413  1.00  0.00    -0.006 C 
ATOM     26  C   UNL     1     -40.730 -30.080 -41.962  1.00  0.00     0.033 C 
ATOM     27  C   UNL     1     -41.047 -31.165 -40.798  1.00  0.00     0.120 C 
ATOM     28  C   UNL     1     -39.063 -32.331 -39.434  1.00  0.00     0.014 C 
ATOM     29  C   UNL     1     -41.083 -31.573 -38.276  1.00  0.00     0.014 C 
ENDROOT
BRANCH   1  30
ATOM     30  C   UNL     1     -45.145 -27.783 -38.201  1.00  0.00     0.048 C 
ATOM     31  O   UNL     1     -45.866 -28.394 -39.078  1.00  0.00    -0.550 OA
ATOM     32  O   UNL     1     -45.706 -28.473 -39.256  1.00  0.00    -0.550 OA
ENDBRANCH   1  30
BRANCH  27  33
ATOM     33  O   UNL     1     -41.063 -32.442 -41.371  1.00  0.00    -0.393 OA
ATOM     34  H   UNL     1     -40.889 -33.097 -40.629  1.00  0.00     0.210 HD
ENDBRANCH  27  33
TORSDOF 2
ENDMDL
MODEL 3
REMARK VINA RESULT:    -6.077      1.553      6.727
REMARK INTER + INTRA:          -6.728
REMARK INTER:                  -6.613
REMARK INTRA:                  -0.115
REMARK UNBOUND:                -0.118
REMARK SMILES C[C@H]1[C@H]2C3=CC[C@@H]4[C@]5(C)CC[C@@H](O)C(C)(C)[C@@H]5CC[C@]4(C)[C@@]3(C)CC[C@@]2(C(=O)[O-])CC[C@@H]1C
REMARK SMILES IDX 26 1 30 2 25 3 3 4 31 5 24 6 4 7 2 8 32 9 22 10 5 11 1 12
REMARK SMILES IDX 33 13 23 14 20 15 6 16 7 17 19 18 21 19 8 20 18 21 17 22
REMARK SMILES IDX 10 23 9 24 14 25 11 26 12 27 15 28 16 29 27 30 28 31 29 32
REMARK SMILES IDX 13 33
REMARK H PARENT 13 34
REMARK Flexibility Score: inf
ROOT
ATOM      1  C   UNL     1     -37.615 -30.025 -41.578  1.00  0.00     0.017 C 
ATOM      2  C   UNL     1     -36.607 -29.980 -42.715  1.00  0.00     0.014 C 
ATOM      3  C   UNL     1     -38.778 -30.275 -42.755  1.00  0.00     0.014 C 
ATOM      4  C   UNL     1     -38.104 -31.259 -40.751  1.00  0.00     0.030 C 
ATOM      5  C   UNL     1     -36.119 -31.510 -42.960  1.00  0.00     0.004 C 
ATOM      6  C   UNL     1     -40.176 -29.994 -42.282  1.00  0.00     0.013 C 
ATOM      7  C   UNL     1     -39.296 -30.499 -40.000  1.00  0.00    -0.063 C 
ATOM      8  C   UNL     1     -37.004 -32.464 -40.493  1.00  0.00    -0.003 C 
ATOM      9  C   UNL     1     -35.937 -32.537 -41.741  1.00  0.00    -0.011 C 
ATOM     10  C   UNL     1     -40.558 -30.403 -40.827  1.00  0.00    -0.006 C 
ATOM     11  C   UNL     1     -38.999 -29.342 -39.383  1.00  0.00    -0.027 C 
ATOM     12  C   UNL     1     -36.303 -32.465 -39.098  1.00  0.00     0.008 C 
ATOM     13  C   UNL     1     -35.296 -33.995 -42.067  1.00  0.00     0.008 C 
ATOM     14  C   UNL     1     -41.156 -31.848 -40.937  1.00  0.00     0.017 C 
ATOM     15  C   UNL     1     -41.677 -29.333 -40.220  1.00  0.00    -0.020 C 
ATOM     16  C   UNL     1     -39.537 -27.953 -39.944  1.00  0.00     0.032 C 
ATOM     17  C   UNL     1     -41.077 -27.829 -39.930  1.00  0.00     0.006 C 
ATOM     18  C   UNL     1     -42.238 -29.868 -38.858  1.00  0.00     0.008 C 
ATOM     19  C   UNL     1     -42.885 -29.231 -41.202  1.00  0.00     0.012 C 
ATOM     20  C   UNL     1     -41.888 -26.967 -38.735  1.00  0.00    -0.025 C 
ATOM     21  C   UNL     1     -41.649 -29.258 -37.585  1.00  0.00     0.005 C 
ATOM     22  C   UNL     1     -41.639 -27.700 -37.425  1.00  0.00     0.003 C 
ATOM     23  C   UNL     1     -41.680 -25.389 -38.467  1.00  0.00     0.010 C 
ATOM     24  C   UNL     1     -43.389 -26.902 -39.149  1.00  0.00     0.012 C 
ATOM     25  C   UNL     1     -40.517 -27.065 -36.516  1.00  0.00    -0.006 C 
ATOM     26  C   UNL     1     -40.190 -25.119 -38.562  1.00  0.00     0.033 C 
ATOM     27  C   UNL     1     -39.610 -25.862 -37.242  1.00  0.00     0.120 C 
ATOM     28  C   UNL     1     -41.236 -26.548 -35.232  1.00  0.00     0.014 C 
ATOM     29  C   UNL     1     -39.479 -28.081 -35.981  1.00  0.00     0.014 C 
ENDROOT
BRANCH   1  30
ATOM     30  C   UNL     1     -36.517 -29.837 -40.342  1.00  0.00     0.048 C 
ATOM     31  O   UNL     1     -35.653 -28.882 -40.280  1.00  0.00    -0.550 OA
ATOM     32  O   UNL     1     -35.786 -28.672 -40.236  1.00  0.00    -0.550 OA
ENDBRANCH   1  30
BRANCH  27  33
ATOM     33  O   UNL     1     -39.268 -24.889 -36.296  1.00  0.00    -0.393 OA
ATOM     34  H   UNL     1     -38.867 -24.118 -36.802  1.00  0.00     0.210 HD
ENDBRANCH  27  33
TORSDOF 2
ENDMDL
MODEL 4
REMARK VINA RESULT:    -6.068      2.123      7.446
REMARK INTER + INTRA:          -6.717
REMARK INTER:                  -6.604
REMARK INTRA:                  -0.114
REMARK UNBOUND:                -0.118
REMARK SMILES C[C@H]1[C@H]2C3=CC[C@@H]4[C@]5(C)CC[C@@H](O)C(C)(C)[C@@H]5CC[C@]4(C)[C@@]3(C)CC[C@@]2(C(=O)[O-])CC[C@@H]1C
REMARK SMILES IDX 26 1 30 2 25 3 3 4 31 5 24 6 4 7 2 8 32 9 22 10 5 11 1 12
REMARK SMILES IDX 33 13 23 14 20 15 6 16 7 17 19 18 21 19 8 20 18 21 17 22
REMARK SMILES IDX 10 23 9 24 14 25 11 26 12 27 15 28 16 29 27 30 28 31 29 32
REMARK SMILES IDX 13 33
REMARK H PARENT 13 34
REMARK Flexibility Score: inf
ROOT
ATOM      1  C   UNL     1     -39.785 -28.760 -40.326  1.00  0.00     0.017 C 
ATOM      2  C   UNL     1     -38.556 -28.287 -41.084  1.00  0.00     0.014 C 
ATOM      3  C   UNL     1     -40.326 -29.370 -41.788  1.00  0.00     0.014 C 
ATOM      4  C   UNL     1     -40.024 -30.125 -39.602  1.00  0.00     0.030 C 
ATOM      5  C   UNL     1     -37.487 -29.510 -41.040  1.00  0.00     0.004 C 
ATOM      6  C   UNL     1     -41.801 -29.655 -41.807  1.00  0.00     0.013 C 
ATOM      7  C   UNL     1     -41.586 -29.903 -39.331  1.00  0.00    -0.063 C 
ATOM      8  C   UNL     1     -38.704 -30.843 -38.915  1.00  0.00    -0.003 C 
ATOM      9  C   UNL     1     -37.344 -30.451 -39.750  1.00  0.00    -0.011 C 
ATOM     10  C   UNL     1     -42.453 -30.247 -40.520  1.00  0.00    -0.006 C 
ATOM     11  C   UNL     1     -41.953 -28.750 -38.745  1.00  0.00    -0.027 C 
ATOM     12  C   UNL     1     -38.544 -30.649 -37.374  1.00  0.00     0.008 C 
ATOM     13  C   UNL     1     -36.143 -31.547 -39.740  1.00  0.00     0.008 C 
ATOM     14  C   UNL     1     -42.407 -31.803 -40.700  1.00  0.00     0.017 C 
ATOM     15  C   UNL     1     -44.020 -29.703 -40.385  1.00  0.00    -0.020 C 
ATOM     16  C   UNL     1     -42.752 -27.638 -39.555  1.00  0.00     0.032 C 
ATOM     17  C   UNL     1     -44.144 -28.099 -40.040  1.00  0.00     0.006 C 
ATOM     18  C   UNL     1     -44.752 -30.474 -39.234  1.00  0.00     0.008 C 
ATOM     19  C   UNL     1     -44.792 -30.013 -41.705  1.00  0.00     0.012 C 
ATOM     20  C   UNL     1     -45.556 -27.662 -39.236  1.00  0.00    -0.025 C 
ATOM     21  C   UNL     1     -44.874 -29.750 -37.893  1.00  0.00     0.005 C 
ATOM     22  C   UNL     1     -45.492 -28.310 -37.861  1.00  0.00     0.003 C 
ATOM     23  C   UNL     1     -46.043 -26.135 -39.041  1.00  0.00     0.010 C 
ATOM     24  C   UNL     1     -46.754 -28.143 -40.108  1.00  0.00     0.012 C 
ATOM     25  C   UNL     1     -45.042 -27.347 -36.696  1.00  0.00    -0.006 C 
ATOM     26  C   UNL     1     -44.813 -25.324 -38.679  1.00  0.00     0.033 C 
ATOM     27  C   UNL     1     -44.460 -25.859 -37.189  1.00  0.00     0.120 C 
ATOM     28  C   UNL     1     -46.274 -27.199 -35.751  1.00  0.00     0.014 C 
ATOM     29  C   UNL     1     -43.936 -27.926 -35.781  1.00  0.00     0.014 C 
ENDROOT
BRANCH   1  30
ATOM     30  C   UNL     1     -39.297 -28.235 -38.825  1.00  0.00     0.048 C 
ATOM     31  O   UNL     1     -38.892 -27.037 -38.573  1.00  0.00    -0.550 OA
ATOM     32  O   UNL     1     -39.096 -26.890 -38.592  1.00  0.00    -0.550 OA
ENDBRANCH   1  30
BRANCH  27  33
ATOM     33  O   UNL     1     -44.826 -24.875 -36.264  1.00  0.00    -0.393 OA
ATOM     34  H   UNL     1     -45.556 -24.330 -36.689  1.00  0.00     0.210 HD
ENDBRANCH  27  33
TORSDOF 2
ENDMDL
MODEL 5
REMARK VINA RESULT:    -6.024      1.658      2.643
REMARK INTER + INTRA:          -6.670
REMARK INTER:                  -6.562
REMARK INTRA:                  -0.108
REMARK UNBOUND:                -0.118
REMARK SMILES C[C@H]1[C@H]2C3=CC[C@@H]4[C@]5(C)CC[C@@H](O)C(C)(C)[C@@H]5CC[C@]4(C)[C@@]3(C)CC[C@@]2(C(=O)[O-])CC[C@@H]1C
REMARK SMILES IDX 26 1 30 2 25 3 3 4 31 5 24 6 4 7 2 8 32 9 22 10 5 11 1 12
REMARK SMILES IDX 33 13 23 14 20 15 6 16 7 17 19 18 21 19 8 20 18 21 17 22
REMARK SMILES IDX 10 23 9 24 14 25 11 26 12 27 15 28 16 29 27 30 28 31 29 32
REMARK SMILES IDX 13 33
REMARK H PARENT 13 34
REMARK Flexibility Score: inf
ROOT
ATOM      1  C   UNL     1     -40.219 -28.996 -39.202  1.00  0.00     0.017 C 
ATOM      2  C   UNL     1     -41.574 -29.090 -38.520  1.00  0.00     0.014 C 
ATOM      3  C   UNL     1     -40.987 -29.564 -40.578  1.00  0.00     0.014 C 
ATOM      4  C   UNL     1     -39.595 -27.791 -39.978  1.00  0.00     0.030 C 
ATOM      5  C   UNL     1     -42.316 -27.666 -38.769  1.00  0.00     0.004 C 
ATOM      6  C   UNL     1     -40.039 -30.113 -41.606  1.00  0.00     0.013 C 
ATOM      7  C   UNL     1     -38.346 -28.598 -40.570  1.00  0.00    -0.063 C 
ATOM      8  C   UNL     1     -39.995 -26.278 -39.448  1.00  0.00    -0.003 C 
ATOM      9  C   UNL     1     -41.499 -26.287 -38.784  1.00  0.00    -0.011 C 
ATOM     10  C   UNL     1     -38.678 -29.382 -41.819  1.00  0.00    -0.006 C 
ATOM     11  C   UNL     1     -37.601 -29.306 -39.703  1.00  0.00    -0.027 C 
ATOM     12  C   UNL     1     -38.940 -25.569 -38.543  1.00  0.00     0.008 C 
ATOM     13  C   UNL     1     -42.346 -24.904 -38.884  1.00  0.00     0.008 C 
ATOM     14  C   UNL     1     -38.929 -28.348 -42.969  1.00  0.00     0.017 C 
ATOM     15  C   UNL     1     -37.510 -30.487 -42.246  1.00  0.00    -0.020 C 
ATOM     16  C   UNL     1     -37.616 -30.897 -39.720  1.00  0.00     0.032 C 
ATOM     17  C   UNL     1     -37.082 -31.512 -41.033  1.00  0.00     0.006 C 
ATOM     18  C   UNL     1     -36.207 -29.737 -42.689  1.00  0.00     0.008 C 
ATOM     19  C   UNL     1     -38.002 -31.313 -43.475  1.00  0.00     0.012 C 
ATOM     20  C   UNL     1     -35.522 -32.130 -41.154  1.00  0.00    -0.025 C 
ATOM     21  C   UNL     1     -35.085 -29.643 -41.655  1.00  0.00     0.005 C 
ATOM     22  C   UNL     1     -34.573 -30.956 -40.970  1.00  0.00     0.003 C 
ATOM     23  C   UNL     1     -34.970 -33.358 -40.263  1.00  0.00     0.010 C 
ATOM     24  C   UNL     1     -35.406 -32.826 -42.543  1.00  0.00     0.012 C 
ATOM     25  C   UNL     1     -33.947 -30.832 -39.527  1.00  0.00    -0.006 C 
ATOM     26  C   UNL     1     -35.470 -33.133 -38.848  1.00  0.00     0.033 C 
ATOM     27  C   UNL     1     -34.620 -31.837 -38.372  1.00  0.00     0.120 C 
ATOM     28  C   UNL     1     -32.417 -31.085 -39.691  1.00  0.00     0.014 C 
ATOM     29  C   UNL     1     -34.028 -29.411 -38.917  1.00  0.00     0.014 C 
ENDROOT
BRANCH   1  30
ATOM     30  C   UNL     1     -39.392 -28.376 -37.899  1.00  0.00     0.048 C 
ATOM     31  O   UNL     1     -39.443 -28.867 -36.708  1.00  0.00    -0.550 OA
ATOM     32  O   UNL     1     -39.321 -29.087 -36.720  1.00  0.00    -0.550 OA
ENDBRANCH   1  30
BRANCH  27  33
ATOM     33  O   UNL     1     -33.632 -32.256 -37.474  1.00  0.00    -0.393 OA
ATOM     34  H   UNL     1     -34.069 -32.332 -36.572  1.00  0.00     0.210 HD
ENDBRANCH  27  33
TORSDOF 2
ENDMDL
MODEL 6
REMARK VINA RESULT:    -5.929      1.834      6.647
REMARK INTER + INTRA:          -6.566
REMARK INTER:                  -6.450
REMARK INTRA:                  -0.116
REMARK UNBOUND:                -0.118
REMARK SMILES C[C@H]1[C@H]2C3=CC[C@@H]4[C@]5(C)CC[C@@H](O)C(C)(C)[C@@H]5CC[C@]4(C)[C@@]3(C)CC[C@@]2(C(=O)[O-])CC[C@@H]1C
REMARK SMILES IDX 26 1 30 2 25 3 3 4 31 5 24 6 4 7 2 8 32 9 22 10 5 11 1 12
REMARK SMILES IDX 33 13 23 14 20 15 6 16 7 17 19 18 21 19 8 20 18 21 17 22
REMARK SMILES IDX 10 23 9 24 14 25 11 26 12 27 15 28 16 29 27 30 28 31 29 32
REMARK SMILES IDX 13 33
REMARK H PARENT 13 34
REMARK Flexibility Score: inf
ROOT
ATOM      1  C   UNL     1     -38.727 -30.141 -41.629  1.00  0.00     0.017 C 
ATOM      2  C   UNL     1     -37.894 -30.248 -42.896  1.00  0.00     0.014 C 
ATOM      3  C   UNL     1     -40.068 -30.177 -42.631  1.00  0.00     0.014 C 
ATOM      4  C   UNL     1     -39.295 -31.288 -40.730  1.00  0.00     0.030 C 
ATOM      5  C   UNL     1     -37.707 -31.835 -43.192  1.00  0.00     0.004 C 
ATOM      6  C   UNL     1     -41.320 -29.674 -41.970  1.00  0.00     0.013 C 
ATOM      7  C   UNL     1     -40.228 -30.351 -39.828  1.00  0.00    -0.063 C 
ATOM      8  C   UNL     1     -38.387 -32.663 -40.618  1.00  0.00    -0.003 C 
ATOM      9  C   UNL     1     -37.531 -32.895 -42.001  1.00  0.00    -0.011 C 
ATOM     10  C   UNL     1     -41.558 -30.035 -40.472  1.00  0.00    -0.006 C 
ATOM     11  C   UNL     1     -39.659 -29.268 -39.269  1.00  0.00    -0.027 C 
ATOM     12  C   UNL     1     -37.509 -32.800 -39.335  1.00  0.00     0.008 C 
ATOM     13  C   UNL     1     -37.194 -34.434 -42.400  1.00  0.00     0.008 C 
ATOM     14  C   UNL     1     -42.399 -31.358 -40.484  1.00  0.00     0.017 C 
ATOM     15  C   UNL     1     -42.388 -28.802 -39.724  1.00  0.00    -0.020 C 
ATOM     16  C   UNL     1     -40.030 -27.801 -39.762  1.00  0.00     0.032 C 
ATOM     17  C   UNL     1     -41.510 -27.423 -39.535  1.00  0.00     0.006 C 
ATOM     18  C   UNL     1     -42.835 -29.255 -38.292  1.00  0.00     0.008 C 
ATOM     19  C   UNL     1     -43.686 -28.486 -40.530  1.00  0.00     0.012 C 
ATOM     20  C   UNL     1     -41.992 -26.455 -38.247  1.00  0.00    -0.025 C 
ATOM     21  C   UNL     1     -41.981 -28.770 -37.121  1.00  0.00     0.005 C 
ATOM     22  C   UNL     1     -41.690 -27.237 -36.978  1.00  0.00     0.003 C 
ATOM     23  C   UNL     1     -41.489 -24.937 -38.025  1.00  0.00     0.010 C 
ATOM     24  C   UNL     1     -43.504 -26.135 -38.448  1.00  0.00     0.012 C 
ATOM     25  C   UNL     1     -40.362 -26.811 -36.239  1.00  0.00    -0.006 C 
ATOM     26  C   UNL     1     -40.003 -24.918 -38.329  1.00  0.00     0.033 C 
ATOM     27  C   UNL     1     -39.377 -25.766 -37.096  1.00  0.00     0.120 C 
ATOM     28  C   UNL     1     -40.799 -26.201 -34.873  1.00  0.00     0.014 C 
ATOM     29  C   UNL     1     -39.444 -27.993 -35.845  1.00  0.00     0.014 C 
ENDROOT
BRANCH   1  30
ATOM     30  C   UNL     1     -37.452 -30.156 -40.561  1.00  0.00     0.048 C 
ATOM     31  O   UNL     1     -36.476 -29.313 -40.585  1.00  0.00    -0.550 OA
ATOM     32  O   UNL     1     -36.575 -29.093 -40.513  1.00  0.00    -0.550 OA
ENDBRANCH   1  30
BRANCH  27  33
ATOM     33  O   UNL     1     -38.749 -24.877 -36.217  1.00  0.00    -0.393 OA
ATOM     34  H   UNL     1     -37.848 -24.665 -36.608  1.00  0.00     0.210 HD
ENDBRANCH  27  33
TORSDOF 2
ENDMDL
MODEL 7
REMARK VINA RESULT:    -5.818      2.814      7.283
REMARK INTER + INTRA:          -6.446
REMARK INTER:                  -6.577
REMARK INTRA:                   0.132
REMARK UNBOUND:                -0.118
REMARK SMILES C[C@H]1[C@H]2C3=CC[C@@H]4[C@]5(C)CC[C@@H](O)C(C)(C)[C@@H]5CC[C@]4(C)[C@@]3(C)CC[C@@]2(C(=O)[O-])CC[C@@H]1C
REMARK SMILES IDX 26 1 30 2 25 3 3 4 31 5 24 6 4 7 2 8 32 9 22 10 5 11 1 12
REMARK SMILES IDX 33 13 23 14 20 15 6 16 7 17 19 18 21 19 8 20 18 21 17 22
REMARK SMILES IDX 10 23 9 24 14 25 11 26 12 27 15 28 16 29 27 30 28 31 29 32
REMARK SMILES IDX 13 33
REMARK H PARENT 13 34
REMARK Flexibility Score: inf
ROOT
ATOM      1  C   UNL     1     -38.935 -30.197 -41.900  1.00  0.00     0.017 C 
ATOM      2  C   UNL     1     -38.154 -30.648 -43.123  1.00  0.00     0.014 C 
ATOM      3  C   UNL     1     -38.666 -31.732 -41.288  1.00  0.00     0.014 C 
ATOM      4  C   UNL     1     -38.406 -29.521 -40.593  1.00  0.00     0.030 C 
ATOM      5  C   UNL     1     -36.592 -30.321 -42.819  1.00  0.00     0.004 C 
ATOM      6  C   UNL     1     -39.595 -32.099 -40.165  1.00  0.00     0.013 C 
ATOM      7  C   UNL     1     -39.775 -29.639 -39.773  1.00  0.00    -0.063 C 
ATOM      8  C   UNL     1     -37.101 -28.521 -40.751  1.00  0.00    -0.003 C 
ATOM      9  C   UNL     1     -36.154 -29.013 -42.001  1.00  0.00    -0.011 C 
ATOM     10  C   UNL     1     -39.974 -30.994 -39.133  1.00  0.00    -0.006 C 
ATOM     11  C   UNL     1     -40.892 -29.185 -40.368  1.00  0.00    -0.027 C 
ATOM     12  C   UNL     1     -37.412 -26.992 -40.795  1.00  0.00     0.008 C 
ATOM     13  C   UNL     1     -34.565 -28.689 -41.882  1.00  0.00     0.008 C 
ATOM     14  C   UNL     1     -38.928 -31.121 -37.973  1.00  0.00     0.017 C 
ATOM     15  C   UNL     1     -41.521 -31.252 -38.579  1.00  0.00    -0.020 C 
ATOM     16  C   UNL     1     -42.028 -30.188 -40.854  1.00  0.00     0.032 C 
ATOM     17  C   UNL     1     -42.689 -30.983 -39.706  1.00  0.00     0.006 C 
ATOM     18  C   UNL     1     -41.821 -30.293 -37.377  1.00  0.00     0.008 C 
ATOM     19  C   UNL     1     -41.643 -32.711 -38.041  1.00  0.00     0.012 C 
ATOM     20  C   UNL     1     -44.188 -30.552 -39.075  1.00  0.00    -0.025 C 
ATOM     21  C   UNL     1     -42.637 -29.038 -37.686  1.00  0.00     0.005 C 
ATOM     22  C   UNL     1     -44.010 -29.188 -38.425  1.00  0.00     0.003 C 
ATOM     23  C   UNL     1     -45.550 -30.516 -39.940  1.00  0.00     0.010 C 
ATOM     24  C   UNL     1     -44.613 -31.676 -38.083  1.00  0.00     0.012 C 
ATOM     25  C   UNL     1     -44.510 -27.971 -39.296  1.00  0.00    -0.006 C 
ATOM     26  C   UNL     1     -45.205 -29.887 -41.277  1.00  0.00     0.033 C 
ATOM     27  C   UNL     1     -44.905 -28.344 -40.877  1.00  0.00     0.120 C 
ATOM     28  C   UNL     1     -45.720 -27.354 -38.530  1.00  0.00     0.014 C 
ATOM     29  C   UNL     1     -43.498 -26.804 -39.400  1.00  0.00     0.014 C 
ENDROOT
BRANCH   1  30
ATOM     30  C   UNL     1     -39.199 -28.635 -42.407  1.00  0.00     0.048 C 
ATOM     31  O   UNL     1     -39.268 -28.277 -43.644  1.00  0.00    -0.550 OA
ATOM     32  O   UNL     1     -39.483 -28.375 -43.732  1.00  0.00    -0.550 OA
ENDBRANCH   1  30
BRANCH  27  33
ATOM     33  O   UNL     1     -45.983 -27.557 -41.296  1.00  0.00    -0.393 OA
ATOM     34  H   UNL     1     -45.850 -27.375 -42.275  1.00  0.00     0.210 HD
ENDBRANCH  27  33
TORSDOF 2
ENDMDL
MODEL 8
REMARK VINA RESULT:    -5.784      2.788      7.534
REMARK INTER + INTRA:          -6.409
REMARK INTER:                  -6.293
REMARK INTRA:                  -0.115
REMARK UNBOUND:                -0.118
REMARK SMILES C[C@H]1[C@H]2C3=CC[C@@H]4[C@]5(C)CC[C@@H](O)C(C)(C)[C@@H]5CC[C@]4(C)[C@@]3(C)CC[C@@]2(C(=O)[O-])CC[C@@H]1C
REMARK SMILES IDX 26 1 30 2 25 3 3 4 31 5 24 6 4 7 2 8 32 9 22 10 5 11 1 12
REMARK SMILES IDX 33 13 23 14 20 15 6 16 7 17 19 18 21 19 8 20 18 21 17 22
REMARK SMILES IDX 10 23 9 24 14 25 11 26 12 27 15 28 16 29 27 30 28 31 29 32
REMARK SMILES IDX 13 33
REMARK H PARENT 13 34
REMARK Flexibility Score: inf
ROOT
ATOM      1  C   UNL     1     -40.897 -29.911 -40.953  1.00  0.00     0.017 C 
ATOM      2  C   UNL     1     -39.733 -29.959 -41.928  1.00  0.00     0.014 C 
ATOM      3  C   UNL     1     -41.890 -29.849 -42.300  1.00  0.00     0.014 C 
ATOM      4  C   UNL     1     -41.710 -31.096 -40.337  1.00  0.00     0.030 C 
ATOM      5  C   UNL     1     -39.478 -31.528 -42.265  1.00  0.00     0.004 C 
ATOM      6  C   UNL     1     -43.277 -29.357 -41.998  1.00  0.00     0.013 C 
ATOM      7  C   UNL     1     -42.858 -30.195 -39.683  1.00  0.00    -0.063 C 
ATOM      8  C   UNL     1     -40.882 -32.499 -40.060  1.00  0.00    -0.003 C 
ATOM      9  C   UNL     1     -39.662 -32.665 -41.149  1.00  0.00    -0.011 C 
ATOM     10  C   UNL     1     -43.943 -29.805 -40.661  1.00  0.00    -0.006 C 
ATOM     11  C   UNL     1     -42.470 -29.164 -38.911  1.00  0.00    -0.027 C 
ATOM     12  C   UNL     1     -40.416 -32.739 -38.590  1.00  0.00     0.008 C 
ATOM     13  C   UNL     1     -39.234 -34.185 -41.536  1.00  0.00     0.008 C 
ATOM     14  C   UNL     1     -44.751 -31.102 -41.005  1.00  0.00     0.017 C 
ATOM     15  C   UNL     1     -44.946 -28.600 -40.104  1.00  0.00    -0.020 C 
ATOM     16  C   UNL     1     -42.672 -27.660 -39.390  1.00  0.00     0.032 C 
ATOM     17  C   UNL     1     -44.153 -27.259 -39.576  1.00  0.00     0.006 C 
ATOM     18  C   UNL     1     -45.793 -29.131 -38.897  1.00  0.00     0.008 C 
ATOM     19  C   UNL     1     -45.952 -28.202 -41.227  1.00  0.00     0.012 C 
ATOM     20  C   UNL     1     -44.982 -26.363 -38.420  1.00  0.00    -0.025 C 
ATOM     21  C   UNL     1     -45.313 -28.743 -37.498  1.00  0.00     0.005 C 
ATOM     22  C   UNL     1     -45.066 -27.231 -37.173  1.00  0.00     0.003 C 
ATOM     23  C   UNL     1     -44.556 -24.875 -37.960  1.00  0.00     0.010 C 
ATOM     24  C   UNL     1     -46.368 -25.992 -39.028  1.00  0.00     0.012 C 
ATOM     25  C   UNL     1     -44.008 -26.886 -36.055  1.00  0.00    -0.006 C 
ATOM     26  C   UNL     1     -43.045 -24.875 -37.818  1.00  0.00     0.033 C 
ATOM     27  C   UNL     1     -42.810 -25.815 -36.517  1.00  0.00     0.120 C 
ATOM     28  C   UNL     1     -44.819 -26.352 -34.835  1.00  0.00     0.014 C 
ATOM     29  C   UNL     1     -43.252 -28.114 -35.493  1.00  0.00     0.014 C 
ENDROOT
BRANCH   1  30
ATOM     30  C   UNL     1     -39.989 -30.025 -39.565  1.00  0.00     0.048 C 
ATOM     31  O   UNL     1     -38.995 -29.254 -39.284  1.00  0.00    -0.550 OA
ATOM     32  O   UNL     1     -39.095 -29.027 -39.236  1.00  0.00    -0.550 OA
ENDBRANCH   1  30
BRANCH  27  33
ATOM     33  O   UNL     1     -42.459 -24.999 -35.435  1.00  0.00    -0.393 OA
ATOM     34  H   UNL     1     -41.496 -25.192 -35.223  1.00  0.00     0.210 HD
ENDBRANCH  27  33
TORSDOF 2
ENDMDL
MODEL 9
REMARK VINA RESULT:    -5.694      3.018      4.872
REMARK INTER + INTRA:          -6.311
REMARK INTER:                  -6.189
REMARK INTRA:                  -0.121
REMARK UNBOUND:                -0.118
REMARK SMILES C[C@H]1[C@H]2C3=CC[C@@H]4[C@]5(C)CC[C@@H](O)C(C)(C)[C@@H]5CC[C@]4(C)[C@@]3(C)CC[C@@]2(C(=O)[O-])CC[C@@H]1C
REMARK SMILES IDX 26 1 30 2 25 3 3 4 31 5 24 6 4 7 2 8 32 9 22 10 5 11 1 12
REMARK SMILES IDX 33 13 23 14 20 15 6 16 7 17 19 18 21 19 8 20 18 21 17 22
REMARK SMILES IDX 10 23 9 24 14 25 11 26 12 27 15 28 16 29 27 30 28 31 29 32
REMARK SMILES IDX 13 33
REMARK H PARENT 13 34
REMARK Flexibility Score: inf
ROOT
ATOM      1  C   UNL     1     -44.161 -29.540 -39.904  1.00  0.00     0.017 C 
ATOM      2  C   UNL     1     -45.605 -29.432 -40.364  1.00  0.00     0.014 C 
ATOM      3  C   UNL     1     -44.334 -27.977 -39.329  1.00  0.00     0.014 C 
ATOM      4  C   UNL     1     -43.603 -30.044 -38.533  1.00  0.00     0.030 C 
ATOM      5  C   UNL     1     -46.523 -29.927 -39.117  1.00  0.00     0.004 C 
ATOM      6  C   UNL     1     -43.025 -27.285 -39.076  1.00  0.00     0.013 C 
ATOM      7  C   UNL     1     -42.091 -29.582 -38.784  1.00  0.00    -0.063 C 
ATOM      8  C   UNL     1     -44.459 -31.237 -37.777  1.00  0.00    -0.003 C 
ATOM      9  C   UNL     1     -46.054 -31.119 -38.153  1.00  0.00    -0.011 C 
ATOM     10  C   UNL     1     -41.854 -28.121 -38.478  1.00  0.00    -0.006 C 
ATOM     11  C   UNL     1     -41.511 -29.965 -39.935  1.00  0.00    -0.027 C 
ATOM     12  C   UNL     1     -43.905 -32.687 -37.943  1.00  0.00     0.008 C 
ATOM     13  C   UNL     1     -47.107 -31.647 -37.032  1.00  0.00     0.008 C 
ATOM     14  C   UNL     1     -41.958 -27.945 -36.924  1.00  0.00     0.017 C 
ATOM     15  C   UNL     1     -40.403 -27.544 -39.053  1.00  0.00    -0.020 C 
ATOM     16  C   UNL     1     -41.180 -28.908 -41.077  1.00  0.00     0.032 C 
ATOM     17  C   UNL     1     -40.154 -27.833 -40.653  1.00  0.00     0.006 C 
ATOM     18  C   UNL     1     -39.219 -28.220 -38.280  1.00  0.00     0.008 C 
ATOM     19  C   UNL     1     -40.310 -26.010 -38.780  1.00  0.00     0.012 C 
ATOM     20  C   UNL     1     -38.537 -27.921 -41.107  1.00  0.00    -0.025 C 
ATOM     21  C   UNL     1     -38.510 -29.376 -38.984  1.00  0.00     0.005 C 
ATOM     22  C   UNL     1     -37.962 -29.158 -40.436  1.00  0.00     0.003 C 
ATOM     23  C   UNL     1     -38.032 -27.909 -42.641  1.00  0.00     0.010 C 
ATOM     24  C   UNL     1     -37.859 -26.588 -40.666  1.00  0.00     0.012 C 
ATOM     25  C   UNL     1     -37.845 -30.424 -41.371  1.00  0.00    -0.006 C 
ATOM     26  C   UNL     1     -38.973 -28.808 -43.420  1.00  0.00     0.033 C 
ATOM     27  C   UNL     1     -38.605 -30.283 -42.854  1.00  0.00     0.120 C 
ATOM     28  C   UNL     1     -36.321 -30.710 -41.530  1.00  0.00     0.014 C 
ATOM     29  C   UNL     1     -38.409 -31.726 -40.754  1.00  0.00     0.014 C 
ENDROOT
BRANCH   1  30
ATOM     30  C   UNL     1     -43.920 -31.110 -40.395  1.00  0.00     0.048 C 
ATOM     31  O   UNL     1     -44.136 -31.536 -41.593  1.00  0.00    -0.550 OA
ATOM     32  O   UNL     1     -43.957 -31.432 -41.736  1.00  0.00    -0.550 OA
ENDBRANCH   1  30
BRANCH  27  33
ATOM     33  O   UNL     1     -37.871 -30.965 -43.831  1.00  0.00    -0.393 OA
ATOM     34  H   UNL     1     -37.124 -30.355 -44.114  1.00  0.00     0.210 HD
ENDBRANCH  27  33
TORSDOF 2
ENDMDL
