MODEL 1
REMARK VINA RESULT:    -4.640      0.000      0.000
REMARK INTER + INTRA:         -12.796
REMARK INTER:                 -10.607
REMARK INTRA:                  -2.188
REMARK UNBOUND:                -2.188
REMARK SMILES CCCCCCCCCCCCCCCCCCCCCCCC(=O)[O-]
REMARK SMILES IDX 13 1 14 2 15 3 16 4 17 5 18 6 19 7 20 8 21 9 22 10 23 11
REMARK SMILES IDX 24 12 25 13 26 14 12 15 11 16 10 17 9 18 8 19 7 20 6 21 5 22
REMARK SMILES IDX 4 23 3 24 2 25 1 26
REMARK H PARENT
REMARK Flexibility Score: inf
ROOT
ATOM      1  C   UNL     1      11.241  47.610  93.406  1.00  0.00     0.000 C 
ENDROOT
BRANCH   1   2
ATOM      2  C   UNL     1      10.140  46.542  93.504  1.00  0.00     0.000 C 
BRANCH   2   3
ATOM      3  C   UNL     1      10.675  45.196  94.037  1.00  0.00     0.000 C 
BRANCH   3   4
ATOM      4  C   UNL     1      10.019  44.741  95.353  1.00  0.00     0.000 C 
BRANCH   4   5
ATOM      5  C   UNL     1      10.438  43.322  95.772  1.00  0.00     0.000 C 
BRANCH   5   6
ATOM      6  C   UNL     1      11.735  42.866  95.084  1.00  0.00     0.000 C 
BRANCH   6   7
ATOM      7  C   UNL     1      12.697  42.161  96.058  1.00  0.00     0.000 C 
BRANCH   7   8
ATOM      8  C   UNL     1      14.148  42.154  95.550  1.00  0.00     0.000 C 
BRANCH   8   9
ATOM      9  C   UNL     1      14.266  42.636  94.097  1.00  0.00     0.000 C 
BRANCH   9  10
ATOM     10  C   UNL     1      15.323  41.827  93.335  1.00  0.00     0.006 C 
BRANCH  10  11
ATOM     11  C   UNL     1      15.174  42.016  91.823  1.00  0.00     0.053 C 
BRANCH  11  12
ATOM     12  C   UNL     1      16.264  42.895  91.294  1.00  0.00     0.041 C 
ATOM     13  O   UNL     1      16.331  43.149  90.063  1.00  0.00    -0.550 OA
ATOM     14  O   UNL     1      17.232  43.396  92.155  1.00  0.00    -0.550 OA
ENDBRANCH  11  12
ENDBRANCH  10  11
ENDBRANCH   9  10
ENDBRANCH   8   9
ENDBRANCH   7   8
ENDBRANCH   6   7
ENDBRANCH   5   6
ENDBRANCH   4   5
ENDBRANCH   3   4
ENDBRANCH   2   3
ENDBRANCH   1   2
BRANCH   1  15
ATOM     15  C   UNL     1      10.914  48.825  94.286  1.00  0.00     0.000 C 
BRANCH  15  16
ATOM     16  C   UNL     1      10.277  48.438  95.634  1.00  0.00     0.000 C 
BRANCH  16  17
ATOM     17  C   UNL     1      11.127  48.768  96.874  1.00  0.00     0.000 C 
BRANCH  17  18
ATOM     18  C   UNL     1      12.618  48.944  96.551  1.00  0.00    -0.000 C 
BRANCH  18  19
ATOM     19  C   UNL     1      13.293  49.871  97.570  1.00  0.00    -0.000 C 
BRANCH  19  20
ATOM     20  C   UNL     1      14.179  50.911  96.865  1.00  0.00    -0.000 C 
BRANCH  20  21
ATOM     21  C   UNL     1      14.150  50.775  95.335  1.00  0.00    -0.000 C 
BRANCH  21  22
ATOM     22  C   UNL     1      15.538  50.481  94.740  1.00  0.00    -0.000 C 
BRANCH  22  23
ATOM     23  C   UNL     1      15.913  48.992  94.822  1.00  0.00    -0.000 C 
BRANCH  23  24
ATOM     24  C   UNL     1      16.021  48.330  93.437  1.00  0.00    -0.000 C 
BRANCH  24  25
ATOM     25  C   UNL     1      17.052  47.190  93.410  1.00  0.00    -0.003 C 
ATOM     26  C   UNL     1      17.513  46.778  94.808  1.00  0.00     0.004 C 
ENDBRANCH  24  25
ENDBRANCH  23  24
ENDBRANCH  22  23
ENDBRANCH  21  22
ENDBRANCH  20  21
ENDBRANCH  19  20
ENDBRANCH  18  19
ENDBRANCH  17  18
ENDBRANCH  16  17
ENDBRANCH  15  16
ENDBRANCH   1  15
TORSDOF 22
ENDMDL
MODEL 2
REMARK VINA RESULT:    -4.507      2.004      4.488
REMARK INTER + INTRA:         -12.493
REMARK INTER:                 -10.874
REMARK INTRA:                  -1.619
REMARK UNBOUND:                -2.188
REMARK SMILES CCCCCCCCCCCCCCCCCCCCCCCC(=O)[O-]
REMARK SMILES IDX 13 1 14 2 15 3 16 4 17 5 18 6 19 7 20 8 21 9 22 10 23 11
REMARK SMILES IDX 24 12 25 13 26 14 12 15 11 16 10 17 9 18 8 19 7 20 6 21 5 22
REMARK SMILES IDX 4 23 3 24 2 25 1 26
REMARK H PARENT
REMARK Flexibility Score: inf
ROOT
ATOM      1  C   UNL     1      11.957  49.187  96.803  1.00  0.00     0.000 C 
ENDROOT
BRANCH   1   2
ATOM      2  C   UNL     1      11.007  49.264  98.008  1.00  0.00     0.000 C 
BRANCH   2   3
ATOM      3  C   UNL     1       9.529  49.084  97.603  1.00  0.00     0.000 C 
BRANCH   3   4
ATOM      4  C   UNL     1       9.333  48.601  96.155  1.00  0.00     0.000 C 
BRANCH   4   5
ATOM      5  C   UNL     1       8.475  47.329  96.059  1.00  0.00     0.000 C 
BRANCH   5   6
ATOM      6  C   UNL     1       9.326  46.048  96.014  1.00  0.00     0.000 C 
BRANCH   6   7
ATOM      7  C   UNL     1       9.846  45.742  94.598  1.00  0.00     0.000 C 
BRANCH   7   8
ATOM      8  C   UNL     1      10.785  44.524  94.567  1.00  0.00     0.000 C 
BRANCH   8   9
ATOM      9  C   UNL     1      10.514  43.543  95.716  1.00  0.00     0.000 C 
BRANCH   9  10
ATOM     10  C   UNL     1      11.512  42.379  95.689  1.00  0.00     0.006 C 
BRANCH  10  11
ATOM     11  C   UNL     1      12.614  42.622  94.655  1.00  0.00     0.053 C 
BRANCH  11  12
ATOM     12  C   UNL     1      13.947  42.223  95.203  1.00  0.00     0.041 C 
ATOM     13  O   UNL     1      14.160  42.266  96.444  1.00  0.00    -0.550 OA
ATOM     14  O   UNL     1      14.969  41.846  94.341  1.00  0.00    -0.550 OA
ENDBRANCH  11  12
ENDBRANCH  10  11
ENDBRANCH   9  10
ENDBRANCH   8   9
ENDBRANCH   7   8
ENDBRANCH   6   7
ENDBRANCH   5   6
ENDBRANCH   4   5
ENDBRANCH   3   4
ENDBRANCH   2   3
ENDBRANCH   1   2
BRANCH   1  15
ATOM     15  C   UNL     1      13.424  49.274  97.248  1.00  0.00     0.000 C 
BRANCH  15  16
ATOM     16  C   UNL     1      14.130  50.549  96.747  1.00  0.00     0.000 C 
BRANCH  16  17
ATOM     17  C   UNL     1      14.110  50.748  95.221  1.00  0.00     0.000 C 
BRANCH  17  18
ATOM     18  C   UNL     1      14.581  49.508  94.447  1.00  0.00    -0.000 C 
BRANCH  18  19
ATOM     19  C   UNL     1      15.998  49.102  94.873  1.00  0.00    -0.000 C 
BRANCH  19  20
ATOM     20  C   UNL     1      16.530  47.958  93.996  1.00  0.00    -0.000 C 
BRANCH  20  21
ATOM     21  C   UNL     1      17.444  46.994  94.770  1.00  0.00    -0.000 C 
BRANCH  21  22
ATOM     22  C   UNL     1      18.076  45.922  93.865  1.00  0.00    -0.000 C 
BRANCH  22  23
ATOM     23  C   UNL     1      18.185  46.376  92.400  1.00  0.00    -0.000 C 
BRANCH  23  24
ATOM     24  C   UNL     1      19.604  46.841  92.027  1.00  0.00    -0.000 C 
BRANCH  24  25
ATOM     25  C   UNL     1      19.695  47.344  90.578  1.00  0.00    -0.003 C 
ATOM     26  C   UNL     1      18.442  48.100  90.136  1.00  0.00     0.004 C 
ENDBRANCH  24  25
ENDBRANCH  23  24
ENDBRANCH  22  23
ENDBRANCH  21  22
ENDBRANCH  20  21
ENDBRANCH  19  20
ENDBRANCH  18  19
ENDBRANCH  17  18
ENDBRANCH  16  17
ENDBRANCH  15  16
ENDBRANCH   1  15
TORSDOF 22
ENDMDL
MODEL 3
REMARK VINA RESULT:    -4.259      1.647      4.178
REMARK INTER + INTRA:         -11.926
REMARK INTER:                 -10.226
REMARK INTRA:                  -1.700
REMARK UNBOUND:                -2.188
REMARK SMILES CCCCCCCCCCCCCCCCCCCCCCCC(=O)[O-]
REMARK SMILES IDX 13 1 14 2 15 3 16 4 17 5 18 6 19 7 20 8 21 9 22 10 23 11
REMARK SMILES IDX 24 12 25 13 26 14 12 15 11 16 10 17 9 18 8 19 7 20 6 21 5 22
REMARK SMILES IDX 4 23 3 24 2 25 1 26
REMARK H PARENT
REMARK Flexibility Score: inf
ROOT
ATOM      1  C   UNL     1      12.084  49.170  96.985  1.00  0.00     0.000 C 
ENDROOT
BRANCH   1   2
ATOM      2  C   UNL     1      11.001  49.464  98.034  1.00  0.00     0.000 C 
BRANCH   2   3
ATOM      3  C   UNL     1       9.634  48.858  97.651  1.00  0.00     0.000 C 
BRANCH   3   4
ATOM      4  C   UNL     1       9.641  48.098  96.313  1.00  0.00     0.000 C 
BRANCH   4   5
ATOM      5  C   UNL     1       9.353  46.597  96.474  1.00  0.00     0.000 C 
BRANCH   5   6
ATOM      6  C   UNL     1       9.704  45.793  95.211  1.00  0.00     0.000 C 
BRANCH   6   7
ATOM      7  C   UNL     1      10.011  44.316  95.524  1.00  0.00     0.000 C 
BRANCH   7   8
ATOM      8  C   UNL     1      11.181  43.770  94.689  1.00  0.00     0.000 C 
BRANCH   8   9
ATOM      9  C   UNL     1      11.742  42.457  95.252  1.00  0.00     0.000 C 
BRANCH   9  10
ATOM     10  C   UNL     1      13.275  42.449  95.200  1.00  0.00     0.006 C 
BRANCH  10  11
ATOM     11  C   UNL     1      13.775  42.422  93.753  1.00  0.00     0.053 C 
BRANCH  11  12
ATOM     12  C   UNL     1      15.129  41.789  93.677  1.00  0.00     0.041 C 
ATOM     13  O   UNL     1      15.947  42.149  92.790  1.00  0.00    -0.550 OA
ATOM     14  O   UNL     1      15.471  40.771  94.558  1.00  0.00    -0.550 OA
ENDBRANCH  11  12
ENDBRANCH  10  11
ENDBRANCH   9  10
ENDBRANCH   8   9
ENDBRANCH   7   8
ENDBRANCH   6   7
ENDBRANCH   5   6
ENDBRANCH   4   5
ENDBRANCH   3   4
ENDBRANCH   2   3
ENDBRANCH   1   2
BRANCH   1  15
ATOM     15  C   UNL     1      13.472  49.597  97.487  1.00  0.00     0.000 C 
BRANCH  15  16
ATOM     16  C   UNL     1      13.943  50.936  96.887  1.00  0.00     0.000 C 
BRANCH  16  17
ATOM     17  C   UNL     1      14.162  50.925  95.363  1.00  0.00     0.000 C 
BRANCH  17  18
ATOM     18  C   UNL     1      15.627  50.687  94.968  1.00  0.00    -0.000 C 
BRANCH  18  19
ATOM     19  C   UNL     1      15.915  49.189  94.811  1.00  0.00    -0.000 C 
BRANCH  19  20
ATOM     20  C   UNL     1      15.590  48.712  93.386  1.00  0.00    -0.000 C 
BRANCH  20  21
ATOM     21  C   UNL     1      16.351  47.434  93.000  1.00  0.00    -0.000 C 
BRANCH  21  22
ATOM     22  C   UNL     1      16.202  47.082  91.510  1.00  0.00    -0.000 C 
BRANCH  22  23
ATOM     23  C   UNL     1      16.052  45.570  91.273  1.00  0.00    -0.000 C 
BRANCH  23  24
ATOM     24  C   UNL     1      14.584  45.109  91.294  1.00  0.00    -0.000 C 
BRANCH  24  25
ATOM     25  C   UNL     1      14.119  44.572  89.931  1.00  0.00    -0.003 C 
ATOM     26  C   UNL     1      14.506  43.110  89.709  1.00  0.00     0.004 C 
ENDBRANCH  24  25
ENDBRANCH  23  24
ENDBRANCH  22  23
ENDBRANCH  21  22
ENDBRANCH  20  21
ENDBRANCH  19  20
ENDBRANCH  18  19
ENDBRANCH  17  18
ENDBRANCH  16  17
ENDBRANCH  15  16
ENDBRANCH   1  15
TORSDOF 22
ENDMDL
MODEL 4
REMARK VINA RESULT:    -4.242      1.944      6.197
REMARK INTER + INTRA:         -11.887
REMARK INTER:                  -9.501
REMARK INTRA:                  -2.386
REMARK UNBOUND:                -2.188
REMARK SMILES CCCCCCCCCCCCCCCCCCCCCCCC(=O)[O-]
REMARK SMILES IDX 13 1 14 2 15 3 16 4 17 5 18 6 19 7 20 8 21 9 22 10 23 11
REMARK SMILES IDX 24 12 25 13 26 14 12 15 11 16 10 17 9 18 8 19 7 20 6 21 5 22
REMARK SMILES IDX 4 23 3 24 2 25 1 26
REMARK H PARENT
REMARK Flexibility Score: inf
ROOT
ATOM      1  C   UNL     1       8.856  49.201  97.551  1.00  0.00     0.000 C 
ENDROOT
BRANCH   1   2
ATOM      2  C   UNL     1      10.225  48.532  97.354  1.00  0.00     0.000 C 
BRANCH   2   3
ATOM      3  C   UNL     1      11.379  49.378  97.932  1.00  0.00     0.000 C 
BRANCH   3   4
ATOM      4  C   UNL     1      12.689  49.277  97.132  1.00  0.00     0.000 C 
BRANCH   4   5
ATOM      5  C   UNL     1      12.464  48.902  95.658  1.00  0.00     0.000 C 
BRANCH   5   6
ATOM      6  C   UNL     1      13.089  49.921  94.691  1.00  0.00     0.000 C 
BRANCH   6   7
ATOM      7  C   UNL     1      14.135  50.816  95.379  1.00  0.00     0.000 C 
BRANCH   7   8
ATOM      8  C   UNL     1      15.567  50.516  94.907  1.00  0.00     0.000 C 
BRANCH   8   9
ATOM      9  C   UNL     1      15.826  49.013  94.731  1.00  0.00     0.000 C 
BRANCH   9  10
ATOM     10  C   UNL     1      15.963  48.651  93.246  1.00  0.00     0.006 C 
BRANCH  10  11
ATOM     11  C   UNL     1      16.817  47.394  93.064  1.00  0.00     0.053 C 
BRANCH  11  12
ATOM     12  C   UNL     1      17.069  47.136  91.612  1.00  0.00     0.041 C 
ATOM     13  O   UNL     1      16.132  46.745  90.866  1.00  0.00    -0.550 OA
ATOM     14  O   UNL     1      18.348  47.284  91.091  1.00  0.00    -0.550 OA
ENDBRANCH  11  12
ENDBRANCH  10  11
ENDBRANCH   9  10
ENDBRANCH   8   9
ENDBRANCH   7   8
ENDBRANCH   6   7
ENDBRANCH   5   6
ENDBRANCH   4   5
ENDBRANCH   3   4
ENDBRANCH   2   3
ENDBRANCH   1   2
BRANCH   1  15
ATOM     15  C   UNL     1       8.111  49.341  96.214  1.00  0.00     0.000 C 
BRANCH  15  16
ATOM     16  C   UNL     1       9.060  49.453  95.006  1.00  0.00     0.000 C 
BRANCH  16  17
ATOM     17  C   UNL     1       8.363  49.641  93.646  1.00  0.00     0.000 C 
BRANCH  17  18
ATOM     18  C   UNL     1       8.681  48.519  92.647  1.00  0.00    -0.000 C 
BRANCH  18  19
ATOM     19  C   UNL     1       9.723  47.553  93.223  1.00  0.00    -0.000 C 
BRANCH  19  20
ATOM     20  C   UNL     1       9.101  46.175  93.502  1.00  0.00    -0.000 C 
BRANCH  20  21
ATOM     21  C   UNL     1       9.357  45.689  94.938  1.00  0.00    -0.000 C 
BRANCH  21  22
ATOM     22  C   UNL     1      10.610  44.805  95.050  1.00  0.00    -0.000 C 
BRANCH  22  23
ATOM     23  C   UNL     1      10.314  43.439  95.691  1.00  0.00    -0.000 C 
BRANCH  23  24
ATOM     24  C   UNL     1      11.436  42.413  95.448  1.00  0.00    -0.000 C 
BRANCH  24  25
ATOM     25  C   UNL     1      12.487  42.919  94.448  1.00  0.00    -0.003 C 
ATOM     26  C   UNL     1      12.239  42.416  93.025  1.00  0.00     0.004 C 
ENDBRANCH  24  25
ENDBRANCH  23  24
ENDBRANCH  22  23
ENDBRANCH  21  22
ENDBRANCH  20  21
ENDBRANCH  19  20
ENDBRANCH  18  19
ENDBRANCH  17  18
ENDBRANCH  16  17
ENDBRANCH  15  16
ENDBRANCH   1  15
TORSDOF 22
ENDMDL
MODEL 5
REMARK VINA RESULT:    -4.099      1.927      2.294
REMARK INTER + INTRA:         -11.559
REMARK INTER:                  -9.324
REMARK INTRA:                  -2.235
REMARK UNBOUND:                -2.188
REMARK SMILES CCCCCCCCCCCCCCCCCCCCCCCC(=O)[O-]
REMARK SMILES IDX 13 1 14 2 15 3 16 4 17 5 18 6 19 7 20 8 21 9 22 10 23 11
REMARK SMILES IDX 24 12 25 13 26 14 12 15 11 16 10 17 9 18 8 19 7 20 6 21 5 22
REMARK SMILES IDX 4 23 3 24 2 25 1 26
REMARK H PARENT
REMARK Flexibility Score: inf
ROOT
ATOM      1  C   UNL     1       9.752  48.356  93.018  1.00  0.00     0.000 C 
ENDROOT
BRANCH   1   2
ATOM      2  C   UNL     1       9.037  47.081  93.490  1.00  0.00     0.000 C 
BRANCH   2   3
ATOM      3  C   UNL     1       9.895  45.816  93.280  1.00  0.00     0.000 C 
BRANCH   3   4
ATOM      4  C   UNL     1      10.691  45.388  94.526  1.00  0.00     0.000 C 
BRANCH   4   5
ATOM      5  C   UNL     1       9.928  44.388  95.410  1.00  0.00     0.000 C 
BRANCH   5   6
ATOM      6  C   UNL     1      10.804  43.200  95.844  1.00  0.00     0.000 C 
BRANCH   6   7
ATOM      7  C   UNL     1      11.505  42.524  94.651  1.00  0.00     0.000 C 
BRANCH   7   8
ATOM      8  C   UNL     1      13.034  42.497  94.805  1.00  0.00     0.000 C 
BRANCH   8   9
ATOM      9  C   UNL     1      13.763  42.530  93.455  1.00  0.00     0.000 C 
BRANCH   9  10
ATOM     10  C   UNL     1      12.773  42.741  92.303  1.00  0.00     0.006 C 
BRANCH  10  11
ATOM     11  C   UNL     1      12.833  41.581  91.306  1.00  0.00     0.053 C 
BRANCH  11  12
ATOM     12  C   UNL     1      11.757  41.717  90.276  1.00  0.00     0.041 C 
ATOM     13  O   UNL     1      10.696  41.046  90.375  1.00  0.00    -0.550 OA
ATOM     14  O   UNL     1      11.945  42.551  89.181  1.00  0.00    -0.550 OA
ENDBRANCH  11  12
ENDBRANCH  10  11
ENDBRANCH   9  10
ENDBRANCH   8   9
ENDBRANCH   7   8
ENDBRANCH   6   7
ENDBRANCH   5   6
ENDBRANCH   4   5
ENDBRANCH   3   4
ENDBRANCH   2   3
ENDBRANCH   1   2
BRANCH   1  15
ATOM     15  C   UNL     1      10.385  49.106  94.200  1.00  0.00     0.000 C 
BRANCH  15  16
ATOM     16  C   UNL     1       9.830  48.656  95.565  1.00  0.00     0.000 C 
BRANCH  16  17
ATOM     17  C   UNL     1      10.861  48.621  96.708  1.00  0.00     0.000 C 
BRANCH  17  18
ATOM     18  C   UNL     1      12.289  48.932  96.239  1.00  0.00    -0.000 C 
BRANCH  18  19
ATOM     19  C   UNL     1      13.040  49.766  97.284  1.00  0.00    -0.000 C 
BRANCH  19  20
ATOM     20  C   UNL     1      14.397  50.239  96.741  1.00  0.00    -0.000 C 
BRANCH  20  21
ATOM     21  C   UNL     1      14.339  50.624  95.254  1.00  0.00    -0.000 C 
BRANCH  21  22
ATOM     22  C   UNL     1      15.381  49.873  94.407  1.00  0.00    -0.000 C 
BRANCH  22  23
ATOM     23  C   UNL     1      16.027  48.702  95.166  1.00  0.00    -0.000 C 
BRANCH  23  24
ATOM     24  C   UNL     1      16.683  47.675  94.225  1.00  0.00    -0.000 C 
BRANCH  24  25
ATOM     25  C   UNL     1      17.616  46.708  94.971  1.00  0.00    -0.003 C 
ATOM     26  C   UNL     1      18.815  46.276  94.126  1.00  0.00     0.004 C 
ENDBRANCH  24  25
ENDBRANCH  23  24
ENDBRANCH  22  23
ENDBRANCH  21  22
ENDBRANCH  20  21
ENDBRANCH  19  20
ENDBRANCH  18  19
ENDBRANCH  17  18
ENDBRANCH  16  17
ENDBRANCH  15  16
ENDBRANCH   1  15
TORSDOF 22
ENDMDL
MODEL 6
REMARK VINA RESULT:    -4.058      2.268      3.974
REMARK INTER + INTRA:         -11.465
REMARK INTER:                  -9.827
REMARK INTRA:                  -1.638
REMARK UNBOUND:                -2.188
REMARK SMILES CCCCCCCCCCCCCCCCCCCCCCCC(=O)[O-]
REMARK SMILES IDX 13 1 14 2 15 3 16 4 17 5 18 6 19 7 20 8 21 9 22 10 23 11
REMARK SMILES IDX 24 12 25 13 26 14 12 15 11 16 10 17 9 18 8 19 7 20 6 21 5 22
REMARK SMILES IDX 4 23 3 24 2 25 1 26
REMARK H PARENT
REMARK Flexibility Score: inf
ROOT
ATOM      1  C   UNL     1      12.177  49.062  96.722  1.00  0.00     0.000 C 
ENDROOT
BRANCH   1   2
ATOM      2  C   UNL     1      10.951  48.930  97.639  1.00  0.00     0.000 C 
BRANCH   2   3
ATOM      3  C   UNL     1       9.817  48.111  96.988  1.00  0.00     0.000 C 
BRANCH   3   4
ATOM      4  C   UNL     1      10.239  47.369  95.708  1.00  0.00     0.000 C 
BRANCH   4   5
ATOM      5  C   UNL     1       9.432  46.082  95.468  1.00  0.00     0.000 C 
BRANCH   5   6
ATOM      6  C   UNL     1      10.307  44.930  94.945  1.00  0.00     0.000 C 
BRANCH   6   7
ATOM      7  C   UNL     1      10.339  43.733  95.914  1.00  0.00     0.000 C 
BRANCH   7   8
ATOM      8  C   UNL     1      11.090  42.525  95.331  1.00  0.00     0.000 C 
BRANCH   8   9
ATOM      9  C   UNL     1      12.432  42.916  94.697  1.00  0.00     0.000 C 
BRANCH   9  10
ATOM     10  C   UNL     1      12.495  42.472  93.230  1.00  0.00     0.006 C 
BRANCH  10  11
ATOM     11  C   UNL     1      12.312  43.664  92.287  1.00  0.00     0.053 C 
BRANCH  11  12
ATOM     12  C   UNL     1      13.637  44.137  91.775  1.00  0.00     0.041 C 
ATOM     13  O   UNL     1      14.608  43.339  91.701  1.00  0.00    -0.550 OA
ATOM     14  O   UNL     1      13.810  45.470  91.423  1.00  0.00    -0.550 OA
ENDBRANCH  11  12
ENDBRANCH  10  11
ENDBRANCH   9  10
ENDBRANCH   8   9
ENDBRANCH   7   8
ENDBRANCH   6   7
ENDBRANCH   5   6
ENDBRANCH   4   5
ENDBRANCH   3   4
ENDBRANCH   2   3
ENDBRANCH   1   2
BRANCH   1  15
ATOM     15  C   UNL     1      13.393  49.593  97.496  1.00  0.00     0.000 C 
BRANCH  15  16
ATOM     16  C   UNL     1      14.060  50.802  96.813  1.00  0.00     0.000 C 
BRANCH  16  17
ATOM     17  C   UNL     1      14.193  50.694  95.283  1.00  0.00     0.000 C 
BRANCH  17  18
ATOM     18  C   UNL     1      15.646  50.530  94.816  1.00  0.00    -0.000 C 
BRANCH  18  19
ATOM     19  C   UNL     1      16.002  49.048  94.645  1.00  0.00    -0.000 C 
BRANCH  19  20
ATOM     20  C   UNL     1      15.410  48.487  93.342  1.00  0.00    -0.000 C 
BRANCH  20  21
ATOM     21  C   UNL     1      16.346  47.483  92.650  1.00  0.00    -0.000 C 
BRANCH  21  22
ATOM     22  C   UNL     1      16.842  47.982  91.282  1.00  0.00    -0.000 C 
BRANCH  22  23
ATOM     23  C   UNL     1      18.312  47.616  91.017  1.00  0.00    -0.000 C 
BRANCH  23  24
ATOM     24  C   UNL     1      18.650  47.564  89.516  1.00  0.00    -0.000 C 
BRANCH  24  25
ATOM     25  C   UNL     1      18.628  48.954  88.861  1.00  0.00    -0.003 C 
ATOM     26  C   UNL     1      19.583  49.940  89.534  1.00  0.00     0.004 C 
ENDBRANCH  24  25
ENDBRANCH  23  24
ENDBRANCH  22  23
ENDBRANCH  21  22
ENDBRANCH  20  21
ENDBRANCH  19  20
ENDBRANCH  18  19
ENDBRANCH  17  18
ENDBRANCH  16  17
ENDBRANCH  15  16
ENDBRANCH   1  15
TORSDOF 22
ENDMDL
MODEL 7
REMARK VINA RESULT:    -4.020      5.079      8.357
REMARK INTER + INTRA:         -11.378
REMARK INTER:                  -9.428
REMARK INTRA:                  -1.950
REMARK UNBOUND:                -2.188
REMARK SMILES CCCCCCCCCCCCCCCCCCCCCCCC(=O)[O-]
REMARK SMILES IDX 13 1 14 2 15 3 16 4 17 5 18 6 19 7 20 8 21 9 22 10 23 11
REMARK SMILES IDX 24 12 25 13 26 14 12 15 11 16 10 17 9 18 8 19 7 20 6 21 5 22
REMARK SMILES IDX 4 23 3 24 2 25 1 26
REMARK H PARENT
REMARK Flexibility Score: inf
ROOT
ATOM      1  C   UNL     1      15.710  49.161  94.565  1.00  0.00     0.000 C 
ENDROOT
BRANCH   1   2
ATOM      2  C   UNL     1      14.361  49.864  94.785  1.00  0.00     0.000 C 
BRANCH   2   3
ATOM      3  C   UNL     1      14.434  50.940  95.889  1.00  0.00     0.000 C 
BRANCH   3   4
ATOM      4  C   UNL     1      13.712  50.549  97.190  1.00  0.00     0.000 C 
BRANCH   4   5
ATOM      5  C   UNL     1      12.844  49.290  97.039  1.00  0.00     0.000 C 
BRANCH   5   6
ATOM      6  C   UNL     1      11.586  49.334  97.923  1.00  0.00     0.000 C 
BRANCH   6   7
ATOM      7  C   UNL     1      10.354  48.739  97.216  1.00  0.00     0.000 C 
BRANCH   7   8
ATOM      8  C   UNL     1      10.594  48.497  95.717  1.00  0.00     0.000 C 
BRANCH   8   9
ATOM      9  C   UNL     1       9.452  49.033  94.844  1.00  0.00     0.000 C 
BRANCH   9  10
ATOM     10  C   UNL     1       8.194  49.291  95.683  1.00  0.00     0.006 C 
BRANCH  10  11
ATOM     11  C   UNL     1       7.710  50.734  95.518  1.00  0.00     0.053 C 
BRANCH  11  12
ATOM     12  C   UNL     1       7.215  51.274  96.823  1.00  0.00     0.041 C 
ATOM     13  O   UNL     1       6.080  51.813  96.896  1.00  0.00    -0.550 OA
ATOM     14  O   UNL     1       8.028  51.223  97.949  1.00  0.00    -0.550 OA
ENDBRANCH  11  12
ENDBRANCH  10  11
ENDBRANCH   9  10
ENDBRANCH   8   9
ENDBRANCH   7   8
ENDBRANCH   6   7
ENDBRANCH   5   6
ENDBRANCH   4   5
ENDBRANCH   3   4
ENDBRANCH   2   3
ENDBRANCH   1   2
BRANCH   1  15
ATOM     15  C   UNL     1      15.749  48.451  93.204  1.00  0.00     0.000 C 
BRANCH  15  16
ATOM     16  C   UNL     1      16.795  47.322  93.144  1.00  0.00     0.000 C 
BRANCH  16  17
ATOM     17  C   UNL     1      17.480  46.997  94.484  1.00  0.00     0.000 C 
BRANCH  17  18
ATOM     18  C   UNL     1      18.776  46.190  94.316  1.00  0.00    -0.000 C 
BRANCH  18  19
ATOM     19  C   UNL     1      18.928  45.693  92.873  1.00  0.00    -0.000 C 
BRANCH  19  20
ATOM     20  C   UNL     1      20.046  46.454  92.144  1.00  0.00    -0.000 C 
BRANCH  20  21
ATOM     21  C   UNL     1      19.593  47.015  90.787  1.00  0.00    -0.000 C 
BRANCH  21  22
ATOM     22  C   UNL     1      20.356  48.291  90.388  1.00  0.00    -0.000 C 
BRANCH  22  23
ATOM     23  C   UNL     1      19.436  49.363  89.780  1.00  0.00    -0.000 C 
BRANCH  23  24
ATOM     24  C   UNL     1      17.943  49.018  89.927  1.00  0.00    -0.000 C 
BRANCH  24  25
ATOM     25  C   UNL     1      17.286  48.667  88.583  1.00  0.00    -0.003 C 
ATOM     26  C   UNL     1      16.051  47.780  88.743  1.00  0.00     0.004 C 
ENDBRANCH  24  25
ENDBRANCH  23  24
ENDBRANCH  22  23
ENDBRANCH  21  22
ENDBRANCH  20  21
ENDBRANCH  19  20
ENDBRANCH  18  19
ENDBRANCH  17  18
ENDBRANCH  16  17
ENDBRANCH  15  16
ENDBRANCH   1  15
TORSDOF 22
ENDMDL
MODEL 8
REMARK VINA RESULT:    -3.962      2.791      5.539
REMARK INTER + INTRA:         -11.247
REMARK INTER:                  -8.305
REMARK INTRA:                  -2.942
REMARK UNBOUND:                -2.188
REMARK SMILES CCCCCCCCCCCCCCCCCCCCCCCC(=O)[O-]
REMARK SMILES IDX 13 1 14 2 15 3 16 4 17 5 18 6 19 7 20 8 21 9 22 10 23 11
REMARK SMILES IDX 24 12 25 13 26 14 12 15 11 16 10 17 9 18 8 19 7 20 6 21 5 22
REMARK SMILES IDX 4 23 3 24 2 25 1 26
REMARK H PARENT
REMARK Flexibility Score: inf
ROOT
ATOM      1  C   UNL     1      13.039  42.185  95.912  1.00  0.00     0.000 C 
ENDROOT
BRANCH   1   2
ATOM      2  C   UNL     1      14.447  42.135  95.300  1.00  0.00     0.000 C 
BRANCH   2   3
ATOM      3  C   UNL     1      14.449  42.507  93.802  1.00  0.00     0.000 C 
BRANCH   3   4
ATOM      4  C   UNL     1      15.638  41.927  93.016  1.00  0.00     0.000 C 
BRANCH   4   5
ATOM      5  C   UNL     1      15.206  40.950  91.911  1.00  0.00     0.000 C 
BRANCH   5   6
ATOM      6  C   UNL     1      15.184  41.607  90.521  1.00  0.00     0.000 C 
BRANCH   6   7
ATOM      7  C   UNL     1      13.761  41.707  89.943  1.00  0.00     0.000 C 
BRANCH   7   8
ATOM      8  C   UNL     1      12.701  41.113  90.885  1.00  0.00     0.000 C 
BRANCH   8   9
ATOM      9  C   UNL     1      11.587  42.113  91.223  1.00  0.00     0.000 C 
BRANCH   9  10
ATOM     10  C   UNL     1      12.037  43.552  90.942  1.00  0.00     0.006 C 
BRANCH  10  11
ATOM     11  C   UNL     1      11.167  44.559  91.700  1.00  0.00     0.053 C 
BRANCH  11  12
ATOM     12  C   UNL     1      10.315  45.337  90.748  1.00  0.00     0.041 C 
ATOM     13  O   UNL     1       9.574  44.737  89.926  1.00  0.00    -0.550 OA
ATOM     14  O   UNL     1      10.372  46.725  90.739  1.00  0.00    -0.550 OA
ENDBRANCH  11  12
ENDBRANCH  10  11
ENDBRANCH   9  10
ENDBRANCH   8   9
ENDBRANCH   7   8
ENDBRANCH   6   7
ENDBRANCH   5   6
ENDBRANCH   4   5
ENDBRANCH   3   4
ENDBRANCH   2   3
ENDBRANCH   1   2
BRANCH   1  15
ATOM     15  C   UNL     1      12.010  42.698  94.894  1.00  0.00     0.000 C 
BRANCH  15  16
ATOM     16  C   UNL     1      10.734  43.255  95.555  1.00  0.00     0.000 C 
BRANCH  16  17
ATOM     17  C   UNL     1      10.270  44.623  95.024  1.00  0.00     0.000 C 
BRANCH  17  18
ATOM     18  C   UNL     1       9.483  45.435  96.063  1.00  0.00    -0.000 C 
BRANCH  18  19
ATOM     19  C   UNL     1       9.810  46.930  95.951  1.00  0.00    -0.000 C 
BRANCH  19  20
ATOM     20  C   UNL     1      10.282  47.285  94.532  1.00  0.00    -0.000 C 
BRANCH  20  21
ATOM     21  C   UNL     1      10.174  48.788  94.230  1.00  0.00    -0.000 C 
BRANCH  21  22
ATOM     22  C   UNL     1      11.504  49.392  93.748  1.00  0.00    -0.000 C 
BRANCH  22  23
ATOM     23  C   UNL     1      12.724  48.768  94.446  1.00  0.00    -0.000 C 
BRANCH  23  24
ATOM     24  C   UNL     1      13.452  49.760  95.371  1.00  0.00    -0.000 C 
BRANCH  24  25
ATOM     25  C   UNL     1      13.457  49.301  96.837  1.00  0.00    -0.003 C 
ATOM     26  C   UNL     1      12.080  49.401  97.493  1.00  0.00     0.004 C 
ENDBRANCH  24  25
ENDBRANCH  23  24
ENDBRANCH  22  23
ENDBRANCH  21  22
ENDBRANCH  20  21
ENDBRANCH  19  20
ENDBRANCH  18  19
ENDBRANCH  17  18
ENDBRANCH  16  17
ENDBRANCH  15  16
ENDBRANCH   1  15
TORSDOF 22
ENDMDL
MODEL 9
REMARK VINA RESULT:    -3.925      3.521      6.810
REMARK INTER + INTRA:         -11.161
REMARK INTER:                  -8.421
REMARK INTRA:                  -2.740
REMARK UNBOUND:                -2.188
REMARK SMILES CCCCCCCCCCCCCCCCCCCCCCCC(=O)[O-]
REMARK SMILES IDX 13 1 14 2 15 3 16 4 17 5 18 6 19 7 20 8 21 9 22 10 23 11
REMARK SMILES IDX 24 12 25 13 26 14 12 15 11 16 10 17 9 18 8 19 7 20 6 21 5 22
REMARK SMILES IDX 4 23 3 24 2 25 1 26
REMARK H PARENT
REMARK Flexibility Score: inf
ROOT
ATOM      1  C   UNL     1      13.693  49.364  96.989  1.00  0.00     0.000 C 
ENDROOT
BRANCH   1   2
ATOM      2  C   UNL     1      12.245  49.374  97.505  1.00  0.00     0.000 C 
BRANCH   2   3
ATOM      3  C   UNL     1      11.241  48.875  96.445  1.00  0.00     0.000 C 
BRANCH   3   4
ATOM      4  C   UNL     1      11.899  48.395  95.140  1.00  0.00     0.000 C 
BRANCH   4   5
ATOM      5  C   UNL     1      11.575  49.298  93.938  1.00  0.00     0.000 C 
BRANCH   5   6
ATOM      6  C   UNL     1      10.313  48.844  93.186  1.00  0.00     0.000 C 
BRANCH   6   7
ATOM      7  C   UNL     1       9.068  49.654  93.592  1.00  0.00     0.000 C 
BRANCH   7   8
ATOM      8  C   UNL     1       7.905  48.757  94.048  1.00  0.00     0.000 C 
BRANCH   8   9
ATOM      9  C   UNL     1       7.349  49.166  95.418  1.00  0.00     0.000 C 
BRANCH   9  10
ATOM     10  C   UNL     1       7.827  48.205  96.514  1.00  0.00     0.006 C 
BRANCH  10  11
ATOM     11  C   UNL     1       7.768  46.752  96.034  1.00  0.00     0.053 C 
BRANCH  11  12
ATOM     12  C   UNL     1       9.045  46.041  96.357  1.00  0.00     0.041 C 
ATOM     13  O   UNL     1       9.401  45.892  97.555  1.00  0.00    -0.550 OA
ATOM     14  O   UNL     1       9.863  45.582  95.332  1.00  0.00    -0.550 OA
ENDBRANCH  11  12
ENDBRANCH  10  11
ENDBRANCH   9  10
ENDBRANCH   8   9
ENDBRANCH   7   8
ENDBRANCH   6   7
ENDBRANCH   5   6
ENDBRANCH   4   5
ENDBRANCH   3   4
ENDBRANCH   2   3
ENDBRANCH   1   2
BRANCH   1  15
ATOM     15  C   UNL     1      14.163  50.782  96.630  1.00  0.00     0.000 C 
BRANCH  15  16
ATOM     16  C   UNL     1      15.259  50.796  95.548  1.00  0.00     0.000 C 
BRANCH  16  17
ATOM     17  C   UNL     1      15.685  49.409  95.034  1.00  0.00     0.000 C 
BRANCH  17  18
ATOM     18  C   UNL     1      15.350  49.188  93.552  1.00  0.00    -0.000 C 
BRANCH  18  19
ATOM     19  C   UNL     1      15.990  47.895  93.032  1.00  0.00    -0.000 C 
BRANCH  19  20
ATOM     20  C   UNL     1      17.065  47.384  94.004  1.00  0.00    -0.000 C 
BRANCH  20  21
ATOM     21  C   UNL     1      17.651  46.027  93.580  1.00  0.00    -0.000 C 
BRANCH  21  22
ATOM     22  C   UNL     1      17.036  45.499  92.273  1.00  0.00    -0.000 C 
BRANCH  22  23
ATOM     23  C   UNL     1      18.054  45.443  91.122  1.00  0.00    -0.000 C 
BRANCH  23  24
ATOM     24  C   UNL     1      18.682  46.815  90.818  1.00  0.00    -0.000 C 
BRANCH  24  25
ATOM     25  C   UNL     1      20.197  46.837  91.073  1.00  0.00    -0.003 C 
ATOM     26  C   UNL     1      20.850  45.469  90.868  1.00  0.00     0.004 C 
ENDBRANCH  24  25
ENDBRANCH  23  24
ENDBRANCH  22  23
ENDBRANCH  21  22
ENDBRANCH  20  21
ENDBRANCH  19  20
ENDBRANCH  18  19
ENDBRANCH  17  18
ENDBRANCH  16  17
ENDBRANCH  15  16
ENDBRANCH   1  15
TORSDOF 22
ENDMDL
