MODEL 1
REMARK VINA RESULT:    -4.474      0.000      0.000
REMARK INTER + INTRA:          -8.117
REMARK INTER:                  -7.613
REMARK INTRA:                  -0.504
REMARK UNBOUND:                -0.504
REMARK SMILES CCCCCCCCCCCCCC(=O)[O-]
REMARK SMILES IDX 8 1 9 2 10 3 11 4 12 5 13 6 14 7 15 8 16 9 7 10 6 11 5 12
REMARK SMILES IDX 4 13 3 14 2 15 1 16
REMARK H PARENT
REMARK Flexibility Score: inf
ROOT
ATOM      1  C   UNL     1     -29.895 -18.405  13.901  1.00  0.00     0.000 C 
ENDROOT
BRANCH   1   2
ATOM      2  C   UNL     1     -30.453 -19.755  14.382  1.00  0.00     0.000 C 
BRANCH   2   3
ATOM      3  C   UNL     1     -31.045 -20.597  13.238  1.00  0.00     0.000 C 
BRANCH   3   4
ATOM      4  C   UNL     1     -30.753 -22.107  13.369  1.00  0.00     0.000 C 
BRANCH   4   5
ATOM      5  C   UNL     1     -30.959 -22.616  14.806  1.00  0.00     0.006 C 
BRANCH   5   6
ATOM      6  C   UNL     1     -30.532 -24.081  14.971  1.00  0.00     0.053 C 
BRANCH   6   7
ATOM      7  C   UNL     1     -30.061 -24.369  16.364  1.00  0.00     0.041 C 
ATOM      8  O   UNL     1     -29.651 -23.434  17.101  1.00  0.00    -0.550 OA
ATOM      9  O   UNL     1     -30.041 -25.675  16.836  1.00  0.00    -0.550 OA
ENDBRANCH   6   7
ENDBRANCH   5   6
ENDBRANCH   4   5
ENDBRANCH   3   4
ENDBRANCH   2   3
ENDBRANCH   1   2
BRANCH   1  10
ATOM     10  C   UNL     1     -30.966 -17.528  13.234  1.00  0.00     0.000 C 
BRANCH  10  11
ATOM     11  C   UNL     1     -30.398 -16.194  12.719  1.00  0.00    -0.000 C 
BRANCH  11  12
ATOM     12  C   UNL     1     -29.997 -15.244  13.857  1.00  0.00    -0.000 C 
BRANCH  12  13
ATOM     13  C   UNL     1     -31.120 -14.267  14.236  1.00  0.00    -0.000 C 
BRANCH  13  14
ATOM     14  C   UNL     1     -30.663 -12.813  14.070  1.00  0.00    -0.000 C 
BRANCH  14  15
ATOM     15  C   UNL     1     -30.764 -12.367  12.607  1.00  0.00    -0.003 C 
ATOM     16  C   UNL     1     -30.040 -11.044  12.382  1.00  0.00     0.004 C 
ENDBRANCH  14  15
ENDBRANCH  13  14
ENDBRANCH  12  13
ENDBRANCH  11  12
ENDBRANCH  10  11
ENDBRANCH   1  10
TORSDOF 12
ENDMDL
MODEL 2
REMARK VINA RESULT:    -4.256      4.942     10.119
REMARK INTER + INTRA:          -7.745
REMARK INTER:                  -7.474
REMARK INTRA:                  -0.272
REMARK UNBOUND:                -0.504
REMARK SMILES CCCCCCCCCCCCCC(=O)[O-]
REMARK SMILES IDX 8 1 9 2 10 3 11 4 12 5 13 6 14 7 15 8 16 9 7 10 6 11 5 12
REMARK SMILES IDX 4 13 3 14 2 15 1 16
REMARK H PARENT
REMARK Flexibility Score: inf
ROOT
ATOM      1  C   UNL     1     -29.862 -18.604  13.846  1.00  0.00     0.000 C 
ENDROOT
BRANCH   1   2
ATOM      2  C   UNL     1     -30.960 -17.527  13.809  1.00  0.00     0.000 C 
BRANCH   2   3
ATOM      3  C   UNL     1     -30.606 -16.346  12.889  1.00  0.00     0.000 C 
BRANCH   3   4
ATOM      4  C   UNL     1     -30.434 -15.009  13.640  1.00  0.00     0.000 C 
BRANCH   4   5
ATOM      5  C   UNL     1     -31.119 -13.841  12.912  1.00  0.00     0.006 C 
BRANCH   5   6
ATOM      6  C   UNL     1     -30.759 -12.481  13.525  1.00  0.00     0.053 C 
BRANCH   6   7
ATOM      7  C   UNL     1     -30.294 -11.507  12.485  1.00  0.00     0.041 C 
ATOM      8  O   UNL     1     -29.471 -11.868  11.603  1.00  0.00    -0.550 OA
ATOM      9  O   UNL     1     -30.742 -10.193  12.512  1.00  0.00    -0.550 OA
ENDBRANCH   6   7
ENDBRANCH   5   6
ENDBRANCH   4   5
ENDBRANCH   3   4
ENDBRANCH   2   3
ENDBRANCH   1   2
BRANCH   1  10
ATOM     10  C   UNL     1     -30.344 -19.956  13.295  1.00  0.00     0.000 C 
BRANCH  10  11
ATOM     11  C   UNL     1     -31.109 -20.781  14.345  1.00  0.00    -0.000 C 
BRANCH  11  12
ATOM     12  C   UNL     1     -30.970 -22.294  14.122  1.00  0.00    -0.000 C 
BRANCH  12  13
ATOM     13  C   UNL     1     -30.746 -23.067  15.430  1.00  0.00    -0.000 C 
BRANCH  13  14
ATOM     14  C   UNL     1     -30.826 -24.580  15.196  1.00  0.00    -0.000 C 
BRANCH  14  15
ATOM     15  C   UNL     1     -29.882 -25.334  16.139  1.00  0.00    -0.003 C 
ATOM     16  C   UNL     1     -30.497 -26.654  16.595  1.00  0.00     0.004 C 
ENDBRANCH  14  15
ENDBRANCH  13  14
ENDBRANCH  12  13
ENDBRANCH  11  12
ENDBRANCH  10  11
ENDBRANCH   1  10
TORSDOF 12
ENDMDL
MODEL 3
REMARK VINA RESULT:    -4.121      1.186      2.346
REMARK INTER + INTRA:          -7.516
REMARK INTER:                  -7.061
REMARK INTRA:                  -0.455
REMARK UNBOUND:                -0.504
REMARK SMILES CCCCCCCCCCCCCC(=O)[O-]
REMARK SMILES IDX 8 1 9 2 10 3 11 4 12 5 13 6 14 7 15 8 16 9 7 10 6 11 5 12
REMARK SMILES IDX 4 13 3 14 2 15 1 16
REMARK H PARENT
REMARK Flexibility Score: inf
ROOT
ATOM      1  C   UNL     1     -30.514 -20.134  13.174  1.00  0.00     0.000 C 
ENDROOT
BRANCH   1   2
ATOM      2  C   UNL     1     -30.762 -21.649  13.075  1.00  0.00     0.000 C 
BRANCH   2   3
ATOM      3  C   UNL     1     -30.952 -22.314  14.449  1.00  0.00     0.000 C 
BRANCH   3   4
ATOM      4  C   UNL     1     -30.539 -23.801  14.477  1.00  0.00     0.000 C 
BRANCH   4   5
ATOM      5  C   UNL     1     -30.333 -24.321  15.909  1.00  0.00     0.006 C 
BRANCH   5   6
ATOM      6  C   UNL     1     -30.913 -25.727  16.108  1.00  0.00     0.053 C 
BRANCH   6   7
ATOM      7  C   UNL     1     -30.120 -26.522  17.100  1.00  0.00     0.041 C 
ATOM      8  O   UNL     1     -29.445 -27.515  16.722  1.00  0.00    -0.550 OA
ATOM      9  O   UNL     1     -30.153 -26.187  18.448  1.00  0.00    -0.550 OA
ENDBRANCH   6   7
ENDBRANCH   5   6
ENDBRANCH   4   5
ENDBRANCH   3   4
ENDBRANCH   2   3
ENDBRANCH   1   2
BRANCH   1  10
ATOM     10  C   UNL     1     -30.553 -19.625  14.624  1.00  0.00     0.000 C 
BRANCH  10  11
ATOM     11  C   UNL     1     -31.124 -18.200  14.732  1.00  0.00    -0.000 C 
BRANCH  11  12
ATOM     12  C   UNL     1     -30.942 -17.390  13.440  1.00  0.00    -0.000 C 
BRANCH  12  13
ATOM     13  C   UNL     1     -30.176 -16.078  13.667  1.00  0.00    -0.000 C 
BRANCH  13  14
ATOM     14  C   UNL     1     -30.919 -14.892  13.040  1.00  0.00    -0.000 C 
BRANCH  14  15
ATOM     15  C   UNL     1     -30.749 -13.626  13.887  1.00  0.00    -0.003 C 
ATOM     16  C   UNL     1     -30.766 -12.374  13.017  1.00  0.00     0.004 C 
ENDBRANCH  14  15
ENDBRANCH  13  14
ENDBRANCH  12  13
ENDBRANCH  11  12
ENDBRANCH  10  11
ENDBRANCH   1  10
TORSDOF 12
ENDMDL
MODEL 4
REMARK VINA RESULT:    -3.928      4.294      9.996
REMARK INTER + INTRA:          -7.189
REMARK INTER:                  -6.928
REMARK INTRA:                  -0.261
REMARK UNBOUND:                -0.504
REMARK SMILES CCCCCCCCCCCCCC(=O)[O-]
REMARK SMILES IDX 8 1 9 2 10 3 11 4 12 5 13 6 14 7 15 8 16 9 7 10 6 11 5 12
REMARK SMILES IDX 4 13 3 14 2 15 1 16
REMARK H PARENT
REMARK Flexibility Score: inf
ROOT
ATOM      1  C   UNL     1     -30.330 -20.433  13.613  1.00  0.00     0.000 C 
ENDROOT
BRANCH   1   2
ATOM      2  C   UNL     1     -31.032 -19.285  12.869  1.00  0.00     0.000 C 
BRANCH   2   3
ATOM      3  C   UNL     1     -31.118 -17.996  13.704  1.00  0.00     0.000 C 
BRANCH   3   4
ATOM      4  C   UNL     1     -30.869 -16.712  12.885  1.00  0.00     0.000 C 
BRANCH   4   5
ATOM      5  C   UNL     1     -31.039 -15.440  13.732  1.00  0.00     0.006 C 
BRANCH   5   6
ATOM      6  C   UNL     1     -30.977 -14.163  12.883  1.00  0.00     0.053 C 
BRANCH   6   7
ATOM      7  C   UNL     1     -30.740 -12.946  13.724  1.00  0.00     0.041 C 
ATOM      8  O   UNL     1     -30.851 -13.011  14.977  1.00  0.00    -0.550 OA
ATOM      9  O   UNL     1     -30.431 -11.733  13.123  1.00  0.00    -0.550 OA
ENDBRANCH   6   7
ENDBRANCH   5   6
ENDBRANCH   4   5
ENDBRANCH   3   4
ENDBRANCH   2   3
ENDBRANCH   1   2
BRANCH   1  10
ATOM     10  C   UNL     1     -31.125 -21.747  13.556  1.00  0.00     0.000 C 
BRANCH  10  11
ATOM     11  C   UNL     1     -31.095 -22.513  14.890  1.00  0.00    -0.000 C 
BRANCH  11  12
ATOM     12  C   UNL     1     -30.384 -23.870  14.776  1.00  0.00    -0.000 C 
BRANCH  12  13
ATOM     13  C   UNL     1     -30.033 -24.471  16.145  1.00  0.00    -0.000 C 
BRANCH  13  14
ATOM     14  C   UNL     1     -29.951 -26.000  16.070  1.00  0.00    -0.000 C 
BRANCH  14  15
ATOM     15  C   UNL     1     -30.912 -26.652  17.071  1.00  0.00    -0.003 C 
ATOM     16  C   UNL     1     -30.214 -26.945  18.395  1.00  0.00     0.004 C 
ENDBRANCH  14  15
ENDBRANCH  13  14
ENDBRANCH  12  13
ENDBRANCH  11  12
ENDBRANCH  10  11
ENDBRANCH   1  10
TORSDOF 12
ENDMDL
MODEL 5
REMARK VINA RESULT:    -3.708     17.404     18.322
REMARK INTER + INTRA:          -6.814
REMARK INTER:                  -6.029
REMARK INTRA:                  -0.785
REMARK UNBOUND:                -0.504
REMARK SMILES CCCCCCCCCCCCCC(=O)[O-]
REMARK SMILES IDX 8 1 9 2 10 3 11 4 12 5 13 6 14 7 15 8 16 9 7 10 6 11 5 12
REMARK SMILES IDX 4 13 3 14 2 15 1 16
REMARK H PARENT
REMARK Flexibility Score: inf
ROOT
ATOM      1  C   UNL     1     -13.067 -21.977  21.082  1.00  0.00     0.000 C 
ENDROOT
BRANCH   1   2
ATOM      2  C   UNL     1     -13.614 -23.048  22.042  1.00  0.00     0.000 C 
BRANCH   2   3
ATOM      3  C   UNL     1     -14.627 -22.482  23.052  1.00  0.00     0.000 C 
BRANCH   3   4
ATOM      4  C   UNL     1     -15.520 -23.561  23.700  1.00  0.00     0.000 C 
BRANCH   4   5
ATOM      5  C   UNL     1     -16.921 -23.027  24.044  1.00  0.00     0.006 C 
BRANCH   5   6
ATOM      6  C   UNL     1     -17.914 -24.154  24.355  1.00  0.00     0.053 C 
BRANCH   6   7
ATOM      7  C   UNL     1     -18.647 -23.912  25.639  1.00  0.00     0.041 C 
ATOM      8  O   UNL     1     -19.306 -24.840  26.177  1.00  0.00    -0.550 OA
ATOM      9  O   UNL     1     -18.632 -22.652  26.223  1.00  0.00    -0.550 OA
ENDBRANCH   6   7
ENDBRANCH   5   6
ENDBRANCH   4   5
ENDBRANCH   3   4
ENDBRANCH   2   3
ENDBRANCH   1   2
BRANCH   1  10
ATOM     10  C   UNL     1     -13.835 -20.650  21.180  1.00  0.00     0.000 C 
BRANCH  10  11
ATOM     11  C   UNL     1     -12.967 -19.506  21.733  1.00  0.00    -0.000 C 
BRANCH  11  12
ATOM     12  C   UNL     1     -12.831 -18.338  20.745  1.00  0.00    -0.000 C 
BRANCH  12  13
ATOM     13  C   UNL     1     -12.999 -18.777  19.282  1.00  0.00    -0.000 C 
BRANCH  13  14
ATOM     14  C   UNL     1     -11.936 -18.128  18.388  1.00  0.00    -0.000 C 
BRANCH  14  15
ATOM     15  C   UNL     1     -11.328 -19.153  17.424  1.00  0.00    -0.003 C 
ATOM     16  C   UNL     1     -11.581 -20.579  17.902  1.00  0.00     0.004 C 
ENDBRANCH  14  15
ENDBRANCH  13  14
ENDBRANCH  12  13
ENDBRANCH  11  12
ENDBRANCH  10  11
ENDBRANCH   1  10
TORSDOF 12
ENDMDL
MODEL 6
REMARK VINA RESULT:    -3.680     18.681     20.556
REMARK INTER + INTRA:          -6.766
REMARK INTER:                  -6.098
REMARK INTRA:                  -0.668
REMARK UNBOUND:                -0.504
REMARK SMILES CCCCCCCCCCCCCC(=O)[O-]
REMARK SMILES IDX 8 1 9 2 10 3 11 4 12 5 13 6 14 7 15 8 16 9 7 10 6 11 5 12
REMARK SMILES IDX 4 13 3 14 2 15 1 16
REMARK H PARENT
REMARK Flexibility Score: inf
ROOT
ATOM      1  C   UNL     1     -11.852 -16.489  14.505  1.00  0.00     0.000 C 
ENDROOT
BRANCH   1   2
ATOM      2  C   UNL     1     -12.330 -15.127  13.975  1.00  0.00     0.000 C 
BRANCH   2   3
ATOM      3  C   UNL     1     -12.342 -14.036  15.060  1.00  0.00     0.000 C 
BRANCH   3   4
ATOM      4  C   UNL     1     -12.080 -12.617  14.512  1.00  0.00     0.000 C 
BRANCH   4   5
ATOM      5  C   UNL     1     -11.125 -12.627  13.306  1.00  0.00     0.006 C 
BRANCH   5   6
ATOM      6  C   UNL     1     -11.645 -11.772  12.144  1.00  0.00     0.053 C 
BRANCH   6   7
ATOM      7  C   UNL     1     -12.000 -12.608  10.953  1.00  0.00     0.041 C 
ATOM      8  O   UNL     1     -11.501 -13.756  10.813  1.00  0.00    -0.550 OA
ATOM      9  O   UNL     1     -12.854 -12.107   9.979  1.00  0.00    -0.550 OA
ENDBRANCH   6   7
ENDBRANCH   5   6
ENDBRANCH   4   5
ENDBRANCH   3   4
ENDBRANCH   2   3
ENDBRANCH   1   2
BRANCH   1  10
ATOM     10  C   UNL     1     -11.395 -16.425  15.971  1.00  0.00     0.000 C 
BRANCH  10  11
ATOM     11  C   UNL     1     -11.459 -17.794  16.669  1.00  0.00    -0.000 C 
BRANCH  11  12
ATOM     12  C   UNL     1     -11.997 -17.701  18.104  1.00  0.00    -0.000 C 
BRANCH  12  13
ATOM     13  C   UNL     1     -11.993 -19.056  18.828  1.00  0.00    -0.000 C 
BRANCH  13  14
ATOM     14  C   UNL     1     -13.278 -19.249  19.642  1.00  0.00    -0.000 C 
BRANCH  14  15
ATOM     15  C   UNL     1     -13.548 -20.736  19.899  1.00  0.00    -0.003 C 
ATOM     16  C   UNL     1     -13.312 -21.565  18.640  1.00  0.00     0.004 C 
ENDBRANCH  14  15
ENDBRANCH  13  14
ENDBRANCH  12  13
ENDBRANCH  11  12
ENDBRANCH  10  11
ENDBRANCH   1  10
TORSDOF 12
ENDMDL
MODEL 7
REMARK VINA RESULT:    -3.660     18.328     19.638
REMARK INTER + INTRA:          -6.732
REMARK INTER:                  -5.803
REMARK INTRA:                  -0.930
REMARK UNBOUND:                -0.504
REMARK SMILES CCCCCCCCCCCCCC(=O)[O-]
REMARK SMILES IDX 8 1 9 2 10 3 11 4 12 5 13 6 14 7 15 8 16 9 7 10 6 11 5 12
REMARK SMILES IDX 4 13 3 14 2 15 1 16
REMARK H PARENT
REMARK Flexibility Score: inf
ROOT
ATOM      1  C   UNL     1     -13.836 -21.534  21.970  1.00  0.00     0.000 C 
ENDROOT
BRANCH   1   2
ATOM      2  C   UNL     1     -12.631 -22.136  21.227  1.00  0.00     0.000 C 
BRANCH   2   3
ATOM      3  C   UNL     1     -12.979 -22.598  19.801  1.00  0.00     0.000 C 
BRANCH   3   4
ATOM      4  C   UNL     1     -13.443 -21.452  18.878  1.00  0.00     0.000 C 
BRANCH   4   5
ATOM      5  C   UNL     1     -12.397 -20.329  18.774  1.00  0.00     0.006 C 
BRANCH   5   6
ATOM      6  C   UNL     1     -12.935 -18.983  19.274  1.00  0.00     0.053 C 
BRANCH   6   7
ATOM      7  C   UNL     1     -12.252 -18.543  20.533  1.00  0.00     0.041 C 
ATOM      8  O   UNL     1     -12.799 -17.696  21.288  1.00  0.00    -0.550 OA
ATOM      9  O   UNL     1     -10.995 -19.040  20.854  1.00  0.00    -0.550 OA
ENDBRANCH   6   7
ENDBRANCH   5   6
ENDBRANCH   4   5
ENDBRANCH   3   4
ENDBRANCH   2   3
ENDBRANCH   1   2
BRANCH   1  10
ATOM     10  C   UNL     1     -13.567 -21.342  23.470  1.00  0.00     0.000 C 
BRANCH  10  11
ATOM     11  C   UNL     1     -14.506 -22.187  24.350  1.00  0.00    -0.000 C 
BRANCH  11  12
ATOM     12  C   UNL     1     -15.565 -22.940  23.530  1.00  0.00    -0.000 C 
BRANCH  12  13
ATOM     13  C   UNL     1     -16.839 -23.232  24.337  1.00  0.00    -0.000 C 
BRANCH  13  14
ATOM     14  C   UNL     1     -17.009 -22.226  25.481  1.00  0.00    -0.000 C 
BRANCH  14  15
ATOM     15  C   UNL     1     -18.301 -22.494  26.262  1.00  0.00    -0.003 C 
ATOM     16  C   UNL     1     -18.395 -21.600  27.495  1.00  0.00     0.004 C 
ENDBRANCH  14  15
ENDBRANCH  13  14
ENDBRANCH  12  13
ENDBRANCH  11  12
ENDBRANCH  10  11
ENDBRANCH   1  10
TORSDOF 12
ENDMDL
MODEL 8
REMARK VINA RESULT:    -3.608     18.056     19.525
REMARK INTER + INTRA:          -6.643
REMARK INTER:                  -4.642
REMARK INTRA:                  -2.001
REMARK UNBOUND:                -0.504
REMARK SMILES CCCCCCCCCCCCCC(=O)[O-]
REMARK SMILES IDX 8 1 9 2 10 3 11 4 12 5 13 6 14 7 15 8 16 9 7 10 6 11 5 12
REMARK SMILES IDX 4 13 3 14 2 15 1 16
REMARK H PARENT
REMARK Flexibility Score: inf
ROOT
ATOM      1  C   UNL     1     -18.351 -24.791  25.061  1.00  0.00     0.000 C 
ENDROOT
BRANCH   1   2
ATOM      2  C   UNL     1     -17.318 -24.246  24.060  1.00  0.00     0.000 C 
BRANCH   2   3
ATOM      3  C   UNL     1     -15.972 -24.990  24.127  1.00  0.00     0.000 C 
BRANCH   3   4
ATOM      4  C   UNL     1     -14.772 -24.135  23.668  1.00  0.00     0.000 C 
BRANCH   4   5
ATOM      5  C   UNL     1     -15.163 -22.668  23.423  1.00  0.00     0.006 C 
BRANCH   5   6
ATOM      6  C   UNL     1     -13.938 -21.763  23.233  1.00  0.00     0.053 C 
BRANCH   6   7
ATOM      7  C   UNL     1     -13.727 -21.408  21.793  1.00  0.00     0.041 C 
ATOM      8  O   UNL     1     -13.928 -20.230  21.395  1.00  0.00    -0.550 OA
ATOM      9  O   UNL     1     -13.341 -22.384  20.883  1.00  0.00    -0.550 OA
ENDBRANCH   6   7
ENDBRANCH   5   6
ENDBRANCH   4   5
ENDBRANCH   3   4
ENDBRANCH   2   3
ENDBRANCH   1   2
BRANCH   1  10
ATOM     10  C   UNL     1     -18.796 -23.733  26.083  1.00  0.00     0.000 C 
BRANCH  10  11
ATOM     11  C   UNL     1     -18.074 -22.387  25.890  1.00  0.00    -0.000 C 
BRANCH  11  12
ATOM     12  C   UNL     1     -17.977 -21.577  27.191  1.00  0.00    -0.000 C 
BRANCH  12  13
ATOM     13  C   UNL     1     -16.703 -21.891  27.990  1.00  0.00    -0.000 C 
BRANCH  13  14
ATOM     14  C   UNL     1     -15.451 -21.712  27.122  1.00  0.00    -0.000 C 
BRANCH  14  15
ATOM     15  C   UNL     1     -14.583 -22.975  27.142  1.00  0.00    -0.003 C 
ATOM     16  C   UNL     1     -15.333 -24.150  27.760  1.00  0.00     0.004 C 
ENDBRANCH  14  15
ENDBRANCH  13  14
ENDBRANCH  12  13
ENDBRANCH  11  12
ENDBRANCH  10  11
ENDBRANCH   1  10
TORSDOF 12
ENDMDL
MODEL 9
REMARK VINA RESULT:    -3.550     18.779     20.553
REMARK INTER + INTRA:          -6.545
REMARK INTER:                  -5.889
REMARK INTRA:                  -0.656
REMARK UNBOUND:                -0.504
REMARK SMILES CCCCCCCCCCCCCC(=O)[O-]
REMARK SMILES IDX 8 1 9 2 10 3 11 4 12 5 13 6 14 7 15 8 16 9 7 10 6 11 5 12
REMARK SMILES IDX 4 13 3 14 2 15 1 16
REMARK H PARENT
REMARK Flexibility Score: inf
ROOT
ATOM      1  C   UNL     1     -12.333 -15.705  14.162  1.00  0.00     0.000 C 
ENDROOT
BRANCH   1   2
ATOM      2  C   UNL     1     -12.312 -14.212  14.533  1.00  0.00     0.000 C 
BRANCH   2   3
ATOM      3  C   UNL     1     -11.938 -13.307  13.346  1.00  0.00     0.000 C 
BRANCH   3   4
ATOM      4  C   UNL     1     -11.936 -14.040  11.988  1.00  0.00     0.000 C 
BRANCH   4   5
ATOM      5  C   UNL     1     -11.406 -13.154  10.849  1.00  0.00     0.006 C 
BRANCH   5   6
ATOM      6  C   UNL     1     -12.318 -11.952  10.573  1.00  0.00     0.053 C 
BRANCH   6   7
ATOM      7  C   UNL     1     -13.113 -12.133   9.317  1.00  0.00     0.041 C 
ATOM      8  O   UNL     1     -14.286 -11.681   9.238  1.00  0.00    -0.550 OA
ATOM      9  O   UNL     1     -12.573 -12.831   8.244  1.00  0.00    -0.550 OA
ENDBRANCH   6   7
ENDBRANCH   5   6
ENDBRANCH   4   5
ENDBRANCH   3   4
ENDBRANCH   2   3
ENDBRANCH   1   2
BRANCH   1  10
ATOM     10  C   UNL     1     -11.959 -16.611  15.345  1.00  0.00     0.000 C 
BRANCH  10  11
ATOM     11  C   UNL     1     -11.196 -15.857  16.448  1.00  0.00    -0.000 C 
BRANCH  11  12
ATOM     12  C   UNL     1     -11.012 -16.697  17.720  1.00  0.00    -0.000 C 
BRANCH  12  13
ATOM     13  C   UNL     1     -11.757 -18.039  17.656  1.00  0.00    -0.000 C 
BRANCH  13  14
ATOM     14  C   UNL     1     -12.437 -18.356  18.993  1.00  0.00    -0.000 C 
BRANCH  14  15
ATOM     15  C   UNL     1     -12.790 -19.844  19.092  1.00  0.00    -0.003 C 
ATOM     16  C   UNL     1     -11.894 -20.685  18.189  1.00  0.00     0.004 C 
ENDBRANCH  14  15
ENDBRANCH  13  14
ENDBRANCH  12  13
ENDBRANCH  11  12
ENDBRANCH  10  11
ENDBRANCH   1  10
TORSDOF 12
ENDMDL
