MODEL 1
REMARK VINA RESULT:    -7.040      0.000      0.000
REMARK INTER + INTRA:         -12.696
REMARK INTER:                 -11.566
REMARK INTRA:                  -1.130
REMARK UNBOUND:                -1.130
REMARK SMILES C[C@@H]1O[C@H](OC[C@@H]2O[C@@H](Oc3c(-c4ccc(O)c(O)c4)oc4cc(O)cc(O)c4c3=O)[C@@H](O)[C@@H](O)[C@H]2O)[C@@H](O)[C@H](O)[C@@H]1O
REMARK SMILES IDX 7 1 36 2 34 3 32 4 9 5 8 6 6 7 5 8 4 9 1 10 2 11 42 12 3 13
REMARK SMILES IDX 40 14 38 15 43 16 41 18 39 20 37 22 35 24 10 26 11 27 12 28
REMARK SMILES IDX 30 29 21 30 29 31 31 32 22 33 27 34 23 35 26 36 24 37 13 38
REMARK SMILES IDX 20 39 14 40 18 41 15 42 16 43 19 44 17 46 28 48 25 50 33 52
REMARK H PARENT 43 17 41 19 39 21 37 23 35 25 19 45 17 47 28 49 25 51 33 53
REMARK Flexibility Score: inf
ROOT
ATOM      1  C   UNL     1      28.807   4.369  19.687  1.00  0.00     0.180 C 
ATOM      2  C   UNL     1      30.327   4.392  19.396  1.00  0.00     0.177 C 
ATOM      3  C   UNL     1      31.113   3.803  20.586  1.00  0.00     0.180 C 
ATOM      4  C   UNL     1      30.622   4.385  21.932  1.00  0.00     0.214 C 
ATOM      5  C   UNL     1      29.082   4.446  22.014  1.00  0.00     0.339 C 
ATOM      6  O   UNL     1      28.532   5.090  20.878  1.00  0.00    -0.332 OA
ENDROOT
BRANCH   1   7
ATOM      7  C   UNL     1      27.988   5.001  18.547  1.00  0.00     0.198 C 
BRANCH   7   8
ATOM      8  O   UNL     1      27.782   4.059  17.502  1.00  0.00    -0.347 OA
BRANCH   8   9
ATOM      9  C   UNL     1      27.137   4.627  16.369  1.00  0.00     0.281 C 
ATOM     10  C   UNL     1      27.282   1.523  16.209  1.00  0.00     0.041 C 
ATOM     11  C   UNL     1      26.584   2.556  15.308  1.00  0.00     0.150 C 
ATOM     12  C   UNL     1      25.071   2.740  15.588  1.00  0.00     0.174 C 
ATOM     13  O   UNL     1      27.298   3.785  15.236  1.00  0.00    -0.344 OA
ATOM     14  C   UNL     1      24.809   3.666  16.786  1.00  0.00     0.179 C 
ATOM     15  C   UNL     1      25.645   4.948  16.655  1.00  0.00     0.202 C 
BRANCH  12  16
ATOM     16  O   UNL     1      24.452   1.494  15.793  1.00  0.00    -0.388 OA
ATOM     17  H   UNL     1      23.482   1.619  15.626  1.00  0.00     0.211 HD
ENDBRANCH  12  16
BRANCH  14  18
ATOM     18  O   UNL     1      25.115   3.023  17.999  1.00  0.00    -0.387 OA
ATOM     19  H   UNL     1      25.053   2.047  17.834  1.00  0.00     0.211 HD
ENDBRANCH  14  18
BRANCH  15  20
ATOM     20  O   UNL     1      25.103   5.796  15.671  1.00  0.00    -0.385 OA
ATOM     21  H   UNL     1      25.643   6.628  15.638  1.00  0.00     0.211 HD
ENDBRANCH  15  20
ENDBRANCH   8   9
ENDBRANCH   7   8
ENDBRANCH   1   7
BRANCH   2  22
ATOM     22  O   UNL     1      30.625   3.657  18.236  1.00  0.00    -0.387 OA
ATOM     23  H   UNL     1      30.098   4.053  17.493  1.00  0.00     0.211 HD
ENDBRANCH   2  22
BRANCH   3  24
ATOM     24  O   UNL     1      31.101   2.393  20.591  1.00  0.00    -0.387 OA
ATOM     25  H   UNL     1      32.030   2.072  20.474  1.00  0.00     0.211 HD
ENDBRANCH   3  24
BRANCH   5  26
ATOM     26  O   UNL     1      28.515   3.140  22.187  1.00  0.00    -0.454 OA
BRANCH  26  27
ATOM     27  C   UNL     1      27.559   2.833  23.165  1.00  0.00     0.214 A 
ATOM     28  C   UNL     1      27.124   1.511  23.409  1.00  0.00     0.180 A 
ATOM     29  C   UNL     1      27.008   3.872  23.920  1.00  0.00     0.239 A 
ATOM     30  O   UNL     1      26.147   1.288  24.280  1.00  0.00    -0.452 OA
ATOM     31  C   UNL     1      25.988   3.595  24.855  1.00  0.00     0.111 A 
ATOM     32  O   UNL     1      27.421   5.050  23.736  1.00  0.00    -0.285 OA
ATOM     33  C   UNL     1      25.570   2.251  24.992  1.00  0.00     0.146 A 
ATOM     34  C   UNL     1      25.366   4.593  25.642  1.00  0.00     0.134 A 
ATOM     35  C   UNL     1      24.552   1.915  25.889  1.00  0.00     0.094 A 
ATOM     36  C   UNL     1      24.346   4.239  26.537  1.00  0.00     0.093 A 
ATOM     37  C   UNL     1      23.938   2.905  26.660  1.00  0.00     0.123 A 
BRANCH  28  38
ATOM     38  C   UNL     1      27.741   0.344  22.749  1.00  0.00     0.025 A 
ATOM     39  C   UNL     1      27.381  -0.017  21.441  1.00  0.00     0.062 A 
ATOM     40  C   UNL     1      28.755  -0.367  23.404  1.00  0.00     0.016 A 
ATOM     41  C   UNL     1      28.019  -1.089  20.799  1.00  0.00     0.158 A 
ATOM     42  C   UNL     1      29.375  -1.451  22.777  1.00  0.00     0.051 A 
ATOM     43  C   UNL     1      29.008  -1.819  21.477  1.00  0.00     0.157 A 
BRANCH  41  44
ATOM     44  O   UNL     1      27.685  -1.422  19.486  1.00  0.00    -0.504 OA
ATOM     45  H   UNL     1      26.802  -1.143  19.079  1.00  0.00     0.293 HD
ENDBRANCH  41  44
BRANCH  43  46
ATOM     46  O   UNL     1      29.642  -2.906  20.875  1.00  0.00    -0.504 OA
ATOM     47  H   UNL     1      29.220  -3.420  20.112  1.00  0.00     0.293 HD
ENDBRANCH  43  46
ENDBRANCH  28  38
BRANCH  34  48
ATOM     48  O   UNL     1      25.748   5.931  25.540  1.00  0.00    -0.507 OA
ATOM     49  H   UNL     1      25.961   6.490  26.359  1.00  0.00     0.293 HD
ENDBRANCH  34  48
BRANCH  37  50
ATOM     50  O   UNL     1      22.924   2.550  27.547  1.00  0.00    -0.508 OA
ATOM     51  H   UNL     1      22.834   2.998  28.452  1.00  0.00     0.293 HD
ENDBRANCH  37  50
ENDBRANCH  26  27
ENDBRANCH   5  26
BRANCH   4  52
ATOM     52  O   UNL     1      31.125   3.637  23.009  1.00  0.00    -0.384 OA
ATOM     53  H   UNL     1      30.358   3.453  23.612  1.00  0.00     0.211 HD
ENDBRANCH   4  52
TORSDOF 16
ENDMDL
MODEL 2
REMARK VINA RESULT:    -7.006      1.558      5.098
REMARK INTER + INTRA:         -12.641
REMARK INTER:                 -11.585
REMARK INTRA:                  -1.056
REMARK UNBOUND:                -1.130
REMARK SMILES C[C@@H]1O[C@H](OC[C@@H]2O[C@@H](Oc3c(-c4ccc(O)c(O)c4)oc4cc(O)cc(O)c4c3=O)[C@@H](O)[C@@H](O)[C@H]2O)[C@@H](O)[C@H](O)[C@@H]1O
REMARK SMILES IDX 7 1 36 2 34 3 32 4 9 5 8 6 6 7 5 8 4 9 1 10 2 11 42 12 3 13
REMARK SMILES IDX 40 14 38 15 43 16 41 18 39 20 37 22 35 24 10 26 11 27 12 28
REMARK SMILES IDX 30 29 21 30 29 31 31 32 22 33 27 34 23 35 26 36 24 37 13 38
REMARK SMILES IDX 20 39 14 40 18 41 15 42 16 43 19 44 17 46 28 48 25 50 33 52
REMARK H PARENT 43 17 41 19 39 21 37 23 35 25 19 45 17 47 28 49 25 51 33 53
REMARK Flexibility Score: inf
ROOT
ATOM      1  C   UNL     1      28.609   4.473  18.620  1.00  0.00     0.180 C 
ATOM      2  C   UNL     1      30.112   4.691  18.317  1.00  0.00     0.177 C 
ATOM      3  C   UNL     1      30.980   3.777  19.209  1.00  0.00     0.180 C 
ATOM      4  C   UNL     1      30.521   3.826  20.685  1.00  0.00     0.214 C 
ATOM      5  C   UNL     1      28.986   3.757  20.821  1.00  0.00     0.339 C 
ATOM      6  O   UNL     1      28.352   4.719  19.994  1.00  0.00    -0.332 OA
ENDROOT
BRANCH   1   7
ATOM      7  C   UNL     1      27.709   5.406  17.792  1.00  0.00     0.198 C 
BRANCH   7   8
ATOM      8  O   UNL     1      27.388   4.807  16.543  1.00  0.00    -0.347 OA
BRANCH   8   9
ATOM      9  C   UNL     1      26.017   4.964  16.195  1.00  0.00     0.281 C 
ATOM     10  C   UNL     1      27.288   2.449  14.875  1.00  0.00     0.041 C 
ATOM     11  C   UNL     1      25.837   2.959  14.903  1.00  0.00     0.150 C 
ATOM     12  C   UNL     1      24.934   2.279  15.962  1.00  0.00     0.174 C 
ATOM     13  O   UNL     1      25.761   4.380  14.925  1.00  0.00    -0.344 OA
ATOM     14  C   UNL     1      25.129   2.876  17.363  1.00  0.00     0.179 C 
ATOM     15  C   UNL     1      25.075   4.409  17.297  1.00  0.00     0.202 C 
BRANCH  12  16
ATOM     16  O   UNL     1      25.163   0.891  15.988  1.00  0.00    -0.388 OA
ATOM     17  H   UNL     1      25.200   0.620  16.941  1.00  0.00     0.211 HD
ENDBRANCH  12  16
BRANCH  14  18
ATOM     18  O   UNL     1      26.355   2.469  17.921  1.00  0.00    -0.387 OA
ATOM     19  H   UNL     1      27.047   2.588  17.219  1.00  0.00     0.211 HD
ENDBRANCH  14  18
BRANCH  15  20
ATOM     20  O   UNL     1      23.751   4.851  17.114  1.00  0.00    -0.385 OA
ATOM     21  H   UNL     1      23.200   4.083  16.810  1.00  0.00     0.211 HD
ENDBRANCH  15  20
ENDBRANCH   8   9
ENDBRANCH   7   8
ENDBRANCH   1   7
BRANCH   2  22
ATOM     22  O   UNL     1      30.394   4.422  16.967  1.00  0.00    -0.387 OA
ATOM     23  H   UNL     1      30.808   3.520  16.928  1.00  0.00     0.211 HD
ENDBRANCH   2  22
BRANCH   3  24
ATOM     24  O   UNL     1      31.040   2.455  18.723  1.00  0.00    -0.387 OA
ATOM     25  H   UNL     1      30.184   2.006  18.935  1.00  0.00     0.211 HD
ENDBRANCH   3  24
BRANCH   5  26
ATOM     26  O   UNL     1      28.494   2.440  20.544  1.00  0.00    -0.454 OA
BRANCH  26  27
ATOM     27  C   UNL     1      28.761   1.325  21.351  1.00  0.00     0.214 A 
ATOM     28  C   UNL     1      28.448   1.296  22.728  1.00  0.00     0.180 A 
ATOM     29  C   UNL     1      29.369   0.205  20.776  1.00  0.00     0.239 A 
ATOM     30  O   UNL     1      28.811   0.253  23.466  1.00  0.00    -0.452 OA
ATOM     31  C   UNL     1      29.717  -0.896  21.585  1.00  0.00     0.111 A 
ATOM     32  O   UNL     1      29.614   0.209  19.538  1.00  0.00    -0.285 OA
ATOM     33  C   UNL     1      29.422  -0.815  22.966  1.00  0.00     0.146 A 
ATOM     34  C   UNL     1      30.353  -2.057  21.083  1.00  0.00     0.134 A 
ATOM     35  C   UNL     1      29.760  -1.868  23.822  1.00  0.00     0.094 A 
ATOM     36  C   UNL     1      30.684  -3.103  21.956  1.00  0.00     0.093 A 
ATOM     37  C   UNL     1      30.391  -3.010  23.322  1.00  0.00     0.123 A 
BRANCH  28  38
ATOM     38  C   UNL     1      27.695   2.381  23.388  1.00  0.00     0.025 A 
ATOM     39  C   UNL     1      26.329   2.236  23.678  1.00  0.00     0.062 A 
ATOM     40  C   UNL     1      28.367   3.538  23.804  1.00  0.00     0.016 A 
ATOM     41  C   UNL     1      25.637   3.246  24.363  1.00  0.00     0.158 A 
ATOM     42  C   UNL     1      27.675   4.557  24.463  1.00  0.00     0.051 A 
ATOM     43  C   UNL     1      26.311   4.419  24.741  1.00  0.00     0.157 A 
BRANCH  41  44
ATOM     44  O   UNL     1      24.289   3.084  24.681  1.00  0.00    -0.504 OA
ATOM     45  H   UNL     1      23.997   2.548  25.487  1.00  0.00     0.293 HD
ENDBRANCH  41  44
BRANCH  43  46
ATOM     46  O   UNL     1      25.645   5.452  25.401  1.00  0.00    -0.504 OA
ATOM     47  H   UNL     1      25.348   5.370  26.366  1.00  0.00     0.293 HD
ENDBRANCH  43  46
ENDBRANCH  28  38
BRANCH  34  48
ATOM     48  O   UNL     1      30.661  -2.178  19.727  1.00  0.00    -0.507 OA
ATOM     49  H   UNL     1      30.426  -3.010  19.199  1.00  0.00     0.293 HD
ENDBRANCH  34  48
BRANCH  37  50
ATOM     50  O   UNL     1      30.720  -4.046  24.193  1.00  0.00    -0.508 OA
ATOM     51  H   UNL     1      30.272  -4.953  24.128  1.00  0.00     0.293 HD
ENDBRANCH  37  50
ENDBRANCH  26  27
ENDBRANCH   5  26
BRANCH   4  52
ATOM     52  O   UNL     1      31.110   2.786  21.422  1.00  0.00    -0.384 OA
ATOM     53  H   UNL     1      30.412   2.442  22.039  1.00  0.00     0.211 HD
ENDBRANCH   4  52
TORSDOF 16
ENDMDL
MODEL 3
REMARK VINA RESULT:    -6.974      2.677      4.275
REMARK INTER + INTRA:         -12.588
REMARK INTER:                 -11.679
REMARK INTRA:                  -0.909
REMARK UNBOUND:                -1.130
REMARK SMILES C[C@@H]1O[C@H](OC[C@@H]2O[C@@H](Oc3c(-c4ccc(O)c(O)c4)oc4cc(O)cc(O)c4c3=O)[C@@H](O)[C@@H](O)[C@H]2O)[C@@H](O)[C@H](O)[C@@H]1O
REMARK SMILES IDX 7 1 36 2 34 3 32 4 9 5 8 6 6 7 5 8 4 9 1 10 2 11 42 12 3 13
REMARK SMILES IDX 40 14 38 15 43 16 41 18 39 20 37 22 35 24 10 26 11 27 12 28
REMARK SMILES IDX 30 29 21 30 29 31 31 32 22 33 27 34 23 35 26 36 24 37 13 38
REMARK SMILES IDX 20 39 14 40 18 41 15 42 16 43 19 44 17 46 28 48 25 50 33 52
REMARK H PARENT 43 17 41 19 39 21 37 23 35 25 19 45 17 47 28 49 25 51 33 53
REMARK Flexibility Score: inf
ROOT
ATOM      1  C   UNL     1      28.727   0.861  16.639  1.00  0.00     0.180 C 
ATOM      2  C   UNL     1      29.135  -0.510  16.047  1.00  0.00     0.177 C 
ATOM      3  C   UNL     1      29.750  -1.409  17.141  1.00  0.00     0.180 C 
ATOM      4  C   UNL     1      30.796  -0.640  17.982  1.00  0.00     0.214 C 
ATOM      5  C   UNL     1      30.310   0.773  18.366  1.00  0.00     0.339 C 
ATOM      6  O   UNL     1      29.855   1.487  17.228  1.00  0.00    -0.332 OA
ENDROOT
BRANCH   1   7
ATOM      7  C   UNL     1      28.161   1.809  15.568  1.00  0.00     0.198 C 
BRANCH   7   8
ATOM      8  O   UNL     1      26.977   2.441  16.040  1.00  0.00    -0.347 OA
BRANCH   8   9
ATOM      9  C   UNL     1      27.042   3.860  15.960  1.00  0.00     0.281 C 
ATOM     10  C   UNL     1      24.322   2.745  14.940  1.00  0.00     0.041 C 
ATOM     11  C   UNL     1      24.810   4.186  15.165  1.00  0.00     0.150 C 
ATOM     12  C   UNL     1      24.355   4.820  16.504  1.00  0.00     0.174 C 
ATOM     13  O   UNL     1      26.203   4.334  14.916  1.00  0.00    -0.344 OA
ATOM     14  C   UNL     1      25.233   4.380  17.685  1.00  0.00     0.179 C 
ATOM     15  C   UNL     1      26.718   4.530  17.323  1.00  0.00     0.202 C 
BRANCH  12  16
ATOM     16  O   UNL     1      23.006   4.514  16.762  1.00  0.00    -0.388 OA
ATOM     17  H   UNL     1      22.896   4.488  17.747  1.00  0.00     0.211 HD
ENDBRANCH  12  16
BRANCH  14  18
ATOM     18  O   UNL     1      24.966   3.047  18.045  1.00  0.00    -0.387 OA
ATOM     19  H   UNL     1      24.024   3.013  18.356  1.00  0.00     0.211 HD
ENDBRANCH  14  18
BRANCH  15  20
ATOM     20  O   UNL     1      27.097   5.886  17.333  1.00  0.00    -0.385 OA
ATOM     21  H   UNL     1      27.231   6.184  16.396  1.00  0.00     0.211 HD
ENDBRANCH  15  20
ENDBRANCH   8   9
ENDBRANCH   7   8
ENDBRANCH   1   7
BRANCH   2  22
ATOM     22  O   UNL     1      28.025  -1.162  15.485  1.00  0.00    -0.387 OA
ATOM     23  H   UNL     1      27.299  -1.145  16.163  1.00  0.00     0.211 HD
ENDBRANCH   2  22
BRANCH   3  24
ATOM     24  O   UNL     1      28.768  -2.013  17.952  1.00  0.00    -0.387 OA
ATOM     25  H   UNL     1      28.815  -2.993  17.822  1.00  0.00     0.211 HD
ENDBRANCH   3  24
BRANCH   5  26
ATOM     26  O   UNL     1      29.296   0.723  19.378  1.00  0.00    -0.454 OA
BRANCH  26  27
ATOM     27  C   UNL     1      29.244   1.601  20.469  1.00  0.00     0.214 A 
ATOM     28  C   UNL     1      29.286   1.148  21.807  1.00  0.00     0.180 A 
ATOM     29  C   UNL     1      29.136   2.973  20.226  1.00  0.00     0.239 A 
ATOM     30  O   UNL     1      29.136   2.015  22.802  1.00  0.00    -0.452 OA
ATOM     31  C   UNL     1      29.004   3.868  21.308  1.00  0.00     0.111 A 
ATOM     32  O   UNL     1      29.139   3.387  19.035  1.00  0.00    -0.285 OA
ATOM     33  C   UNL     1      28.994   3.323  22.614  1.00  0.00     0.146 A 
ATOM     34  C   UNL     1      28.869   5.268  21.145  1.00  0.00     0.134 A 
ATOM     35  C   UNL     1      28.848   4.158  23.726  1.00  0.00     0.094 A 
ATOM     36  C   UNL     1      28.724   6.089  22.272  1.00  0.00     0.093 A 
ATOM     37  C   UNL     1      28.711   5.538  23.559  1.00  0.00     0.123 A 
BRANCH  28  38
ATOM     38  C   UNL     1      29.524  -0.266  22.154  1.00  0.00     0.025 A 
ATOM     39  C   UNL     1      29.139  -1.296  21.281  1.00  0.00     0.062 A 
ATOM     40  C   UNL     1      30.214  -0.584  23.331  1.00  0.00     0.016 A 
ATOM     41  C   UNL     1      29.427  -2.634  21.590  1.00  0.00     0.158 A 
ATOM     42  C   UNL     1      30.479  -1.917  23.655  1.00  0.00     0.051 A 
ATOM     43  C   UNL     1      30.085  -2.945  22.791  1.00  0.00     0.157 A 
BRANCH  41  44
ATOM     44  O   UNL     1      29.076  -3.652  20.705  1.00  0.00    -0.504 OA
ATOM     45  H   UNL     1      29.768  -4.285  20.325  1.00  0.00     0.293 HD
ENDBRANCH  41  44
BRANCH  43  46
ATOM     46  O   UNL     1      30.363  -4.268  23.139  1.00  0.00    -0.504 OA
ATOM     47  H   UNL     1      30.008  -4.685  23.990  1.00  0.00     0.293 HD
ENDBRANCH  43  46
ENDBRANCH  28  38
BRANCH  34  48
ATOM     48  O   UNL     1      28.875   5.847  19.875  1.00  0.00    -0.507 OA
ATOM     49  H   UNL     1      28.296   5.490  19.124  1.00  0.00     0.293 HD
ENDBRANCH  34  48
BRANCH  37  50
ATOM     50  O   UNL     1      28.565   6.352  24.680  1.00  0.00    -0.508 OA
ATOM     51  H   UNL     1      29.130   7.183  24.807  1.00  0.00     0.293 HD
ENDBRANCH  37  50
ENDBRANCH  26  27
ENDBRANCH   5  26
BRANCH   4  52
ATOM     52  O   UNL     1      31.125  -1.360  19.142  1.00  0.00    -0.384 OA
ATOM     53  H   UNL     1      31.239  -0.694  19.870  1.00  0.00     0.211 HD
ENDBRANCH   4  52
TORSDOF 16
ENDMDL
MODEL 4
REMARK VINA RESULT:    -6.747      3.351      4.881
REMARK INTER + INTRA:         -12.216
REMARK INTER:                 -11.734
REMARK INTRA:                  -0.482
REMARK UNBOUND:                -1.130
REMARK SMILES C[C@@H]1O[C@H](OC[C@@H]2O[C@@H](Oc3c(-c4ccc(O)c(O)c4)oc4cc(O)cc(O)c4c3=O)[C@@H](O)[C@@H](O)[C@H]2O)[C@@H](O)[C@H](O)[C@@H]1O
REMARK SMILES IDX 7 1 36 2 34 3 32 4 9 5 8 6 6 7 5 8 4 9 1 10 2 11 42 12 3 13
REMARK SMILES IDX 40 14 38 15 43 16 41 18 39 20 37 22 35 24 10 26 11 27 12 28
REMARK SMILES IDX 30 29 21 30 29 31 31 32 22 33 27 34 23 35 26 36 24 37 13 38
REMARK SMILES IDX 20 39 14 40 18 41 15 42 16 43 19 44 17 46 28 48 25 50 33 52
REMARK H PARENT 43 17 41 19 39 21 37 23 35 25 19 45 17 47 28 49 25 51 33 53
REMARK Flexibility Score: inf
ROOT
ATOM      1  C   UNL     1      28.360   0.963  17.222  1.00  0.00     0.180 C 
ATOM      2  C   UNL     1      27.610  -0.238  16.597  1.00  0.00     0.177 C 
ATOM      3  C   UNL     1      27.287  -1.294  17.677  1.00  0.00     0.180 C 
ATOM      4  C   UNL     1      28.518  -1.588  18.565  1.00  0.00     0.214 C 
ATOM      5  C   UNL     1      29.258  -0.300  18.982  1.00  0.00     0.339 C 
ATOM      6  O   UNL     1      29.547   0.514  17.857  1.00  0.00    -0.332 OA
ENDROOT
BRANCH   1   7
ATOM      7  C   UNL     1      28.751   2.014  16.168  1.00  0.00     0.198 C 
BRANCH   7   8
ATOM      8  O   UNL     1      27.683   2.929  15.959  1.00  0.00    -0.347 OA
BRANCH   8   9
ATOM      9  C   UNL     1      27.082   3.360  17.175  1.00  0.00     0.281 C 
ATOM     10  C   UNL     1      26.827   5.485  14.916  1.00  0.00     0.041 C 
ATOM     11  C   UNL     1      26.240   5.436  16.337  1.00  0.00     0.150 C 
ATOM     12  C   UNL     1      24.772   4.947  16.413  1.00  0.00     0.174 C 
ATOM     13  O   UNL     1      27.102   4.778  17.259  1.00  0.00    -0.344 OA
ATOM     14  C   UNL     1      24.665   3.416  16.358  1.00  0.00     0.179 C 
ATOM     15  C   UNL     1      25.652   2.781  17.349  1.00  0.00     0.202 C 
BRANCH  12  16
ATOM     16  O   UNL     1      24.006   5.525  15.384  1.00  0.00    -0.388 OA
ATOM     17  H   UNL     1      23.239   4.918  15.215  1.00  0.00     0.211 HD
ENDBRANCH  12  16
BRANCH  14  18
ATOM     18  O   UNL     1      24.922   2.936  15.061  1.00  0.00    -0.387 OA
ATOM     19  H   UNL     1      24.320   2.161  14.913  1.00  0.00     0.211 HD
ENDBRANCH  14  18
BRANCH  15  20
ATOM     20  O   UNL     1      25.193   2.931  18.671  1.00  0.00    -0.385 OA
ATOM     21  H   UNL     1      24.752   2.086  18.950  1.00  0.00     0.211 HD
ENDBRANCH  15  20
ENDBRANCH   8   9
ENDBRANCH   7   8
ENDBRANCH   1   7
BRANCH   2  22
ATOM     22  O   UNL     1      26.414   0.180  15.989  1.00  0.00    -0.387 OA
ATOM     23  H   UNL     1      26.601   0.292  15.020  1.00  0.00     0.211 HD
ENDBRANCH   2  22
BRANCH   3  24
ATOM     24  O   UNL     1      26.158  -0.945  18.446  1.00  0.00    -0.387 OA
ATOM     25  H   UNL     1      25.459  -0.600  17.836  1.00  0.00     0.211 HD
ENDBRANCH   3  24
BRANCH   5  26
ATOM     26  O   UNL     1      28.520   0.433  19.968  1.00  0.00    -0.454 OA
BRANCH  26  27
ATOM     27  C   UNL     1      29.092   1.400  20.807  1.00  0.00     0.214 A 
ATOM     28  C   UNL     1      29.836   1.057  21.958  1.00  0.00     0.180 A 
ATOM     29  C   UNL     1      28.913   2.751  20.499  1.00  0.00     0.239 A 
ATOM     30  O   UNL     1      30.274   2.013  22.770  1.00  0.00    -0.452 OA
ATOM     31  C   UNL     1      29.414   3.741  21.371  1.00  0.00     0.111 A 
ATOM     32  O   UNL     1      28.285   3.064  19.451  1.00  0.00    -0.285 OA
ATOM     33  C   UNL     1      30.094   3.308  22.534  1.00  0.00     0.146 A 
ATOM     34  C   UNL     1      29.256   5.129  21.142  1.00  0.00     0.134 A 
ATOM     35  C   UNL     1      30.598   4.241  23.446  1.00  0.00     0.094 A 
ATOM     36  C   UNL     1      29.768   6.050  22.067  1.00  0.00     0.093 A 
ATOM     37  C   UNL     1      30.435   5.610  23.216  1.00  0.00     0.123 A 
BRANCH  28  38
ATOM     38  C   UNL     1      30.179  -0.340  22.288  1.00  0.00     0.025 A 
ATOM     39  C   UNL     1      29.797  -0.905  23.515  1.00  0.00     0.062 A 
ATOM     40  C   UNL     1      30.826  -1.138  21.335  1.00  0.00     0.016 A 
ATOM     41  C   UNL     1      30.072  -2.253  23.793  1.00  0.00     0.158 A 
ATOM     42  C   UNL     1      31.124  -2.474  21.618  1.00  0.00     0.051 A 
ATOM     43  C   UNL     1      30.754  -3.034  22.846  1.00  0.00     0.157 A 
BRANCH  41  44
ATOM     44  O   UNL     1      29.659  -2.821  24.997  1.00  0.00    -0.504 OA
ATOM     45  H   UNL     1      30.306  -2.968  25.761  1.00  0.00     0.293 HD
ENDBRANCH  41  44
BRANCH  43  46
ATOM     46  O   UNL     1      31.065  -4.370  23.103  1.00  0.00    -0.504 OA
ATOM     47  H   UNL     1      31.433  -4.983  22.386  1.00  0.00     0.293 HD
ENDBRANCH  43  46
ENDBRANCH  28  38
BRANCH  34  48
ATOM     48  O   UNL     1      28.593   5.598  20.007  1.00  0.00    -0.507 OA
ATOM     49  H   UNL     1      29.063   5.685  19.113  1.00  0.00     0.293 HD
ENDBRANCH  34  48
BRANCH  37  50
ATOM     50  O   UNL     1      30.943   6.522  24.138  1.00  0.00    -0.508 OA
ATOM     51  H   UNL     1      31.685   7.166  23.889  1.00  0.00     0.293 HD
ENDBRANCH  37  50
ENDBRANCH  26  27
ENDBRANCH   5  26
BRANCH   4  52
ATOM     52  O   UNL     1      28.143  -2.310  19.709  1.00  0.00    -0.384 OA
ATOM     53  H   UNL     1      27.153  -2.254  19.772  1.00  0.00     0.211 HD
ENDBRANCH   4  52
TORSDOF 16
ENDMDL
MODEL 5
REMARK VINA RESULT:    -6.504      3.331      7.249
REMARK INTER + INTRA:         -11.815
REMARK INTER:                  -9.242
REMARK INTRA:                  -2.573
REMARK UNBOUND:                -1.130
REMARK SMILES C[C@@H]1O[C@H](OC[C@@H]2O[C@@H](Oc3c(-c4ccc(O)c(O)c4)oc4cc(O)cc(O)c4c3=O)[C@@H](O)[C@@H](O)[C@H]2O)[C@@H](O)[C@H](O)[C@@H]1O
REMARK SMILES IDX 7 1 36 2 34 3 32 4 9 5 8 6 6 7 5 8 4 9 1 10 2 11 42 12 3 13
REMARK SMILES IDX 40 14 38 15 43 16 41 18 39 20 37 22 35 24 10 26 11 27 12 28
REMARK SMILES IDX 30 29 21 30 29 31 31 32 22 33 27 34 23 35 26 36 24 37 13 38
REMARK SMILES IDX 20 39 14 40 18 41 15 42 16 43 19 44 17 46 28 48 25 50 33 52
REMARK H PARENT 43 17 41 19 39 21 37 23 35 25 19 45 17 47 28 49 25 51 33 53
REMARK Flexibility Score: inf
ROOT
ATOM      1  C   UNL     1      30.227   6.581  23.886  1.00  0.00     0.180 C 
ATOM      2  C   UNL     1      31.125   6.800  22.643  1.00  0.00     0.177 C 
ATOM      3  C   UNL     1      30.689   5.867  21.493  1.00  0.00     0.180 C 
ATOM      4  C   UNL     1      30.475   4.418  21.990  1.00  0.00     0.214 C 
ATOM      5  C   UNL     1      29.700   4.367  23.323  1.00  0.00     0.339 C 
ATOM      6  O   UNL     1      30.285   5.223  24.291  1.00  0.00    -0.332 OA
ENDROOT
BRANCH   1   7
ATOM      7  C   UNL     1      30.664   7.452  25.077  1.00  0.00     0.198 C 
BRANCH   7   8
ATOM      8  O   UNL     1      29.683   7.415  26.106  1.00  0.00    -0.347 OA
BRANCH   8   9
ATOM      9  C   UNL     1      30.175   6.848  27.315  1.00  0.00     0.281 C 
ATOM     10  C   UNL     1      29.645   9.903  27.575  1.00  0.00     0.041 C 
ATOM     11  C   UNL     1      30.050   8.848  28.620  1.00  0.00     0.150 C 
ATOM     12  C   UNL     1      28.877   8.299  29.470  1.00  0.00     0.174 C 
ATOM     13  O   UNL     1      30.874   7.827  28.070  1.00  0.00    -0.344 OA
ATOM     14  C   UNL     1      28.084   7.209  28.734  1.00  0.00     0.179 C 
ATOM     15  C   UNL     1      29.044   6.171  28.135  1.00  0.00     0.202 C 
BRANCH  12  16
ATOM     16  O   UNL     1      28.019   9.344  29.861  1.00  0.00    -0.388 OA
ATOM     17  H   UNL     1      28.384  10.181  29.475  1.00  0.00     0.211 HD
ENDBRANCH  12  16
BRANCH  14  18
ATOM     18  O   UNL     1      27.290   7.763  27.713  1.00  0.00    -0.387 OA
ATOM     19  H   UNL     1      26.433   7.263  27.708  1.00  0.00     0.211 HD
ENDBRANCH  14  18
BRANCH  15  20
ATOM     20  O   UNL     1      29.567   5.340  29.144  1.00  0.00    -0.385 OA
ATOM     21  H   UNL     1      30.031   5.908  29.813  1.00  0.00     0.211 HD
ENDBRANCH  15  20
ENDBRANCH   8   9
ENDBRANCH   7   8
ENDBRANCH   1   7
BRANCH   2  22
ATOM     22  O   UNL     1      31.058   8.134  22.207  1.00  0.00    -0.387 OA
ATOM     23  H   UNL     1      30.133   8.290  21.880  1.00  0.00     0.211 HD
ENDBRANCH   2  22
BRANCH   3  24
ATOM     24  O   UNL     1      29.560   6.357  20.805  1.00  0.00    -0.387 OA
ATOM     25  H   UNL     1      29.324   5.711  20.094  1.00  0.00     0.211 HD
ENDBRANCH   3  24
BRANCH   5  26
ATOM     26  O   UNL     1      28.313   4.679  23.135  1.00  0.00    -0.454 OA
BRANCH  26  27
ATOM     27  C   UNL     1      27.280   4.110  23.893  1.00  0.00     0.214 A 
ATOM     28  C   UNL     1      26.892   2.760  23.749  1.00  0.00     0.180 A 
ATOM     29  C   UNL     1      26.603   4.910  24.818  1.00  0.00     0.239 A 
ATOM     30  O   UNL     1      25.844   2.299  24.423  1.00  0.00    -0.452 OA
ATOM     31  C   UNL     1      25.510   4.380  25.535  1.00  0.00     0.111 A 
ATOM     32  O   UNL     1      26.972   6.105  24.981  1.00  0.00    -0.285 OA
ATOM     33  C   UNL     1      25.150   3.035  25.284  1.00  0.00     0.146 A 
ATOM     34  C   UNL     1      24.761   5.130  26.473  1.00  0.00     0.134 A 
ATOM     35  C   UNL     1      24.065   2.458  25.951  1.00  0.00     0.094 A 
ATOM     36  C   UNL     1      23.676   4.535  27.133  1.00  0.00     0.093 A 
ATOM     37  C   UNL     1      23.326   3.205  26.872  1.00  0.00     0.123 A 
BRANCH  28  38
ATOM     38  C   UNL     1      27.631   1.814  22.890  1.00  0.00     0.025 A 
ATOM     39  C   UNL     1      28.638   0.994  23.423  1.00  0.00     0.062 A 
ATOM     40  C   UNL     1      27.272   1.675  21.543  1.00  0.00     0.016 A 
ATOM     41  C   UNL     1      29.291   0.053  22.612  1.00  0.00     0.158 A 
ATOM     42  C   UNL     1      27.938   0.757  20.727  1.00  0.00     0.051 A 
ATOM     43  C   UNL     1      28.950  -0.053  21.254  1.00  0.00     0.157 A 
BRANCH  41  44
ATOM     44  O   UNL     1      30.265  -0.786  23.153  1.00  0.00    -0.504 OA
ATOM     45  H   UNL     1      30.846  -1.369  22.564  1.00  0.00     0.293 HD
ENDBRANCH  41  44
BRANCH  43  46
ATOM     46  O   UNL     1      29.598  -0.961  20.417  1.00  0.00    -0.504 OA
ATOM     47  H   UNL     1      30.566  -0.843  20.143  1.00  0.00     0.293 HD
ENDBRANCH  43  46
ENDBRANCH  28  38
BRANCH  34  48
ATOM     48  O   UNL     1      25.083   6.459  26.752  1.00  0.00    -0.507 OA
ATOM     49  H   UNL     1      24.887   7.205  26.093  1.00  0.00     0.293 HD
ENDBRANCH  34  48
BRANCH  37  50
ATOM     50  O   UNL     1      22.248   2.612  27.524  1.00  0.00    -0.508 OA
ATOM     51  H   UNL     1      21.681   3.130  28.187  1.00  0.00     0.293 HD
ENDBRANCH  37  50
ENDBRANCH  26  27
ENDBRANCH   5  26
BRANCH   4  52
ATOM     52  O   UNL     1      29.803   3.656  21.021  1.00  0.00    -0.384 OA
ATOM     53  H   UNL     1      29.940   4.114  20.151  1.00  0.00     0.211 HD
ENDBRANCH   4  52
TORSDOF 16
ENDMDL
MODEL 6
REMARK VINA RESULT:    -6.478      2.786      5.089
REMARK INTER + INTRA:         -11.774
REMARK INTER:                  -9.358
REMARK INTRA:                  -2.415
REMARK UNBOUND:                -1.130
REMARK SMILES C[C@@H]1O[C@H](OC[C@@H]2O[C@@H](Oc3c(-c4ccc(O)c(O)c4)oc4cc(O)cc(O)c4c3=O)[C@@H](O)[C@@H](O)[C@H]2O)[C@@H](O)[C@H](O)[C@@H]1O
REMARK SMILES IDX 7 1 36 2 34 3 32 4 9 5 8 6 6 7 5 8 4 9 1 10 2 11 42 12 3 13
REMARK SMILES IDX 40 14 38 15 43 16 41 18 39 20 37 22 35 24 10 26 11 27 12 28
REMARK SMILES IDX 30 29 21 30 29 31 31 32 22 33 27 34 23 35 26 36 24 37 13 38
REMARK SMILES IDX 20 39 14 40 18 41 15 42 16 43 19 44 17 46 28 48 25 50 33 52
REMARK H PARENT 43 17 41 19 39 21 37 23 35 25 19 45 17 47 28 49 25 51 33 53
REMARK Flexibility Score: inf
ROOT
ATOM      1  C   UNL     1      29.091   4.027  19.487  1.00  0.00     0.180 C 
ATOM      2  C   UNL     1      28.735   5.119  20.525  1.00  0.00     0.177 C 
ATOM      3  C   UNL     1      28.763   4.534  21.954  1.00  0.00     0.180 C 
ATOM      4  C   UNL     1      28.008   3.186  22.027  1.00  0.00     0.214 C 
ATOM      5  C   UNL     1      28.346   2.263  20.838  1.00  0.00     0.339 C 
ATOM      6  O   UNL     1      28.189   2.938  19.602  1.00  0.00    -0.332 OA
ENDROOT
BRANCH   1   7
ATOM      7  C   UNL     1      29.020   4.555  18.043  1.00  0.00     0.198 C 
BRANCH   7   8
ATOM      8  O   UNL     1      27.718   4.356  17.506  1.00  0.00    -0.347 OA
BRANCH   8   9
ATOM      9  C   UNL     1      27.139   5.557  17.007  1.00  0.00     0.281 C 
ATOM     10  C   UNL     1      26.316   3.068  15.331  1.00  0.00     0.041 C 
ATOM     11  C   UNL     1      25.858   4.535  15.266  1.00  0.00     0.150 C 
ATOM     12  C   UNL     1      24.519   4.826  15.990  1.00  0.00     0.174 C 
ATOM     13  O   UNL     1      26.895   5.445  15.612  1.00  0.00    -0.344 OA
ATOM     14  C   UNL     1      24.701   4.991  17.506  1.00  0.00     0.179 C 
ATOM     15  C   UNL     1      25.862   5.953  17.797  1.00  0.00     0.202 C 
BRANCH  12  16
ATOM     16  O   UNL     1      23.582   3.812  15.721  1.00  0.00    -0.388 OA
ATOM     17  H   UNL     1      23.090   4.078  14.902  1.00  0.00     0.211 HD
ENDBRANCH  12  16
BRANCH  14  18
ATOM     18  O   UNL     1      24.946   3.752  18.125  1.00  0.00    -0.387 OA
ATOM     19  H   UNL     1      24.575   3.807  19.044  1.00  0.00     0.211 HD
ENDBRANCH  14  18
BRANCH  15  20
ATOM     20  O   UNL     1      25.484   7.282  17.531  1.00  0.00    -0.385 OA
ATOM     21  H   UNL     1      24.791   7.278  16.820  1.00  0.00     0.211 HD
ENDBRANCH  15  20
ENDBRANCH   8   9
ENDBRANCH   7   8
ENDBRANCH   1   7
BRANCH   2  22
ATOM     22  O   UNL     1      29.636   6.194  20.449  1.00  0.00    -0.387 OA
ATOM     23  H   UNL     1      30.014   6.325  21.358  1.00  0.00     0.211 HD
ENDBRANCH   2  22
BRANCH   3  24
ATOM     24  O   UNL     1      30.073   4.429  22.464  1.00  0.00    -0.387 OA
ATOM     25  H   UNL     1      30.658   4.072  21.750  1.00  0.00     0.211 HD
ENDBRANCH   3  24
BRANCH   5  26
ATOM     26  O   UNL     1      29.666   1.714  20.959  1.00  0.00    -0.454 OA
BRANCH  26  27
ATOM     27  C   UNL     1      29.923   0.374  21.277  1.00  0.00     0.214 A 
ATOM     28  C   UNL     1      29.784  -0.668  20.333  1.00  0.00     0.180 A 
ATOM     29  C   UNL     1      30.323   0.054  22.578  1.00  0.00     0.239 A 
ATOM     30  O   UNL     1      29.947  -1.930  20.714  1.00  0.00    -0.452 OA
ATOM     31  C   UNL     1      30.512  -1.296  22.941  1.00  0.00     0.111 A 
ATOM     32  O   UNL     1      30.489   0.984  23.414  1.00  0.00    -0.285 OA
ATOM     33  C   UNL     1      30.291  -2.280  21.949  1.00  0.00     0.146 A 
ATOM     34  C   UNL     1      30.896  -1.703  24.241  1.00  0.00     0.134 A 
ATOM     35  C   UNL     1      30.445  -3.636  22.253  1.00  0.00     0.094 A 
ATOM     36  C   UNL     1      31.046  -3.067  24.528  1.00  0.00     0.093 A 
ATOM     37  C   UNL     1      30.820  -4.032  23.539  1.00  0.00     0.123 A 
BRANCH  28  38
ATOM     38  C   UNL     1      29.489  -0.408  18.911  1.00  0.00     0.025 A 
ATOM     39  C   UNL     1      28.169  -0.432  18.433  1.00  0.00     0.062 A 
ATOM     40  C   UNL     1      30.529  -0.056  18.040  1.00  0.00     0.016 A 
ATOM     41  C   UNL     1      27.893  -0.122  17.093  1.00  0.00     0.158 A 
ATOM     42  C   UNL     1      30.261   0.229  16.699  1.00  0.00     0.051 A 
ATOM     43  C   UNL     1      28.947   0.193  16.219  1.00  0.00     0.157 A 
BRANCH  41  44
ATOM     44  O   UNL     1      26.578  -0.111  16.630  1.00  0.00    -0.504 OA
ATOM     45  H   UNL     1      26.257  -0.771  15.933  1.00  0.00     0.293 HD
ENDBRANCH  41  44
BRANCH  43  46
ATOM     46  O   UNL     1      28.707   0.482  14.875  1.00  0.00    -0.504 OA
ATOM     47  H   UNL     1      27.792   0.370  14.457  1.00  0.00     0.293 HD
ENDBRANCH  43  46
ENDBRANCH  28  38
BRANCH  34  48
ATOM     48  O   UNL     1      31.125  -0.765  25.249  1.00  0.00    -0.507 OA
ATOM     49  H   UNL     1      30.878   0.212  25.135  1.00  0.00     0.293 HD
ENDBRANCH  34  48
BRANCH  37  50
ATOM     50  O   UNL     1      30.966  -5.388  23.821  1.00  0.00    -0.508 OA
ATOM     51  H   UNL     1      30.837  -5.749  24.760  1.00  0.00     0.293 HD
ENDBRANCH  37  50
ENDBRANCH  26  27
ENDBRANCH   5  26
BRANCH   4  52
ATOM     52  O   UNL     1      28.289   2.526  23.235  1.00  0.00    -0.384 OA
ATOM     53  H   UNL     1      27.450   2.074  23.515  1.00  0.00     0.211 HD
ENDBRANCH   4  52
TORSDOF 16
ENDMDL
MODEL 7
REMARK VINA RESULT:    -6.158      6.869     13.631
REMARK INTER + INTRA:         -11.248
REMARK INTER:                  -8.354
REMARK INTRA:                  -2.894
REMARK UNBOUND:                -1.130
REMARK SMILES C[C@@H]1O[C@H](OC[C@@H]2O[C@@H](Oc3c(-c4ccc(O)c(O)c4)oc4cc(O)cc(O)c4c3=O)[C@@H](O)[C@@H](O)[C@H]2O)[C@@H](O)[C@H](O)[C@@H]1O
REMARK SMILES IDX 7 1 36 2 34 3 32 4 9 5 8 6 6 7 5 8 4 9 1 10 2 11 42 12 3 13
REMARK SMILES IDX 40 14 38 15 43 16 41 18 39 20 37 22 35 24 10 26 11 27 12 28
REMARK SMILES IDX 30 29 21 30 29 31 31 32 22 33 27 34 23 35 26 36 24 37 13 38
REMARK SMILES IDX 20 39 14 40 18 41 15 42 16 43 19 44 17 46 28 48 25 50 33 52
REMARK H PARENT 43 17 41 19 39 21 37 23 35 25 19 45 17 47 28 49 25 51 33 53
REMARK Flexibility Score: inf
ROOT
ATOM      1  C   UNL     1      21.862   8.467  30.973  1.00  0.00     0.180 C 
ATOM      2  C   UNL     1      20.625   8.692  30.070  1.00  0.00     0.177 C 
ATOM      3  C   UNL     1      21.004   8.518  28.583  1.00  0.00     0.180 C 
ATOM      4  C   UNL     1      22.305   9.280  28.238  1.00  0.00     0.214 C 
ATOM      5  C   UNL     1      23.396   9.087  29.312  1.00  0.00     0.339 C 
ATOM      6  O   UNL     1      22.897   9.367  30.609  1.00  0.00    -0.332 OA
ENDROOT
BRANCH   1   7
ATOM      7  C   UNL     1      21.541   8.686  32.461  1.00  0.00     0.198 C 
BRANCH   7   8
ATOM      8  O   UNL     1      21.809   7.505  33.207  1.00  0.00    -0.347 OA
BRANCH   8   9
ATOM      9  C   UNL     1      20.650   6.701  33.399  1.00  0.00     0.281 C 
ATOM     10  C   UNL     1      22.929   5.158  31.947  1.00  0.00     0.041 C 
ATOM     11  C   UNL     1      21.563   4.691  32.480  1.00  0.00     0.150 C 
ATOM     12  C   UNL     1      21.613   4.001  33.867  1.00  0.00     0.174 C 
ATOM     13  O   UNL     1      20.569   5.705  32.390  1.00  0.00    -0.344 OA
ATOM     14  C   UNL     1      21.673   5.015  35.020  1.00  0.00     0.179 C 
ATOM     15  C   UNL     1      20.599   6.096  34.828  1.00  0.00     0.202 C 
BRANCH  12  16
ATOM     16  O   UNL     1      22.706   3.118  33.940  1.00  0.00    -0.388 OA
ATOM     17  H   UNL     1      22.389   2.235  33.619  1.00  0.00     0.211 HD
ENDBRANCH  12  16
BRANCH  14  18
ATOM     18  O   UNL     1      22.941   5.617  35.100  1.00  0.00    -0.387 OA
ATOM     19  H   UNL     1      23.506   5.198  34.399  1.00  0.00     0.211 HD
ENDBRANCH  14  18
BRANCH  15  20
ATOM     20  O   UNL     1      19.321   5.585  35.125  1.00  0.00    -0.385 OA
ATOM     21  H   UNL     1      18.698   5.849  34.398  1.00  0.00     0.211 HD
ENDBRANCH  15  20
ENDBRANCH   8   9
ENDBRANCH   7   8
ENDBRANCH   1   7
BRANCH   2  22
ATOM     22  O   UNL     1      19.599   7.789  30.393  1.00  0.00    -0.387 OA
ATOM     23  H   UNL     1      19.440   7.225  29.590  1.00  0.00     0.211 HD
ENDBRANCH   2  22
BRANCH   3  24
ATOM     24  O   UNL     1      21.076   7.162  28.204  1.00  0.00    -0.387 OA
ATOM     25  H   UNL     1      22.017   6.949  27.984  1.00  0.00     0.211 HD
ENDBRANCH   3  24
BRANCH   5  26
ATOM     26  O   UNL     1      23.961   7.770  29.254  1.00  0.00    -0.454 OA
BRANCH  26  27
ATOM     27  C   UNL     1      25.255   7.501  28.786  1.00  0.00     0.214 A 
ATOM     28  C   UNL     1      26.412   7.876  29.503  1.00  0.00     0.180 A 
ATOM     29  C   UNL     1      25.406   6.845  27.560  1.00  0.00     0.239 A 
ATOM     30  O   UNL     1      27.612   7.683  28.968  1.00  0.00    -0.452 OA
ATOM     31  C   UNL     1      26.697   6.634  27.034  1.00  0.00     0.111 A 
ATOM     32  O   UNL     1      24.377   6.471  26.934  1.00  0.00    -0.285 OA
ATOM     33  C   UNL     1      27.799   7.097  27.790  1.00  0.00     0.146 A 
ATOM     34  C   UNL     1      26.934   5.998  25.791  1.00  0.00     0.134 A 
ATOM     35  C   UNL     1      29.103   6.932  27.313  1.00  0.00     0.094 A 
ATOM     36  C   UNL     1      28.248   5.841  25.328  1.00  0.00     0.093 A 
ATOM     37  C   UNL     1      29.330   6.307  26.084  1.00  0.00     0.123 A 
BRANCH  28  38
ATOM     38  C   UNL     1      26.346   8.457  30.859  1.00  0.00     0.025 A 
ATOM     39  C   UNL     1      25.546   7.873  31.854  1.00  0.00     0.062 A 
ATOM     40  C   UNL     1      27.150   9.558  31.181  1.00  0.00     0.016 A 
ATOM     41  C   UNL     1      25.539   8.395  33.156  1.00  0.00     0.158 A 
ATOM     42  C   UNL     1      27.126  10.096  32.470  1.00  0.00     0.051 A 
ATOM     43  C   UNL     1      26.320   9.522  33.459  1.00  0.00     0.157 A 
BRANCH  41  44
ATOM     44  O   UNL     1      24.772   7.791  34.152  1.00  0.00    -0.504 OA
ATOM     45  H   UNL     1      24.081   8.312  34.676  1.00  0.00     0.293 HD
ENDBRANCH  41  44
BRANCH  43  46
ATOM     46  O   UNL     1      26.315  10.079  34.738  1.00  0.00    -0.504 OA
ATOM     47  H   UNL     1      26.630  11.026  34.913  1.00  0.00     0.293 HD
ENDBRANCH  43  46
ENDBRANCH  28  38
BRANCH  34  48
ATOM     48  O   UNL     1      25.875   5.525  25.014  1.00  0.00    -0.507 OA
ATOM     49  H   UNL     1      25.810   5.727  24.023  1.00  0.00     0.293 HD
ENDBRANCH  34  48
BRANCH  37  50
ATOM     50  O   UNL     1      30.636   6.155  25.625  1.00  0.00    -0.508 OA
ATOM     51  H   UNL     1      31.395   6.715  25.997  1.00  0.00     0.293 HD
ENDBRANCH  37  50
ENDBRANCH  26  27
ENDBRANCH   5  26
BRANCH   4  52
ATOM     52  O   UNL     1      22.797   8.881  26.985  1.00  0.00    -0.384 OA
ATOM     53  H   UNL     1      22.247   8.106  26.696  1.00  0.00     0.211 HD
ENDBRANCH   4  52
TORSDOF 16
ENDMDL
MODEL 8
REMARK VINA RESULT:    -6.088      2.412      6.814
REMARK INTER + INTRA:         -11.132
REMARK INTER:                  -9.181
REMARK INTRA:                  -1.951
REMARK UNBOUND:                -1.130
REMARK SMILES C[C@@H]1O[C@H](OC[C@@H]2O[C@@H](Oc3c(-c4ccc(O)c(O)c4)oc4cc(O)cc(O)c4c3=O)[C@@H](O)[C@@H](O)[C@H]2O)[C@@H](O)[C@H](O)[C@@H]1O
REMARK SMILES IDX 7 1 36 2 34 3 32 4 9 5 8 6 6 7 5 8 4 9 1 10 2 11 42 12 3 13
REMARK SMILES IDX 40 14 38 15 43 16 41 18 39 20 37 22 35 24 10 26 11 27 12 28
REMARK SMILES IDX 30 29 21 30 29 31 31 32 22 33 27 34 23 35 26 36 24 37 13 38
REMARK SMILES IDX 20 39 14 40 18 41 15 42 16 43 19 44 17 46 28 48 25 50 33 52
REMARK H PARENT 43 17 41 19 39 21 37 23 35 25 19 45 17 47 28 49 25 51 33 53
REMARK Flexibility Score: inf
ROOT
ATOM      1  C   UNL     1      26.850   1.682  20.530  1.00  0.00     0.180 C 
ATOM      2  C   UNL     1      26.350   0.836  21.726  1.00  0.00     0.177 C 
ATOM      3  C   UNL     1      27.534   0.132  22.421  1.00  0.00     0.180 C 
ATOM      4  C   UNL     1      28.472  -0.545  21.394  1.00  0.00     0.214 C 
ATOM      5  C   UNL     1      28.755   0.362  20.178  1.00  0.00     0.339 C 
ATOM      6  O   UNL     1      27.552   0.856  19.614  1.00  0.00    -0.332 OA
ENDROOT
BRANCH   1   7
ATOM      7  C   UNL     1      25.693   2.357  19.773  1.00  0.00     0.198 C 
BRANCH   7   8
ATOM      8  O   UNL     1      25.926   2.316  18.370  1.00  0.00    -0.347 OA
BRANCH   8   9
ATOM      9  C   UNL     1      26.858   3.302  17.939  1.00  0.00     0.281 C 
ATOM     10  C   UNL     1      25.191   2.143  15.581  1.00  0.00     0.041 C 
ATOM     11  C   UNL     1      26.210   3.294  15.637  1.00  0.00     0.150 C 
ATOM     12  C   UNL     1      25.582   4.707  15.740  1.00  0.00     0.174 C 
ATOM     13  O   UNL     1      27.240   3.064  16.591  1.00  0.00    -0.344 OA
ATOM     14  C   UNL     1      25.167   5.056  17.178  1.00  0.00     0.179 C 
ATOM     15  C   UNL     1      26.313   4.740  18.150  1.00  0.00     0.202 C 
BRANCH  12  16
ATOM     16  O   UNL     1      24.478   4.821  14.875  1.00  0.00    -0.388 OA
ATOM     17  H   UNL     1      23.675   4.950  15.442  1.00  0.00     0.211 HD
ENDBRANCH  12  16
BRANCH  14  18
ATOM     18  O   UNL     1      24.014   4.345  17.558  1.00  0.00    -0.387 OA
ATOM     19  H   UNL     1      24.212   3.381  17.430  1.00  0.00     0.211 HD
ENDBRANCH  14  18
BRANCH  15  20
ATOM     20  O   UNL     1      27.337   5.700  18.037  1.00  0.00    -0.385 OA
ATOM     21  H   UNL     1      27.959   5.415  17.318  1.00  0.00     0.211 HD
ENDBRANCH  15  20
ENDBRANCH   8   9
ENDBRANCH   7   8
ENDBRANCH   1   7
BRANCH   2  22
ATOM     22  O   UNL     1      25.678   1.641  22.661  1.00  0.00    -0.387 OA
ATOM     23  H   UNL     1      26.347   2.268  23.043  1.00  0.00     0.211 HD
ENDBRANCH   2  22
BRANCH   3  24
ATOM     24  O   UNL     1      28.239   0.995  23.284  1.00  0.00    -0.387 OA
ATOM     25  H   UNL     1      28.622   1.732  22.745  1.00  0.00     0.211 HD
ENDBRANCH   3  24
BRANCH   5  26
ATOM     26  O   UNL     1      29.641   1.436  20.520  1.00  0.00    -0.454 OA
BRANCH  26  27
ATOM     27  C   UNL     1      29.945   2.496  19.655  1.00  0.00     0.214 A 
ATOM     28  C   UNL     1      29.909   3.846  20.071  1.00  0.00     0.180 A 
ATOM     29  C   UNL     1      30.288   2.210  18.331  1.00  0.00     0.239 A 
ATOM     30  O   UNL     1      30.112   4.815  19.186  1.00  0.00    -0.452 OA
ATOM     31  C   UNL     1      30.521   3.264  17.423  1.00  0.00     0.111 A 
ATOM     32  O   UNL     1      30.361   1.005  17.964  1.00  0.00    -0.285 OA
ATOM     33  C   UNL     1      30.404   4.587  17.909  1.00  0.00     0.146 A 
ATOM     34  C   UNL     1      30.852   3.057  16.062  1.00  0.00     0.134 A 
ATOM     35  C   UNL     1      30.607   5.674  17.054  1.00  0.00     0.094 A 
ATOM     36  C   UNL     1      31.052   4.160  15.219  1.00  0.00     0.093 A 
ATOM     37  C   UNL     1      30.929   5.464  15.711  1.00  0.00     0.123 A 
BRANCH  28  38
ATOM     38  C   UNL     1      29.681   4.232  21.477  1.00  0.00     0.025 A 
ATOM     39  C   UNL     1      28.480   3.908  22.127  1.00  0.00     0.062 A 
ATOM     40  C   UNL     1      30.706   4.859  22.198  1.00  0.00     0.016 A 
ATOM     41  C   UNL     1      28.298   4.223  23.482  1.00  0.00     0.158 A 
ATOM     42  C   UNL     1      30.518   5.197  23.541  1.00  0.00     0.051 A 
ATOM     43  C   UNL     1      29.316   4.886  24.186  1.00  0.00     0.157 A 
BRANCH  41  44
ATOM     44  O   UNL     1      27.118   3.868  24.135  1.00  0.00    -0.504 OA
ATOM     45  H   UNL     1      27.110   3.622  25.116  1.00  0.00     0.293 HD
ENDBRANCH  41  44
BRANCH  43  46
ATOM     46  O   UNL     1      29.156   5.235  25.527  1.00  0.00    -0.504 OA
ATOM     47  H   UNL     1      28.586   6.021  25.814  1.00  0.00     0.293 HD
ENDBRANCH  43  46
ENDBRANCH  28  38
BRANCH  34  48
ATOM     48  O   UNL     1      30.979   1.768  15.542  1.00  0.00    -0.507 OA
ATOM     49  H   UNL     1      30.534   0.970  15.980  1.00  0.00     0.293 HD
ENDBRANCH  34  48
BRANCH  37  50
ATOM     50  O   UNL     1      31.125   6.561  14.875  1.00  0.00    -0.508 OA
ATOM     51  H   UNL     1      30.490   7.351  14.883  1.00  0.00     0.293 HD
ENDBRANCH  37  50
ENDBRANCH  26  27
ENDBRANCH   5  26
BRANCH   4  52
ATOM     52  O   UNL     1      29.683  -0.919  21.999  1.00  0.00    -0.384 OA
ATOM     53  H   UNL     1      29.452  -1.521  22.754  1.00  0.00     0.211 HD
ENDBRANCH   4  52
TORSDOF 16
ENDMDL
