MODEL 1
REMARK VINA RESULT:    -3.623      0.000      0.000
REMARK INTER + INTRA:         -14.843
REMARK INTER:                  -9.129
REMARK INTRA:                  -5.714
REMARK UNBOUND:                -5.714
REMARK SMILES CCCCCCCCCCCCCCCCCCCCCCCCCCCC(=O)[O-]
REMARK SMILES IDX 15 1 16 2 17 3 18 4 19 5 20 6 21 7 22 8 23 9 24 10 25 11
REMARK SMILES IDX 26 12 27 13 28 14 29 15 30 16 14 17 13 18 12 19 11 20 10 21
REMARK SMILES IDX 9 22 8 23 7 24 6 25 5 26 4 27 3 28 2 29 1 30
REMARK H PARENT
REMARK Flexibility Score: inf
ROOT
ATOM      1  C   UNL     1     -23.313   4.749  25.949  1.00  0.00     0.000 C 
ENDROOT
BRANCH   1   2
ATOM      2  C   UNL     1     -24.800   5.022  25.645  1.00  0.00     0.000 C 
BRANCH   2   3
ATOM      3  C   UNL     1     -25.124   5.308  24.167  1.00  0.00     0.000 C 
BRANCH   3   4
ATOM      4  C   UNL     1     -23.863   5.475  23.302  1.00  0.00     0.000 C 
BRANCH   4   5
ATOM      5  C   UNL     1     -23.935   6.710  22.388  1.00  0.00     0.000 C 
BRANCH   5   6
ATOM      6  C   UNL     1     -22.598   7.470  22.315  1.00  0.00     0.000 C 
BRANCH   6   7
ATOM      7  C   UNL     1     -22.201   7.828  20.873  1.00  0.00     0.000 C 
BRANCH   7   8
ATOM      8  C   UNL     1     -20.987   7.028  20.379  1.00  0.00     0.000 C 
BRANCH   8   9
ATOM      9  C   UNL     1     -21.422   5.702  19.743  1.00  0.00     0.000 C 
BRANCH   9  10
ATOM     10  C   UNL     1     -20.976   4.510  20.603  1.00  0.00     0.000 C 
BRANCH  10  11
ATOM     11  C   UNL     1     -19.447   4.425  20.768  1.00  0.00     0.000 C 
BRANCH  11  12
ATOM     12  C   UNL     1     -18.947   4.461  22.224  1.00  0.00     0.006 C 
BRANCH  12  13
ATOM     13  C   UNL     1     -19.979   5.045  23.198  1.00  0.00     0.053 C 
BRANCH  13  14
ATOM     14  C   UNL     1     -19.391   6.188  23.963  1.00  0.00     0.041 C 
ATOM     15  O   UNL     1     -19.046   7.241  23.365  1.00  0.00    -0.550 OA
ATOM     16  O   UNL     1     -19.259   6.105  25.344  1.00  0.00    -0.550 OA
ENDBRANCH  13  14
ENDBRANCH  12  13
ENDBRANCH  11  12
ENDBRANCH  10  11
ENDBRANCH   9  10
ENDBRANCH   8   9
ENDBRANCH   7   8
ENDBRANCH   6   7
ENDBRANCH   5   6
ENDBRANCH   4   5
ENDBRANCH   3   4
ENDBRANCH   2   3
ENDBRANCH   1   2
BRANCH   1  17
ATOM     17  C   UNL     1     -22.946   3.265  26.148  1.00  0.00     0.000 C 
BRANCH  17  18
ATOM     18  C   UNL     1     -24.141   2.332  26.413  1.00  0.00     0.000 C 
BRANCH  18  19
ATOM     19  C   UNL     1     -24.231   1.177  25.400  1.00  0.00     0.000 C 
BRANCH  19  20
ATOM     20  C   UNL     1     -24.779   1.627  24.035  1.00  0.00     0.000 C 
BRANCH  20  21
ATOM     21  C   UNL     1     -23.870   1.204  22.869  1.00  0.00     0.000 C 
BRANCH  21  22
ATOM     22  C   UNL     1     -22.691   2.170  22.647  1.00  0.00    -0.000 C 
BRANCH  22  23
ATOM     23  C   UNL     1     -21.299   1.512  22.656  1.00  0.00    -0.000 C 
BRANCH  23  24
ATOM     24  C   UNL     1     -20.564   1.683  23.997  1.00  0.00    -0.000 C 
BRANCH  24  25
ATOM     25  C   UNL     1     -20.642   0.428  24.880  1.00  0.00    -0.000 C 
BRANCH  25  26
ATOM     26  C   UNL     1     -20.737  -0.866  24.058  1.00  0.00    -0.000 C 
BRANCH  26  27
ATOM     27  C   UNL     1     -21.998  -1.660  24.426  1.00  0.00    -0.000 C 
BRANCH  27  28
ATOM     28  C   UNL     1     -22.634  -2.290  23.178  1.00  0.00    -0.000 C 
BRANCH  28  29
ATOM     29  C   UNL     1     -21.684  -2.299  21.970  1.00  0.00    -0.003 C 
ATOM     30  C   UNL     1     -22.175  -1.418  20.823  1.00  0.00     0.004 C 
ENDBRANCH  28  29
ENDBRANCH  27  28
ENDBRANCH  26  27
ENDBRANCH  25  26
ENDBRANCH  24  25
ENDBRANCH  23  24
ENDBRANCH  22  23
ENDBRANCH  21  22
ENDBRANCH  20  21
ENDBRANCH  19  20
ENDBRANCH  18  19
ENDBRANCH  17  18
ENDBRANCH   1  17
TORSDOF 26
ENDMDL
MODEL 2
REMARK VINA RESULT:    -3.436      2.888      6.643
REMARK INTER + INTRA:         -14.372
REMARK INTER:                  -9.460
REMARK INTRA:                  -4.912
REMARK UNBOUND:                -5.714
REMARK SMILES CCCCCCCCCCCCCCCCCCCCCCCCCCCC(=O)[O-]
REMARK SMILES IDX 15 1 16 2 17 3 18 4 19 5 20 6 21 7 22 8 23 9 24 10 25 11
REMARK SMILES IDX 26 12 27 13 28 14 29 15 30 16 14 17 13 18 12 19 11 20 10 21
REMARK SMILES IDX 9 22 8 23 7 24 6 25 5 26 4 27 3 28 2 29 1 30
REMARK H PARENT
REMARK Flexibility Score: inf
ROOT
ATOM      1  C   UNL     1     -21.066   7.543  22.166  1.00  0.00     0.000 C 
ENDROOT
BRANCH   1   2
ATOM      2  C   UNL     1     -22.283   7.143  23.025  1.00  0.00     0.000 C 
BRANCH   2   3
ATOM      3  C   UNL     1     -23.616   7.038  22.261  1.00  0.00     0.000 C 
BRANCH   3   4
ATOM      4  C   UNL     1     -24.707   6.309  23.063  1.00  0.00     0.000 C 
BRANCH   4   5
ATOM      5  C   UNL     1     -24.156   5.110  23.854  1.00  0.00     0.000 C 
BRANCH   5   6
ATOM      6  C   UNL     1     -25.057   4.718  25.039  1.00  0.00     0.000 C 
BRANCH   6   7
ATOM      7  C   UNL     1     -25.004   3.213  25.347  1.00  0.00     0.000 C 
BRANCH   7   8
ATOM      8  C   UNL     1     -23.736   2.542  24.797  1.00  0.00     0.000 C 
BRANCH   8   9
ATOM      9  C   UNL     1     -24.088   1.354  23.893  1.00  0.00     0.000 C 
BRANCH   9  10
ATOM     10  C   UNL     1     -23.639   1.614  22.448  1.00  0.00     0.000 C 
BRANCH  10  11
ATOM     11  C   UNL     1     -22.353   0.855  22.071  1.00  0.00     0.000 C 
BRANCH  11  12
ATOM     12  C   UNL     1     -21.558   0.289  23.262  1.00  0.00     0.006 C 
BRANCH  12  13
ATOM     13  C   UNL     1     -20.058   0.154  22.971  1.00  0.00     0.053 C 
BRANCH  13  14
ATOM     14  C   UNL     1     -19.804  -0.990  22.041  1.00  0.00     0.041 C 
ATOM     15  O   UNL     1     -19.469  -0.773  20.846  1.00  0.00    -0.550 OA
ATOM     16  O   UNL     1     -19.901  -2.296  22.503  1.00  0.00    -0.550 OA
ENDBRANCH  13  14
ENDBRANCH  12  13
ENDBRANCH  11  12
ENDBRANCH  10  11
ENDBRANCH   9  10
ENDBRANCH   8   9
ENDBRANCH   7   8
ENDBRANCH   6   7
ENDBRANCH   5   6
ENDBRANCH   4   5
ENDBRANCH   3   4
ENDBRANCH   2   3
ENDBRANCH   1   2
BRANCH   1  17
ATOM     17  C   UNL     1     -21.292   7.490  20.642  1.00  0.00     0.000 C 
BRANCH  17  18
ATOM     18  C   UNL     1     -20.701   6.253  19.942  1.00  0.00     0.000 C 
BRANCH  18  19
ATOM     19  C   UNL     1     -21.628   5.027  20.020  1.00  0.00     0.000 C 
BRANCH  19  20
ATOM     20  C   UNL     1     -21.147   3.984  21.043  1.00  0.00     0.000 C 
BRANCH  20  21
ATOM     21  C   UNL     1     -19.648   4.119  21.360  1.00  0.00     0.000 C 
BRANCH  21  22
ATOM     22  C   UNL     1     -19.358   4.193  22.870  1.00  0.00    -0.000 C 
BRANCH  22  23
ATOM     23  C   UNL     1     -20.601   4.113  23.776  1.00  0.00    -0.000 C 
BRANCH  23  24
ATOM     24  C   UNL     1     -20.268   4.294  25.267  1.00  0.00    -0.000 C 
BRANCH  24  25
ATOM     25  C   UNL     1     -21.301   5.162  26.004  1.00  0.00    -0.000 C 
BRANCH  25  26
ATOM     26  C   UNL     1     -21.892   4.458  27.235  1.00  0.00    -0.000 C 
BRANCH  26  27
ATOM     27  C   UNL     1     -22.879   5.373  27.970  1.00  0.00    -0.000 C 
BRANCH  27  28
ATOM     28  C   UNL     1     -22.134   6.442  28.786  1.00  0.00    -0.000 C 
BRANCH  28  29
ATOM     29  C   UNL     1     -23.073   7.255  29.690  1.00  0.00    -0.003 C 
ATOM     30  C   UNL     1     -23.864   6.381  30.663  1.00  0.00     0.004 C 
ENDBRANCH  28  29
ENDBRANCH  27  28
ENDBRANCH  26  27
ENDBRANCH  25  26
ENDBRANCH  24  25
ENDBRANCH  23  24
ENDBRANCH  22  23
ENDBRANCH  21  22
ENDBRANCH  20  21
ENDBRANCH  19  20
ENDBRANCH  18  19
ENDBRANCH  17  18
ENDBRANCH   1  17
TORSDOF 26
ENDMDL
MODEL 3
REMARK VINA RESULT:    -3.386      2.683      6.025
REMARK INTER + INTRA:         -14.247
REMARK INTER:                  -9.249
REMARK INTRA:                  -4.998
REMARK UNBOUND:                -5.714
REMARK SMILES CCCCCCCCCCCCCCCCCCCCCCCCCCCC(=O)[O-]
REMARK SMILES IDX 15 1 16 2 17 3 18 4 19 5 20 6 21 7 22 8 23 9 24 10 25 11
REMARK SMILES IDX 26 12 27 13 28 14 29 15 30 16 14 17 13 18 12 19 11 20 10 21
REMARK SMILES IDX 9 22 8 23 7 24 6 25 5 26 4 27 3 28 2 29 1 30
REMARK H PARENT
REMARK Flexibility Score: inf
ROOT
ATOM      1  C   UNL     1     -25.060   4.703  24.645  1.00  0.00     0.000 C 
ENDROOT
BRANCH   1   2
ATOM      2  C   UNL     1     -24.889   5.118  26.120  1.00  0.00     0.000 C 
BRANCH   2   3
ATOM      3  C   UNL     1     -23.601   4.617  26.796  1.00  0.00     0.000 C 
BRANCH   3   4
ATOM      4  C   UNL     1     -22.401   4.574  25.834  1.00  0.00     0.000 C 
BRANCH   4   5
ATOM      5  C   UNL     1     -21.823   3.158  25.674  1.00  0.00     0.000 C 
BRANCH   5   6
ATOM      6  C   UNL     1     -22.541   2.122  26.557  1.00  0.00     0.000 C 
BRANCH   6   7
ATOM      7  C   UNL     1     -23.041   0.909  25.757  1.00  0.00     0.000 C 
BRANCH   7   8
ATOM      8  C   UNL     1     -24.188   1.264  24.799  1.00  0.00     0.000 C 
BRANCH   8   9
ATOM      9  C   UNL     1     -23.845   0.871  23.357  1.00  0.00     0.000 C 
BRANCH   9  10
ATOM     10  C   UNL     1     -23.373   2.092  22.554  1.00  0.00     0.000 C 
BRANCH  10  11
ATOM     11  C   UNL     1     -21.981   1.898  21.925  1.00  0.00     0.000 C 
BRANCH  11  12
ATOM     12  C   UNL     1     -21.251   0.609  22.344  1.00  0.00     0.006 C 
BRANCH  12  13
ATOM     13  C   UNL     1     -20.605  -0.125  21.162  1.00  0.00     0.053 C 
BRANCH  13  14
ATOM     14  C   UNL     1     -19.706  -1.217  21.649  1.00  0.00     0.041 C 
ATOM     15  O   UNL     1     -20.134  -2.072  22.469  1.00  0.00    -0.550 OA
ATOM     16  O   UNL     1     -18.406  -1.314  21.168  1.00  0.00    -0.550 OA
ENDBRANCH  13  14
ENDBRANCH  12  13
ENDBRANCH  11  12
ENDBRANCH  10  11
ENDBRANCH   9  10
ENDBRANCH   8   9
ENDBRANCH   7   8
ENDBRANCH   6   7
ENDBRANCH   5   6
ENDBRANCH   4   5
ENDBRANCH   3   4
ENDBRANCH   2   3
ENDBRANCH   1   2
BRANCH   1  17
ATOM     17  C   UNL     1     -25.018   5.861  23.628  1.00  0.00     0.000 C 
BRANCH  17  18
ATOM     18  C   UNL     1     -23.784   5.871  22.708  1.00  0.00     0.000 C 
BRANCH  18  19
ATOM     19  C   UNL     1     -23.468   7.271  22.153  1.00  0.00     0.000 C 
BRANCH  19  20
ATOM     20  C   UNL     1     -21.991   7.431  21.755  1.00  0.00     0.000 C 
BRANCH  20  21
ATOM     21  C   UNL     1     -21.814   7.701  20.250  1.00  0.00     0.000 C 
BRANCH  21  22
ATOM     22  C   UNL     1     -21.151   6.528  19.505  1.00  0.00    -0.000 C 
BRANCH  22  23
ATOM     23  C   UNL     1     -21.269   5.161  20.205  1.00  0.00    -0.000 C 
BRANCH  23  24
ATOM     24  C   UNL     1     -19.904   4.496  20.455  1.00  0.00    -0.000 C 
BRANCH  24  25
ATOM     25  C   UNL     1     -18.959   5.378  21.286  1.00  0.00    -0.000 C 
BRANCH  25  26
ATOM     26  C   UNL     1     -19.262   5.314  22.790  1.00  0.00    -0.000 C 
BRANCH  26  27
ATOM     27  C   UNL     1     -19.236   3.865  23.294  1.00  0.00    -0.000 C 
BRANCH  27  28
ATOM     28  C   UNL     1     -17.812   3.292  23.247  1.00  0.00    -0.000 C 
BRANCH  28  29
ATOM     29  C   UNL     1     -17.776   1.837  22.752  1.00  0.00    -0.003 C 
ATOM     30  C   UNL     1     -17.403   0.846  23.853  1.00  0.00     0.004 C 
ENDBRANCH  28  29
ENDBRANCH  27  28
ENDBRANCH  26  27
ENDBRANCH  25  26
ENDBRANCH  24  25
ENDBRANCH  23  24
ENDBRANCH  22  23
ENDBRANCH  21  22
ENDBRANCH  20  21
ENDBRANCH  19  20
ENDBRANCH  18  19
ENDBRANCH  17  18
ENDBRANCH   1  17
TORSDOF 26
ENDMDL
MODEL 4
REMARK VINA RESULT:    -3.385      1.817      3.553
REMARK INTER + INTRA:         -14.245
REMARK INTER:                  -8.477
REMARK INTRA:                  -5.768
REMARK UNBOUND:                -5.714
REMARK SMILES CCCCCCCCCCCCCCCCCCCCCCCCCCCC(=O)[O-]
REMARK SMILES IDX 15 1 16 2 17 3 18 4 19 5 20 6 21 7 22 8 23 9 24 10 25 11
REMARK SMILES IDX 26 12 27 13 28 14 29 15 30 16 14 17 13 18 12 19 11 20 10 21
REMARK SMILES IDX 9 22 8 23 7 24 6 25 5 26 4 27 3 28 2 29 1 30
REMARK H PARENT
REMARK Flexibility Score: inf
ROOT
ATOM      1  C   UNL     1     -23.633   2.014  23.483  1.00  0.00     0.000 C 
ENDROOT
BRANCH   1   2
ATOM      2  C   UNL     1     -23.501   3.234  24.416  1.00  0.00     0.000 C 
BRANCH   2   3
ATOM      3  C   UNL     1     -22.156   3.979  24.332  1.00  0.00     0.000 C 
BRANCH   3   4
ATOM      4  C   UNL     1     -22.313   5.442  23.884  1.00  0.00     0.000 C 
BRANCH   4   5
ATOM      5  C   UNL     1     -23.648   5.700  23.167  1.00  0.00     0.000 C 
BRANCH   5   6
ATOM      6  C   UNL     1     -23.630   6.990  22.327  1.00  0.00     0.000 C 
BRANCH   6   7
ATOM      7  C   UNL     1     -22.214   7.380  21.876  1.00  0.00     0.000 C 
BRANCH   7   8
ATOM      8  C   UNL     1     -22.116   7.602  20.359  1.00  0.00     0.000 C 
BRANCH   8   9
ATOM      9  C   UNL     1     -21.175   6.579  19.712  1.00  0.00     0.000 C 
BRANCH   9  10
ATOM     10  C   UNL     1     -21.508   5.154  20.181  1.00  0.00     0.000 C 
BRANCH  10  11
ATOM     11  C   UNL     1     -20.282   4.395  20.721  1.00  0.00     0.000 C 
BRANCH  11  12
ATOM     12  C   UNL     1     -19.042   5.269  20.989  1.00  0.00     0.006 C 
BRANCH  12  13
ATOM     13  C   UNL     1     -18.908   5.682  22.460  1.00  0.00     0.053 C 
BRANCH  13  14
ATOM     14  C   UNL     1     -17.503   6.099  22.763  1.00  0.00     0.041 C 
ATOM     15  O   UNL     1     -17.280   7.176  23.375  1.00  0.00    -0.550 OA
ATOM     16  O   UNL     1     -16.442   5.278  22.403  1.00  0.00    -0.550 OA
ENDBRANCH  13  14
ENDBRANCH  12  13
ENDBRANCH  11  12
ENDBRANCH  10  11
ENDBRANCH   9  10
ENDBRANCH   8   9
ENDBRANCH   7   8
ENDBRANCH   6   7
ENDBRANCH   5   6
ENDBRANCH   4   5
ENDBRANCH   3   4
ENDBRANCH   2   3
ENDBRANCH   1   2
BRANCH   1  17
ATOM     17  C   UNL     1     -22.952   2.163  22.107  1.00  0.00     0.000 C 
BRANCH  17  18
ATOM     18  C   UNL     1     -22.036   0.992  21.708  1.00  0.00     0.000 C 
BRANCH  18  19
ATOM     19  C   UNL     1     -22.541  -0.364  22.233  1.00  0.00     0.000 C 
BRANCH  19  20
ATOM     20  C   UNL     1     -21.893  -1.557  21.512  1.00  0.00     0.000 C 
BRANCH  20  21
ATOM     21  C   UNL     1     -20.955  -2.360  22.429  1.00  0.00     0.000 C 
BRANCH  21  22
ATOM     22  C   UNL     1     -19.471  -1.998  22.235  1.00  0.00    -0.000 C 
BRANCH  22  23
ATOM     23  C   UNL     1     -19.182  -1.042  21.062  1.00  0.00    -0.000 C 
BRANCH  23  24
ATOM     24  C   UNL     1     -17.912  -0.200  21.275  1.00  0.00    -0.000 C 
BRANCH  24  25
ATOM     25  C   UNL     1     -18.179   1.310  21.178  1.00  0.00    -0.000 C 
BRANCH  25  26
ATOM     26  C   UNL     1     -17.935   2.039  22.508  1.00  0.00    -0.000 C 
BRANCH  26  27
ATOM     27  C   UNL     1     -19.183   1.988  23.399  1.00  0.00    -0.000 C 
BRANCH  27  28
ATOM     28  C   UNL     1     -18.931   1.130  24.649  1.00  0.00    -0.000 C 
BRANCH  28  29
ATOM     29  C   UNL     1     -20.128   0.233  25.000  1.00  0.00    -0.003 C 
ATOM     30  C   UNL     1     -21.082   0.881  26.002  1.00  0.00     0.004 C 
ENDBRANCH  28  29
ENDBRANCH  27  28
ENDBRANCH  26  27
ENDBRANCH  25  26
ENDBRANCH  24  25
ENDBRANCH  23  24
ENDBRANCH  22  23
ENDBRANCH  21  22
ENDBRANCH  20  21
ENDBRANCH  19  20
ENDBRANCH  18  19
ENDBRANCH  17  18
ENDBRANCH   1  17
TORSDOF 26
ENDMDL
MODEL 5
REMARK VINA RESULT:    -3.354      2.065      4.550
REMARK INTER + INTRA:         -14.167
REMARK INTER:                  -9.447
REMARK INTRA:                  -4.720
REMARK UNBOUND:                -5.714
REMARK SMILES CCCCCCCCCCCCCCCCCCCCCCCCCCCC(=O)[O-]
REMARK SMILES IDX 15 1 16 2 17 3 18 4 19 5 20 6 21 7 22 8 23 9 24 10 25 11
REMARK SMILES IDX 26 12 27 13 28 14 29 15 30 16 14 17 13 18 12 19 11 20 10 21
REMARK SMILES IDX 9 22 8 23 7 24 6 25 5 26 4 27 3 28 2 29 1 30
REMARK H PARENT
REMARK Flexibility Score: inf
ROOT
ATOM      1  C   UNL     1     -23.739   5.688  22.973  1.00  0.00     0.000 C 
ENDROOT
BRANCH   1   2
ATOM      2  C   UNL     1     -24.979   5.519  23.874  1.00  0.00     0.000 C 
BRANCH   2   3
ATOM      3  C   UNL     1     -24.933   4.316  24.833  1.00  0.00     0.000 C 
BRANCH   3   4
ATOM      4  C   UNL     1     -24.223   3.095  24.223  1.00  0.00     0.000 C 
BRANCH   4   5
ATOM      5  C   UNL     1     -23.014   2.639  25.056  1.00  0.00     0.000 C 
BRANCH   5   6
ATOM      6  C   UNL     1     -22.282   3.813  25.731  1.00  0.00     0.000 C 
BRANCH   6   7
ATOM      7  C   UNL     1     -20.911   4.096  25.097  1.00  0.00     0.000 C 
BRANCH   7   8
ATOM      8  C   UNL     1     -20.702   5.584  24.779  1.00  0.00     0.000 C 
BRANCH   8   9
ATOM      9  C   UNL     1     -19.213   5.909  24.611  1.00  0.00     0.000 C 
BRANCH   9  10
ATOM     10  C   UNL     1     -18.903   6.333  23.168  1.00  0.00     0.000 C 
BRANCH  10  11
ATOM     11  C   UNL     1     -17.593   5.727  22.630  1.00  0.00     0.000 C 
BRANCH  11  12
ATOM     12  C   UNL     1     -17.362   5.915  21.119  1.00  0.00     0.006 C 
BRANCH  12  13
ATOM     13  C   UNL     1     -16.160   5.119  20.594  1.00  0.00     0.053 C 
BRANCH  13  14
ATOM     14  C   UNL     1     -16.434   3.650  20.661  1.00  0.00     0.041 C 
ATOM     15  O   UNL     1     -17.233   3.116  19.847  1.00  0.00    -0.550 OA
ATOM     16  O   UNL     1     -15.777   2.862  21.598  1.00  0.00    -0.550 OA
ENDBRANCH  13  14
ENDBRANCH  12  13
ENDBRANCH  11  12
ENDBRANCH  10  11
ENDBRANCH   9  10
ENDBRANCH   8   9
ENDBRANCH   7   8
ENDBRANCH   6   7
ENDBRANCH   5   6
ENDBRANCH   4   5
ENDBRANCH   3   4
ENDBRANCH   2   3
ENDBRANCH   1   2
BRANCH   1  17
ATOM     17  C   UNL     1     -23.603   7.066  22.294  1.00  0.00     0.000 C 
BRANCH  17  18
ATOM     18  C   UNL     1     -22.168   7.451  21.893  1.00  0.00     0.000 C 
BRANCH  18  19
ATOM     19  C   UNL     1     -22.068   7.931  20.433  1.00  0.00     0.000 C 
BRANCH  19  20
ATOM     20  C   UNL     1     -21.171   7.026  19.572  1.00  0.00     0.000 C 
BRANCH  20  21
ATOM     21  C   UNL     1     -21.577   5.544  19.658  1.00  0.00     0.000 C 
BRANCH  21  22
ATOM     22  C   UNL     1     -20.499   4.665  20.318  1.00  0.00    -0.000 C 
BRANCH  22  23
ATOM     23  C   UNL     1     -21.012   3.726  21.425  1.00  0.00    -0.000 C 
BRANCH  23  24
ATOM     24  C   UNL     1     -20.148   2.463  21.588  1.00  0.00    -0.000 C 
BRANCH  24  25
ATOM     25  C   UNL     1     -20.870   1.347  22.361  1.00  0.00    -0.000 C 
BRANCH  25  26
ATOM     26  C   UNL     1     -22.263   1.042  21.792  1.00  0.00    -0.000 C 
BRANCH  26  27
ATOM     27  C   UNL     1     -22.707  -0.380  22.159  1.00  0.00    -0.000 C 
BRANCH  27  28
ATOM     28  C   UNL     1     -21.920  -1.427  21.356  1.00  0.00    -0.000 C 
BRANCH  28  29
ATOM     29  C   UNL     1     -21.238  -2.470  22.254  1.00  0.00    -0.003 C 
ATOM     30  C   UNL     1     -19.746  -2.201  22.449  1.00  0.00     0.004 C 
ENDBRANCH  28  29
ENDBRANCH  27  28
ENDBRANCH  26  27
ENDBRANCH  25  26
ENDBRANCH  24  25
ENDBRANCH  23  24
ENDBRANCH  22  23
ENDBRANCH  21  22
ENDBRANCH  20  21
ENDBRANCH  19  20
ENDBRANCH  18  19
ENDBRANCH  17  18
ENDBRANCH   1  17
TORSDOF 26
ENDMDL
MODEL 6
REMARK VINA RESULT:    -3.332      2.700      6.411
REMARK INTER + INTRA:         -14.111
REMARK INTER:                  -9.335
REMARK INTRA:                  -4.776
REMARK UNBOUND:                -5.714
REMARK SMILES CCCCCCCCCCCCCCCCCCCCCCCCCCCC(=O)[O-]
REMARK SMILES IDX 15 1 16 2 17 3 18 4 19 5 20 6 21 7 22 8 23 9 24 10 25 11
REMARK SMILES IDX 26 12 27 13 28 14 29 15 30 16 14 17 13 18 12 19 11 20 10 21
REMARK SMILES IDX 9 22 8 23 7 24 6 25 5 26 4 27 3 28 2 29 1 30
REMARK H PARENT
REMARK Flexibility Score: inf
ROOT
ATOM      1  C   UNL     1     -23.588   5.454  23.532  1.00  0.00     0.000 C 
ENDROOT
BRANCH   1   2
ATOM      2  C   UNL     1     -24.733   4.870  24.384  1.00  0.00     0.000 C 
BRANCH   2   3
ATOM      3  C   UNL     1     -24.289   3.947  25.533  1.00  0.00     0.000 C 
BRANCH   3   4
ATOM      4  C   UNL     1     -23.582   2.674  25.037  1.00  0.00     0.000 C 
BRANCH   4   5
ATOM      5  C   UNL     1     -24.414   1.905  23.997  1.00  0.00     0.000 C 
BRANCH   5   6
ATOM      6  C   UNL     1     -23.638   1.644  22.693  1.00  0.00     0.000 C 
BRANCH   6   7
ATOM      7  C   UNL     1     -22.888   0.303  22.711  1.00  0.00     0.000 C 
BRANCH   7   8
ATOM      8  C   UNL     1     -22.334  -0.083  21.331  1.00  0.00     0.000 C 
BRANCH   8   9
ATOM      9  C   UNL     1     -22.091  -1.594  21.238  1.00  0.00     0.000 C 
BRANCH   9  10
ATOM     10  C   UNL     1     -22.002  -2.222  22.637  1.00  0.00     0.000 C 
BRANCH  10  11
ATOM     11  C   UNL     1     -20.626  -2.847  22.931  1.00  0.00     0.000 C 
BRANCH  11  12
ATOM     12  C   UNL     1     -19.501  -1.836  23.223  1.00  0.00     0.006 C 
BRANCH  12  13
ATOM     13  C   UNL     1     -18.176  -2.202  22.543  1.00  0.00     0.053 C 
BRANCH  13  14
ATOM     14  C   UNL     1     -17.877  -1.248  21.429  1.00  0.00     0.041 C 
ATOM     15  O   UNL     1     -18.791  -0.528  20.949  1.00  0.00    -0.550 OA
ATOM     16  O   UNL     1     -16.579  -1.128  20.947  1.00  0.00    -0.550 OA
ENDBRANCH  13  14
ENDBRANCH  12  13
ENDBRANCH  11  12
ENDBRANCH  10  11
ENDBRANCH   9  10
ENDBRANCH   8   9
ENDBRANCH   7   8
ENDBRANCH   6   7
ENDBRANCH   5   6
ENDBRANCH   4   5
ENDBRANCH   3   4
ENDBRANCH   2   3
ENDBRANCH   1   2
BRANCH   1  17
ATOM     17  C   UNL     1     -24.015   6.511  22.494  1.00  0.00     0.000 C 
BRANCH  17  18
ATOM     18  C   UNL     1     -22.868   7.377  21.942  1.00  0.00     0.000 C 
BRANCH  18  19
ATOM     19  C   UNL     1     -21.478   6.816  22.294  1.00  0.00     0.000 C 
BRANCH  19  20
ATOM     20  C   UNL     1     -20.669   6.414  21.049  1.00  0.00     0.000 C 
BRANCH  20  21
ATOM     21  C   UNL     1     -21.340   5.282  20.253  1.00  0.00     0.000 C 
BRANCH  21  22
ATOM     22  C   UNL     1     -21.396   3.954  21.030  1.00  0.00    -0.000 C 
BRANCH  22  23
ATOM     23  C   UNL     1     -20.047   3.224  21.170  1.00  0.00    -0.000 C 
BRANCH  23  24
ATOM     24  C   UNL     1     -19.928   2.433  22.484  1.00  0.00    -0.000 C 
BRANCH  24  25
ATOM     25  C   UNL     1     -20.152   3.311  23.726  1.00  0.00    -0.000 C 
BRANCH  25  26
ATOM     26  C   UNL     1     -19.000   4.298  23.966  1.00  0.00    -0.000 C 
BRANCH  26  27
ATOM     27  C   UNL     1     -19.467   5.493  24.807  1.00  0.00    -0.000 C 
BRANCH  27  28
ATOM     28  C   UNL     1     -20.742   5.148  25.593  1.00  0.00    -0.000 C 
BRANCH  28  29
ATOM     29  C   UNL     1     -20.572   5.339  27.108  1.00  0.00    -0.003 C 
ATOM     30  C   UNL     1     -21.899   5.569  27.828  1.00  0.00     0.004 C 
ENDBRANCH  28  29
ENDBRANCH  27  28
ENDBRANCH  26  27
ENDBRANCH  25  26
ENDBRANCH  24  25
ENDBRANCH  23  24
ENDBRANCH  22  23
ENDBRANCH  21  22
ENDBRANCH  20  21
ENDBRANCH  19  20
ENDBRANCH  18  19
ENDBRANCH  17  18
ENDBRANCH   1  17
TORSDOF 26
ENDMDL
MODEL 7
REMARK VINA RESULT:    -3.329      2.153      4.841
REMARK INTER + INTRA:         -14.104
REMARK INTER:                  -9.006
REMARK INTRA:                  -5.098
REMARK UNBOUND:                -5.714
REMARK SMILES CCCCCCCCCCCCCCCCCCCCCCCCCCCC(=O)[O-]
REMARK SMILES IDX 15 1 16 2 17 3 18 4 19 5 20 6 21 7 22 8 23 9 24 10 25 11
REMARK SMILES IDX 26 12 27 13 28 14 29 15 30 16 14 17 13 18 12 19 11 20 10 21
REMARK SMILES IDX 9 22 8 23 7 24 6 25 5 26 4 27 3 28 2 29 1 30
REMARK H PARENT
REMARK Flexibility Score: inf
ROOT
ATOM      1  C   UNL     1     -21.319   7.000  22.980  1.00  0.00     0.000 C 
ENDROOT
BRANCH   1   2
ATOM      2  C   UNL     1     -20.208   6.244  22.223  1.00  0.00     0.000 C 
BRANCH   2   3
ATOM      3  C   UNL     1     -20.362   6.217  20.691  1.00  0.00     0.000 C 
BRANCH   3   4
ATOM      4  C   UNL     1     -20.800   4.842  20.160  1.00  0.00     0.000 C 
BRANCH   4   5
ATOM      5  C   UNL     1     -21.244   3.890  21.284  1.00  0.00     0.000 C 
BRANCH   5   6
ATOM      6  C   UNL     1     -20.502   2.542  21.246  1.00  0.00     0.000 C 
BRANCH   6   7
ATOM      7  C   UNL     1     -19.449   2.417  22.359  1.00  0.00     0.000 C 
BRANCH   7   8
ATOM      8  C   UNL     1     -20.069   2.446  23.764  1.00  0.00     0.000 C 
BRANCH   8   9
ATOM      9  C   UNL     1     -19.166   3.200  24.749  1.00  0.00     0.000 C 
BRANCH   9  10
ATOM     10  C   UNL     1     -19.887   4.430  25.321  1.00  0.00     0.000 C 
BRANCH  10  11
ATOM     11  C   UNL     1     -21.225   4.083  25.998  1.00  0.00     0.000 C 
BRANCH  11  12
ATOM     12  C   UNL     1     -21.961   5.276  26.636  1.00  0.00     0.006 C 
BRANCH  12  13
ATOM     13  C   UNL     1     -23.041   4.847  27.637  1.00  0.00     0.053 C 
BRANCH  13  14
ATOM     14  C   UNL     1     -22.929   5.638  28.902  1.00  0.00     0.041 C 
ATOM     15  O   UNL     1     -22.491   5.097  29.951  1.00  0.00    -0.550 OA
ATOM     16  O   UNL     1     -23.273   6.984  28.913  1.00  0.00    -0.550 OA
ENDBRANCH  13  14
ENDBRANCH  12  13
ENDBRANCH  11  12
ENDBRANCH  10  11
ENDBRANCH   9  10
ENDBRANCH   8   9
ENDBRANCH   7   8
ENDBRANCH   6   7
ENDBRANCH   5   6
ENDBRANCH   4   5
ENDBRANCH   3   4
ENDBRANCH   2   3
ENDBRANCH   1   2
BRANCH   1  17
ATOM     17  C   UNL     1     -22.512   7.452  22.114  1.00  0.00     0.000 C 
BRANCH  17  18
ATOM     18  C   UNL     1     -23.859   6.799  22.475  1.00  0.00     0.000 C 
BRANCH  18  19
ATOM     19  C   UNL     1     -23.690   5.485  23.259  1.00  0.00     0.000 C 
BRANCH  19  20
ATOM     20  C   UNL     1     -24.918   5.148  24.122  1.00  0.00     0.000 C 
BRANCH  20  21
ATOM     21  C   UNL     1     -24.915   3.687  24.603  1.00  0.00     0.000 C 
BRANCH  21  22
ATOM     22  C   UNL     1     -23.701   2.890  24.091  1.00  0.00    -0.000 C 
BRANCH  22  23
ATOM     23  C   UNL     1     -24.038   1.536  23.438  1.00  0.00    -0.000 C 
BRANCH  23  24
ATOM     24  C   UNL     1     -23.166   0.383  23.964  1.00  0.00    -0.000 C 
BRANCH  24  25
ATOM     25  C   UNL     1     -23.141  -0.823  23.012  1.00  0.00    -0.000 C 
BRANCH  25  26
ATOM     26  C   UNL     1     -22.485  -0.495  21.662  1.00  0.00    -0.000 C 
BRANCH  26  27
ATOM     27  C   UNL     1     -21.483  -1.584  21.259  1.00  0.00    -0.000 C 
BRANCH  27  28
ATOM     28  C   UNL     1     -20.093  -0.983  21.000  1.00  0.00    -0.000 C 
BRANCH  28  29
ATOM     29  C   UNL     1     -19.027  -1.522  21.966  1.00  0.00    -0.003 C 
ATOM     30  C   UNL     1     -19.370  -1.263  23.432  1.00  0.00     0.004 C 
ENDBRANCH  28  29
ENDBRANCH  27  28
ENDBRANCH  26  27
ENDBRANCH  25  26
ENDBRANCH  24  25
ENDBRANCH  23  24
ENDBRANCH  22  23
ENDBRANCH  21  22
ENDBRANCH  20  21
ENDBRANCH  19  20
ENDBRANCH  18  19
ENDBRANCH  17  18
ENDBRANCH   1  17
TORSDOF 26
ENDMDL
MODEL 8
REMARK VINA RESULT:    -3.304      2.436      5.632
REMARK INTER + INTRA:         -14.040
REMARK INTER:                  -8.761
REMARK INTRA:                  -5.279
REMARK UNBOUND:                -5.714
REMARK SMILES CCCCCCCCCCCCCCCCCCCCCCCCCCCC(=O)[O-]
REMARK SMILES IDX 15 1 16 2 17 3 18 4 19 5 20 6 21 7 22 8 23 9 24 10 25 11
REMARK SMILES IDX 26 12 27 13 28 14 29 15 30 16 14 17 13 18 12 19 11 20 10 21
REMARK SMILES IDX 9 22 8 23 7 24 6 25 5 26 4 27 3 28 2 29 1 30
REMARK H PARENT
REMARK Flexibility Score: inf
ROOT
ATOM      1  C   UNL     1     -24.905   5.111  24.070  1.00  0.00     0.000 C 
ENDROOT
BRANCH   1   2
ATOM      2  C   UNL     1     -24.650   4.789  25.557  1.00  0.00     0.000 C 
BRANCH   2   3
ATOM      3  C   UNL     1     -24.687   3.293  25.918  1.00  0.00     0.000 C 
BRANCH   3   4
ATOM      4  C   UNL     1     -23.411   2.546  25.491  1.00  0.00     0.000 C 
BRANCH   4   5
ATOM      5  C   UNL     1     -23.644   1.036  25.314  1.00  0.00     0.000 C 
BRANCH   5   6
ATOM      6  C   UNL     1     -23.666   0.610  23.835  1.00  0.00     0.000 C 
BRANCH   6   7
ATOM      7  C   UNL     1     -23.672   1.810  22.875  1.00  0.00     0.000 C 
BRANCH   7   8
ATOM      8  C   UNL     1     -22.642   1.669  21.745  1.00  0.00     0.000 C 
BRANCH   8   9
ATOM      9  C   UNL     1     -21.846   0.366  21.885  1.00  0.00     0.000 C 
BRANCH   9  10
ATOM     10  C   UNL     1     -20.394   0.558  21.421  1.00  0.00     0.000 C 
BRANCH  10  11
ATOM     11  C   UNL     1     -19.532  -0.705  21.600  1.00  0.00     0.000 C 
BRANCH  11  12
ATOM     12  C   UNL     1     -18.084  -0.446  22.054  1.00  0.00     0.006 C 
BRANCH  12  13
ATOM     13  C   UNL     1     -17.697   1.038  22.003  1.00  0.00     0.053 C 
BRANCH  13  14
ATOM     14  C   UNL     1     -16.876   1.325  20.785  1.00  0.00     0.041 C 
ATOM     15  O   UNL     1     -17.339   2.049  19.865  1.00  0.00    -0.550 OA
ATOM     16  O   UNL     1     -15.585   0.822  20.682  1.00  0.00    -0.550 OA
ENDBRANCH  13  14
ENDBRANCH  12  13
ENDBRANCH  11  12
ENDBRANCH  10  11
ENDBRANCH   9  10
ENDBRANCH   8   9
ENDBRANCH   7   8
ENDBRANCH   6   7
ENDBRANCH   5   6
ENDBRANCH   4   5
ENDBRANCH   3   4
ENDBRANCH   2   3
ENDBRANCH   1   2
BRANCH   1  17
ATOM     17  C   UNL     1     -23.649   5.479  23.254  1.00  0.00     0.000 C 
BRANCH  17  18
ATOM     18  C   UNL     1     -23.769   6.772  22.429  1.00  0.00     0.000 C 
BRANCH  18  19
ATOM     19  C   UNL     1     -22.409   7.454  22.190  1.00  0.00     0.000 C 
BRANCH  19  20
ATOM     20  C   UNL     1     -22.125   7.703  20.699  1.00  0.00     0.000 C 
BRANCH  20  21
ATOM     21  C   UNL     1     -21.007   6.797  20.155  1.00  0.00     0.000 C 
BRANCH  21  22
ATOM     22  C   UNL     1     -21.450   5.331  19.991  1.00  0.00    -0.000 C 
BRANCH  22  23
ATOM     23  C   UNL     1     -20.510   4.292  20.629  1.00  0.00    -0.000 C 
BRANCH  23  24
ATOM     24  C   UNL     1     -19.145   4.881  21.025  1.00  0.00    -0.000 C 
BRANCH  24  25
ATOM     25  C   UNL     1     -18.805   4.646  22.505  1.00  0.00    -0.000 C 
BRANCH  25  26
ATOM     26  C   UNL     1     -19.779   5.359  23.454  1.00  0.00    -0.000 C 
BRANCH  26  27
ATOM     27  C   UNL     1     -20.329   4.389  24.508  1.00  0.00    -0.000 C 
BRANCH  27  28
ATOM     28  C   UNL     1     -20.144   2.930  24.062  1.00  0.00    -0.000 C 
BRANCH  28  29
ATOM     29  C   UNL     1     -19.751   2.003  25.223  1.00  0.00    -0.003 C 
ATOM     30  C   UNL     1     -18.965   2.724  26.317  1.00  0.00     0.004 C 
ENDBRANCH  28  29
ENDBRANCH  27  28
ENDBRANCH  26  27
ENDBRANCH  25  26
ENDBRANCH  24  25
ENDBRANCH  23  24
ENDBRANCH  22  23
ENDBRANCH  21  22
ENDBRANCH  20  21
ENDBRANCH  19  20
ENDBRANCH  18  19
ENDBRANCH  17  18
ENDBRANCH   1  17
TORSDOF 26
ENDMDL
MODEL 9
REMARK VINA RESULT:    -3.289      2.368      3.366
REMARK INTER + INTRA:         -14.003
REMARK INTER:                  -9.378
REMARK INTRA:                  -4.625
REMARK UNBOUND:                -5.714
REMARK SMILES CCCCCCCCCCCCCCCCCCCCCCCCCCCC(=O)[O-]
REMARK SMILES IDX 15 1 16 2 17 3 18 4 19 5 20 6 21 7 22 8 23 9 24 10 25 11
REMARK SMILES IDX 26 12 27 13 28 14 29 15 30 16 14 17 13 18 12 19 11 20 10 21
REMARK SMILES IDX 9 22 8 23 7 24 6 25 5 26 4 27 3 28 2 29 1 30
REMARK H PARENT
REMARK Flexibility Score: inf
ROOT
ATOM      1  C   UNL     1     -24.978   5.070  25.727  1.00  0.00     0.000 C 
ENDROOT
BRANCH   1   2
ATOM      2  C   UNL     1     -25.125   5.152  24.194  1.00  0.00     0.000 C 
BRANCH   2   3
ATOM      3  C   UNL     1     -23.818   5.412  23.424  1.00  0.00     0.000 C 
BRANCH   3   4
ATOM      4  C   UNL     1     -23.909   6.628  22.487  1.00  0.00     0.000 C 
BRANCH   4   5
ATOM      5  C   UNL     1     -22.577   7.388  22.375  1.00  0.00     0.000 C 
BRANCH   5   6
ATOM      6  C   UNL     1     -22.216   7.740  20.921  1.00  0.00     0.000 C 
BRANCH   6   7
ATOM      7  C   UNL     1     -21.015   6.934  20.399  1.00  0.00     0.000 C 
BRANCH   7   8
ATOM      8  C   UNL     1     -21.434   5.618  19.727  1.00  0.00     0.000 C 
BRANCH   8   9
ATOM      9  C   UNL     1     -21.180   4.422  20.652  1.00  0.00     0.000 C 
BRANCH   9  10
ATOM     10  C   UNL     1     -20.037   4.721  21.634  1.00  0.00     0.000 C 
BRANCH  10  11
ATOM     11  C   UNL     1     -19.025   3.567  21.752  1.00  0.00     0.000 C 
BRANCH  11  12
ATOM     12  C   UNL     1     -19.438   2.265  21.040  1.00  0.00     0.006 C 
BRANCH  12  13
ATOM     13  C   UNL     1     -19.014   1.004  21.805  1.00  0.00     0.053 C 
BRANCH  13  14
ATOM     14  C   UNL     1     -17.622   0.604  21.429  1.00  0.00     0.041 C 
ATOM     15  O   UNL     1     -17.157   0.913  20.301  1.00  0.00    -0.550 OA
ATOM     16  O   UNL     1     -16.824  -0.077  22.340  1.00  0.00    -0.550 OA
ENDBRANCH  13  14
ENDBRANCH  12  13
ENDBRANCH  11  12
ENDBRANCH  10  11
ENDBRANCH   9  10
ENDBRANCH   8   9
ENDBRANCH   7   8
ENDBRANCH   6   7
ENDBRANCH   5   6
ENDBRANCH   4   5
ENDBRANCH   3   4
ENDBRANCH   2   3
ENDBRANCH   1   2
BRANCH   1  17
ATOM     17  C   UNL     1     -24.305   3.786  26.254  1.00  0.00     0.000 C 
BRANCH  17  18
ATOM     18  C   UNL     1     -23.239   4.013  27.341  1.00  0.00     0.000 C 
BRANCH  18  19
ATOM     19  C   UNL     1     -22.505   5.356  27.182  1.00  0.00     0.000 C 
BRANCH  19  20
ATOM     20  C   UNL     1     -21.301   5.264  26.228  1.00  0.00     0.000 C 
BRANCH  20  21
ATOM     21  C   UNL     1     -20.510   3.957  26.405  1.00  0.00     0.000 C 
BRANCH  21  22
ATOM     22  C   UNL     1     -20.352   3.169  25.091  1.00  0.00    -0.000 C 
BRANCH  22  23
ATOM     23  C   UNL     1     -21.418   2.085  24.850  1.00  0.00    -0.000 C 
BRANCH  23  24
ATOM     24  C   UNL     1     -22.100   2.210  23.477  1.00  0.00    -0.000 C 
BRANCH  24  25
ATOM     25  C   UNL     1     -23.490   1.555  23.443  1.00  0.00    -0.000 C 
BRANCH  25  26
ATOM     26  C   UNL     1     -23.505   0.168  24.104  1.00  0.00    -0.000 C 
BRANCH  26  27
ATOM     27  C   UNL     1     -22.575  -0.802  23.364  1.00  0.00    -0.000 C 
BRANCH  27  28
ATOM     28  C   UNL     1     -22.744  -0.673  21.842  1.00  0.00    -0.000 C 
BRANCH  28  29
ATOM     29  C   UNL     1     -21.841  -1.643  21.064  1.00  0.00    -0.003 C 
ATOM     30  C   UNL     1     -22.153  -1.670  19.568  1.00  0.00     0.004 C 
ENDBRANCH  28  29
ENDBRANCH  27  28
ENDBRANCH  26  27
ENDBRANCH  25  26
ENDBRANCH  24  25
ENDBRANCH  23  24
ENDBRANCH  22  23
ENDBRANCH  21  22
ENDBRANCH  20  21
ENDBRANCH  19  20
ENDBRANCH  18  19
ENDBRANCH  17  18
ENDBRANCH   1  17
TORSDOF 26
ENDMDL
