MODEL 1
REMARK VINA RESULT:    -4.309      0.000      0.000
REMARK INTER + INTRA:          -9.346
REMARK INTER:                  -7.835
REMARK INTRA:                  -1.511
REMARK UNBOUND:                -1.511
REMARK SMILES CCCCCCCCCCCCCCCC(=O)[O-]
REMARK SMILES IDX 9 1 10 2 11 3 12 4 13 5 14 6 15 7 16 8 17 9 18 10 8 11 7 12
REMARK SMILES IDX 6 13 5 14 4 15 3 16 2 17 1 18
REMARK H PARENT
REMARK Flexibility Score: inf
ROOT
ATOM      1  C   UNL     1      -7.890  14.787   0.453  1.00  0.00     0.000 C 
ENDROOT
BRANCH   1   2
ATOM      2  C   UNL     1      -9.016  15.316  -0.450  1.00  0.00     0.000 C 
BRANCH   2   3
ATOM      3  C   UNL     1      -8.898  16.824  -0.722  1.00  0.00     0.000 C 
BRANCH   3   4
ATOM      4  C   UNL     1      -8.879  17.159  -2.224  1.00  0.00     0.000 C 
BRANCH   4   5
ATOM      5  C   UNL     1      -8.656  15.904  -3.095  1.00  0.00     0.000 C 
BRANCH   5   6
ATOM      6  C   UNL     1      -8.476  16.217  -4.590  1.00  0.00     0.006 C 
BRANCH   6   7
ATOM      7  C   UNL     1      -8.599  14.974  -5.480  1.00  0.00     0.053 C 
BRANCH   7   8
ATOM      8  C   UNL     1      -7.401  14.844  -6.365  1.00  0.00     0.041 C 
ATOM      9  O   UNL     1      -6.247  14.776  -5.865  1.00  0.00    -0.550 OA
ATOM     10  O   UNL     1      -7.560  14.747  -7.742  1.00  0.00    -0.550 OA
ENDBRANCH   7   8
ENDBRANCH   6   7
ENDBRANCH   5   6
ENDBRANCH   4   5
ENDBRANCH   3   4
ENDBRANCH   2   3
ENDBRANCH   1   2
BRANCH   1  11
ATOM     11  C   UNL     1      -6.644  15.687   0.434  1.00  0.00     0.000 C 
BRANCH  11  12
ATOM     12  C   UNL     1      -6.204  16.127   1.841  1.00  0.00    -0.000 C 
BRANCH  12  13
ATOM     13  C   UNL     1      -6.526  17.612   2.112  1.00  0.00    -0.000 C 
BRANCH  13  14
ATOM     14  C   UNL     1      -7.472  17.831   3.305  1.00  0.00    -0.000 C 
BRANCH  14  15
ATOM     15  C   UNL     1      -8.602  16.791   3.370  1.00  0.00    -0.000 C 
BRANCH  15  16
ATOM     16  C   UNL     1      -9.937  17.320   2.815  1.00  0.00    -0.000 C 
BRANCH  16  17
ATOM     17  C   UNL     1     -10.262  18.779   3.180  1.00  0.00    -0.003 C 
ATOM     18  C   UNL     1     -11.737  19.000   3.516  1.00  0.00     0.004 C 
ENDBRANCH  16  17
ENDBRANCH  15  16
ENDBRANCH  14  15
ENDBRANCH  13  14
ENDBRANCH  12  13
ENDBRANCH  11  12
ENDBRANCH   1  11
TORSDOF 14
ENDMDL
MODEL 2
REMARK VINA RESULT:    -4.225      1.718      3.852
REMARK INTER + INTRA:          -9.194
REMARK INTER:                  -7.327
REMARK INTRA:                  -1.867
REMARK UNBOUND:                -1.511
REMARK SMILES CCCCCCCCCCCCCCCC(=O)[O-]
REMARK SMILES IDX 9 1 10 2 11 3 12 4 13 5 14 6 15 7 16 8 17 9 18 10 8 11 7 12
REMARK SMILES IDX 6 13 5 14 4 15 3 16 2 17 1 18
REMARK H PARENT
REMARK Flexibility Score: inf
ROOT
ATOM      1  C   UNL     1      -8.720  16.934  -1.700  1.00  0.00     0.000 C 
ENDROOT
BRANCH   1   2
ATOM      2  C   UNL     1      -8.819  16.263  -3.080  1.00  0.00     0.000 C 
BRANCH   2   3
ATOM      3  C   UNL     1      -9.089  14.752  -2.985  1.00  0.00     0.000 C 
BRANCH   3   4
ATOM      4  C   UNL     1      -8.181  13.925  -3.913  1.00  0.00     0.000 C 
BRANCH   4   5
ATOM      5  C   UNL     1      -6.821  14.613  -4.158  1.00  0.00     0.000 C 
BRANCH   5   6
ATOM      6  C   UNL     1      -6.342  14.526  -5.617  1.00  0.00     0.006 C 
BRANCH   6   7
ATOM      7  C   UNL     1      -7.241  15.299  -6.589  1.00  0.00     0.053 C 
BRANCH   7   8
ATOM      8  C   UNL     1      -7.776  14.387  -7.646  1.00  0.00     0.041 C 
ATOM      9  O   UNL     1      -8.349  14.861  -8.662  1.00  0.00    -0.550 OA
ATOM     10  O   UNL     1      -7.596  13.014  -7.536  1.00  0.00    -0.550 OA
ENDBRANCH   7   8
ENDBRANCH   6   7
ENDBRANCH   5   6
ENDBRANCH   4   5
ENDBRANCH   3   4
ENDBRANCH   2   3
ENDBRANCH   1   2
BRANCH   1  11
ATOM     11  C   UNL     1      -9.950  16.661  -0.820  1.00  0.00     0.000 C 
BRANCH  11  12
ATOM     12  C   UNL     1      -9.588  16.003   0.523  1.00  0.00    -0.000 C 
BRANCH  12  13
ATOM     13  C   UNL     1      -9.159  17.043   1.581  1.00  0.00    -0.000 C 
BRANCH  13  14
ATOM     14  C   UNL     1      -7.825  16.708   2.271  1.00  0.00    -0.000 C 
BRANCH  14  15
ATOM     15  C   UNL     1      -6.616  16.848   1.332  1.00  0.00    -0.000 C 
BRANCH  15  16
ATOM     16  C   UNL     1      -5.949  15.500   1.007  1.00  0.00    -0.000 C 
BRANCH  16  17
ATOM     17  C   UNL     1      -6.045  15.063  -0.466  1.00  0.00    -0.003 C 
ATOM     18  C   UNL     1      -6.095  13.545  -0.640  1.00  0.00     0.004 C 
ENDBRANCH  16  17
ENDBRANCH  15  16
ENDBRANCH  14  15
ENDBRANCH  13  14
ENDBRANCH  12  13
ENDBRANCH  11  12
ENDBRANCH   1  11
TORSDOF 14
ENDMDL
MODEL 3
REMARK VINA RESULT:    -4.221      4.388      6.710
REMARK INTER + INTRA:          -9.186
REMARK INTER:                  -7.078
REMARK INTRA:                  -2.108
REMARK UNBOUND:                -1.511
REMARK SMILES CCCCCCCCCCCCCCCC(=O)[O-]
REMARK SMILES IDX 9 1 10 2 11 3 12 4 13 5 14 6 15 7 16 8 17 9 18 10 8 11 7 12
REMARK SMILES IDX 6 13 5 14 4 15 3 16 2 17 1 18
REMARK H PARENT
REMARK Flexibility Score: inf
ROOT
ATOM      1  C   UNL     1      -6.720  14.562  -2.714  1.00  0.00     0.000 C 
ENDROOT
BRANCH   1   2
ATOM      2  C   UNL     1      -6.084  14.943  -1.368  1.00  0.00     0.000 C 
BRANCH   2   3
ATOM      3  C   UNL     1      -6.110  13.789  -0.353  1.00  0.00     0.000 C 
BRANCH   3   4
ATOM      4  C   UNL     1      -6.376  14.266   1.086  1.00  0.00     0.000 C 
BRANCH   4   5
ATOM      5  C   UNL     1      -5.865  15.704   1.323  1.00  0.00     0.000 C 
BRANCH   5   6
ATOM      6  C   UNL     1      -6.364  16.324   2.639  1.00  0.00     0.006 C 
BRANCH   6   7
ATOM      7  C   UNL     1      -6.667  17.822   2.516  1.00  0.00     0.053 C 
BRANCH   7   8
ATOM      8  C   UNL     1      -6.644  18.473   3.863  1.00  0.00     0.041 C 
ATOM      9  O   UNL     1      -6.167  17.861   4.855  1.00  0.00    -0.550 OA
ATOM     10  O   UNL     1      -7.101  19.776   4.014  1.00  0.00    -0.550 OA
ENDBRANCH   7   8
ENDBRANCH   6   7
ENDBRANCH   5   6
ENDBRANCH   4   5
ENDBRANCH   3   4
ENDBRANCH   2   3
ENDBRANCH   1   2
BRANCH   1  11
ATOM     11  C   UNL     1      -8.129  13.966  -2.555  1.00  0.00     0.000 C 
BRANCH  11  12
ATOM     12  C   UNL     1      -9.235  14.904  -3.070  1.00  0.00    -0.000 C 
BRANCH  12  13
ATOM     13  C   UNL     1      -8.686  16.300  -3.439  1.00  0.00    -0.000 C 
BRANCH  13  14
ATOM     14  C   UNL     1      -8.786  17.325  -2.297  1.00  0.00    -0.000 C 
BRANCH  14  15
ATOM     15  C   UNL     1      -9.867  16.964  -1.264  1.00  0.00    -0.000 C 
BRANCH  15  16
ATOM     16  C   UNL     1      -9.296  16.736   0.148  1.00  0.00    -0.000 C 
BRANCH  16  17
ATOM     17  C   UNL     1      -9.921  15.563   0.922  1.00  0.00    -0.003 C 
ATOM     18  C   UNL     1     -10.019  15.820   2.426  1.00  0.00     0.004 C 
ENDBRANCH  16  17
ENDBRANCH  15  16
ENDBRANCH  14  15
ENDBRANCH  13  14
ENDBRANCH  12  13
ENDBRANCH  11  12
ENDBRANCH   1  11
TORSDOF 14
ENDMDL
MODEL 4
REMARK VINA RESULT:    -4.202      4.054      6.132
REMARK INTER + INTRA:          -9.152
REMARK INTER:                  -6.948
REMARK INTRA:                  -2.204
REMARK UNBOUND:                -1.511
REMARK SMILES CCCCCCCCCCCCCCCC(=O)[O-]
REMARK SMILES IDX 9 1 10 2 11 3 12 4 13 5 14 6 15 7 16 8 17 9 18 10 8 11 7 12
REMARK SMILES IDX 6 13 5 14 4 15 3 16 2 17 1 18
REMARK H PARENT
REMARK Flexibility Score: inf
ROOT
ATOM      1  C   UNL     1      -8.427  15.409  -3.055  1.00  0.00     0.000 C 
ENDROOT
BRANCH   1   2
ATOM      2  C   UNL     1      -8.719  16.871  -2.678  1.00  0.00     0.000 C 
BRANCH   2   3
ATOM      3  C   UNL     1      -9.588  16.995  -1.417  1.00  0.00     0.000 C 
BRANCH   3   4
ATOM      4  C   UNL     1     -10.171  15.646  -0.959  1.00  0.00     0.000 C 
BRANCH   4   5
ATOM      5  C   UNL     1     -10.276  15.552   0.578  1.00  0.00     0.000 C 
BRANCH   5   6
ATOM      6  C   UNL     1      -9.922  16.862   1.300  1.00  0.00     0.006 C 
BRANCH   6   7
ATOM      7  C   UNL     1     -10.604  16.994   2.667  1.00  0.00     0.053 C 
BRANCH   7   8
ATOM      8  C   UNL     1     -10.571  18.415   3.133  1.00  0.00     0.041 C 
ATOM      9  O   UNL     1      -9.472  18.973   3.390  1.00  0.00    -0.550 OA
ATOM     10  O   UNL     1     -11.751  19.141   3.235  1.00  0.00    -0.550 OA
ENDBRANCH   7   8
ENDBRANCH   6   7
ENDBRANCH   5   6
ENDBRANCH   4   5
ENDBRANCH   3   4
ENDBRANCH   2   3
ENDBRANCH   1   2
BRANCH   1  11
ATOM     11  C   UNL     1      -7.006  14.970  -2.664  1.00  0.00     0.000 C 
BRANCH  11  12
ATOM     12  C   UNL     1      -6.997  13.786  -1.682  1.00  0.00    -0.000 C 
BRANCH  12  13
ATOM     13  C   UNL     1      -6.347  14.157  -0.332  1.00  0.00    -0.000 C 
BRANCH  13  14
ATOM     14  C   UNL     1      -6.500  15.641   0.040  1.00  0.00    -0.000 C 
BRANCH  14  15
ATOM     15  C   UNL     1      -5.712  16.024   1.305  1.00  0.00    -0.000 C 
BRANCH  15  16
ATOM     16  C   UNL     1      -6.429  17.085   2.159  1.00  0.00    -0.000 C 
BRANCH  16  17
ATOM     17  C   UNL     1      -6.715  16.667   3.612  1.00  0.00    -0.003 C 
ATOM     18  C   UNL     1      -7.475  15.345   3.718  1.00  0.00     0.004 C 
ENDBRANCH  16  17
ENDBRANCH  15  16
ENDBRANCH  14  15
ENDBRANCH  13  14
ENDBRANCH  12  13
ENDBRANCH  11  12
ENDBRANCH   1  11
TORSDOF 14
ENDMDL
MODEL 5
REMARK VINA RESULT:    -4.177      2.000      4.288
REMARK INTER + INTRA:          -9.106
REMARK INTER:                  -7.322
REMARK INTRA:                  -1.784
REMARK UNBOUND:                -1.511
REMARK SMILES CCCCCCCCCCCCCCCC(=O)[O-]
REMARK SMILES IDX 9 1 10 2 11 3 12 4 13 5 14 6 15 7 16 8 17 9 18 10 8 11 7 12
REMARK SMILES IDX 6 13 5 14 4 15 3 16 2 17 1 18
REMARK H PARENT
REMARK Flexibility Score: inf
ROOT
ATOM      1  C   UNL     1      -9.449  15.035  -3.212  1.00  0.00     0.000 C 
ENDROOT
BRANCH   1   2
ATOM      2  C   UNL     1      -8.597  13.822  -3.621  1.00  0.00     0.000 C 
BRANCH   2   3
ATOM      3  C   UNL     1      -9.376  12.816  -4.484  1.00  0.00     0.000 C 
BRANCH   3   4
ATOM      4  C   UNL     1     -10.498  13.478  -5.305  1.00  0.00     0.000 C 
BRANCH   4   5
ATOM      5  C   UNL     1     -10.260  13.346  -6.824  1.00  0.00     0.000 C 
BRANCH   5   6
ATOM      6  C   UNL     1      -9.878  14.671  -7.504  1.00  0.00     0.006 C 
BRANCH   6   7
ATOM      7  C   UNL     1      -8.496  14.626  -8.168  1.00  0.00     0.053 C 
BRANCH   7   8
ATOM      8  C   UNL     1      -7.418  14.604  -7.131  1.00  0.00     0.041 C 
ATOM      9  O   UNL     1      -7.223  15.610  -6.398  1.00  0.00    -0.550 OA
ATOM     10  O   UNL     1      -6.662  13.456  -6.937  1.00  0.00    -0.550 OA
ENDBRANCH   7   8
ENDBRANCH   6   7
ENDBRANCH   5   6
ENDBRANCH   4   5
ENDBRANCH   3   4
ENDBRANCH   2   3
ENDBRANCH   1   2
BRANCH   1  11
ATOM     11  C   UNL     1      -8.649  16.349  -3.219  1.00  0.00     0.000 C 
BRANCH  11  12
ATOM     12  C   UNL     1      -9.028  17.284  -2.058  1.00  0.00    -0.000 C 
BRANCH  12  13
ATOM     13  C   UNL     1      -9.941  16.587  -1.026  1.00  0.00    -0.000 C 
BRANCH  13  14
ATOM     14  C   UNL     1      -9.599  16.933   0.434  1.00  0.00    -0.000 C 
BRANCH  14  15
ATOM     15  C   UNL     1      -8.547  15.989   1.040  1.00  0.00    -0.000 C 
BRANCH  15  16
ATOM     16  C   UNL     1      -7.117  16.554   0.958  1.00  0.00    -0.000 C 
BRANCH  16  17
ATOM     17  C   UNL     1      -6.033  15.531   0.573  1.00  0.00    -0.003 C 
ATOM     18  C   UNL     1      -6.205  14.978  -0.841  1.00  0.00     0.004 C 
ENDBRANCH  16  17
ENDBRANCH  15  16
ENDBRANCH  14  15
ENDBRANCH  13  14
ENDBRANCH  12  13
ENDBRANCH  11  12
ENDBRANCH   1  11
TORSDOF 14
ENDMDL
MODEL 6
REMARK VINA RESULT:    -4.134      4.091      8.025
REMARK INTER + INTRA:          -9.029
REMARK INTER:                  -7.175
REMARK INTRA:                  -1.853
REMARK UNBOUND:                -1.511
REMARK SMILES CCCCCCCCCCCCCCCC(=O)[O-]
REMARK SMILES IDX 9 1 10 2 11 3 12 4 13 5 14 6 15 7 16 8 17 9 18 10 8 11 7 12
REMARK SMILES IDX 6 13 5 14 4 15 3 16 2 17 1 18
REMARK H PARENT
REMARK Flexibility Score: inf
ROOT
ATOM      1  C   UNL     1      -8.747  16.459  -3.158  1.00  0.00     0.000 C 
ENDROOT
BRANCH   1   2
ATOM      2  C   UNL     1      -8.819  17.317  -1.884  1.00  0.00     0.000 C 
BRANCH   2   3
ATOM      3  C   UNL     1      -9.722  16.699  -0.804  1.00  0.00     0.000 C 
BRANCH   3   4
ATOM      4  C   UNL     1      -9.003  16.524   0.545  1.00  0.00     0.000 C 
BRANCH   4   5
ATOM      5  C   UNL     1      -7.504  16.197   0.366  1.00  0.00     0.000 C 
BRANCH   5   6
ATOM      6  C   UNL     1      -6.584  16.997   1.304  1.00  0.00     0.006 C 
BRANCH   6   7
ATOM      7  C   UNL     1      -6.567  16.447   2.735  1.00  0.00     0.053 C 
BRANCH   7   8
ATOM      8  C   UNL     1      -6.814  17.545   3.720  1.00  0.00     0.041 C 
ATOM      9  O   UNL     1      -7.546  18.522   3.411  1.00  0.00    -0.550 OA
ATOM     10  O   UNL     1      -6.278  17.465   4.999  1.00  0.00    -0.550 OA
ENDBRANCH   7   8
ENDBRANCH   6   7
ENDBRANCH   5   6
ENDBRANCH   4   5
ENDBRANCH   3   4
ENDBRANCH   2   3
ENDBRANCH   1   2
BRANCH   1  11
ATOM     11  C   UNL     1      -9.274  15.031  -2.940  1.00  0.00     0.000 C 
BRANCH  11  12
ATOM     12  C   UNL     1      -8.151  13.980  -2.912  1.00  0.00    -0.000 C 
BRANCH  12  13
ATOM     13  C   UNL     1      -6.829  14.527  -3.491  1.00  0.00    -0.000 C 
BRANCH  13  14
ATOM     14  C   UNL     1      -6.518  14.021  -4.910  1.00  0.00    -0.000 C 
BRANCH  14  15
ATOM     15  C   UNL     1      -6.809  15.070  -5.995  1.00  0.00    -0.000 C 
BRANCH  15  16
ATOM     16  C   UNL     1      -7.817  14.579  -7.050  1.00  0.00    -0.000 C 
BRANCH  16  17
ATOM     17  C   UNL     1      -9.295  14.828  -6.705  1.00  0.00    -0.003 C 
ATOM     18  C   UNL     1     -10.030  13.563  -6.262  1.00  0.00     0.004 C 
ENDBRANCH  16  17
ENDBRANCH  15  16
ENDBRANCH  14  15
ENDBRANCH  13  14
ENDBRANCH  12  13
ENDBRANCH  11  12
ENDBRANCH   1  11
TORSDOF 14
ENDMDL
MODEL 7
REMARK VINA RESULT:    -4.113      1.723      3.638
REMARK INTER + INTRA:          -8.991
REMARK INTER:                  -6.995
REMARK INTRA:                  -1.996
REMARK UNBOUND:                -1.511
REMARK SMILES CCCCCCCCCCCCCCCC(=O)[O-]
REMARK SMILES IDX 9 1 10 2 11 3 12 4 13 5 14 6 15 7 16 8 17 9 18 10 8 11 7 12
REMARK SMILES IDX 6 13 5 14 4 15 3 16 2 17 1 18
REMARK H PARENT
REMARK Flexibility Score: inf
ROOT
ATOM      1  C   UNL     1      -9.794  16.216  -0.756  1.00  0.00     0.000 C 
ENDROOT
BRANCH   1   2
ATOM      2  C   UNL     1      -9.058  17.063  -1.806  1.00  0.00     0.000 C 
BRANCH   2   3
ATOM      3  C   UNL     1      -8.731  16.271  -3.083  1.00  0.00     0.000 C 
BRANCH   3   4
ATOM      4  C   UNL     1      -9.273  14.831  -3.046  1.00  0.00     0.000 C 
BRANCH   4   5
ATOM      5  C   UNL     1      -9.430  14.235  -4.462  1.00  0.00     0.000 C 
BRANCH   5   6
ATOM      6  C   UNL     1      -8.764  15.079  -5.562  1.00  0.00     0.006 C 
BRANCH   6   7
ATOM      7  C   UNL     1      -9.202  14.673  -6.974  1.00  0.00     0.053 C 
BRANCH   7   8
ATOM      8  C   UNL     1      -8.043  14.125  -7.744  1.00  0.00     0.041 C 
ATOM      9  O   UNL     1      -6.935  13.939  -7.176  1.00  0.00    -0.550 OA
ATOM     10  O   UNL     1      -8.200  13.772  -9.078  1.00  0.00    -0.550 OA
ENDBRANCH   7   8
ENDBRANCH   6   7
ENDBRANCH   5   6
ENDBRANCH   4   5
ENDBRANCH   3   4
ENDBRANCH   2   3
ENDBRANCH   1   2
BRANCH   1  11
ATOM     11  C   UNL     1      -9.782  16.861   0.639  1.00  0.00     0.000 C 
BRANCH  11  12
ATOM     12  C   UNL     1      -9.232  15.921   1.726  1.00  0.00    -0.000 C 
BRANCH  12  13
ATOM     13  C   UNL     1      -7.938  16.469   2.367  1.00  0.00    -0.000 C 
BRANCH  13  14
ATOM     14  C   UNL     1      -6.850  16.837   1.344  1.00  0.00    -0.000 C 
BRANCH  14  15
ATOM     15  C   UNL     1      -5.957  15.643   0.967  1.00  0.00    -0.000 C 
BRANCH  15  16
ATOM     16  C   UNL     1      -6.026  15.292  -0.530  1.00  0.00    -0.000 C 
BRANCH  16  17
ATOM     17  C   UNL     1      -6.290  13.807  -0.840  1.00  0.00    -0.003 C 
ATOM     18  C   UNL     1      -7.424  13.213  -0.005  1.00  0.00     0.004 C 
ENDBRANCH  16  17
ENDBRANCH  15  16
ENDBRANCH  14  15
ENDBRANCH  13  14
ENDBRANCH  12  13
ENDBRANCH  11  12
ENDBRANCH   1  11
TORSDOF 14
ENDMDL
MODEL 8
REMARK VINA RESULT:    -4.073      1.482      3.387
REMARK INTER + INTRA:          -8.917
REMARK INTER:                  -6.566
REMARK INTRA:                  -2.351
REMARK UNBOUND:                -1.511
REMARK SMILES CCCCCCCCCCCCCCCC(=O)[O-]
REMARK SMILES IDX 9 1 10 2 11 3 12 4 13 5 14 6 15 7 16 8 17 9 18 10 8 11 7 12
REMARK SMILES IDX 6 13 5 14 4 15 3 16 2 17 1 18
REMARK H PARENT
REMARK Flexibility Score: inf
ROOT
ATOM      1  C   UNL     1     -10.054  15.635   1.644  1.00  0.00     0.000 C 
ENDROOT
BRANCH   1   2
ATOM      2  C   UNL     1      -9.899  16.796   0.648  1.00  0.00     0.000 C 
BRANCH   2   3
ATOM      3  C   UNL     1      -9.809  16.317  -0.810  1.00  0.00     0.000 C 
BRANCH   3   4
ATOM      4  C   UNL     1      -9.104  17.331  -1.728  1.00  0.00     0.000 C 
BRANCH   4   5
ATOM      5  C   UNL     1      -8.602  16.680  -3.034  1.00  0.00     0.000 C 
BRANCH   5   6
ATOM      6  C   UNL     1      -8.611  15.142  -2.997  1.00  0.00     0.006 C 
BRANCH   6   7
ATOM      7  C   UNL     1      -7.369  14.522  -3.649  1.00  0.00     0.053 C 
BRANCH   7   8
ATOM      8  C   UNL     1      -7.461  14.609  -5.139  1.00  0.00     0.041 C 
ATOM      9  O   UNL     1      -8.575  14.486  -5.714  1.00  0.00    -0.550 OA
ATOM     10  O   UNL     1      -6.325  14.876  -5.891  1.00  0.00    -0.550 OA
ENDBRANCH   7   8
ENDBRANCH   6   7
ENDBRANCH   5   6
ENDBRANCH   4   5
ENDBRANCH   3   4
ENDBRANCH   2   3
ENDBRANCH   1   2
BRANCH   1  11
ATOM     11  C   UNL     1      -9.335  15.899   2.977  1.00  0.00     0.000 C 
BRANCH  11  12
ATOM     12  C   UNL     1      -8.628  17.266   3.013  1.00  0.00    -0.000 C 
BRANCH  12  13
ATOM     13  C   UNL     1      -7.091  17.123   3.037  1.00  0.00    -0.000 C 
BRANCH  13  14
ATOM     14  C   UNL     1      -6.438  17.239   1.649  1.00  0.00    -0.000 C 
BRANCH  14  15
ATOM     15  C   UNL     1      -5.730  15.945   1.213  1.00  0.00    -0.000 C 
BRANCH  15  16
ATOM     16  C   UNL     1      -6.295  15.364  -0.096  1.00  0.00    -0.000 C 
BRANCH  16  17
ATOM     17  C   UNL     1      -6.606  13.857  -0.059  1.00  0.00    -0.003 C 
ATOM     18  C   UNL     1      -7.156  13.390   1.288  1.00  0.00     0.004 C 
ENDBRANCH  16  17
ENDBRANCH  15  16
ENDBRANCH  14  15
ENDBRANCH  13  14
ENDBRANCH  12  13
ENDBRANCH  11  12
ENDBRANCH   1  11
TORSDOF 14
ENDMDL
MODEL 9
REMARK VINA RESULT:    -4.011      1.353      2.651
REMARK INTER + INTRA:          -8.804
REMARK INTER:                  -6.407
REMARK INTRA:                  -2.397
REMARK UNBOUND:                -1.511
REMARK SMILES CCCCCCCCCCCCCCCC(=O)[O-]
REMARK SMILES IDX 9 1 10 2 11 3 12 4 13 5 14 6 15 7 16 8 17 9 18 10 8 11 7 12
REMARK SMILES IDX 6 13 5 14 4 15 3 16 2 17 1 18
REMARK H PARENT
REMARK Flexibility Score: inf
ROOT
ATOM      1  C   UNL     1     -10.464  14.470  -0.496  1.00  0.00     0.000 C 
ENDROOT
BRANCH   1   2
ATOM      2  C   UNL     1     -10.662  15.653  -1.457  1.00  0.00     0.000 C 
BRANCH   2   3
ATOM      3  C   UNL     1      -9.774  16.857  -1.103  1.00  0.00     0.000 C 
BRANCH   3   4
ATOM      4  C   UNL     1      -8.801  17.233  -2.235  1.00  0.00     0.000 C 
BRANCH   4   5
ATOM      5  C   UNL     1      -8.732  16.144  -3.327  1.00  0.00     0.000 C 
BRANCH   5   6
ATOM      6  C   UNL     1      -7.460  15.283  -3.256  1.00  0.00     0.006 C 
BRANCH   6   7
ATOM      7  C   UNL     1      -7.642  13.896  -3.885  1.00  0.00     0.053 C 
BRANCH   7   8
ATOM      8  C   UNL     1      -7.085  13.873  -5.273  1.00  0.00     0.041 C 
ATOM      9  O   UNL     1      -6.355  14.816  -5.678  1.00  0.00    -0.550 OA
ATOM     10  O   UNL     1      -7.329  12.787  -6.103  1.00  0.00    -0.550 OA
ENDBRANCH   7   8
ENDBRANCH   6   7
ENDBRANCH   5   6
ENDBRANCH   4   5
ENDBRANCH   3   4
ENDBRANCH   2   3
ENDBRANCH   1   2
BRANCH   1  11
ATOM     11  C   UNL     1      -9.176  14.590   0.334  1.00  0.00     0.000 C 
BRANCH  11  12
ATOM     12  C   UNL     1      -8.143  13.502  -0.007  1.00  0.00    -0.000 C 
BRANCH  12  13
ATOM     13  C   UNL     1      -6.701  13.950   0.313  1.00  0.00    -0.000 C 
BRANCH  13  14
ATOM     14  C   UNL     1      -6.460  15.455   0.103  1.00  0.00    -0.000 C 
BRANCH  14  15
ATOM     15  C   UNL     1      -5.878  16.146   1.347  1.00  0.00    -0.000 C 
BRANCH  15  16
ATOM     16  C   UNL     1      -6.804  17.237   1.915  1.00  0.00    -0.000 C 
BRANCH  16  17
ATOM     17  C   UNL     1      -7.931  16.725   2.829  1.00  0.00    -0.003 C 
ATOM     18  C   UNL     1      -9.227  17.522   2.688  1.00  0.00     0.004 C 
ENDBRANCH  16  17
ENDBRANCH  15  16
ENDBRANCH  14  15
ENDBRANCH  13  14
ENDBRANCH  12  13
ENDBRANCH  11  12
ENDBRANCH   1  11
TORSDOF 14
ENDMDL
