MODEL 1
REMARK VINA RESULT:    -4.421      0.000      0.000
REMARK INTER + INTRA:         -11.090
REMARK INTER:                  -8.556
REMARK INTRA:                  -2.533
REMARK UNBOUND:                -2.533
REMARK SMILES CCCCCCCCCCCCCCCCCC(=O)[O-]
REMARK SMILES IDX 10 1 11 2 12 3 13 4 14 5 15 6 16 7 17 8 18 9 19 10 20 11
REMARK SMILES IDX 9 12 8 13 7 14 6 15 5 16 4 17 3 18 2 19 1 20
REMARK H PARENT
REMARK Flexibility Score: inf
ROOT
ATOM      1  C   UNL     1      54.172  43.274  50.886  1.00  0.00     0.000 C 
ENDROOT
BRANCH   1   2
ATOM      2  C   UNL     1      52.652  43.045  50.829  1.00  0.00     0.000 C 
BRANCH   2   3
ATOM      3  C   UNL     1      52.055  42.548  52.163  1.00  0.00     0.000 C 
BRANCH   3   4
ATOM      4  C   UNL     1      52.256  41.036  52.356  1.00  0.00     0.000 C 
BRANCH   4   5
ATOM      5  C   UNL     1      52.178  40.251  51.035  1.00  0.00     0.000 C 
BRANCH   5   6
ATOM      6  C   UNL     1      53.149  39.051  50.981  1.00  0.00     0.000 C 
BRANCH   6   7
ATOM      7  C   UNL     1      54.593  39.488  50.679  1.00  0.00     0.006 C 
BRANCH   7   8
ATOM      8  C   UNL     1      55.450  38.329  50.153  1.00  0.00     0.053 C 
BRANCH   8   9
ATOM      9  C   UNL     1      56.672  38.119  50.997  1.00  0.00     0.041 C 
ATOM     10  O   UNL     1      57.745  37.725  50.469  1.00  0.00    -0.550 OA
ATOM     11  O   UNL     1      56.613  38.317  52.370  1.00  0.00    -0.550 OA
ENDBRANCH   8   9
ENDBRANCH   7   8
ENDBRANCH   6   7
ENDBRANCH   5   6
ENDBRANCH   4   5
ENDBRANCH   3   4
ENDBRANCH   2   3
ENDBRANCH   1   2
BRANCH   1  12
ATOM     12  C   UNL     1      54.687  44.129  49.715  1.00  0.00     0.000 C 
BRANCH  12  13
ATOM     13  C   UNL     1      53.554  44.657  48.815  1.00  0.00    -0.000 C 
BRANCH  13  14
ATOM     14  C   UNL     1      53.526  44.074  47.390  1.00  0.00    -0.000 C 
BRANCH  14  15
ATOM     15  C   UNL     1      52.120  43.786  46.831  1.00  0.00    -0.000 C 
BRANCH  15  16
ATOM     16  C   UNL     1      51.660  42.325  47.031  1.00  0.00    -0.000 C 
BRANCH  16  17
ATOM     17  C   UNL     1      52.731  41.465  47.724  1.00  0.00    -0.000 C 
BRANCH  17  18
ATOM     18  C   UNL     1      52.902  40.088  47.062  1.00  0.00    -0.000 C 
BRANCH  18  19
ATOM     19  C   UNL     1      54.373  39.741  46.794  1.00  0.00    -0.003 C 
ATOM     20  C   UNL     1      55.292  40.894  47.188  1.00  0.00     0.004 C 
ENDBRANCH  18  19
ENDBRANCH  17  18
ENDBRANCH  16  17
ENDBRANCH  15  16
ENDBRANCH  14  15
ENDBRANCH  13  14
ENDBRANCH  12  13
ENDBRANCH   1  12
TORSDOF 16
ENDMDL
MODEL 2
REMARK VINA RESULT:    -4.385      1.463      4.196
REMARK INTER + INTRA:         -11.020
REMARK INTER:                  -8.182
REMARK INTRA:                  -2.838
REMARK UNBOUND:                -2.533
REMARK SMILES CCCCCCCCCCCCCCCCCC(=O)[O-]
REMARK SMILES IDX 10 1 11 2 12 3 13 4 14 5 15 6 16 7 17 8 18 9 19 10 20 11
REMARK SMILES IDX 9 12 8 13 7 14 6 15 5 16 4 17 3 18 2 19 1 20
REMARK H PARENT
REMARK Flexibility Score: inf
ROOT
ATOM      1  C   UNL     1      52.935  39.946  47.447  1.00  0.00     0.000 C 
ENDROOT
BRANCH   1   2
ATOM      2  C   UNL     1      54.343  40.566  47.476  1.00  0.00     0.000 C 
BRANCH   2   3
ATOM      3  C   UNL     1      55.228  40.027  48.621  1.00  0.00     0.000 C 
BRANCH   3   4
ATOM      4  C   UNL     1      54.978  38.535  48.889  1.00  0.00     0.000 C 
BRANCH   4   5
ATOM      5  C   UNL     1      55.130  38.161  50.373  1.00  0.00     0.000 C 
BRANCH   5   6
ATOM      6  C   UNL     1      55.753  39.290  51.224  1.00  0.00     0.000 C 
BRANCH   6   7
ATOM      7  C   UNL     1      57.229  39.014  51.560  1.00  0.00     0.006 C 
BRANCH   7   8
ATOM      8  C   UNL     1      57.390  38.272  52.894  1.00  0.00     0.053 C 
BRANCH   8   9
ATOM      9  C   UNL     1      58.326  37.107  52.767  1.00  0.00     0.041 C 
ATOM     10  O   UNL     1      58.471  36.529  51.657  1.00  0.00    -0.550 OA
ATOM     11  O   UNL     1      59.004  36.633  53.883  1.00  0.00    -0.550 OA
ENDBRANCH   8   9
ENDBRANCH   7   8
ENDBRANCH   6   7
ENDBRANCH   5   6
ENDBRANCH   4   5
ENDBRANCH   3   4
ENDBRANCH   2   3
ENDBRANCH   1   2
BRANCH   1  12
ATOM     12  C   UNL     1      51.951  40.663  48.386  1.00  0.00     0.000 C 
BRANCH  12  13
ATOM     13  C   UNL     1      51.639  39.853  49.658  1.00  0.00    -0.000 C 
BRANCH  13  14
ATOM     14  C   UNL     1      52.234  40.424  50.959  1.00  0.00    -0.000 C 
BRANCH  14  15
ATOM     15  C   UNL     1      52.328  41.960  51.014  1.00  0.00    -0.000 C 
BRANCH  15  16
ATOM     16  C   UNL     1      53.775  42.490  51.110  1.00  0.00    -0.000 C 
BRANCH  16  17
ATOM     17  C   UNL     1      54.189  43.289  49.862  1.00  0.00    -0.000 C 
BRANCH  17  18
ATOM     18  C   UNL     1      53.021  44.078  49.250  1.00  0.00    -0.000 C 
BRANCH  18  19
ATOM     19  C   UNL     1      53.265  44.448  47.780  1.00  0.00    -0.003 C 
ATOM     20  C   UNL     1      52.194  43.846  46.875  1.00  0.00     0.004 C 
ENDBRANCH  18  19
ENDBRANCH  17  18
ENDBRANCH  16  17
ENDBRANCH  15  16
ENDBRANCH  14  15
ENDBRANCH  13  14
ENDBRANCH  12  13
ENDBRANCH   1  12
TORSDOF 16
ENDMDL
MODEL 3
REMARK VINA RESULT:    -4.377      2.145      4.423
REMARK INTER + INTRA:         -11.004
REMARK INTER:                  -8.415
REMARK INTRA:                  -2.589
REMARK UNBOUND:                -2.533
REMARK SMILES CCCCCCCCCCCCCCCCCC(=O)[O-]
REMARK SMILES IDX 10 1 11 2 12 3 13 4 14 5 15 6 16 7 17 8 18 9 19 10 20 11
REMARK SMILES IDX 9 12 8 13 7 14 6 15 5 16 4 17 3 18 2 19 1 20
REMARK H PARENT
REMARK Flexibility Score: inf
ROOT
ATOM      1  C   UNL     1      55.456  39.994  48.623  1.00  0.00     0.000 C 
ENDROOT
BRANCH   1   2
ATOM      2  C   UNL     1      55.135  38.528  48.962  1.00  0.00     0.000 C 
BRANCH   2   3
ATOM      3  C   UNL     1      54.768  38.306  50.445  1.00  0.00     0.000 C 
BRANCH   3   4
ATOM      4  C   UNL     1      54.144  39.560  51.078  1.00  0.00     0.000 C 
BRANCH   4   5
ATOM      5  C   UNL     1      52.607  39.509  51.111  1.00  0.00     0.000 C 
BRANCH   5   6
ATOM      6  C   UNL     1      51.967  40.800  51.668  1.00  0.00     0.000 C 
BRANCH   6   7
ATOM      7  C   UNL     1      52.773  41.386  52.840  1.00  0.00     0.006 C 
BRANCH   7   8
ATOM      8  C   UNL     1      53.264  42.811  52.550  1.00  0.00     0.053 C 
BRANCH   8   9
ATOM      9  C   UNL     1      54.451  43.169  53.394  1.00  0.00     0.041 C 
ATOM     10  O   UNL     1      54.763  42.453  54.383  1.00  0.00    -0.550 OA
ATOM     11  O   UNL     1      55.186  44.313  53.114  1.00  0.00    -0.550 OA
ENDBRANCH   8   9
ENDBRANCH   7   8
ENDBRANCH   6   7
ENDBRANCH   5   6
ENDBRANCH   4   5
ENDBRANCH   3   4
ENDBRANCH   2   3
ENDBRANCH   1   2
BRANCH   1  12
ATOM     12  C   UNL     1      54.696  40.496  47.383  1.00  0.00     0.000 C 
BRANCH  12  13
ATOM     13  C   UNL     1      53.416  39.688  47.097  1.00  0.00    -0.000 C 
BRANCH  13  14
ATOM     14  C   UNL     1      52.111  40.332  47.604  1.00  0.00    -0.000 C 
BRANCH  14  15
ATOM     15  C   UNL     1      52.253  41.778  48.115  1.00  0.00    -0.000 C 
BRANCH  15  16
ATOM     16  C   UNL     1      52.127  42.844  47.004  1.00  0.00    -0.000 C 
BRANCH  16  17
ATOM     17  C   UNL     1      52.570  44.238  47.480  1.00  0.00    -0.000 C 
BRANCH  17  18
ATOM     18  C   UNL     1      53.043  44.242  48.942  1.00  0.00    -0.000 C 
BRANCH  18  19
ATOM     19  C   UNL     1      54.519  44.644  49.083  1.00  0.00    -0.003 C 
ATOM     20  C   UNL     1      55.364  43.473  49.577  1.00  0.00     0.004 C 
ENDBRANCH  18  19
ENDBRANCH  17  18
ENDBRANCH  16  17
ENDBRANCH  15  16
ENDBRANCH  14  15
ENDBRANCH  13  14
ENDBRANCH  12  13
ENDBRANCH   1  12
TORSDOF 16
ENDMDL
MODEL 4
REMARK VINA RESULT:    -4.327      2.133      4.288
REMARK INTER + INTRA:         -10.908
REMARK INTER:                  -7.936
REMARK INTRA:                  -2.973
REMARK UNBOUND:                -2.533
REMARK SMILES CCCCCCCCCCCCCCCCCC(=O)[O-]
REMARK SMILES IDX 10 1 11 2 12 3 13 4 14 5 15 6 16 7 17 8 18 9 19 10 20 11
REMARK SMILES IDX 9 12 8 13 7 14 6 15 5 16 4 17 3 18 2 19 1 20
REMARK H PARENT
REMARK Flexibility Score: inf
ROOT
ATOM      1  C   UNL     1      52.155  43.414  46.679  1.00  0.00     0.000 C 
ENDROOT
BRANCH   1   2
ATOM      2  C   UNL     1      51.887  42.063  47.364  1.00  0.00     0.000 C 
BRANCH   2   3
ATOM      3  C   UNL     1      52.921  40.974  47.000  1.00  0.00     0.000 C 
BRANCH   3   4
ATOM      4  C   UNL     1      53.209  40.036  48.184  1.00  0.00     0.000 C 
BRANCH   4   5
ATOM      5  C   UNL     1      52.150  40.136  49.295  1.00  0.00     0.000 C 
BRANCH   5   6
ATOM      6  C   UNL     1      52.759  40.354  50.698  1.00  0.00     0.000 C 
BRANCH   6   7
ATOM      7  C   UNL     1      51.738  40.944  51.686  1.00  0.00     0.006 C 
BRANCH   7   8
ATOM      8  C   UNL     1      52.196  42.294  52.255  1.00  0.00     0.053 C 
BRANCH   8   9
ATOM      9  C   UNL     1      53.370  42.137  53.174  1.00  0.00     0.041 C 
ATOM     10  O   UNL     1      54.453  42.729  52.924  1.00  0.00    -0.550 OA
ATOM     11  O   UNL     1      53.280  41.305  54.282  1.00  0.00    -0.550 OA
ENDBRANCH   8   9
ENDBRANCH   7   8
ENDBRANCH   6   7
ENDBRANCH   5   6
ENDBRANCH   4   5
ENDBRANCH   3   4
ENDBRANCH   2   3
ENDBRANCH   1   2
BRANCH   1  12
ATOM     12  C   UNL     1      52.890  44.408  47.594  1.00  0.00     0.000 C 
BRANCH  12  13
ATOM     13  C   UNL     1      52.989  43.919  49.052  1.00  0.00    -0.000 C 
BRANCH  13  14
ATOM     14  C   UNL     1      54.413  43.894  49.637  1.00  0.00    -0.000 C 
BRANCH  14  15
ATOM     15  C   UNL     1      55.417  43.011  48.872  1.00  0.00    -0.000 C 
BRANCH  15  16
ATOM     16  C   UNL     1      55.960  41.827  49.701  1.00  0.00    -0.000 C 
BRANCH  16  17
ATOM     17  C   UNL     1      56.959  40.967  48.908  1.00  0.00    -0.000 C 
BRANCH  17  18
ATOM     18  C   UNL     1      57.136  39.563  49.505  1.00  0.00    -0.000 C 
BRANCH  18  19
ATOM     19  C   UNL     1      56.248  39.330  50.737  1.00  0.00    -0.003 C 
ATOM     20  C   UNL     1      55.450  38.036  50.603  1.00  0.00     0.004 C 
ENDBRANCH  18  19
ENDBRANCH  17  18
ENDBRANCH  16  17
ENDBRANCH  15  16
ENDBRANCH  14  15
ENDBRANCH  13  14
ENDBRANCH  12  13
ENDBRANCH   1  12
TORSDOF 16
ENDMDL
MODEL 5
REMARK VINA RESULT:    -4.313      1.116      2.431
REMARK INTER + INTRA:         -10.881
REMARK INTER:                  -7.812
REMARK INTRA:                  -3.069
REMARK UNBOUND:                -2.533
REMARK SMILES CCCCCCCCCCCCCCCCCC(=O)[O-]
REMARK SMILES IDX 10 1 11 2 12 3 13 4 14 5 15 6 16 7 17 8 18 9 19 10 20 11
REMARK SMILES IDX 9 12 8 13 7 14 6 15 5 16 4 17 3 18 2 19 1 20
REMARK H PARENT
REMARK Flexibility Score: inf
ROOT
ATOM      1  C   UNL     1      53.042  44.133  49.236  1.00  0.00     0.000 C 
ENDROOT
BRANCH   1   2
ATOM      2  C   UNL     1      53.250  42.894  50.125  1.00  0.00     0.000 C 
BRANCH   2   3
ATOM      3  C   UNL     1      52.340  42.872  51.372  1.00  0.00     0.000 C 
BRANCH   3   4
ATOM      4  C   UNL     1      52.132  41.447  51.908  1.00  0.00     0.000 C 
BRANCH   4   5
ATOM      5  C   UNL     1      52.055  40.394  50.789  1.00  0.00     0.000 C 
BRANCH   5   6
ATOM      6  C   UNL     1      52.942  39.158  51.054  1.00  0.00     0.000 C 
BRANCH   6   7
ATOM      7  C   UNL     1      54.423  39.429  50.740  1.00  0.00     0.006 C 
BRANCH   7   8
ATOM      8  C   UNL     1      55.178  38.150  50.354  1.00  0.00     0.053 C 
BRANCH   8   9
ATOM      9  C   UNL     1      56.635  38.244  50.696  1.00  0.00     0.041 C 
ATOM     10  O   UNL     1      57.056  37.803  51.798  1.00  0.00    -0.550 OA
ATOM     11  O   UNL     1      57.519  38.855  49.817  1.00  0.00    -0.550 OA
ENDBRANCH   8   9
ENDBRANCH   7   8
ENDBRANCH   6   7
ENDBRANCH   5   6
ENDBRANCH   4   5
ENDBRANCH   3   4
ENDBRANCH   2   3
ENDBRANCH   1   2
BRANCH   1  12
ATOM     12  C   UNL     1      52.648  43.768  47.794  1.00  0.00     0.000 C 
BRANCH  12  13
ATOM     13  C   UNL     1      51.995  42.378  47.685  1.00  0.00    -0.000 C 
BRANCH  13  14
ATOM     14  C   UNL     1      52.650  41.426  46.665  1.00  0.00    -0.000 C 
BRANCH  14  15
ATOM     15  C   UNL     1      53.060  40.052  47.226  1.00  0.00    -0.000 C 
BRANCH  15  16
ATOM     16  C   UNL     1      54.554  39.719  47.022  1.00  0.00    -0.000 C 
BRANCH  16  17
ATOM     17  C   UNL     1      55.408  40.978  46.790  1.00  0.00    -0.000 C 
BRANCH  17  18
ATOM     18  C   UNL     1      56.033  41.514  48.087  1.00  0.00    -0.000 C 
BRANCH  18  19
ATOM     19  C   UNL     1      56.303  43.025  48.031  1.00  0.00    -0.003 C 
ATOM     20  C   UNL     1      56.424  43.509  46.589  1.00  0.00     0.004 C 
ENDBRANCH  18  19
ENDBRANCH  17  18
ENDBRANCH  16  17
ENDBRANCH  15  16
ENDBRANCH  14  15
ENDBRANCH  13  14
ENDBRANCH  12  13
ENDBRANCH   1  12
TORSDOF 16
ENDMDL
MODEL 6
REMARK VINA RESULT:    -4.306      1.078      3.807
REMARK INTER + INTRA:         -10.866
REMARK INTER:                  -8.634
REMARK INTRA:                  -2.232
REMARK UNBOUND:                -2.533
REMARK SMILES CCCCCCCCCCCCCCCCCC(=O)[O-]
REMARK SMILES IDX 10 1 11 2 12 3 13 4 14 5 15 6 16 7 17 8 18 9 19 10 20 11
REMARK SMILES IDX 9 12 8 13 7 14 6 15 5 16 4 17 3 18 2 19 1 20
REMARK H PARENT
REMARK Flexibility Score: inf
ROOT
ATOM      1  C   UNL     1      51.842  41.488  47.768  1.00  0.00     0.000 C 
ENDROOT
BRANCH   1   2
ATOM      2  C   UNL     1      52.523  40.129  48.005  1.00  0.00     0.000 C 
BRANCH   2   3
ATOM      3  C   UNL     1      53.860  39.970  47.249  1.00  0.00     0.000 C 
BRANCH   3   4
ATOM      4  C   UNL     1      55.058  39.886  48.208  1.00  0.00     0.000 C 
BRANCH   4   5
ATOM      5  C   UNL     1      55.053  38.603  49.057  1.00  0.00     0.000 C 
BRANCH   5   6
ATOM      6  C   UNL     1      55.015  38.879  50.576  1.00  0.00     0.000 C 
BRANCH   6   7
ATOM      7  C   UNL     1      56.246  38.305  51.300  1.00  0.00     0.006 C 
BRANCH   7   8
ATOM      8  C   UNL     1      57.529  38.461  50.474  1.00  0.00     0.053 C 
BRANCH   8   9
ATOM      9  C   UNL     1      58.493  37.342  50.734  1.00  0.00     0.041 C 
ATOM     10  O   UNL     1      59.413  37.095  49.910  1.00  0.00    -0.550 OA
ATOM     11  O   UNL     1      58.349  36.546  51.863  1.00  0.00    -0.550 OA
ENDBRANCH   8   9
ENDBRANCH   7   8
ENDBRANCH   6   7
ENDBRANCH   5   6
ENDBRANCH   4   5
ENDBRANCH   3   4
ENDBRANCH   2   3
ENDBRANCH   1   2
BRANCH   1  12
ATOM     12  C   UNL     1      52.575  42.343  46.720  1.00  0.00     0.000 C 
BRANCH  12  13
ATOM     13  C   UNL     1      52.165  43.827  46.766  1.00  0.00    -0.000 C 
BRANCH  13  14
ATOM     14  C   UNL     1      53.219  44.778  47.364  1.00  0.00    -0.000 C 
BRANCH  14  15
ATOM     15  C   UNL     1      53.314  44.762  48.901  1.00  0.00    -0.000 C 
BRANCH  15  16
ATOM     16  C   UNL     1      54.501  43.934  49.441  1.00  0.00    -0.000 C 
BRANCH  16  17
ATOM     17  C   UNL     1      54.050  42.833  50.417  1.00  0.00    -0.000 C 
BRANCH  17  18
ATOM     18  C   UNL     1      52.624  43.058  50.944  1.00  0.00    -0.000 C 
BRANCH  18  19
ATOM     19  C   UNL     1      52.306  42.193  52.172  1.00  0.00    -0.003 C 
ATOM     20  C   UNL     1      51.972  40.761  51.764  1.00  0.00     0.004 C 
ENDBRANCH  18  19
ENDBRANCH  17  18
ENDBRANCH  16  17
ENDBRANCH  15  16
ENDBRANCH  14  15
ENDBRANCH  13  14
ENDBRANCH  12  13
ENDBRANCH   1  12
TORSDOF 16
ENDMDL
MODEL 7
REMARK VINA RESULT:    -4.287      1.767      5.210
REMARK INTER + INTRA:         -10.829
REMARK INTER:                  -7.825
REMARK INTRA:                  -3.005
REMARK UNBOUND:                -2.533
REMARK SMILES CCCCCCCCCCCCCCCCCC(=O)[O-]
REMARK SMILES IDX 10 1 11 2 12 3 13 4 14 5 15 6 16 7 17 8 18 9 19 10 20 11
REMARK SMILES IDX 9 12 8 13 7 14 6 15 5 16 4 17 3 18 2 19 1 20
REMARK H PARENT
REMARK Flexibility Score: inf
ROOT
ATOM      1  C   UNL     1      52.203  41.867  48.105  1.00  0.00     0.000 C 
ENDROOT
BRANCH   1   2
ATOM      2  C   UNL     1      51.849  42.715  46.870  1.00  0.00     0.000 C 
BRANCH   2   3
ATOM      3  C   UNL     1      52.760  43.948  46.690  1.00  0.00     0.000 C 
BRANCH   3   4
ATOM      4  C   UNL     1      54.206  43.552  46.349  1.00  0.00     0.000 C 
BRANCH   4   5
ATOM      5  C   UNL     1      55.181  43.796  47.513  1.00  0.00     0.000 C 
BRANCH   5   6
ATOM      6  C   UNL     1      54.629  44.770  48.576  1.00  0.00     0.000 C 
BRANCH   6   7
ATOM      7  C   UNL     1      54.609  44.144  49.982  1.00  0.00     0.006 C 
BRANCH   7   8
ATOM      8  C   UNL     1      55.247  42.748  50.002  1.00  0.00     0.053 C 
BRANCH   8   9
ATOM      9  C   UNL     1      56.224  42.604  51.131  1.00  0.00     0.041 C 
ATOM     10  O   UNL     1      55.810  42.489  52.315  1.00  0.00    -0.550 OA
ATOM     11  O   UNL     1      57.589  42.639  50.881  1.00  0.00    -0.550 OA
ENDBRANCH   8   9
ENDBRANCH   7   8
ENDBRANCH   6   7
ENDBRANCH   5   6
ENDBRANCH   4   5
ENDBRANCH   3   4
ENDBRANCH   2   3
ENDBRANCH   1   2
BRANCH   1  12
ATOM     12  C   UNL     1      52.218  40.358  47.803  1.00  0.00     0.000 C 
BRANCH  12  13
ATOM     13  C   UNL     1      53.469  39.917  47.019  1.00  0.00    -0.000 C 
BRANCH  13  14
ATOM     14  C   UNL     1      54.762  39.826  47.851  1.00  0.00    -0.000 C 
BRANCH  14  15
ATOM     15  C   UNL     1      54.896  38.557  48.712  1.00  0.00    -0.000 C 
BRANCH  15  16
ATOM     16  C   UNL     1      54.914  38.836  50.231  1.00  0.00    -0.000 C 
BRANCH  16  17
ATOM     17  C   UNL     1      53.498  38.914  50.828  1.00  0.00    -0.000 C 
BRANCH  17  18
ATOM     18  C   UNL     1      53.325  40.103  51.786  1.00  0.00    -0.000 C 
BRANCH  18  19
ATOM     19  C   UNL     1      51.968  40.801  51.620  1.00  0.00    -0.003 C 
ATOM     20  C   UNL     1      52.061  42.280  51.985  1.00  0.00     0.004 C 
ENDBRANCH  18  19
ENDBRANCH  17  18
ENDBRANCH  16  17
ENDBRANCH  15  16
ENDBRANCH  14  15
ENDBRANCH  13  14
ENDBRANCH  12  13
ENDBRANCH   1  12
TORSDOF 16
ENDMDL
MODEL 8
REMARK VINA RESULT:    -4.255      1.540      4.264
REMARK INTER + INTRA:         -10.768
REMARK INTER:                  -8.580
REMARK INTRA:                  -2.188
REMARK UNBOUND:                -2.533
REMARK SMILES CCCCCCCCCCCCCCCCCC(=O)[O-]
REMARK SMILES IDX 10 1 11 2 12 3 13 4 14 5 15 6 16 7 17 8 18 9 19 10 20 11
REMARK SMILES IDX 9 12 8 13 7 14 6 15 5 16 4 17 3 18 2 19 1 20
REMARK H PARENT
REMARK Flexibility Score: inf
ROOT
ATOM      1  C   UNL     1      51.873  41.797  47.657  1.00  0.00     0.000 C 
ENDROOT
BRANCH   1   2
ATOM      2  C   UNL     1      52.250  40.361  48.064  1.00  0.00     0.000 C 
BRANCH   2   3
ATOM      3  C   UNL     1      53.411  39.772  47.235  1.00  0.00     0.000 C 
BRANCH   3   4
ATOM      4  C   UNL     1      54.568  39.291  48.126  1.00  0.00     0.000 C 
BRANCH   4   5
ATOM      5  C   UNL     1      54.194  39.247  49.617  1.00  0.00     0.000 C 
BRANCH   5   6
ATOM      6  C   UNL     1      54.993  38.193  50.415  1.00  0.00     0.000 C 
BRANCH   6   7
ATOM      7  C   UNL     1      56.507  38.469  50.382  1.00  0.00     0.006 C 
BRANCH   7   8
ATOM      8  C   UNL     1      57.250  37.755  51.520  1.00  0.00     0.053 C 
BRANCH   8   9
ATOM      9  C   UNL     1      58.474  37.046  51.021  1.00  0.00     0.041 C 
ATOM     10  O   UNL     1      59.024  37.412  49.949  1.00  0.00    -0.550 OA
ATOM     11  O   UNL     1      58.981  35.957  51.717  1.00  0.00    -0.550 OA
ENDBRANCH   8   9
ENDBRANCH   7   8
ENDBRANCH   6   7
ENDBRANCH   5   6
ENDBRANCH   4   5
ENDBRANCH   3   4
ENDBRANCH   2   3
ENDBRANCH   1   2
BRANCH   1  12
ATOM     12  C   UNL     1      53.078  42.753  47.676  1.00  0.00     0.000 C 
BRANCH  12  13
ATOM     13  C   UNL     1      53.077  43.692  48.897  1.00  0.00    -0.000 C 
BRANCH  13  14
ATOM     14  C   UNL     1      53.631  43.076  50.195  1.00  0.00    -0.000 C 
BRANCH  14  15
ATOM     15  C   UNL     1      52.623  42.989  51.357  1.00  0.00    -0.000 C 
BRANCH  15  16
ATOM     16  C   UNL     1      51.943  41.608  51.486  1.00  0.00    -0.000 C 
BRANCH  16  17
ATOM     17  C   UNL     1      52.521  40.777  52.644  1.00  0.00    -0.000 C 
BRANCH  17  18
ATOM     18  C   UNL     1      53.374  41.619  53.607  1.00  0.00    -0.000 C 
BRANCH  18  19
ATOM     19  C   UNL     1      54.358  40.767  54.421  1.00  0.00    -0.003 C 
ATOM     20  C   UNL     1      55.544  40.327  53.567  1.00  0.00     0.004 C 
ENDBRANCH  18  19
ENDBRANCH  17  18
ENDBRANCH  16  17
ENDBRANCH  15  16
ENDBRANCH  14  15
ENDBRANCH  13  14
ENDBRANCH  12  13
ENDBRANCH   1  12
TORSDOF 16
ENDMDL
MODEL 9
REMARK VINA RESULT:    -4.224      1.468      3.672
REMARK INTER + INTRA:         -10.708
REMARK INTER:                  -7.536
REMARK INTRA:                  -3.172
REMARK UNBOUND:                -2.533
REMARK SMILES CCCCCCCCCCCCCCCCCC(=O)[O-]
REMARK SMILES IDX 10 1 11 2 12 3 13 4 14 5 15 6 16 7 17 8 18 9 19 10 20 11
REMARK SMILES IDX 9 12 8 13 7 14 6 15 5 16 4 17 3 18 2 19 1 20
REMARK H PARENT
REMARK Flexibility Score: inf
ROOT
ATOM      1  C   UNL     1      52.612  43.104  48.452  1.00  0.00     0.000 C 
ENDROOT
BRANCH   1   2
ATOM      2  C   UNL     1      54.121  43.147  48.751  1.00  0.00     0.000 C 
BRANCH   2   3
ATOM      3  C   UNL     1      54.446  43.409  50.238  1.00  0.00     0.000 C 
BRANCH   3   4
ATOM      4  C   UNL     1      55.466  42.401  50.790  1.00  0.00     0.000 C 
BRANCH   4   5
ATOM      5  C   UNL     1      55.421  42.286  52.324  1.00  0.00     0.000 C 
BRANCH   5   6
ATOM      6  C   UNL     1      55.632  40.843  52.832  1.00  0.00     0.000 C 
BRANCH   6   7
ATOM      7  C   UNL     1      56.796  40.140  52.113  1.00  0.00     0.006 C 
BRANCH   7   8
ATOM      8  C   UNL     1      56.969  38.687  52.576  1.00  0.00     0.053 C 
BRANCH   8   9
ATOM      9  C   UNL     1      57.774  37.887  51.596  1.00  0.00     0.041 C 
ATOM     10  O   UNL     1      58.283  36.788  51.942  1.00  0.00    -0.550 OA
ATOM     11  O   UNL     1      57.996  38.375  50.315  1.00  0.00    -0.550 OA
ENDBRANCH   8   9
ENDBRANCH   7   8
ENDBRANCH   6   7
ENDBRANCH   5   6
ENDBRANCH   4   5
ENDBRANCH   3   4
ENDBRANCH   2   3
ENDBRANCH   1   2
BRANCH   1  12
ATOM     12  C   UNL     1      52.259  42.121  47.322  1.00  0.00     0.000 C 
BRANCH  12  13
ATOM     13  C   UNL     1      53.498  41.432  46.720  1.00  0.00    -0.000 C 
BRANCH  13  14
ATOM     14  C   UNL     1      53.413  39.896  46.635  1.00  0.00    -0.000 C 
BRANCH  14  15
ATOM     15  C   UNL     1      54.528  39.139  47.383  1.00  0.00    -0.000 C 
BRANCH  15  16
ATOM     16  C   UNL     1      54.716  39.599  48.845  1.00  0.00    -0.000 C 
BRANCH  16  17
ATOM     17  C   UNL     1      54.459  38.466  49.853  1.00  0.00    -0.000 C 
BRANCH  17  18
ATOM     18  C   UNL     1      53.341  38.805  50.851  1.00  0.00    -0.000 C 
BRANCH  18  19
ATOM     19  C   UNL     1      52.377  39.875  50.317  1.00  0.00    -0.003 C 
ATOM     20  C   UNL     1      51.985  40.860  51.414  1.00  0.00     0.004 C 
ENDBRANCH  18  19
ENDBRANCH  17  18
ENDBRANCH  16  17
ENDBRANCH  15  16
ENDBRANCH  14  15
ENDBRANCH  13  14
ENDBRANCH  12  13
ENDBRANCH   1  12
TORSDOF 16
ENDMDL
