MODEL 1
REMARK VINA RESULT:    -6.961      0.000      0.000
REMARK INTER + INTRA:          -8.706
REMARK INTER:                  -8.385
REMARK INTRA:                  -0.321
REMARK UNBOUND:                -0.321
REMARK SMILES O=c1c(O)c(-c2ccc(O)c(O)c2)oc2cc(O)cc(O)c12
REMARK SMILES IDX 5 1 3 2 2 3 1 4 22 5 20 6 19 7 17 8 16 9 15 10 14 11 6 12
REMARK SMILES IDX 7 13 8 14 9 15 13 16 11 17 10 18 12 20 4 22 21 24 18 26
REMARK H PARENT 10 19 12 21 4 23 21 25 18 27
REMARK Flexibility Score: inf
ROOT
ATOM      1  C   UNL     1       4.623   3.714 -15.981  1.00  0.00     0.180 A 
ATOM      2  C   UNL     1       3.746   4.452 -16.794  1.00  0.00     0.208 A 
ATOM      3  C   UNL     1       3.220   5.659 -16.308  1.00  0.00     0.238 A 
ATOM      4  O   UNL     1       2.393   6.289 -17.018  1.00  0.00    -0.285 OA
ATOM      5  C   UNL     1       3.590   6.123 -15.022  1.00  0.00     0.111 A 
ATOM      6  C   UNL     1       3.150   7.352 -14.445  1.00  0.00     0.134 A 
ATOM      7  C   UNL     1       3.475   7.646 -13.115  1.00  0.00     0.093 A 
ATOM      8  C   UNL     1       4.277   6.789 -12.364  1.00  0.00     0.123 A 
ATOM      9  C   UNL     1       4.763   5.613 -12.937  1.00  0.00     0.094 A 
ATOM     10  C   UNL     1       4.426   5.274 -14.250  1.00  0.00     0.146 A 
ATOM     11  O   UNL     1       4.899   4.141 -14.754  1.00  0.00    -0.452 OA
ENDROOT
BRANCH   1  12
ATOM     12  C   UNL     1       5.238   2.445 -16.433  1.00  0.00     0.025 A 
ATOM     13  C   UNL     1       4.557   1.237 -16.230  1.00  0.00     0.016 A 
ATOM     14  C   UNL     1       5.127   0.027 -16.631  1.00  0.00     0.051 A 
ATOM     15  C   UNL     1       6.392  -0.002 -17.227  1.00  0.00     0.157 A 
ATOM     16  C   UNL     1       6.518   2.418 -17.013  1.00  0.00     0.062 A 
ATOM     17  C   UNL     1       7.100   1.208 -17.415  1.00  0.00     0.158 A 
BRANCH  15  18
ATOM     18  O   UNL     1       6.903  -1.243 -17.613  1.00  0.00    -0.504 OA
ATOM     19  H   UNL     1       7.291  -1.435 -18.525  1.00  0.00     0.293 HD
ENDBRANCH  15  18
BRANCH  17  20
ATOM     20  O   UNL     1       8.374   1.256 -17.986  1.00  0.00    -0.504 OA
ATOM     21  H   UNL     1       9.202   1.553 -17.493  1.00  0.00     0.293 HD
ENDBRANCH  17  20
ENDBRANCH   1  12
BRANCH   2  22
ATOM     22  O   UNL     1       3.377   3.966 -18.051  1.00  0.00    -0.502 OA
ATOM     23  H   UNL     1       2.439   4.069 -18.420  1.00  0.00     0.293 HD
ENDBRANCH   2  22
BRANCH   6  24
ATOM     24  O   UNL     1       2.420   8.322 -15.139  1.00  0.00    -0.507 OA
ATOM     25  H   UNL     1       2.687   8.714 -16.029  1.00  0.00     0.293 HD
ENDBRANCH   6  24
BRANCH   8  26
ATOM     26  O   UNL     1       4.593   7.121 -11.048  1.00  0.00    -0.508 OA
ATOM     27  H   UNL     1       3.894   7.488 -10.412  1.00  0.00     0.293 HD
ENDBRANCH   8  26
TORSDOF 6
ENDMDL
MODEL 2
REMARK VINA RESULT:    -6.901      2.178      6.684
REMARK INTER + INTRA:          -8.634
REMARK INTER:                  -8.658
REMARK INTRA:                   0.023
REMARK UNBOUND:                -0.321
REMARK SMILES O=c1c(O)c(-c2ccc(O)c(O)c2)oc2cc(O)cc(O)c12
REMARK SMILES IDX 5 1 3 2 2 3 1 4 22 5 20 6 19 7 17 8 16 9 15 10 14 11 6 12
REMARK SMILES IDX 7 13 8 14 9 15 13 16 11 17 10 18 12 20 4 22 21 24 18 26
REMARK H PARENT 10 19 12 21 4 23 21 25 18 27
REMARK Flexibility Score: inf
ROOT
ATOM      1  C   UNL     1       4.819   3.005 -15.786  1.00  0.00     0.180 A 
ATOM      2  C   UNL     1       4.919   2.308 -17.002  1.00  0.00     0.208 A 
ATOM      3  C   UNL     1       5.725   1.160 -17.064  1.00  0.00     0.238 A 
ATOM      4  O   UNL     1       5.854   0.571 -18.169  1.00  0.00    -0.285 OA
ATOM      5  C   UNL     1       6.406   0.712 -15.906  1.00  0.00     0.111 A 
ATOM      6  C   UNL     1       7.215  -0.461 -15.845  1.00  0.00     0.134 A 
ATOM      7  C   UNL     1       7.947  -0.736 -14.682  1.00  0.00     0.093 A 
ATOM      8  C   UNL     1       7.846   0.084 -13.559  1.00  0.00     0.123 A 
ATOM      9  C   UNL     1       7.011   1.201 -13.587  1.00  0.00     0.094 A 
ATOM     10  C   UNL     1       6.297   1.521 -14.745  1.00  0.00     0.146 A 
ATOM     11  O   UNL     1       5.522   2.599 -14.734  1.00  0.00    -0.452 OA
ENDROOT
BRANCH   1  12
ATOM     12  C   UNL     1       3.972   4.210 -15.635  1.00  0.00     0.025 A 
ATOM     13  C   UNL     1       4.470   5.324 -14.946  1.00  0.00     0.016 A 
ATOM     14  C   UNL     1       3.680   6.462 -14.776  1.00  0.00     0.051 A 
ATOM     15  C   UNL     1       2.374   6.506 -15.275  1.00  0.00     0.157 A 
ATOM     16  C   UNL     1       2.653   4.242 -16.119  1.00  0.00     0.062 A 
ATOM     17  C   UNL     1       1.850   5.378 -15.950  1.00  0.00     0.158 A 
BRANCH  15  18
ATOM     18  O   UNL     1       1.639   7.677 -15.078  1.00  0.00    -0.504 OA
ATOM     19  H   UNL     1       0.634   7.731 -15.153  1.00  0.00     0.293 HD
ENDBRANCH  15  18
BRANCH  17  20
ATOM     20  O   UNL     1       0.551   5.341 -16.459  1.00  0.00    -0.504 OA
ATOM     21  H   UNL     1       0.330   5.342 -17.444  1.00  0.00     0.293 HD
ENDBRANCH  17  20
ENDBRANCH   1  12
BRANCH   2  22
ATOM     22  O   UNL     1       4.257   2.780 -18.138  1.00  0.00    -0.502 OA
ATOM     23  H   UNL     1       4.229   2.259 -19.007  1.00  0.00     0.293 HD
ENDBRANCH   2  22
BRANCH   6  24
ATOM     24  O   UNL     1       7.314  -1.397 -16.879  1.00  0.00    -0.507 OA
ATOM     25  H   UNL     1       7.844  -2.254 -16.831  1.00  0.00     0.293 HD
ENDBRANCH   6  24
BRANCH   8  26
ATOM     26  O   UNL     1       8.577  -0.228 -12.414  1.00  0.00    -0.508 OA
ATOM     27  H   UNL     1       8.529   0.348 -11.582  1.00  0.00     0.293 HD
ENDBRANCH   8  26
TORSDOF 6
ENDMDL
MODEL 3
REMARK VINA RESULT:    -6.706      3.104      6.645
REMARK INTER + INTRA:          -8.399
REMARK INTER:                  -8.083
REMARK INTRA:                  -0.315
REMARK UNBOUND:                -0.321
REMARK SMILES O=c1c(O)c(-c2ccc(O)c(O)c2)oc2cc(O)cc(O)c12
REMARK SMILES IDX 5 1 3 2 2 3 1 4 22 5 20 6 19 7 17 8 16 9 15 10 14 11 6 12
REMARK SMILES IDX 7 13 8 14 9 15 13 16 11 17 10 18 12 20 4 22 21 24 18 26
REMARK H PARENT 10 19 12 21 4 23 21 25 18 27
REMARK Flexibility Score: inf
ROOT
ATOM      1  C   UNL     1       1.589   5.976 -15.877  1.00  0.00     0.180 A 
ATOM      2  C   UNL     1       2.290   4.878 -16.404  1.00  0.00     0.208 A 
ATOM      3  C   UNL     1       3.419   4.399 -15.720  1.00  0.00     0.238 A 
ATOM      4  O   UNL     1       4.075   3.450 -16.224  1.00  0.00    -0.285 OA
ATOM      5  C   UNL     1       3.822   5.012 -14.508  1.00  0.00     0.111 A 
ATOM      6  C   UNL     1       4.925   4.583 -13.711  1.00  0.00     0.134 A 
ATOM      7  C   UNL     1       5.312   5.345 -12.601  1.00  0.00     0.093 A 
ATOM      8  C   UNL     1       4.597   6.480 -12.222  1.00  0.00     0.123 A 
ATOM      9  C   UNL     1       3.480   6.874 -12.960  1.00  0.00     0.094 A 
ATOM     10  C   UNL     1       3.091   6.156 -14.094  1.00  0.00     0.146 A 
ATOM     11  O   UNL     1       2.030   6.571 -14.774  1.00  0.00    -0.452 OA
ENDROOT
BRANCH   1  12
ATOM     12  C   UNL     1       0.376   6.522 -16.527  1.00  0.00     0.025 A 
ATOM     13  C   UNL     1       0.508   7.483 -17.539  1.00  0.00     0.016 A 
ATOM     14  C   UNL     1      -0.623   8.025 -18.152  1.00  0.00     0.051 A 
ATOM     15  C   UNL     1      -1.907   7.632 -17.757  1.00  0.00     0.157 A 
ATOM     16  C   UNL     1      -0.912   6.140 -16.113  1.00  0.00     0.062 A 
ATOM     17  C   UNL     1      -2.053   6.682 -16.719  1.00  0.00     0.158 A 
BRANCH  15  18
ATOM     18  O   UNL     1      -2.996   8.206 -18.415  1.00  0.00    -0.504 OA
ATOM     19  H   UNL     1      -3.416   9.085 -18.150  1.00  0.00     0.293 HD
ENDBRANCH  15  18
BRANCH  17  20
ATOM     20  O   UNL     1      -3.300   6.255 -16.258  1.00  0.00    -0.504 OA
ATOM     21  H   UNL     1      -3.524   5.295 -16.043  1.00  0.00     0.293 HD
ENDBRANCH  17  20
ENDBRANCH   1  12
BRANCH   2  22
ATOM     22  O   UNL     1       1.888   4.302 -17.612  1.00  0.00    -0.502 OA
ATOM     23  H   UNL     1       2.384   3.527 -18.037  1.00  0.00     0.293 HD
ENDBRANCH   2  22
BRANCH   6  24
ATOM     24  O   UNL     1       5.651   3.412 -13.949  1.00  0.00    -0.507 OA
ATOM     25  H   UNL     1       6.395   3.068 -13.360  1.00  0.00     0.293 HD
ENDBRANCH   6  24
BRANCH   8  26
ATOM     26  O   UNL     1       5.001   7.205 -11.103  1.00  0.00    -0.508 OA
ATOM     27  H   UNL     1       4.514   8.044 -10.811  1.00  0.00     0.293 HD
ENDBRANCH   8  26
TORSDOF 6
ENDMDL
MODEL 4
REMARK VINA RESULT:    -6.685      2.294      4.518
REMARK INTER + INTRA:          -8.374
REMARK INTER:                  -8.060
REMARK INTRA:                  -0.314
REMARK UNBOUND:                -0.321
REMARK SMILES O=c1c(O)c(-c2ccc(O)c(O)c2)oc2cc(O)cc(O)c12
REMARK SMILES IDX 5 1 3 2 2 3 1 4 22 5 20 6 19 7 17 8 16 9 15 10 14 11 6 12
REMARK SMILES IDX 7 13 8 14 9 15 13 16 11 17 10 18 12 20 4 22 21 24 18 26
REMARK H PARENT 10 19 12 21 4 23 21 25 18 27
REMARK Flexibility Score: inf
ROOT
ATOM      1  C   UNL     1       6.067   0.799 -16.556  1.00  0.00     0.180 A 
ATOM      2  C   UNL     1       6.913   1.017 -15.455  1.00  0.00     0.208 A 
ATOM      3  C   UNL     1       6.550   1.978 -14.497  1.00  0.00     0.238 A 
ATOM      4  O   UNL     1       7.337   2.207 -13.542  1.00  0.00    -0.285 OA
ATOM      5  C   UNL     1       5.337   2.695 -14.642  1.00  0.00     0.111 A 
ATOM      6  C   UNL     1       4.851   3.661 -13.711  1.00  0.00     0.134 A 
ATOM      7  C   UNL     1       3.705   4.404 -14.022  1.00  0.00     0.093 A 
ATOM      8  C   UNL     1       2.993   4.169 -15.197  1.00  0.00     0.123 A 
ATOM      9  C   UNL     1       3.426   3.186 -16.087  1.00  0.00     0.094 A 
ATOM     10  C   UNL     1       4.586   2.453 -15.821  1.00  0.00     0.146 A 
ATOM     11  O   UNL     1       4.970   1.535 -16.699  1.00  0.00    -0.452 OA
ENDROOT
BRANCH   1  12
ATOM     12  C   UNL     1       6.370  -0.212 -17.594  1.00  0.00     0.025 A 
ATOM     13  C   UNL     1       6.900   0.198 -18.825  1.00  0.00     0.016 A 
ATOM     14  C   UNL     1       7.174  -0.738 -19.824  1.00  0.00     0.051 A 
ATOM     15  C   UNL     1       6.910  -2.096 -19.622  1.00  0.00     0.157 A 
ATOM     16  C   UNL     1       6.083  -1.574 -17.394  1.00  0.00     0.062 A 
ATOM     17  C   UNL     1       6.351  -2.520 -18.393  1.00  0.00     0.158 A 
BRANCH  15  18
ATOM     18  O   UNL     1       7.214  -2.982 -20.658  1.00  0.00    -0.504 OA
ATOM     19  H   UNL     1       6.537  -3.584 -21.102  1.00  0.00     0.293 HD
ENDBRANCH  15  18
BRANCH  17  20
ATOM     20  O   UNL     1       6.044  -3.855 -18.125  1.00  0.00    -0.504 OA
ATOM     21  H   UNL     1       5.130  -4.179 -17.846  1.00  0.00     0.293 HD
ENDBRANCH  17  20
ENDBRANCH   1  12
BRANCH   2  22
ATOM     22  O   UNL     1       8.115   0.314 -15.342  1.00  0.00    -0.502 OA
ATOM     23  H   UNL     1       8.852   0.594 -14.705  1.00  0.00     0.293 HD
ENDBRANCH   2  22
BRANCH   6  24
ATOM     24  O   UNL     1       5.436   3.908 -12.465  1.00  0.00    -0.507 OA
ATOM     25  H   UNL     1       4.924   4.114 -11.621  1.00  0.00     0.293 HD
ENDBRANCH   6  24
BRANCH   8  26
ATOM     26  O   UNL     1       1.848   4.917 -15.467  1.00  0.00    -0.508 OA
ATOM     27  H   UNL     1       1.485   5.589 -14.801  1.00  0.00     0.293 HD
ENDBRANCH   8  26
TORSDOF 6
ENDMDL
MODEL 5
REMARK VINA RESULT:    -6.630      1.456      3.001
REMARK INTER + INTRA:          -8.308
REMARK INTER:                  -8.160
REMARK INTRA:                  -0.148
REMARK UNBOUND:                -0.321
REMARK SMILES O=c1c(O)c(-c2ccc(O)c(O)c2)oc2cc(O)cc(O)c12
REMARK SMILES IDX 5 1 3 2 2 3 1 4 22 5 20 6 19 7 17 8 16 9 15 10 14 11 6 12
REMARK SMILES IDX 7 13 8 14 9 15 13 16 11 17 10 18 12 20 4 22 21 24 18 26
REMARK H PARENT 10 19 12 21 4 23 21 25 18 27
REMARK Flexibility Score: inf
ROOT
ATOM      1  C   UNL     1       5.011   3.283 -14.815  1.00  0.00     0.180 A 
ATOM      2  C   UNL     1       5.007   3.476 -13.423  1.00  0.00     0.208 A 
ATOM      3  C   UNL     1       4.395   4.626 -12.898  1.00  0.00     0.238 A 
ATOM      4  O   UNL     1       4.442   4.821 -11.655  1.00  0.00    -0.285 OA
ATOM      5  C   UNL     1       3.780   5.558 -13.768  1.00  0.00     0.111 A 
ATOM      6  C   UNL     1       3.096   6.735 -13.342  1.00  0.00     0.134 A 
ATOM      7  C   UNL     1       2.639   7.653 -14.297  1.00  0.00     0.093 A 
ATOM      8  C   UNL     1       2.784   7.404 -15.661  1.00  0.00     0.123 A 
ATOM      9  C   UNL     1       3.398   6.227 -16.089  1.00  0.00     0.094 A 
ATOM     10  C   UNL     1       3.896   5.310 -15.161  1.00  0.00     0.146 A 
ATOM     11  O   UNL     1       4.484   4.208 -15.610  1.00  0.00    -0.452 OA
ENDROOT
BRANCH   1  12
ATOM     12  C   UNL     1       5.615   2.085 -15.443  1.00  0.00     0.025 A 
ATOM     13  C   UNL     1       4.792   1.164 -16.106  1.00  0.00     0.016 A 
ATOM     14  C   UNL     1       5.338   0.018 -16.687  1.00  0.00     0.051 A 
ATOM     15  C   UNL     1       6.711  -0.239 -16.605  1.00  0.00     0.157 A 
ATOM     16  C   UNL     1       6.991   1.820 -15.340  1.00  0.00     0.062 A 
ATOM     17  C   UNL     1       7.548   0.671 -15.917  1.00  0.00     0.158 A 
BRANCH  15  18
ATOM     18  O   UNL     1       7.196  -1.398 -17.214  1.00  0.00    -0.504 OA
ATOM     19  H   UNL     1       7.038  -1.634 -18.183  1.00  0.00     0.293 HD
ENDBRANCH  15  18
BRANCH  17  20
ATOM     20  O   UNL     1       8.923   0.473 -15.778  1.00  0.00    -0.504 OA
ATOM     21  H   UNL     1       9.512   1.013 -15.162  1.00  0.00     0.293 HD
ENDBRANCH  17  20
ENDBRANCH   1  12
BRANCH   2  22
ATOM     22  O   UNL     1       5.639   2.555 -12.584  1.00  0.00    -0.502 OA
ATOM     23  H   UNL     1       5.711   1.571 -12.813  1.00  0.00     0.293 HD
ENDBRANCH   2  22
BRANCH   6  24
ATOM     24  O   UNL     1       2.816   7.035 -12.005  1.00  0.00    -0.507 OA
ATOM     25  H   UNL     1       3.101   7.880 -11.534  1.00  0.00     0.293 HD
ENDBRANCH   6  24
BRANCH   8  26
ATOM     26  O   UNL     1       2.304   8.332 -16.583  1.00  0.00    -0.508 OA
ATOM     27  H   UNL     1       2.456   9.326 -16.462  1.00  0.00     0.293 HD
ENDBRANCH   8  26
TORSDOF 6
ENDMDL
MODEL 6
REMARK VINA RESULT:    -6.565      1.618      2.400
REMARK INTER + INTRA:          -8.229
REMARK INTER:                  -7.907
REMARK INTRA:                  -0.323
REMARK UNBOUND:                -0.321
REMARK SMILES O=c1c(O)c(-c2ccc(O)c(O)c2)oc2cc(O)cc(O)c12
REMARK SMILES IDX 5 1 3 2 2 3 1 4 22 5 20 6 19 7 17 8 16 9 15 10 14 11 6 12
REMARK SMILES IDX 7 13 8 14 9 15 13 16 11 17 10 18 12 20 4 22 21 24 18 26
REMARK H PARENT 10 19 12 21 4 23 21 25 18 27
REMARK Flexibility Score: inf
ROOT
ATOM      1  C   UNL     1       5.477   2.052 -16.074  1.00  0.00     0.180 A 
ATOM      2  C   UNL     1       4.675   2.866 -16.892  1.00  0.00     0.208 A 
ATOM      3  C   UNL     1       4.068   4.003 -16.335  1.00  0.00     0.238 A 
ATOM      4  O   UNL     1       3.308   4.699 -17.058  1.00  0.00    -0.285 OA
ATOM      5  C   UNL     1       4.285   4.322 -14.972  1.00  0.00     0.111 A 
ATOM      6  C   UNL     1       3.754   5.472 -14.315  1.00  0.00     0.134 A 
ATOM      7  C   UNL     1       3.925   5.618 -12.933  1.00  0.00     0.093 A 
ATOM      8  C   UNL     1       4.663   4.691 -12.197  1.00  0.00     0.123 A 
ATOM      9  C   UNL     1       5.237   3.595 -12.841  1.00  0.00     0.094 A 
ATOM     10  C   UNL     1       5.054   3.403 -14.212  1.00  0.00     0.146 A 
ATOM     11  O   UNL     1       5.607   2.341 -14.784  1.00  0.00    -0.452 OA
ENDROOT
BRANCH   1  12
ATOM     12  C   UNL     1       6.169   0.851 -16.594  1.00  0.00     0.025 A 
ATOM     13  C   UNL     1       7.438   0.981 -17.174  1.00  0.00     0.016 A 
ATOM     14  C   UNL     1       8.099  -0.136 -17.688  1.00  0.00     0.051 A 
ATOM     15  C   UNL     1       7.502  -1.401 -17.647  1.00  0.00     0.157 A 
ATOM     16  C   UNL     1       5.556  -0.414 -16.570  1.00  0.00     0.062 A 
ATOM     17  C   UNL     1       6.210  -1.541 -17.087  1.00  0.00     0.158 A 
BRANCH  15  18
ATOM     18  O   UNL     1       8.219  -2.478 -18.171  1.00  0.00    -0.504 OA
ATOM     19  H   UNL     1       8.404  -3.332 -17.665  1.00  0.00     0.293 HD
ENDBRANCH  15  18
BRANCH  17  20
ATOM     20  O   UNL     1       5.543  -2.766 -17.028  1.00  0.00    -0.504 OA
ATOM     21  H   UNL     1       5.969  -3.652 -17.257  1.00  0.00     0.293 HD
ENDBRANCH  17  20
ENDBRANCH   1  12
BRANCH   2  22
ATOM     22  O   UNL     1       4.457   2.521 -18.228  1.00  0.00    -0.502 OA
ATOM     23  H   UNL     1       4.509   1.564 -18.559  1.00  0.00     0.293 HD
ENDBRANCH   2  22
BRANCH   6  24
ATOM     24  O   UNL     1       3.079   6.505 -14.973  1.00  0.00    -0.507 OA
ATOM     25  H   UNL     1       3.483   7.093 -15.687  1.00  0.00     0.293 HD
ENDBRANCH   6  24
BRANCH   8  26
ATOM     26  O   UNL     1       4.826   4.876 -10.826  1.00  0.00    -0.508 OA
ATOM     27  H   UNL     1       4.390   4.257 -10.152  1.00  0.00     0.293 HD
ENDBRANCH   8  26
TORSDOF 6
ENDMDL
MODEL 7
REMARK VINA RESULT:    -6.537      3.461      7.312
REMARK INTER + INTRA:          -8.195
REMARK INTER:                  -7.969
REMARK INTRA:                  -0.226
REMARK UNBOUND:                -0.321
REMARK SMILES O=c1c(O)c(-c2ccc(O)c(O)c2)oc2cc(O)cc(O)c12
REMARK SMILES IDX 5 1 3 2 2 3 1 4 22 5 20 6 19 7 17 8 16 9 15 10 14 11 6 12
REMARK SMILES IDX 7 13 8 14 9 15 13 16 11 17 10 18 12 20 4 22 21 24 18 26
REMARK H PARENT 10 19 12 21 4 23 21 25 18 27
REMARK Flexibility Score: inf
ROOT
ATOM      1  C   UNL     1       1.103   6.249 -15.860  1.00  0.00     0.180 A 
ATOM      2  C   UNL     1       1.821   6.976 -14.895  1.00  0.00     0.208 A 
ATOM      3  C   UNL     1       2.995   6.422 -14.361  1.00  0.00     0.238 A 
ATOM      4  O   UNL     1       3.606   7.052 -13.459  1.00  0.00    -0.285 OA
ATOM      5  C   UNL     1       3.446   5.157 -14.811  1.00  0.00     0.111 A 
ATOM      6  C   UNL     1       4.644   4.519 -14.368  1.00  0.00     0.134 A 
ATOM      7  C   UNL     1       4.924   3.211 -14.783  1.00  0.00     0.093 A 
ATOM      8  C   UNL     1       4.084   2.543 -15.673  1.00  0.00     0.123 A 
ATOM      9  C   UNL     1       2.941   3.180 -16.158  1.00  0.00     0.094 A 
ATOM     10  C   UNL     1       2.616   4.471 -15.735  1.00  0.00     0.146 A 
ATOM     11  O   UNL     1       1.514   5.036 -16.212  1.00  0.00    -0.452 OA
ENDROOT
BRANCH   1  12
ATOM     12  C   UNL     1      -0.131   6.777 -16.487  1.00  0.00     0.025 A 
ATOM     13  C   UNL     1      -1.354   6.132 -16.256  1.00  0.00     0.016 A 
ATOM     14  C   UNL     1      -2.525   6.602 -16.853  1.00  0.00     0.051 A 
ATOM     15  C   UNL     1      -2.497   7.712 -17.703  1.00  0.00     0.157 A 
ATOM     16  C   UNL     1      -0.095   7.880 -17.357  1.00  0.00     0.062 A 
ATOM     17  C   UNL     1      -1.265   8.356 -17.964  1.00  0.00     0.158 A 
BRANCH  15  18
ATOM     18  O   UNL     1      -3.704   8.137 -18.262  1.00  0.00    -0.504 OA
ATOM     19  H   UNL     1      -3.961   7.990 -19.227  1.00  0.00     0.293 HD
ENDBRANCH  15  18
BRANCH  17  20
ATOM     20  O   UNL     1      -1.155   9.457 -18.816  1.00  0.00    -0.504 OA
ATOM     21  H   UNL     1      -0.339  10.047 -18.873  1.00  0.00     0.293 HD
ENDBRANCH  17  20
ENDBRANCH   1  12
BRANCH   2  22
ATOM     22  O   UNL     1       1.347   8.212 -14.450  1.00  0.00    -0.502 OA
ATOM     23  H   UNL     1       0.813   8.314 -13.595  1.00  0.00     0.293 HD
ENDBRANCH   2  22
BRANCH   6  24
ATOM     24  O   UNL     1       5.598   5.132 -13.550  1.00  0.00    -0.507 OA
ATOM     25  H   UNL     1       6.377   4.657 -13.121  1.00  0.00     0.293 HD
ENDBRANCH   6  24
BRANCH   8  26
ATOM     26  O   UNL     1       4.401   1.247 -16.075  1.00  0.00    -0.508 OA
ATOM     27  H   UNL     1       4.989   0.646 -15.510  1.00  0.00     0.293 HD
ENDBRANCH   8  26
TORSDOF 6
ENDMDL
MODEL 8
REMARK VINA RESULT:    -6.477      2.027      7.424
REMARK INTER + INTRA:          -8.123
REMARK INTER:                  -7.830
REMARK INTRA:                  -0.293
REMARK UNBOUND:                -0.321
REMARK SMILES O=c1c(O)c(-c2ccc(O)c(O)c2)oc2cc(O)cc(O)c12
REMARK SMILES IDX 5 1 3 2 2 3 1 4 22 5 20 6 19 7 17 8 16 9 15 10 14 11 6 12
REMARK SMILES IDX 7 13 8 14 9 15 13 16 11 17 10 18 12 20 4 22 21 24 18 26
REMARK H PARENT 10 19 12 21 4 23 21 25 18 27
REMARK Flexibility Score: inf
ROOT
ATOM      1  C   UNL     1       5.819   2.107 -16.063  1.00  0.00     0.180 A 
ATOM      2  C   UNL     1       6.728   2.609 -17.010  1.00  0.00     0.208 A 
ATOM      3  C   UNL     1       7.316   1.721 -17.925  1.00  0.00     0.238 A 
ATOM      4  O   UNL     1       8.170   2.166 -18.736  1.00  0.00    -0.285 OA
ATOM      5  C   UNL     1       6.974   0.347 -17.894  1.00  0.00     0.111 A 
ATOM      6  C   UNL     1       7.477  -0.634 -18.800  1.00  0.00     0.134 A 
ATOM      7  C   UNL     1       7.173  -1.985 -18.594  1.00  0.00     0.093 A 
ATOM      8  C   UNL     1       6.331  -2.383 -17.556  1.00  0.00     0.123 A 
ATOM      9  C   UNL     1       5.786  -1.426 -16.700  1.00  0.00     0.094 A 
ATOM     10  C   UNL     1       6.100  -0.074 -16.858  1.00  0.00     0.146 A 
ATOM     11  O   UNL     1       5.569   0.804 -16.015  1.00  0.00    -0.452 OA
ENDROOT
BRANCH   1  12
ATOM     12  C   UNL     1       5.140   2.984 -15.081  1.00  0.00     0.025 A 
ATOM     13  C   UNL     1       5.553   2.970 -13.741  1.00  0.00     0.016 A 
ATOM     14  C   UNL     1       4.913   3.774 -12.796  1.00  0.00     0.051 A 
ATOM     15  C   UNL     1       3.842   4.595 -13.164  1.00  0.00     0.157 A 
ATOM     16  C   UNL     1       4.051   3.791 -15.451  1.00  0.00     0.062 A 
ATOM     17  C   UNL     1       3.400   4.599 -14.508  1.00  0.00     0.158 A 
BRANCH  15  18
ATOM     18  O   UNL     1       3.251   5.381 -12.173  1.00  0.00    -0.504 OA
ATOM     19  H   UNL     1       3.013   5.043 -11.252  1.00  0.00     0.293 HD
ENDBRANCH  15  18
BRANCH  17  20
ATOM     20  O   UNL     1       2.327   5.377 -14.947  1.00  0.00    -0.504 OA
ATOM     21  H   UNL     1       2.423   6.303 -15.335  1.00  0.00     0.293 HD
ENDBRANCH  17  20
ENDBRANCH   1  12
BRANCH   2  22
ATOM     22  O   UNL     1       7.068   3.964 -17.009  1.00  0.00    -0.502 OA
ATOM     23  H   UNL     1       7.205   4.491 -17.863  1.00  0.00     0.293 HD
ENDBRANCH   2  22
BRANCH   6  24
ATOM     24  O   UNL     1       8.252  -0.333 -19.925  1.00  0.00    -0.507 OA
ATOM     25  H   UNL     1       8.709   0.551 -20.088  1.00  0.00     0.293 HD
ENDBRANCH   6  24
BRANCH   8  26
ATOM     26  O   UNL     1       6.038  -3.735 -17.389  1.00  0.00    -0.508 OA
ATOM     27  H   UNL     1       5.152  -4.125 -17.689  1.00  0.00     0.293 HD
ENDBRANCH   8  26
TORSDOF 6
ENDMDL
MODEL 9
REMARK VINA RESULT:    -6.443      1.727      6.770
REMARK INTER + INTRA:          -8.081
REMARK INTER:                  -7.760
REMARK INTRA:                  -0.321
REMARK UNBOUND:                -0.321
REMARK SMILES O=c1c(O)c(-c2ccc(O)c(O)c2)oc2cc(O)cc(O)c12
REMARK SMILES IDX 5 1 3 2 2 3 1 4 22 5 20 6 19 7 17 8 16 9 15 10 14 11 6 12
REMARK SMILES IDX 7 13 8 14 9 15 13 16 11 17 10 18 12 20 4 22 21 24 18 26
REMARK H PARENT 10 19 12 21 4 23 21 25 18 27
REMARK Flexibility Score: inf
ROOT
ATOM      1  C   UNL     1       4.750   4.099 -15.802  1.00  0.00     0.180 A 
ATOM      2  C   UNL     1       4.210   2.812 -15.971  1.00  0.00     0.208 A 
ATOM      3  C   UNL     1       5.074   1.746 -16.268  1.00  0.00     0.238 A 
ATOM      4  O   UNL     1       4.580   0.606 -16.472  1.00  0.00    -0.285 OA
ATOM      5  C   UNL     1       6.468   1.975 -16.373  1.00  0.00     0.111 A 
ATOM      6  C   UNL     1       7.439   0.961 -16.629  1.00  0.00     0.134 A 
ATOM      7  C   UNL     1       8.775   1.323 -16.842  1.00  0.00     0.093 A 
ATOM      8  C   UNL     1       9.185   2.652 -16.745  1.00  0.00     0.123 A 
ATOM      9  C   UNL     1       8.254   3.644 -16.437  1.00  0.00     0.094 A 
ATOM     10  C   UNL     1       6.908   3.319 -16.253  1.00  0.00     0.146 A 
ATOM     11  O   UNL     1       6.052   4.294 -15.973  1.00  0.00    -0.452 OA
ENDROOT
BRANCH   1  12
ATOM     12  C   UNL     1       3.907   5.268 -15.465  1.00  0.00     0.025 A 
ATOM     13  C   UNL     1       3.681   5.593 -14.120  1.00  0.00     0.016 A 
ATOM     14  C   UNL     1       2.873   6.680 -13.780  1.00  0.00     0.051 A 
ATOM     15  C   UNL     1       2.263   7.454 -14.773  1.00  0.00     0.157 A 
ATOM     16  C   UNL     1       3.278   6.031 -16.464  1.00  0.00     0.062 A 
ATOM     17  C   UNL     1       2.463   7.121 -16.133  1.00  0.00     0.158 A 
BRANCH  15  18
ATOM     18  O   UNL     1       1.474   8.532 -14.367  1.00  0.00    -0.504 OA
ATOM     19  H   UNL     1       0.635   8.828 -14.844  1.00  0.00     0.293 HD
ENDBRANCH  15  18
BRANCH  17  20
ATOM     20  O   UNL     1       1.873   7.835 -17.178  1.00  0.00    -0.504 OA
ATOM     21  H   UNL     1       2.078   7.680 -18.154  1.00  0.00     0.293 HD
ENDBRANCH  17  20
ENDBRANCH   1  12
BRANCH   2  22
ATOM     22  O   UNL     1       2.830   2.612 -15.885  1.00  0.00    -0.502 OA
ATOM     23  H   UNL     1       2.160   3.275 -16.255  1.00  0.00     0.293 HD
ENDBRANCH   2  22
BRANCH   6  24
ATOM     24  O   UNL     1       7.150  -0.407 -16.656  1.00  0.00    -0.507 OA
ATOM     25  H   UNL     1       7.348  -1.020 -17.432  1.00  0.00     0.293 HD
ENDBRANCH   6  24
BRANCH   8  26
ATOM     26  O   UNL     1      10.525   2.973 -16.949  1.00  0.00    -0.508 OA
ATOM     27  H   UNL     1      10.900   3.118 -17.880  1.00  0.00     0.293 HD
ENDBRANCH   8  26
TORSDOF 6
ENDMDL
