MODEL 1
REMARK VINA RESULT:    -4.056      0.000      0.000
REMARK INTER + INTRA:          -8.856
REMARK INTER:                  -6.902
REMARK INTRA:                  -1.953
REMARK UNBOUND:                -1.953
REMARK SMILES CCCCCCCCCCCCCC(=O)[O-]
REMARK SMILES IDX 8 1 9 2 10 3 11 4 12 5 13 6 14 7 15 8 16 9 7 10 6 11 5 12
REMARK SMILES IDX 4 13 3 14 2 15 1 16
REMARK H PARENT
REMARK Flexibility Score: inf
ROOT
ATOM      1  C   UNL     1      49.894  37.936 -13.906  1.00  0.00     0.000 C 
ENDROOT
BRANCH   1   2
ATOM      2  C   UNL     1      48.765  37.085 -13.300  1.00  0.00     0.000 C 
BRANCH   2   3
ATOM      3  C   UNL     1      49.133  35.594 -13.193  1.00  0.00     0.000 C 
BRANCH   3   4
ATOM      4  C   UNL     1      48.196  34.630 -13.948  1.00  0.00     0.000 C 
BRANCH   4   5
ATOM      5  C   UNL     1      46.689  34.870 -13.726  1.00  0.00     0.006 C 
BRANCH   5   6
ATOM      6  C   UNL     1      46.115  34.186 -12.476  1.00  0.00     0.053 C 
BRANCH   6   7
ATOM      7  C   UNL     1      46.080  35.110 -11.298  1.00  0.00     0.041 C 
ATOM      8  O   UNL     1      45.555  36.250 -11.404  1.00  0.00    -0.550 OA
ATOM      9  O   UNL     1      46.656  34.727 -10.093  1.00  0.00    -0.550 OA
ENDBRANCH   6   7
ENDBRANCH   5   6
ENDBRANCH   4   5
ENDBRANCH   3   4
ENDBRANCH   2   3
ENDBRANCH   1   2
BRANCH   1  10
ATOM     10  C   UNL     1      51.004  37.079 -14.537  1.00  0.00     0.000 C 
BRANCH  10  11
ATOM     11  C   UNL     1      51.165  37.331 -16.044  1.00  0.00    -0.000 C 
BRANCH  11  12
ATOM     12  C   UNL     1      51.063  36.020 -16.833  1.00  0.00    -0.000 C 
BRANCH  12  13
ATOM     13  C   UNL     1      49.601  35.594 -17.009  1.00  0.00    -0.000 C 
BRANCH  13  14
ATOM     14  C   UNL     1      48.709  36.805 -17.319  1.00  0.00    -0.000 C 
BRANCH  14  15
ATOM     15  C   UNL     1      47.215  36.505 -17.119  1.00  0.00    -0.003 C 
ATOM     16  C   UNL     1      46.536  37.492 -16.170  1.00  0.00     0.004 C 
ENDBRANCH  14  15
ENDBRANCH  13  14
ENDBRANCH  12  13
ENDBRANCH  11  12
ENDBRANCH  10  11
ENDBRANCH   1  10
TORSDOF 12
ENDMDL
MODEL 2
REMARK VINA RESULT:    -4.031      1.255      3.208
REMARK INTER + INTRA:          -8.812
REMARK INTER:                  -7.037
REMARK INTRA:                  -1.775
REMARK UNBOUND:                -1.953
REMARK SMILES CCCCCCCCCCCCCC(=O)[O-]
REMARK SMILES IDX 8 1 9 2 10 3 11 4 12 5 13 6 14 7 15 8 16 9 7 10 6 11 5 12
REMARK SMILES IDX 4 13 3 14 2 15 1 16
REMARK H PARENT
REMARK Flexibility Score: inf
ROOT
ATOM      1  C   UNL     1      47.084  34.806 -14.907  1.00  0.00     0.000 C 
ENDROOT
BRANCH   1   2
ATOM      2  C   UNL     1      48.234  34.564 -13.915  1.00  0.00     0.000 C 
BRANCH   2   3
ATOM      3  C   UNL     1      48.899  35.869 -13.442  1.00  0.00     0.000 C 
BRANCH   3   4
ATOM      4  C   UNL     1      47.931  37.040 -13.176  1.00  0.00     0.000 C 
BRANCH   4   5
ATOM      5  C   UNL     1      47.868  37.519 -11.711  1.00  0.00     0.006 C 
BRANCH   5   6
ATOM      6  C   UNL     1      48.003  36.397 -10.671  1.00  0.00     0.053 C 
BRANCH   6   7
ATOM      7  C   UNL     1      46.687  35.745 -10.376  1.00  0.00     0.041 C 
ATOM      8  O   UNL     1      46.353  34.691 -10.981  1.00  0.00    -0.550 OA
ATOM      9  O   UNL     1      45.814  36.317  -9.460  1.00  0.00    -0.550 OA
ENDBRANCH   6   7
ENDBRANCH   5   6
ENDBRANCH   4   5
ENDBRANCH   3   4
ENDBRANCH   2   3
ENDBRANCH   1   2
BRANCH   1  10
ATOM     10  C   UNL     1      47.544  34.730 -16.373  1.00  0.00     0.000 C 
BRANCH  10  11
ATOM     11  C   UNL     1      47.477  36.088 -17.087  1.00  0.00    -0.000 C 
BRANCH  11  12
ATOM     12  C   UNL     1      48.862  36.743 -17.152  1.00  0.00    -0.000 C 
BRANCH  12  13
ATOM     13  C   UNL     1      49.971  35.686 -17.196  1.00  0.00    -0.000 C 
BRANCH  13  14
ATOM     14  C   UNL     1      51.285  36.242 -16.628  1.00  0.00    -0.000 C 
BRANCH  14  15
ATOM     15  C   UNL     1      51.083  37.543 -15.835  1.00  0.00    -0.003 C 
ATOM     16  C   UNL     1      51.937  37.602 -14.569  1.00  0.00     0.004 C 
ENDBRANCH  14  15
ENDBRANCH  13  14
ENDBRANCH  12  13
ENDBRANCH  11  12
ENDBRANCH  10  11
ENDBRANCH   1  10
TORSDOF 12
ENDMDL
MODEL 3
REMARK VINA RESULT:    -3.942      2.856      4.849
REMARK INTER + INTRA:          -8.661
REMARK INTER:                  -6.697
REMARK INTRA:                  -1.964
REMARK UNBOUND:                -1.953
REMARK SMILES CCCCCCCCCCCCCC(=O)[O-]
REMARK SMILES IDX 8 1 9 2 10 3 11 4 12 5 13 6 14 7 15 8 16 9 7 10 6 11 5 12
REMARK SMILES IDX 4 13 3 14 2 15 1 16
REMARK H PARENT
REMARK Flexibility Score: inf
ROOT
ATOM      1  C   UNL     1      45.319  35.621 -12.594  1.00  0.00     0.000 C 
ENDROOT
BRANCH   1   2
ATOM      2  C   UNL     1      45.918  34.473 -13.424  1.00  0.00     0.000 C 
BRANCH   2   3
ATOM      3  C   UNL     1      47.456  34.434 -13.365  1.00  0.00     0.000 C 
BRANCH   3   4
ATOM      4  C   UNL     1      48.124  35.702 -12.796  1.00  0.00     0.000 C 
BRANCH   4   5
ATOM      5  C   UNL     1      49.617  35.871 -13.145  1.00  0.00     0.006 C 
BRANCH   5   6
ATOM      6  C   UNL     1      50.039  37.319 -13.441  1.00  0.00     0.053 C 
BRANCH   6   7
ATOM      7  C   UNL     1      51.161  37.385 -14.431  1.00  0.00     0.041 C 
ATOM      8  O   UNL     1      50.961  37.074 -15.635  1.00  0.00    -0.550 OA
ATOM      9  O   UNL     1      52.434  37.757 -14.018  1.00  0.00    -0.550 OA
ENDBRANCH   6   7
ENDBRANCH   5   6
ENDBRANCH   4   5
ENDBRANCH   3   4
ENDBRANCH   2   3
ENDBRANCH   1   2
BRANCH   1  10
ATOM     10  C   UNL     1      44.521  36.616 -13.454  1.00  0.00     0.000 C 
BRANCH  10  11
ATOM     11  C   UNL     1      45.355  37.832 -13.884  1.00  0.00    -0.000 C 
BRANCH  11  12
ATOM     12  C   UNL     1      45.664  37.782 -15.385  1.00  0.00    -0.000 C 
BRANCH  12  13
ATOM     13  C   UNL     1      47.173  37.868 -15.641  1.00  0.00    -0.000 C 
BRANCH  13  14
ATOM     14  C   UNL     1      47.559  37.107 -16.918  1.00  0.00    -0.000 C 
BRANCH  14  15
ATOM     15  C   UNL     1      47.393  35.586 -16.773  1.00  0.00    -0.003 C 
ATOM     16  C   UNL     1      48.730  34.851 -16.692  1.00  0.00     0.004 C 
ENDBRANCH  14  15
ENDBRANCH  13  14
ENDBRANCH  12  13
ENDBRANCH  11  12
ENDBRANCH  10  11
ENDBRANCH   1  10
TORSDOF 12
ENDMDL
MODEL 4
REMARK VINA RESULT:    -3.938      1.386      3.260
REMARK INTER + INTRA:          -8.654
REMARK INTER:                  -6.802
REMARK INTRA:                  -1.852
REMARK UNBOUND:                -1.953
REMARK SMILES CCCCCCCCCCCCCC(=O)[O-]
REMARK SMILES IDX 8 1 9 2 10 3 11 4 12 5 13 6 14 7 15 8 16 9 7 10 6 11 5 12
REMARK SMILES IDX 4 13 3 14 2 15 1 16
REMARK H PARENT
REMARK Flexibility Score: inf
ROOT
ATOM      1  C   UNL     1      47.448  35.224 -15.787  1.00  0.00     0.000 C 
ENDROOT
BRANCH   1   2
ATOM      2  C   UNL     1      47.004  36.631 -16.223  1.00  0.00     0.000 C 
BRANCH   2   3
ATOM      3  C   UNL     1      46.736  37.567 -15.031  1.00  0.00     0.000 C 
BRANCH   3   4
ATOM      4  C   UNL     1      45.275  37.600 -14.538  1.00  0.00     0.000 C 
BRANCH   4   5
ATOM      5  C   UNL     1      44.956  36.648 -13.367  1.00  0.00     0.006 C 
BRANCH   5   6
ATOM      6  C   UNL     1      46.129  36.415 -12.402  1.00  0.00     0.053 C 
BRANCH   6   7
ATOM      7  C   UNL     1      46.169  35.005 -11.899  1.00  0.00     0.041 C 
ATOM      8  O   UNL     1      46.416  34.772 -10.686  1.00  0.00    -0.550 OA
ATOM      9  O   UNL     1      45.968  33.946 -12.776  1.00  0.00    -0.550 OA
ENDBRANCH   6   7
ENDBRANCH   5   6
ENDBRANCH   4   5
ENDBRANCH   3   4
ENDBRANCH   2   3
ENDBRANCH   1   2
BRANCH   1  10
ATOM     10  C   UNL     1      48.749  34.776 -16.476  1.00  0.00     0.000 C 
BRANCH  10  11
ATOM     11  C   UNL     1      49.493  35.938 -17.151  1.00  0.00    -0.000 C 
BRANCH  11  12
ATOM     12  C   UNL     1      50.893  36.115 -16.551  1.00  0.00    -0.000 C 
BRANCH  12  13
ATOM     13  C   UNL     1      51.026  37.472 -15.850  1.00  0.00    -0.000 C 
BRANCH  13  14
ATOM     14  C   UNL     1      51.244  37.293 -14.341  1.00  0.00    -0.000 C 
BRANCH  14  15
ATOM     15  C   UNL     1      49.925  37.169 -13.563  1.00  0.00    -0.003 C 
ATOM     16  C   UNL     1      49.772  35.816 -12.869  1.00  0.00     0.004 C 
ENDBRANCH  14  15
ENDBRANCH  13  14
ENDBRANCH  12  13
ENDBRANCH  11  12
ENDBRANCH  10  11
ENDBRANCH   1  10
TORSDOF 12
ENDMDL
MODEL 5
REMARK VINA RESULT:    -3.913      1.574      3.375
REMARK INTER + INTRA:          -8.612
REMARK INTER:                  -6.828
REMARK INTRA:                  -1.784
REMARK UNBOUND:                -1.953
REMARK SMILES CCCCCCCCCCCCCC(=O)[O-]
REMARK SMILES IDX 8 1 9 2 10 3 11 4 12 5 13 6 14 7 15 8 16 9 7 10 6 11 5 12
REMARK SMILES IDX 4 13 3 14 2 15 1 16
REMARK H PARENT
REMARK Flexibility Score: inf
ROOT
ATOM      1  C   UNL     1      46.035  37.723 -14.129  1.00  0.00     0.000 C 
ENDROOT
BRANCH   1   2
ATOM      2  C   UNL     1      44.713  37.523 -13.368  1.00  0.00     0.000 C 
BRANCH   2   3
ATOM      3  C   UNL     1      44.384  36.038 -13.126  1.00  0.00     0.000 C 
BRANCH   3   4
ATOM      4  C   UNL     1      45.517  35.050 -13.467  1.00  0.00     0.000 C 
BRANCH   4   5
ATOM      5  C   UNL     1      46.152  34.335 -12.257  1.00  0.00     0.006 C 
BRANCH   5   6
ATOM      6  C   UNL     1      46.735  35.281 -11.196  1.00  0.00     0.053 C 
BRANCH   6   7
ATOM      7  C   UNL     1      46.161  35.022  -9.837  1.00  0.00     0.041 C 
ATOM      8  O   UNL     1      46.793  34.315  -9.007  1.00  0.00    -0.550 OA
ATOM      9  O   UNL     1      44.914  35.531  -9.498  1.00  0.00    -0.550 OA
ENDBRANCH   6   7
ENDBRANCH   5   6
ENDBRANCH   4   5
ENDBRANCH   3   4
ENDBRANCH   2   3
ENDBRANCH   1   2
BRANCH   1  10
ATOM     10  C   UNL     1      45.834  37.795 -15.652  1.00  0.00     0.000 C 
BRANCH  10  11
ATOM     11  C   UNL     1      47.147  37.632 -16.433  1.00  0.00    -0.000 C 
BRANCH  11  12
ATOM     12  C   UNL     1      47.122  36.360 -17.288  1.00  0.00    -0.000 C 
BRANCH  12  13
ATOM     13  C   UNL     1      47.660  35.157 -16.505  1.00  0.00    -0.000 C 
BRANCH  13  14
ATOM     14  C   UNL     1      49.026  35.475 -15.878  1.00  0.00    -0.000 C 
BRANCH  14  15
ATOM     15  C   UNL     1      49.013  35.365 -14.345  1.00  0.00    -0.003 C 
ATOM     16  C   UNL     1      49.535  36.626 -13.658  1.00  0.00     0.004 C 
ENDBRANCH  14  15
ENDBRANCH  13  14
ENDBRANCH  12  13
ENDBRANCH  11  12
ENDBRANCH  10  11
ENDBRANCH   1  10
TORSDOF 12
ENDMDL
MODEL 6
REMARK VINA RESULT:    -3.887      2.298      4.526
REMARK INTER + INTRA:          -8.568
REMARK INTER:                  -6.964
REMARK INTRA:                  -1.603
REMARK UNBOUND:                -1.953
REMARK SMILES CCCCCCCCCCCCCC(=O)[O-]
REMARK SMILES IDX 8 1 9 2 10 3 11 4 12 5 13 6 14 7 15 8 16 9 7 10 6 11 5 12
REMARK SMILES IDX 4 13 3 14 2 15 1 16
REMARK H PARENT
REMARK Flexibility Score: inf
ROOT
ATOM      1  C   UNL     1      44.214  35.959 -13.133  1.00  0.00     0.000 C 
ENDROOT
BRANCH   1   2
ATOM      2  C   UNL     1      43.121  36.548 -12.225  1.00  0.00     0.000 C 
BRANCH   2   3
ATOM      3  C   UNL     1      43.357  36.244 -10.734  1.00  0.00     0.000 C 
BRANCH   3   4
ATOM      4  C   UNL     1      44.297  37.225 -10.005  1.00  0.00     0.000 C 
BRANCH   4   5
ATOM      5  C   UNL     1      45.625  36.618  -9.510  1.00  0.00     0.006 C 
BRANCH   5   6
ATOM      6  C   UNL     1      45.771  35.111  -9.777  1.00  0.00     0.053 C 
BRANCH   6   7
ATOM      7  C   UNL     1      45.642  34.305  -8.521  1.00  0.00     0.041 C 
ATOM      8  O   UNL     1      44.561  34.310  -7.874  1.00  0.00    -0.550 OA
ATOM      9  O   UNL     1      46.725  33.575  -8.047  1.00  0.00    -0.550 OA
ENDBRANCH   6   7
ENDBRANCH   5   6
ENDBRANCH   4   5
ENDBRANCH   3   4
ENDBRANCH   2   3
ENDBRANCH   1   2
BRANCH   1  10
ATOM     10  C   UNL     1      45.263  37.005 -13.547  1.00  0.00     0.000 C 
BRANCH  10  11
ATOM     11  C   UNL     1      46.701  36.553 -13.249  1.00  0.00    -0.000 C 
BRANCH  11  12
ATOM     12  C   UNL     1      46.836  35.031 -13.381  1.00  0.00    -0.000 C 
BRANCH  12  13
ATOM     13  C   UNL     1      48.222  34.644 -13.908  1.00  0.00    -0.000 C 
BRANCH  13  14
ATOM     14  C   UNL     1      48.576  35.446 -15.169  1.00  0.00    -0.000 C 
BRANCH  14  15
ATOM     15  C   UNL     1      47.822  34.952 -16.414  1.00  0.00    -0.003 C 
ATOM     16  C   UNL     1      47.226  36.095 -17.236  1.00  0.00     0.004 C 
ENDBRANCH  14  15
ENDBRANCH  13  14
ENDBRANCH  12  13
ENDBRANCH  11  12
ENDBRANCH  10  11
ENDBRANCH   1  10
TORSDOF 12
ENDMDL
MODEL 7
REMARK VINA RESULT:    -3.878      3.269      5.991
REMARK INTER + INTRA:          -8.551
REMARK INTER:                  -6.484
REMARK INTRA:                  -2.068
REMARK UNBOUND:                -1.953
REMARK SMILES CCCCCCCCCCCCCC(=O)[O-]
REMARK SMILES IDX 8 1 9 2 10 3 11 4 12 5 13 6 14 7 15 8 16 9 7 10 6 11 5 12
REMARK SMILES IDX 4 13 3 14 2 15 1 16
REMARK H PARENT
REMARK Flexibility Score: inf
ROOT
ATOM      1  C   UNL     1      46.016  34.384 -13.420  1.00  0.00     0.000 C 
ENDROOT
BRANCH   1   2
ATOM      2  C   UNL     1      47.110  34.846 -14.398  1.00  0.00     0.000 C 
BRANCH   2   3
ATOM      3  C   UNL     1      48.508  34.885 -13.754  1.00  0.00     0.000 C 
BRANCH   3   4
ATOM      4  C   UNL     1      49.361  36.119 -14.111  1.00  0.00     0.000 C 
BRANCH   4   5
ATOM      5  C   UNL     1      48.798  37.003 -15.243  1.00  0.00     0.006 C 
BRANCH   5   6
ATOM      6  C   UNL     1      49.790  37.281 -16.383  1.00  0.00     0.053 C 
BRANCH   6   7
ATOM      7  C   UNL     1      50.497  36.037 -16.825  1.00  0.00     0.041 C 
ATOM      8  O   UNL     1      49.836  35.022 -17.170  1.00  0.00    -0.550 OA
ATOM      9  O   UNL     1      51.885  35.987 -16.825  1.00  0.00    -0.550 OA
ENDBRANCH   6   7
ENDBRANCH   5   6
ENDBRANCH   4   5
ENDBRANCH   3   4
ENDBRANCH   2   3
ENDBRANCH   1   2
BRANCH   1  10
ATOM     10  C   UNL     1      45.001  35.494 -13.104  1.00  0.00     0.000 C 
BRANCH  10  11
ATOM     11  C   UNL     1      45.403  36.853 -13.697  1.00  0.00    -0.000 C 
BRANCH  11  12
ATOM     12  C   UNL     1      45.534  37.915 -12.598  1.00  0.00    -0.000 C 
BRANCH  12  13
ATOM     13  C   UNL     1      46.984  38.036 -12.118  1.00  0.00    -0.000 C 
BRANCH  13  14
ATOM     14  C   UNL     1      47.121  37.580 -10.658  1.00  0.00    -0.000 C 
BRANCH  14  15
ATOM     15  C   UNL     1      47.834  36.226 -10.526  1.00  0.00    -0.003 C 
ATOM     16  C   UNL     1      46.948  35.149  -9.901  1.00  0.00     0.004 C 
ENDBRANCH  14  15
ENDBRANCH  13  14
ENDBRANCH  12  13
ENDBRANCH  11  12
ENDBRANCH  10  11
ENDBRANCH   1  10
TORSDOF 12
ENDMDL
MODEL 8
REMARK VINA RESULT:    -3.830      3.280      6.555
REMARK INTER + INTRA:          -8.471
REMARK INTER:                  -6.771
REMARK INTRA:                  -1.699
REMARK UNBOUND:                -1.953
REMARK SMILES CCCCCCCCCCCCCC(=O)[O-]
REMARK SMILES IDX 8 1 9 2 10 3 11 4 12 5 13 6 14 7 15 8 16 9 7 10 6 11 5 12
REMARK SMILES IDX 4 13 3 14 2 15 1 16
REMARK H PARENT
REMARK Flexibility Score: inf
ROOT
ATOM      1  C   UNL     1      44.501  37.238 -13.369  1.00  0.00     0.000 C 
ENDROOT
BRANCH   1   2
ATOM      2  C   UNL     1      45.821  36.564 -13.782  1.00  0.00     0.000 C 
BRANCH   2   3
ATOM      3  C   UNL     1      45.842  35.056 -13.473  1.00  0.00     0.000 C 
BRANCH   3   4
ATOM      4  C   UNL     1      47.225  34.382 -13.579  1.00  0.00     0.000 C 
BRANCH   4   5
ATOM      5  C   UNL     1      48.232  35.092 -14.507  1.00  0.00     0.006 C 
BRANCH   5   6
ATOM      6  C   UNL     1      48.130  34.681 -15.984  1.00  0.00     0.053 C 
BRANCH   6   7
ATOM      7  C   UNL     1      49.018  35.510 -16.860  1.00  0.00     0.041 C 
ATOM      8  O   UNL     1      50.113  35.044 -17.273  1.00  0.00    -0.550 OA
ATOM      9  O   UNL     1      48.653  36.809 -17.191  1.00  0.00    -0.550 OA
ENDBRANCH   6   7
ENDBRANCH   5   6
ENDBRANCH   4   5
ENDBRANCH   3   4
ENDBRANCH   2   3
ENDBRANCH   1   2
BRANCH   1  10
ATOM     10  C   UNL     1      43.516  36.254 -12.715  1.00  0.00     0.000 C 
BRANCH  10  11
ATOM     11  C   UNL     1      43.215  36.603 -11.249  1.00  0.00    -0.000 C 
BRANCH  11  12
ATOM     12  C   UNL     1      44.126  37.734 -10.756  1.00  0.00    -0.000 C 
BRANCH  12  13
ATOM     13  C   UNL     1      45.122  37.224  -9.708  1.00  0.00    -0.000 C 
BRANCH  13  14
ATOM     14  C   UNL     1      46.567  37.361 -10.210  1.00  0.00    -0.000 C 
BRANCH  14  15
ATOM     15  C   UNL     1      47.303  36.014 -10.269  1.00  0.00    -0.003 C 
ATOM     16  C   UNL     1      46.446  34.850  -9.773  1.00  0.00     0.004 C 
ENDBRANCH  14  15
ENDBRANCH  13  14
ENDBRANCH  12  13
ENDBRANCH  11  12
ENDBRANCH  10  11
ENDBRANCH   1  10
TORSDOF 12
ENDMDL
MODEL 9
REMARK VINA RESULT:    -3.826      1.838      3.484
REMARK INTER + INTRA:          -8.463
REMARK INTER:                  -6.581
REMARK INTRA:                  -1.883
REMARK UNBOUND:                -1.953
REMARK SMILES CCCCCCCCCCCCCC(=O)[O-]
REMARK SMILES IDX 8 1 9 2 10 3 11 4 12 5 13 6 14 7 15 8 16 9 7 10 6 11 5 12
REMARK SMILES IDX 4 13 3 14 2 15 1 16
REMARK H PARENT
REMARK Flexibility Score: inf
ROOT
ATOM      1  C   UNL     1      47.114  34.422 -13.121  1.00  0.00     0.000 C 
ENDROOT
BRANCH   1   2
ATOM      2  C   UNL     1      45.632  34.600 -13.490  1.00  0.00     0.000 C 
BRANCH   2   3
ATOM      3  C   UNL     1      45.135  36.043 -13.285  1.00  0.00     0.000 C 
BRANCH   3   4
ATOM      4  C   UNL     1      43.660  36.176 -12.856  1.00  0.00     0.000 C 
BRANCH   4   5
ATOM      5  C   UNL     1      43.436  36.495 -11.364  1.00  0.00     0.006 C 
BRANCH   5   6
ATOM      6  C   UNL     1      44.728  36.641 -10.546  1.00  0.00     0.053 C 
BRANCH   6   7
ATOM      7  C   UNL     1      44.933  35.488  -9.612  1.00  0.00     0.041 C 
ATOM      8  O   UNL     1      45.944  34.746  -9.734  1.00  0.00    -0.550 OA
ATOM      9  O   UNL     1      43.992  35.211  -8.629  1.00  0.00    -0.550 OA
ENDBRANCH   6   7
ENDBRANCH   5   6
ENDBRANCH   4   5
ENDBRANCH   3   4
ENDBRANCH   2   3
ENDBRANCH   1   2
BRANCH   1  10
ATOM     10  C   UNL     1      47.767  35.734 -12.655  1.00  0.00     0.000 C 
BRANCH  10  11
ATOM     11  C   UNL     1      49.213  35.887 -13.152  1.00  0.00    -0.000 C 
BRANCH  11  12
ATOM     12  C   UNL     1      49.410  37.234 -13.859  1.00  0.00    -0.000 C 
BRANCH  12  13
ATOM     13  C   UNL     1      48.180  37.604 -14.695  1.00  0.00    -0.000 C 
BRANCH  13  14
ATOM     14  C   UNL     1      48.376  37.212 -16.167  1.00  0.00    -0.000 C 
BRANCH  14  15
ATOM     15  C   UNL     1      47.497  36.023 -16.584  1.00  0.00    -0.003 C 
ATOM     16  C   UNL     1      48.251  34.694 -16.563  1.00  0.00     0.004 C 
ENDBRANCH  14  15
ENDBRANCH  13  14
ENDBRANCH  12  13
ENDBRANCH  11  12
ENDBRANCH  10  11
ENDBRANCH   1  10
TORSDOF 12
ENDMDL
