MODEL 1
REMARK VINA RESULT:    -6.670      0.000      0.000
REMARK INTER + INTRA:         -13.387
REMARK INTER:                 -10.959
REMARK INTRA:                  -2.428
REMARK UNBOUND:                -2.428
REMARK SMILES C[C@@H]1O[C@H](OC[C@@H]2O[C@H](Oc3c(-c4ccc(O)c(O)c4)oc4cc(O)cc(O)c4c3=O)[C@H](O)[C@H](O)[C@H]2O)[C@H](O)[C@H](O)[C@@H]1O
REMARK SMILES IDX 7 1 36 2 34 3 32 4 9 5 8 6 6 7 5 8 4 9 1 10 2 11 42 12 3 13
REMARK SMILES IDX 40 14 38 15 43 16 41 18 39 20 37 22 35 24 10 26 11 27 12 28
REMARK SMILES IDX 30 29 21 30 29 31 31 32 22 33 27 34 23 35 26 36 24 37 13 38
REMARK SMILES IDX 20 39 14 40 18 41 15 42 16 43 19 44 17 46 28 48 25 50 33 52
REMARK H PARENT 43 17 41 19 39 21 37 23 35 25 19 45 17 47 28 49 25 51 33 53
REMARK Flexibility Score: inf
ROOT
ATOM      1  C   UNL     1     175.991 166.345 177.006  1.00  0.00     0.180 C 
ATOM      2  C   UNL     1     175.904 167.321 175.762  1.00  0.00     0.177 C 
ATOM      3  C   UNL     1     177.098 167.247 174.778  1.00  0.00     0.180 C 
ATOM      4  C   UNL     1     177.961 166.059 175.122  1.00  0.00     0.214 C 
ATOM      5  C   UNL     1     178.390 166.176 176.607  1.00  0.00     0.339 C 
ATOM      6  O   UNL     1     177.277 165.908 177.457  1.00  0.00    -0.332 OA
ENDROOT
BRANCH   1   7
ATOM      7  C   UNL     1     175.221 166.935 178.221  1.00  0.00     0.198 C 
BRANCH   7   8
ATOM      8  O   UNL     1     173.946 166.325 178.372  1.00  0.00    -0.347 OA
BRANCH   8   9
ATOM      9  C   UNL     1     172.904 167.282 178.233  1.00  0.00     0.281 C 
ATOM     10  C   UNL     1     173.229 170.738 177.065  1.00  0.00     0.041 C 
ATOM     11  C   UNL     1     172.490 169.467 177.537  1.00  0.00     0.150 C 
ATOM     12  C   UNL     1     171.337 169.072 176.595  1.00  0.00     0.174 C 
ATOM     13  O   UNL     1     173.441 168.417 177.592  1.00  0.00    -0.344 OA
ATOM     14  C   UNL     1     170.701 167.764 177.123  1.00  0.00     0.179 C 
ATOM     15  C   UNL     1     171.791 166.682 177.374  1.00  0.00     0.202 C 
BRANCH  12  16
ATOM     16  O   UNL     1     171.826 168.889 175.289  1.00  0.00    -0.388 OA
ATOM     17  H   UNL     1     171.145 169.253 174.677  1.00  0.00     0.211 HD
ENDBRANCH  12  16
BRANCH  14  18
ATOM     18  O   UNL     1     169.758 167.277 176.194  1.00  0.00    -0.387 OA
ATOM     19  H   UNL     1     168.898 167.742 176.388  1.00  0.00     0.211 HD
ENDBRANCH  14  18
BRANCH  15  20
ATOM     20  O   UNL     1     172.324 166.226 176.161  1.00  0.00    -0.385 OA
ATOM     21  H   UNL     1     171.547 165.831 175.653  1.00  0.00     0.211 HD
ENDBRANCH  15  20
ENDBRANCH   8   9
ENDBRANCH   7   8
ENDBRANCH   1   7
BRANCH   2  22
ATOM     22  O   UNL     1     174.735 167.018 175.018  1.00  0.00    -0.387 OA
ATOM     23  H   UNL     1     173.944 167.240 175.555  1.00  0.00     0.211 HD
ENDBRANCH   2  22
BRANCH   3  24
ATOM     24  O   UNL     1     177.828 168.445 174.846  1.00  0.00    -0.387 OA
ATOM     25  H   UNL     1     177.866 168.830 173.925  1.00  0.00     0.211 HD
ENDBRANCH   3  24
BRANCH   5  26
ATOM     26  O   UNL     1     178.946 167.444 177.008  1.00  0.00    -0.454 OA
BRANCH  26  27
ATOM     27  C   UNL     1     179.727 167.756 178.130  1.00  0.00     0.214 A 
ATOM     28  C   UNL     1     181.117 167.526 178.060  1.00  0.00     0.180 A 
ATOM     29  C   UNL     1     179.211 168.186 179.374  1.00  0.00     0.239 A 
ATOM     30  O   UNL     1     181.850 167.546 179.166  1.00  0.00    -0.452 OA
ATOM     31  C   UNL     1     180.008 168.172 180.535  1.00  0.00     0.111 A 
ATOM     32  O   UNL     1     178.054 168.641 179.414  1.00  0.00    -0.285 OA
ATOM     33  C   UNL     1     181.357 167.786 180.376  1.00  0.00     0.146 A 
ATOM     34  C   UNL     1     179.532 168.453 181.853  1.00  0.00     0.134 A 
ATOM     35  C   UNL     1     182.196 167.656 181.479  1.00  0.00     0.094 A 
ATOM     36  C   UNL     1     180.403 168.317 182.943  1.00  0.00     0.093 A 
ATOM     37  C   UNL     1     181.713 167.879 182.767  1.00  0.00     0.123 A 
BRANCH  28  38
ATOM     38  C   UNL     1     181.845 167.379 176.782  1.00  0.00     0.025 A 
ATOM     39  C   UNL     1     181.955 168.474 175.900  1.00  0.00     0.062 A 
ATOM     40  C   UNL     1     182.303 166.113 176.359  1.00  0.00     0.016 A 
ATOM     41  C   UNL     1     182.513 168.305 174.615  1.00  0.00     0.158 A 
ATOM     42  C   UNL     1     182.899 165.965 175.096  1.00  0.00     0.051 A 
ATOM     43  C   UNL     1     182.991 167.045 174.224  1.00  0.00     0.157 A 
BRANCH  41  44
ATOM     44  O   UNL     1     182.616 169.400 173.756  1.00  0.00    -0.504 OA
ATOM     45  H   UNL     1     181.814 170.006 173.557  1.00  0.00     0.293 HD
ENDBRANCH  41  44
BRANCH  43  46
ATOM     46  O   UNL     1     183.521 166.837 172.954  1.00  0.00    -0.504 OA
ATOM     47  H   UNL     1     184.510 166.872 172.770  1.00  0.00     0.293 HD
ENDBRANCH  43  46
ENDBRANCH  28  38
BRANCH  34  48
ATOM     48  O   UNL     1     178.205 168.773 182.156  1.00  0.00    -0.507 OA
ATOM     49  H   UNL     1     177.831 168.839 183.095  1.00  0.00     0.293 HD
ENDBRANCH  34  48
BRANCH  37  50
ATOM     50  O   UNL     1     182.533 167.675 183.890  1.00  0.00    -0.508 OA
ATOM     51  H   UNL     1     183.048 168.440 184.314  1.00  0.00     0.293 HD
ENDBRANCH  37  50
ENDBRANCH  26  27
ENDBRANCH   5  26
BRANCH   4  52
ATOM     52  O   UNL     1     179.027 165.936 174.218  1.00  0.00    -0.384 OA
ATOM     53  H   UNL     1     179.815 165.584 174.703  1.00  0.00     0.211 HD
ENDBRANCH   4  52
TORSDOF 16
ENDMDL
MODEL 2
REMARK VINA RESULT:    -6.357      1.533      2.068
REMARK INTER + INTRA:         -12.874
REMARK INTER:                 -10.584
REMARK INTRA:                  -2.290
REMARK UNBOUND:                -2.428
REMARK SMILES C[C@@H]1O[C@H](OC[C@@H]2O[C@H](Oc3c(-c4ccc(O)c(O)c4)oc4cc(O)cc(O)c4c3=O)[C@H](O)[C@H](O)[C@H]2O)[C@H](O)[C@H](O)[C@@H]1O
REMARK SMILES IDX 7 1 36 2 34 3 32 4 9 5 8 6 6 7 5 8 4 9 1 10 2 11 42 12 3 13
REMARK SMILES IDX 40 14 38 15 43 16 41 18 39 20 37 22 35 24 10 26 11 27 12 28
REMARK SMILES IDX 30 29 21 30 29 31 31 32 22 33 27 34 23 35 26 36 24 37 13 38
REMARK SMILES IDX 20 39 14 40 18 41 15 42 16 43 19 44 17 46 28 48 25 50 33 52
REMARK H PARENT 43 17 41 19 39 21 37 23 35 25 19 45 17 47 28 49 25 51 33 53
REMARK Flexibility Score: inf
ROOT
ATOM      1  C   UNL     1     175.464 167.423 177.433  1.00  0.00     0.180 C 
ATOM      2  C   UNL     1     175.100 168.879 176.929  1.00  0.00     0.177 C 
ATOM      3  C   UNL     1     176.197 169.586 176.097  1.00  0.00     0.180 C 
ATOM      4  C   UNL     1     177.283 168.596 175.751  1.00  0.00     0.214 C 
ATOM      5  C   UNL     1     177.812 167.968 177.066  1.00  0.00     0.339 C 
ATOM      6  O   UNL     1     176.841 167.071 177.601  1.00  0.00    -0.332 OA
ENDROOT
BRANCH   1   7
ATOM      7  C   UNL     1     174.711 167.095 178.753  1.00  0.00     0.198 C 
BRANCH   7   8
ATOM      8  O   UNL     1     173.796 166.021 178.575  1.00  0.00    -0.347 OA
BRANCH   8   9
ATOM      9  C   UNL     1     172.458 166.498 178.511  1.00  0.00     0.281 C 
ATOM     10  C   UNL     1     171.360 169.991 178.534  1.00  0.00     0.041 C 
ATOM     11  C   UNL     1     171.203 168.459 178.433  1.00  0.00     0.150 C 
ATOM     12  C   UNL     1     170.396 168.031 177.192  1.00  0.00     0.174 C 
ATOM     13  O   UNL     1     172.504 167.899 178.371  1.00  0.00    -0.344 OA
ATOM     14  C   UNL     1     170.343 166.484 177.154  1.00  0.00     0.179 C 
ATOM     15  C   UNL     1     171.769 165.879 177.294  1.00  0.00     0.202 C 
BRANCH  12  16
ATOM     16  O   UNL     1     171.005 168.531 176.027  1.00  0.00    -0.388 OA
ATOM     17  H   UNL     1     171.468 167.772 175.601  1.00  0.00     0.211 HD
ENDBRANCH  12  16
BRANCH  14  18
ATOM     18  O   UNL     1     169.763 166.052 175.943  1.00  0.00    -0.387 OA
ATOM     19  H   UNL     1     170.515 165.856 175.319  1.00  0.00     0.211 HD
ENDBRANCH  14  18
BRANCH  15  20
ATOM     20  O   UNL     1     172.529 166.130 176.144  1.00  0.00    -0.385 OA
ATOM     21  H   UNL     1     171.984 165.769 175.374  1.00  0.00     0.211 HD
ENDBRANCH  15  20
ENDBRANCH   8   9
ENDBRANCH   7   8
ENDBRANCH   1   7
BRANCH   2  22
ATOM     22  O   UNL     1     173.942 168.810 176.113  1.00  0.00    -0.387 OA
ATOM     23  H   UNL     1     173.640 167.878 176.059  1.00  0.00     0.211 HD
ENDBRANCH   2  22
BRANCH   3  24
ATOM     24  O   UNL     1     176.710 170.669 176.830  1.00  0.00    -0.387 OA
ATOM     25  H   UNL     1     176.702 170.412 177.795  1.00  0.00     0.211 HD
ENDBRANCH   3  24
BRANCH   5  26
ATOM     26  O   UNL     1     178.169 168.893 178.112  1.00  0.00    -0.454 OA
BRANCH  26  27
ATOM     27  C   UNL     1     179.241 168.843 179.015  1.00  0.00     0.214 A 
ATOM     28  C   UNL     1     180.552 168.824 178.494  1.00  0.00     0.180 A 
ATOM     29  C   UNL     1     179.106 168.699 180.414  1.00  0.00     0.239 A 
ATOM     30  O   UNL     1     181.574 168.506 179.278  1.00  0.00    -0.452 OA
ATOM     31  C   UNL     1     180.205 168.336 181.217  1.00  0.00     0.111 A 
ATOM     32  O   UNL     1     178.009 168.963 180.938  1.00  0.00    -0.285 OA
ATOM     33  C   UNL     1     181.452 168.204 180.566  1.00  0.00     0.146 A 
ATOM     34  C   UNL     1     180.131 168.033 182.611  1.00  0.00     0.134 A 
ATOM     35  C   UNL     1     182.575 167.763 181.260  1.00  0.00     0.094 A 
ATOM     36  C   UNL     1     181.281 167.594 183.283  1.00  0.00     0.093 A 
ATOM     37  C   UNL     1     182.485 167.416 182.606  1.00  0.00     0.123 A 
BRANCH  28  38
ATOM     38  C   UNL     1     180.878 169.265 177.121  1.00  0.00     0.025 A 
ATOM     39  C   UNL     1     181.445 168.360 176.202  1.00  0.00     0.062 A 
ATOM     40  C   UNL     1     180.770 170.626 176.760  1.00  0.00     0.016 A 
ATOM     41  C   UNL     1     181.899 168.806 174.943  1.00  0.00     0.158 A 
ATOM     42  C   UNL     1     181.182 171.053 175.488  1.00  0.00     0.051 A 
ATOM     43  C   UNL     1     181.754 170.157 174.590  1.00  0.00     0.157 A 
BRANCH  41  44
ATOM     44  O   UNL     1     182.456 167.896 174.044  1.00  0.00    -0.504 OA
ATOM     45  H   UNL     1     182.383 166.884 174.188  1.00  0.00     0.293 HD
ENDBRANCH  41  44
BRANCH  43  46
ATOM     46  O   UNL     1     182.217 170.637 173.369  1.00  0.00    -0.504 OA
ATOM     47  H   UNL     1     181.791 170.382 172.493  1.00  0.00     0.293 HD
ENDBRANCH  43  46
ENDBRANCH  28  38
BRANCH  34  48
ATOM     48  O   UNL     1     178.947 168.052 183.356  1.00  0.00    -0.507 OA
ATOM     49  H   UNL     1     178.907 168.076 184.367  1.00  0.00     0.293 HD
ENDBRANCH  34  48
BRANCH  37  50
ATOM     50  O   UNL     1     183.596 166.896 183.293  1.00  0.00    -0.508 OA
ATOM     51  H   UNL     1     184.505 166.822 182.847  1.00  0.00     0.293 HD
ENDBRANCH  37  50
ENDBRANCH  26  27
ENDBRANCH   5  26
BRANCH   4  52
ATOM     52  O   UNL     1     178.271 169.195 174.955  1.00  0.00    -0.384 OA
ATOM     53  H   UNL     1     178.444 170.107 175.297  1.00  0.00     0.211 HD
ENDBRANCH   4  52
TORSDOF 16
ENDMDL
MODEL 3
REMARK VINA RESULT:    -6.266      2.615      8.414
REMARK INTER + INTRA:         -12.724
REMARK INTER:                 -10.966
REMARK INTRA:                  -1.758
REMARK UNBOUND:                -2.428
REMARK SMILES C[C@@H]1O[C@H](OC[C@@H]2O[C@H](Oc3c(-c4ccc(O)c(O)c4)oc4cc(O)cc(O)c4c3=O)[C@H](O)[C@H](O)[C@H]2O)[C@H](O)[C@H](O)[C@@H]1O
REMARK SMILES IDX 7 1 36 2 34 3 32 4 9 5 8 6 6 7 5 8 4 9 1 10 2 11 42 12 3 13
REMARK SMILES IDX 40 14 38 15 43 16 41 18 39 20 37 22 35 24 10 26 11 27 12 28
REMARK SMILES IDX 30 29 21 30 29 31 31 32 22 33 27 34 23 35 26 36 24 37 13 38
REMARK SMILES IDX 20 39 14 40 18 41 15 42 16 43 19 44 17 46 28 48 25 50 33 52
REMARK H PARENT 43 17 41 19 39 21 37 23 35 25 19 45 17 47 28 49 25 51 33 53
REMARK Flexibility Score: inf
ROOT
ATOM      1  C   UNL     1     178.899 166.188 175.886  1.00  0.00     0.180 C 
ATOM      2  C   UNL     1     179.191 166.714 177.350  1.00  0.00     0.177 C 
ATOM      3  C   UNL     1     177.967 166.752 178.298  1.00  0.00     0.180 C 
ATOM      4  C   UNL     1     176.810 166.029 177.653  1.00  0.00     0.214 C 
ATOM      5  C   UNL     1     176.540 166.670 176.268  1.00  0.00     0.339 C 
ATOM      6  O   UNL     1     177.575 166.311 175.356  1.00  0.00    -0.332 OA
ENDROOT
BRANCH   1   7
ATOM      7  C   UNL     1     179.893 166.815 174.868  1.00  0.00     0.198 C 
BRANCH   7   8
ATOM      8  O   UNL     1     180.235 168.147 175.232  1.00  0.00    -0.347 OA
BRANCH   8   9
ATOM      9  C   UNL     1     181.645 168.333 175.211  1.00  0.00     0.281 C 
ATOM     10  C   UNL     1     184.110 166.302 173.421  1.00  0.00     0.041 C 
ATOM     11  C   UNL     1     183.603 167.477 174.284  1.00  0.00     0.150 C 
ATOM     12  C   UNL     1     184.093 168.843 173.765  1.00  0.00     0.174 C 
ATOM     13  O   UNL     1     182.186 167.440 174.265  1.00  0.00    -0.344 OA
ATOM     14  C   UNL     1     183.488 169.951 174.662  1.00  0.00     0.179 C 
ATOM     15  C   UNL     1     181.948 169.773 174.797  1.00  0.00     0.202 C 
BRANCH  12  16
ATOM     16  O   UNL     1     183.694 169.020 172.429  1.00  0.00    -0.388 OA
ATOM     17  H   UNL     1     183.077 169.787 172.416  1.00  0.00     0.211 HD
ENDBRANCH  12  16
BRANCH  14  18
ATOM     18  O   UNL     1     183.771 171.220 174.116  1.00  0.00    -0.387 OA
ATOM     19  H   UNL     1     184.240 171.739 174.825  1.00  0.00     0.211 HD
ENDBRANCH  14  18
BRANCH  15  20
ATOM     20  O   UNL     1     181.309 170.059 173.583  1.00  0.00    -0.385 OA
ATOM     21  H   UNL     1     180.608 170.751 173.802  1.00  0.00     0.211 HD
ENDBRANCH  15  20
ENDBRANCH   8   9
ENDBRANCH   7   8
ENDBRANCH   1   7
BRANCH   2  22
ATOM     22  O   UNL     1     180.160 165.875 177.958  1.00  0.00    -0.387 OA
ATOM     23  H   UNL     1     181.014 165.973 177.485  1.00  0.00     0.211 HD
ENDBRANCH   2  22
BRANCH   3  24
ATOM     24  O   UNL     1     177.640 168.088 178.579  1.00  0.00    -0.387 OA
ATOM     25  H   UNL     1     178.495 168.589 178.706  1.00  0.00     0.211 HD
ENDBRANCH   3  24
BRANCH   5  26
ATOM     26  O   UNL     1     176.423 168.106 176.246  1.00  0.00    -0.454 OA
BRANCH  26  27
ATOM     27  C   UNL     1     175.306 168.911 176.512  1.00  0.00     0.214 A 
ATOM     28  C   UNL     1     175.523 170.194 177.059  1.00  0.00     0.180 A 
ATOM     29  C   UNL     1     173.963 168.492 176.373  1.00  0.00     0.239 A 
ATOM     30  O   UNL     1     174.508 170.875 177.575  1.00  0.00    -0.452 OA
ATOM     31  C   UNL     1     172.910 169.225 176.955  1.00  0.00     0.111 A 
ATOM     32  O   UNL     1     173.719 167.495 175.672  1.00  0.00    -0.285 OA
ATOM     33  C   UNL     1     173.258 170.430 177.606  1.00  0.00     0.146 A 
ATOM     34  C   UNL     1     171.545 168.804 176.987  1.00  0.00     0.134 A 
ATOM     35  C   UNL     1     172.298 171.175 178.285  1.00  0.00     0.094 A 
ATOM     36  C   UNL     1     170.602 169.579 177.676  1.00  0.00     0.093 A 
ATOM     37  C   UNL     1     170.978 170.732 178.359  1.00  0.00     0.123 A 
BRANCH  28  38
ATOM     38  C   UNL     1     176.823 170.891 176.982  1.00  0.00     0.025 A 
ATOM     39  C   UNL     1     177.447 171.090 175.733  1.00  0.00     0.062 A 
ATOM     40  C   UNL     1     177.527 171.230 178.157  1.00  0.00     0.016 A 
ATOM     41  C   UNL     1     178.754 171.618 175.661  1.00  0.00     0.158 A 
ATOM     42  C   UNL     1     178.809 171.797 178.074  1.00  0.00     0.051 A 
ATOM     43  C   UNL     1     179.425 171.977 176.840  1.00  0.00     0.157 A 
BRANCH  41  44
ATOM     44  O   UNL     1     179.356 171.810 174.417  1.00  0.00    -0.504 OA
ATOM     45  H   UNL     1     180.375 171.824 174.308  1.00  0.00     0.293 HD
ENDBRANCH  41  44
BRANCH  43  46
ATOM     46  O   UNL     1     180.725 172.472 176.807  1.00  0.00    -0.504 OA
ATOM     47  H   UNL     1     180.952 173.368 176.404  1.00  0.00     0.293 HD
ENDBRANCH  43  46
ENDBRANCH  28  38
BRANCH  34  48
ATOM     48  O   UNL     1     171.083 167.600 176.446  1.00  0.00    -0.507 OA
ATOM     49  H   UNL     1     170.697 167.500 175.516  1.00  0.00     0.293 HD
ENDBRANCH  34  48
BRANCH  37  50
ATOM     50  O   UNL     1     170.022 171.439 179.108  1.00  0.00    -0.508 OA
ATOM     51  H   UNL     1     169.481 172.194 178.697  1.00  0.00     0.293 HD
ENDBRANCH  37  50
ENDBRANCH  26  27
ENDBRANCH   5  26
BRANCH   4  52
ATOM     52  O   UNL     1     175.697 166.003 178.508  1.00  0.00    -0.384 OA
ATOM     53  H   UNL     1     174.947 165.561 178.038  1.00  0.00     0.211 HD
ENDBRANCH   4  52
TORSDOF 16
ENDMDL
MODEL 4
REMARK VINA RESULT:    -6.035      2.331      8.505
REMARK INTER + INTRA:         -12.345
REMARK INTER:                 -11.870
REMARK INTRA:                  -0.475
REMARK UNBOUND:                -2.428
REMARK SMILES C[C@@H]1O[C@H](OC[C@@H]2O[C@H](Oc3c(-c4ccc(O)c(O)c4)oc4cc(O)cc(O)c4c3=O)[C@H](O)[C@H](O)[C@H]2O)[C@H](O)[C@H](O)[C@@H]1O
REMARK SMILES IDX 7 1 36 2 34 3 32 4 9 5 8 6 6 7 5 8 4 9 1 10 2 11 42 12 3 13
REMARK SMILES IDX 40 14 38 15 43 16 41 18 39 20 37 22 35 24 10 26 11 27 12 28
REMARK SMILES IDX 30 29 21 30 29 31 31 32 22 33 27 34 23 35 26 36 24 37 13 38
REMARK SMILES IDX 20 39 14 40 18 41 15 42 16 43 19 44 17 46 28 48 25 50 33 52
REMARK H PARENT 43 17 41 19 39 21 37 23 35 25 19 45 17 47 28 49 25 51 33 53
REMARK Flexibility Score: inf
ROOT
ATOM      1  C   UNL     1     180.012 168.423 180.364  1.00  0.00     0.180 C 
ATOM      2  C   UNL     1     180.191 166.893 179.995  1.00  0.00     0.177 C 
ATOM      3  C   UNL     1     180.296 166.585 178.481  1.00  0.00     0.180 C 
ATOM      4  C   UNL     1     180.449 167.875 177.714  1.00  0.00     0.214 C 
ATOM      5  C   UNL     1     179.263 168.806 178.076  1.00  0.00     0.339 C 
ATOM      6  O   UNL     1     179.423 169.304 179.402  1.00  0.00    -0.332 OA
ENDROOT
BRANCH   1   7
ATOM      7  C   UNL     1     179.240 168.576 181.704  1.00  0.00     0.198 C 
BRANCH   7   8
ATOM      8  O   UNL     1     179.687 167.635 182.672  1.00  0.00    -0.347 OA
BRANCH   8   9
ATOM      9  C   UNL     1     180.479 168.268 183.669  1.00  0.00     0.281 C 
ATOM     10  C   UNL     1     180.004 168.100 187.296  1.00  0.00     0.041 C 
ATOM     11  C   UNL     1     180.708 168.485 185.978  1.00  0.00     0.150 C 
ATOM     12  C   UNL     1     182.205 168.117 185.980  1.00  0.00     0.174 C 
ATOM     13  O   UNL     1     180.051 167.797 184.926  1.00  0.00    -0.344 OA
ATOM     14  C   UNL     1     182.802 168.492 184.602  1.00  0.00     0.179 C 
ATOM     15  C   UNL     1     181.945 167.895 183.449  1.00  0.00     0.202 C 
BRANCH  12  16
ATOM     16  O   UNL     1     182.360 166.741 186.227  1.00  0.00    -0.388 OA
ATOM     17  H   UNL     1     182.585 166.323 185.364  1.00  0.00     0.211 HD
ENDBRANCH  12  16
BRANCH  14  18
ATOM     18  O   UNL     1     184.125 168.012 184.505  1.00  0.00    -0.387 OA
ATOM     19  H   UNL     1     184.722 168.760 184.781  1.00  0.00     0.211 HD
ENDBRANCH  14  18
BRANCH  15  20
ATOM     20  O   UNL     1     182.076 166.501 183.405  1.00  0.00    -0.385 OA
ATOM     21  H   UNL     1     181.420 166.144 184.085  1.00  0.00     0.211 HD
ENDBRANCH  15  20
ENDBRANCH   8   9
ENDBRANCH   7   8
ENDBRANCH   1   7
BRANCH   2  22
ATOM     22  O   UNL     1     181.380 166.409 180.599  1.00  0.00    -0.387 OA
ATOM     23  H   UNL     1     182.154 166.842 180.181  1.00  0.00     0.211 HD
ENDBRANCH   2  22
BRANCH   3  24
ATOM     24  O   UNL     1     179.151 165.882 178.072  1.00  0.00    -0.387 OA
ATOM     25  H   UNL     1     179.090 165.955 177.077  1.00  0.00     0.211 HD
ENDBRANCH   3  24
BRANCH   5  26
ATOM     26  O   UNL     1     177.949 168.222 177.988  1.00  0.00    -0.454 OA
BRANCH  26  27
ATOM     27  C   UNL     1     176.767 168.766 177.464  1.00  0.00     0.214 A 
ATOM     28  C   UNL     1     176.838 170.022 176.824  1.00  0.00     0.180 A 
ATOM     29  C   UNL     1     175.483 168.199 177.622  1.00  0.00     0.239 A 
ATOM     30  O   UNL     1     175.726 170.695 176.558  1.00  0.00    -0.452 OA
ATOM     31  C   UNL     1     174.320 168.948 177.355  1.00  0.00     0.111 A 
ATOM     32  O   UNL     1     175.396 167.000 177.942  1.00  0.00    -0.285 OA
ATOM     33  C   UNL     1     174.507 170.254 176.849  1.00  0.00     0.146 A 
ATOM     34  C   UNL     1     172.988 168.506 177.620  1.00  0.00     0.134 A 
ATOM     35  C   UNL     1     173.421 171.099 176.639  1.00  0.00     0.094 A 
ATOM     36  C   UNL     1     171.915 169.381 177.395  1.00  0.00     0.093 A 
ATOM     37  C   UNL     1     172.129 170.683 176.951  1.00  0.00     0.123 A 
BRANCH  28  38
ATOM     38  C   UNL     1     178.101 170.593 176.312  1.00  0.00     0.025 A 
ATOM     39  C   UNL     1     178.666 170.104 175.117  1.00  0.00     0.062 A 
ATOM     40  C   UNL     1     178.834 171.522 177.083  1.00  0.00     0.016 A 
ATOM     41  C   UNL     1     179.943 170.535 174.699  1.00  0.00     0.158 A 
ATOM     42  C   UNL     1     180.084 171.979 176.636  1.00  0.00     0.051 A 
ATOM     43  C   UNL     1     180.643 171.482 175.463  1.00  0.00     0.157 A 
BRANCH  41  44
ATOM     44  O   UNL     1     180.487 170.042 173.512  1.00  0.00    -0.504 OA
ATOM     45  H   UNL     1     180.574 170.628 172.675  1.00  0.00     0.293 HD
ENDBRANCH  41  44
BRANCH  43  46
ATOM     46  O   UNL     1     181.916 171.906 175.096  1.00  0.00    -0.504 OA
ATOM     47  H   UNL     1     182.402 172.640 175.586  1.00  0.00     0.293 HD
ENDBRANCH  43  46
ENDBRANCH  28  38
BRANCH  34  48
ATOM     48  O   UNL     1     172.670 167.269 178.188  1.00  0.00    -0.507 OA
ATOM     49  H   UNL     1     172.064 166.580 177.759  1.00  0.00     0.293 HD
ENDBRANCH  34  48
BRANCH  37  50
ATOM     50  O   UNL     1     171.037 171.557 176.815  1.00  0.00    -0.508 OA
ATOM     51  H   UNL     1     170.220 171.302 176.268  1.00  0.00     0.293 HD
ENDBRANCH  37  50
ENDBRANCH  26  27
ENDBRANCH   5  26
BRANCH   4  52
ATOM     52  O   UNL     1     180.594 167.628 176.341  1.00  0.00    -0.384 OA
ATOM     53  H   UNL     1     179.872 168.098 175.856  1.00  0.00     0.211 HD
ENDBRANCH   4  52
TORSDOF 16
ENDMDL
MODEL 5
REMARK VINA RESULT:    -5.974      1.846      2.746
REMARK INTER + INTRA:         -12.243
REMARK INTER:                 -11.104
REMARK INTRA:                  -1.139
REMARK UNBOUND:                -2.428
REMARK SMILES C[C@@H]1O[C@H](OC[C@@H]2O[C@H](Oc3c(-c4ccc(O)c(O)c4)oc4cc(O)cc(O)c4c3=O)[C@H](O)[C@H](O)[C@H]2O)[C@H](O)[C@H](O)[C@@H]1O
REMARK SMILES IDX 7 1 36 2 34 3 32 4 9 5 8 6 6 7 5 8 4 9 1 10 2 11 42 12 3 13
REMARK SMILES IDX 40 14 38 15 43 16 41 18 39 20 37 22 35 24 10 26 11 27 12 28
REMARK SMILES IDX 30 29 21 30 29 31 31 32 22 33 27 34 23 35 26 36 24 37 13 38
REMARK SMILES IDX 20 39 14 40 18 41 15 42 16 43 19 44 17 46 28 48 25 50 33 52
REMARK H PARENT 43 17 41 19 39 21 37 23 35 25 19 45 17 47 28 49 25 51 33 53
REMARK Flexibility Score: inf
ROOT
ATOM      1  C   UNL     1     176.990 169.178 175.977  1.00  0.00     0.180 C 
ATOM      2  C   UNL     1     176.829 170.457 176.896  1.00  0.00     0.177 C 
ATOM      3  C   UNL     1     178.150 171.051 177.443  1.00  0.00     0.180 C 
ATOM      4  C   UNL     1     179.321 170.396 176.751  1.00  0.00     0.214 C 
ATOM      5  C   UNL     1     179.207 168.861 176.941  1.00  0.00     0.339 C 
ATOM      6  O   UNL     1     178.146 168.350 176.138  1.00  0.00    -0.332 OA
ENDROOT
BRANCH   1   7
ATOM      7  C   UNL     1     175.727 168.277 176.065  1.00  0.00     0.198 C 
BRANCH   7   8
ATOM      8  O   UNL     1     174.872 168.684 177.126  1.00  0.00    -0.347 OA
BRANCH   8   9
ATOM      9  C   UNL     1     173.507 168.617 176.733  1.00  0.00     0.281 C 
ATOM     10  C   UNL     1     170.645 167.752 178.847  1.00  0.00     0.041 C 
ATOM     11  C   UNL     1     171.368 168.212 177.564  1.00  0.00     0.150 C 
ATOM     12  C   UNL     1     170.772 169.510 176.986  1.00  0.00     0.174 C 
ATOM     13  O   UNL     1     172.732 168.420 177.893  1.00  0.00    -0.344 OA
ATOM     14  C   UNL     1     171.597 169.914 175.740  1.00  0.00     0.179 C 
ATOM     15  C   UNL     1     173.118 169.938 176.069  1.00  0.00     0.202 C 
BRANCH  12  16
ATOM     16  O   UNL     1     170.812 170.530 177.954  1.00  0.00    -0.388 OA
ATOM     17  H   UNL     1     170.092 170.337 178.598  1.00  0.00     0.211 HD
ENDBRANCH  12  16
BRANCH  14  18
ATOM     18  O   UNL     1     171.192 171.187 175.286  1.00  0.00    -0.387 OA
ATOM     19  H   UNL     1     170.387 171.437 175.817  1.00  0.00     0.211 HD
ENDBRANCH  14  18
BRANCH  15  20
ATOM     20  O   UNL     1     173.422 171.004 176.925  1.00  0.00    -0.385 OA
ATOM     21  H   UNL     1     173.622 170.586 177.822  1.00  0.00     0.211 HD
ENDBRANCH  15  20
ENDBRANCH   8   9
ENDBRANCH   7   8
ENDBRANCH   1   7
BRANCH   2  22
ATOM     22  O   UNL     1     176.190 171.483 176.153  1.00  0.00    -0.387 OA
ATOM     23  H   UNL     1     176.862 172.134 175.858  1.00  0.00     0.211 HD
ENDBRANCH   2  22
BRANCH   3  24
ATOM     24  O   UNL     1     178.206 170.857 178.833  1.00  0.00    -0.387 OA
ATOM     25  H   UNL     1     177.442 171.357 179.239  1.00  0.00     0.211 HD
ENDBRANCH   3  24
BRANCH   5  26
ATOM     26  O   UNL     1     178.988 168.404 178.290  1.00  0.00    -0.454 OA
BRANCH  26  27
ATOM     27  C   UNL     1     179.920 168.171 179.312  1.00  0.00     0.214 A 
ATOM     28  C   UNL     1     181.106 167.479 178.988  1.00  0.00     0.180 A 
ATOM     29  C   UNL     1     179.712 168.484 180.674  1.00  0.00     0.239 A 
ATOM     30  O   UNL     1     181.880 167.001 179.953  1.00  0.00    -0.452 OA
ATOM     31  C   UNL     1     180.537 167.940 181.678  1.00  0.00     0.111 A 
ATOM     32  O   UNL     1     178.824 169.303 180.969  1.00  0.00    -0.285 OA
ATOM     33  C   UNL     1     181.619 167.140 181.248  1.00  0.00     0.146 A 
ATOM     34  C   UNL     1     180.317 168.087 183.082  1.00  0.00     0.134 A 
ATOM     35  C   UNL     1     182.434 166.489 182.170  1.00  0.00     0.094 A 
ATOM     36  C   UNL     1     181.158 167.421 183.985  1.00  0.00     0.093 A 
ATOM     37  C   UNL     1     182.182 166.591 183.536  1.00  0.00     0.123 A 
BRANCH  28  38
ATOM     38  C   UNL     1     181.613 167.356 177.605  1.00  0.00     0.025 A 
ATOM     39  C   UNL     1     182.346 168.409 177.023  1.00  0.00     0.062 A 
ATOM     40  C   UNL     1     181.243 166.256 176.801  1.00  0.00     0.016 A 
ATOM     41  C   UNL     1     182.704 168.366 175.658  1.00  0.00     0.158 A 
ATOM     42  C   UNL     1     181.642 166.201 175.455  1.00  0.00     0.051 A 
ATOM     43  C   UNL     1     182.353 167.250 174.883  1.00  0.00     0.157 A 
BRANCH  41  44
ATOM     44  O   UNL     1     183.432 169.417 175.099  1.00  0.00    -0.504 OA
ATOM     45  H   UNL     1     184.133 169.257 174.369  1.00  0.00     0.293 HD
ENDBRANCH  41  44
BRANCH  43  46
ATOM     46  O   UNL     1     182.664 167.188 173.528  1.00  0.00    -0.504 OA
ATOM     47  H   UNL     1     182.042 166.778 172.850  1.00  0.00     0.293 HD
ENDBRANCH  43  46
ENDBRANCH  28  38
BRANCH  34  48
ATOM     48  O   UNL     1     179.243 168.789 183.638  1.00  0.00    -0.507 OA
ATOM     49  H   UNL     1     178.661 168.444 184.392  1.00  0.00     0.293 HD
ENDBRANCH  34  48
BRANCH  37  50
ATOM     50  O   UNL     1     182.953 165.875 184.468  1.00  0.00    -0.508 OA
ATOM     51  H   UNL     1     183.968 165.886 184.434  1.00  0.00     0.293 HD
ENDBRANCH  37  50
ENDBRANCH  26  27
ENDBRANCH   5  26
BRANCH   4  52
ATOM     52  O   UNL     1     180.534 170.947 177.190  1.00  0.00    -0.384 OA
ATOM     53  H   UNL     1     180.766 170.546 178.065  1.00  0.00     0.211 HD
ENDBRANCH   4  52
TORSDOF 16
ENDMDL
MODEL 6
REMARK VINA RESULT:    -5.880      2.462      5.460
REMARK INTER + INTRA:         -12.089
REMARK INTER:                 -10.807
REMARK INTRA:                  -1.282
REMARK UNBOUND:                -2.428
REMARK SMILES C[C@@H]1O[C@H](OC[C@@H]2O[C@H](Oc3c(-c4ccc(O)c(O)c4)oc4cc(O)cc(O)c4c3=O)[C@H](O)[C@H](O)[C@H]2O)[C@H](O)[C@H](O)[C@@H]1O
REMARK SMILES IDX 7 1 36 2 34 3 32 4 9 5 8 6 6 7 5 8 4 9 1 10 2 11 42 12 3 13
REMARK SMILES IDX 40 14 38 15 43 16 41 18 39 20 37 22 35 24 10 26 11 27 12 28
REMARK SMILES IDX 30 29 21 30 29 31 31 32 22 33 27 34 23 35 26 36 24 37 13 38
REMARK SMILES IDX 20 39 14 40 18 41 15 42 16 43 19 44 17 46 28 48 25 50 33 52
REMARK H PARENT 43 17 41 19 39 21 37 23 35 25 19 45 17 47 28 49 25 51 33 53
REMARK Flexibility Score: inf
ROOT
ATOM      1  C   UNL     1     175.636 168.632 177.703  1.00  0.00     0.180 C 
ATOM      2  C   UNL     1     175.462 167.134 177.220  1.00  0.00     0.177 C 
ATOM      3  C   UNL     1     176.692 166.220 177.442  1.00  0.00     0.180 C 
ATOM      4  C   UNL     1     177.700 166.933 178.309  1.00  0.00     0.214 C 
ATOM      5  C   UNL     1     178.050 168.289 177.643  1.00  0.00     0.339 C 
ATOM      6  O   UNL     1     176.952 169.190 177.772  1.00  0.00    -0.332 OA
ENDROOT
BRANCH   1   7
ATOM      7  C   UNL     1     174.744 169.587 176.861  1.00  0.00     0.198 C 
BRANCH   7   8
ATOM      8  O   UNL     1     173.677 168.884 176.237  1.00  0.00    -0.347 OA
BRANCH   8   9
ATOM      9  C   UNL     1     172.434 169.198 176.850  1.00  0.00     0.281 C 
ATOM     10  C   UNL     1     171.803 171.800 179.349  1.00  0.00     0.041 C 
ATOM     11  C   UNL     1     171.443 170.671 178.360  1.00  0.00     0.150 C 
ATOM     12  C   UNL     1     170.303 171.068 177.402  1.00  0.00     0.174 C 
ATOM     13  O   UNL     1     172.610 170.370 177.612  1.00  0.00    -0.344 OA
ATOM     14  C   UNL     1     170.057 169.895 176.422  1.00  0.00     0.179 C 
ATOM     15  C   UNL     1     171.390 169.441 175.760  1.00  0.00     0.202 C 
BRANCH  12  16
ATOM     16  O   UNL     1     170.653 172.234 176.698  1.00  0.00    -0.388 OA
ATOM     17  H   UNL     1     169.812 172.700 176.486  1.00  0.00     0.211 HD
ENDBRANCH  12  16
BRANCH  14  18
ATOM     18  O   UNL     1     169.143 170.287 175.423  1.00  0.00    -0.387 OA
ATOM     19  H   UNL     1     168.640 169.469 175.157  1.00  0.00     0.211 HD
ENDBRANCH  14  18
BRANCH  15  20
ATOM     20  O   UNL     1     171.858 170.416 174.869  1.00  0.00    -0.385 OA
ATOM     21  H   UNL     1     172.845 170.234 174.760  1.00  0.00     0.211 HD
ENDBRANCH  15  20
ENDBRANCH   8   9
ENDBRANCH   7   8
ENDBRANCH   1   7
BRANCH   2  22
ATOM     22  O   UNL     1     174.378 166.546 177.919  1.00  0.00    -0.387 OA
ATOM     23  H   UNL     1     174.141 165.696 177.491  1.00  0.00     0.211 HD
ENDBRANCH   2  22
BRANCH   3  24
ATOM     24  O   UNL     1     177.244 165.875 176.197  1.00  0.00    -0.387 OA
ATOM     25  H   UNL     1     176.957 164.942 175.986  1.00  0.00     0.211 HD
ENDBRANCH   3  24
BRANCH   5  26
ATOM     26  O   UNL     1     178.405 168.236 176.248  1.00  0.00    -0.454 OA
BRANCH  26  27
ATOM     27  C   UNL     1     179.390 168.955 175.555  1.00  0.00     0.214 A 
ATOM     28  C   UNL     1     180.575 169.296 176.242  1.00  0.00     0.180 A 
ATOM     29  C   UNL     1     179.242 169.461 174.243  1.00  0.00     0.239 A 
ATOM     30  O   UNL     1     181.405 170.194 175.727  1.00  0.00    -0.452 OA
ATOM     31  C   UNL     1     180.126 170.433 173.736  1.00  0.00     0.111 A 
ATOM     32  O   UNL     1     178.351 168.985 173.518  1.00  0.00    -0.285 OA
ATOM     33  C   UNL     1     181.204 170.809 174.568  1.00  0.00     0.146 A 
ATOM     34  C   UNL     1     179.970 171.100 172.482  1.00  0.00     0.134 A 
ATOM     35  C   UNL     1     182.077 171.825 174.188  1.00  0.00     0.094 A 
ATOM     36  C   UNL     1     180.869 172.116 172.126  1.00  0.00     0.093 A 
ATOM     37  C   UNL     1     181.888 172.510 172.989  1.00  0.00     0.123 A 
BRANCH  28  38
ATOM     38  C   UNL     1     181.017 168.607 177.473  1.00  0.00     0.025 A 
ATOM     39  C   UNL     1     180.938 169.263 178.718  1.00  0.00     0.062 A 
ATOM     40  C   UNL     1     181.661 167.353 177.402  1.00  0.00     0.016 A 
ATOM     41  C   UNL     1     181.495 168.676 179.874  1.00  0.00     0.158 A 
ATOM     42  C   UNL     1     182.172 166.756 178.565  1.00  0.00     0.051 A 
ATOM     43  C   UNL     1     182.104 167.414 179.789  1.00  0.00     0.157 A 
BRANCH  41  44
ATOM     44  O   UNL     1     181.406 169.338 181.099  1.00  0.00    -0.504 OA
ATOM     45  H   UNL     1     180.517 169.709 181.447  1.00  0.00     0.293 HD
ENDBRANCH  41  44
BRANCH  43  46
ATOM     46  O   UNL     1     182.689 166.819 180.902  1.00  0.00    -0.504 OA
ATOM     47  H   UNL     1     182.848 167.321 181.761  1.00  0.00     0.293 HD
ENDBRANCH  43  46
ENDBRANCH  28  38
BRANCH  34  48
ATOM     48  O   UNL     1     178.909 170.874 171.600  1.00  0.00    -0.507 OA
ATOM     49  H   UNL     1     178.997 170.412 170.703  1.00  0.00     0.293 HD
ENDBRANCH  34  48
BRANCH  37  50
ATOM     50  O   UNL     1     182.719 173.587 172.636  1.00  0.00    -0.508 OA
ATOM     51  H   UNL     1     183.179 173.625 171.731  1.00  0.00     0.293 HD
ENDBRANCH  37  50
ENDBRANCH  26  27
ENDBRANCH   5  26
BRANCH   4  52
ATOM     52  O   UNL     1     178.807 166.112 178.569  1.00  0.00    -0.384 OA
ATOM     53  H   UNL     1     178.593 165.524 179.336  1.00  0.00     0.211 HD
ENDBRANCH   4  52
TORSDOF 16
ENDMDL
MODEL 7
REMARK VINA RESULT:    -5.874      3.199      6.200
REMARK INTER + INTRA:         -12.079
REMARK INTER:                 -10.114
REMARK INTRA:                  -1.965
REMARK UNBOUND:                -2.428
REMARK SMILES C[C@@H]1O[C@H](OC[C@@H]2O[C@H](Oc3c(-c4ccc(O)c(O)c4)oc4cc(O)cc(O)c4c3=O)[C@H](O)[C@H](O)[C@H]2O)[C@H](O)[C@H](O)[C@@H]1O
REMARK SMILES IDX 7 1 36 2 34 3 32 4 9 5 8 6 6 7 5 8 4 9 1 10 2 11 42 12 3 13
REMARK SMILES IDX 40 14 38 15 43 16 41 18 39 20 37 22 35 24 10 26 11 27 12 28
REMARK SMILES IDX 30 29 21 30 29 31 31 32 22 33 27 34 23 35 26 36 24 37 13 38
REMARK SMILES IDX 20 39 14 40 18 41 15 42 16 43 19 44 17 46 28 48 25 50 33 52
REMARK H PARENT 43 17 41 19 39 21 37 23 35 25 19 45 17 47 28 49 25 51 33 53
REMARK Flexibility Score: inf
ROOT
ATOM      1  C   UNL     1     177.045 171.039 177.621  1.00  0.00     0.180 C 
ATOM      2  C   UNL     1     177.942 170.471 178.794  1.00  0.00     0.177 C 
ATOM      3  C   UNL     1     179.427 170.911 178.766  1.00  0.00     0.180 C 
ATOM      4  C   UNL     1     179.609 172.000 177.737  1.00  0.00     0.214 C 
ATOM      5  C   UNL     1     179.092 171.478 176.372  1.00  0.00     0.339 C 
ATOM      6  O   UNL     1     177.668 171.407 176.386  1.00  0.00    -0.332 OA
ENDROOT
BRANCH   1   7
ATOM      7  C   UNL     1     175.874 170.066 177.305  1.00  0.00     0.198 C 
BRANCH   7   8
ATOM      8  O   UNL     1     174.941 170.652 176.406  1.00  0.00    -0.347 OA
BRANCH   8   9
ATOM      9  C   UNL     1     173.730 169.908 176.372  1.00  0.00     0.281 C 
ATOM     10  C   UNL     1     172.778 167.148 178.584  1.00  0.00     0.041 C 
ATOM     11  C   UNL     1     172.588 168.196 177.466  1.00  0.00     0.150 C 
ATOM     12  C   UNL     1     171.293 169.013 177.638  1.00  0.00     0.174 C 
ATOM     13  O   UNL     1     173.708 169.066 177.502  1.00  0.00    -0.344 OA
ATOM     14  C   UNL     1     171.225 170.065 176.505  1.00  0.00     0.179 C 
ATOM     15  C   UNL     1     172.550 170.878 176.427  1.00  0.00     0.202 C 
BRANCH  12  16
ATOM     16  O   UNL     1     171.286 169.642 178.896  1.00  0.00    -0.388 OA
ATOM     17  H   UNL     1     171.934 170.382 178.846  1.00  0.00     0.211 HD
ENDBRANCH  12  16
BRANCH  14  18
ATOM     18  O   UNL     1     170.145 170.944 176.728  1.00  0.00    -0.387 OA
ATOM     19  H   UNL     1     170.494 171.867 176.595  1.00  0.00     0.211 HD
ENDBRANCH  14  18
BRANCH  15  20
ATOM     20  O   UNL     1     172.681 171.719 177.540  1.00  0.00    -0.385 OA
ATOM     21  H   UNL     1     172.587 172.659 177.183  1.00  0.00     0.211 HD
ENDBRANCH  15  20
ENDBRANCH   8   9
ENDBRANCH   7   8
ENDBRANCH   1   7
BRANCH   2  22
ATOM     22  O   UNL     1     177.407 170.901 180.036  1.00  0.00    -0.387 OA
ATOM     23  H   UNL     1     177.798 171.769 180.272  1.00  0.00     0.211 HD
ENDBRANCH   2  22
BRANCH   3  24
ATOM     24  O   UNL     1     180.234 169.799 178.479  1.00  0.00    -0.387 OA
ATOM     25  H   UNL     1     180.901 169.710 179.218  1.00  0.00     0.211 HD
ENDBRANCH   3  24
BRANCH   5  26
ATOM     26  O   UNL     1     179.585 170.188 175.959  1.00  0.00    -0.454 OA
BRANCH  26  27
ATOM     27  C   UNL     1     179.039 169.282 175.038  1.00  0.00     0.214 A 
ATOM     28  C   UNL     1     179.164 169.572 173.663  1.00  0.00     0.180 A 
ATOM     29  C   UNL     1     178.274 168.146 175.386  1.00  0.00     0.239 A 
ATOM     30  O   UNL     1     178.441 168.902 172.775  1.00  0.00    -0.452 OA
ATOM     31  C   UNL     1     177.496 167.471 174.424  1.00  0.00     0.111 A 
ATOM     32  O   UNL     1     178.348 167.711 176.549  1.00  0.00    -0.285 OA
ATOM     33  C   UNL     1     177.587 167.936 173.094  1.00  0.00     0.146 A 
ATOM     34  C   UNL     1     176.588 166.407 174.713  1.00  0.00     0.134 A 
ATOM     35  C   UNL     1     176.789 167.390 172.092  1.00  0.00     0.094 A 
ATOM     36  C   UNL     1     175.801 165.875 173.681  1.00  0.00     0.093 A 
ATOM     37  C   UNL     1     175.865 166.390 172.389  1.00  0.00     0.123 A 
BRANCH  28  38
ATOM     38  C   UNL     1     180.165 170.519 173.128  1.00  0.00     0.025 A 
ATOM     39  C   UNL     1     181.416 170.660 173.763  1.00  0.00     0.062 A 
ATOM     40  C   UNL     1     179.831 171.399 172.076  1.00  0.00     0.016 A 
ATOM     41  C   UNL     1     182.318 171.665 173.354  1.00  0.00     0.158 A 
ATOM     42  C   UNL     1     180.753 172.367 171.646  1.00  0.00     0.051 A 
ATOM     43  C   UNL     1     181.980 172.511 172.286  1.00  0.00     0.157 A 
BRANCH  41  44
ATOM     44  O   UNL     1     183.553 171.790 173.992  1.00  0.00    -0.504 OA
ATOM     45  H   UNL     1     183.787 171.239 174.824  1.00  0.00     0.293 HD
ENDBRANCH  41  44
BRANCH  43  46
ATOM     46  O   UNL     1     182.832 173.531 171.876  1.00  0.00    -0.504 OA
ATOM     47  H   UNL     1     183.823 173.392 171.760  1.00  0.00     0.293 HD
ENDBRANCH  43  46
ENDBRANCH  28  38
BRANCH  34  48
ATOM     48  O   UNL     1     176.350 165.905 175.996  1.00  0.00    -0.507 OA
ATOM     49  H   UNL     1     175.445 165.603 176.335  1.00  0.00     0.293 HD
ENDBRANCH  34  48
BRANCH  37  50
ATOM     50  O   UNL     1     175.003 165.887 171.399  1.00  0.00    -0.508 OA
ATOM     51  H   UNL     1     174.783 166.426 170.567  1.00  0.00     0.293 HD
ENDBRANCH  37  50
ENDBRANCH  26  27
ENDBRANCH   5  26
BRANCH   4  52
ATOM     52  O   UNL     1     180.936 172.455 177.720  1.00  0.00    -0.384 OA
ATOM     53  H   UNL     1     180.984 173.268 177.158  1.00  0.00     0.211 HD
ENDBRANCH   4  52
TORSDOF 16
ENDMDL
MODEL 8
REMARK VINA RESULT:    -5.716      2.738      8.052
REMARK INTER + INTRA:         -11.820
REMARK INTER:                 -10.408
REMARK INTRA:                  -1.412
REMARK UNBOUND:                -2.428
REMARK SMILES C[C@@H]1O[C@H](OC[C@@H]2O[C@H](Oc3c(-c4ccc(O)c(O)c4)oc4cc(O)cc(O)c4c3=O)[C@H](O)[C@H](O)[C@H]2O)[C@H](O)[C@H](O)[C@@H]1O
REMARK SMILES IDX 7 1 36 2 34 3 32 4 9 5 8 6 6 7 5 8 4 9 1 10 2 11 42 12 3 13
REMARK SMILES IDX 40 14 38 15 43 16 41 18 39 20 37 22 35 24 10 26 11 27 12 28
REMARK SMILES IDX 30 29 21 30 29 31 31 32 22 33 27 34 23 35 26 36 24 37 13 38
REMARK SMILES IDX 20 39 14 40 18 41 15 42 16 43 19 44 17 46 28 48 25 50 33 52
REMARK H PARENT 43 17 41 19 39 21 37 23 35 25 19 45 17 47 28 49 25 51 33 53
REMARK Flexibility Score: inf
ROOT
ATOM      1  C   UNL     1     178.806 166.107 176.296  1.00  0.00     0.180 C 
ATOM      2  C   UNL     1     178.865 166.688 177.768  1.00  0.00     0.177 C 
ATOM      3  C   UNL     1     177.506 166.754 178.508  1.00  0.00     0.180 C 
ATOM      4  C   UNL     1     176.464 166.004 177.717  1.00  0.00     0.214 C 
ATOM      5  C   UNL     1     176.417 166.593 176.283  1.00  0.00     0.339 C 
ATOM      6  O   UNL     1     177.582 166.205 175.560  1.00  0.00    -0.332 OA
ENDROOT
BRANCH   1   7
ATOM      7  C   UNL     1     179.948 166.701 175.426  1.00  0.00     0.198 C 
BRANCH   7   8
ATOM      8  O   UNL     1     180.228 168.048 175.785  1.00  0.00    -0.347 OA
BRANCH   8   9
ATOM      9  C   UNL     1     180.756 168.771 174.681  1.00  0.00     0.281 C 
ATOM     10  C   UNL     1     179.035 171.311 172.682  1.00  0.00     0.041 C 
ATOM     11  C   UNL     1     180.221 170.438 173.143  1.00  0.00     0.150 C 
ATOM     12  C   UNL     1     181.488 171.268 173.428  1.00  0.00     0.174 C 
ATOM     13  O   UNL     1     179.820 169.761 174.323  1.00  0.00    -0.344 OA
ATOM     14  C   UNL     1     182.595 170.312 173.933  1.00  0.00     0.179 C 
ATOM     15  C   UNL     1     182.070 169.428 175.101  1.00  0.00     0.202 C 
BRANCH  12  16
ATOM     16  O   UNL     1     181.209 172.252 174.393  1.00  0.00    -0.388 OA
ATOM     17  H   UNL     1     180.672 172.945 173.944  1.00  0.00     0.211 HD
ENDBRANCH  12  16
BRANCH  14  18
ATOM     18  O   UNL     1     183.712 171.056 174.369  1.00  0.00    -0.387 OA
ATOM     19  H   UNL     1     183.812 171.818 173.736  1.00  0.00     0.211 HD
ENDBRANCH  14  18
BRANCH  15  20
ATOM     20  O   UNL     1     181.865 170.200 176.252  1.00  0.00    -0.385 OA
ATOM     21  H   UNL     1     180.904 170.508 176.205  1.00  0.00     0.211 HD
ENDBRANCH  15  20
ENDBRANCH   8   9
ENDBRANCH   7   8
ENDBRANCH   1   7
BRANCH   2  22
ATOM     22  O   UNL     1     179.724 165.875 178.551  1.00  0.00    -0.387 OA
ATOM     23  H   UNL     1     179.723 166.203 179.476  1.00  0.00     0.211 HD
ENDBRANCH   2  22
BRANCH   3  24
ATOM     24  O   UNL     1     177.141 168.099 178.686  1.00  0.00    -0.387 OA
ATOM     25  H   UNL     1     176.363 168.121 179.312  1.00  0.00     0.211 HD
ENDBRANCH   3  24
BRANCH   5  26
ATOM     26  O   UNL     1     176.308 168.027 176.191  1.00  0.00    -0.454 OA
BRANCH  26  27
ATOM     27  C   UNL     1     175.210 168.854 176.470  1.00  0.00     0.214 A 
ATOM     28  C   UNL     1     175.458 170.126 177.029  1.00  0.00     0.180 A 
ATOM     29  C   UNL     1     173.858 168.467 176.334  1.00  0.00     0.239 A 
ATOM     30  O   UNL     1     174.462 170.825 177.556  1.00  0.00    -0.452 OA
ATOM     31  C   UNL     1     172.824 169.218 176.927  1.00  0.00     0.111 A 
ATOM     32  O   UNL     1     173.588 167.482 175.624  1.00  0.00    -0.285 OA
ATOM     33  C   UNL     1     173.201 170.408 177.588  1.00  0.00     0.146 A 
ATOM     34  C   UNL     1     171.450 168.828 176.961  1.00  0.00     0.134 A 
ATOM     35  C   UNL     1     172.261 171.168 178.279  1.00  0.00     0.094 A 
ATOM     36  C   UNL     1     170.527 169.617 177.662  1.00  0.00     0.093 A 
ATOM     37  C   UNL     1     170.933 170.754 178.355  1.00  0.00     0.123 A 
BRANCH  28  38
ATOM     38  C   UNL     1     176.774 170.795 176.952  1.00  0.00     0.025 A 
ATOM     39  C   UNL     1     177.812 170.417 177.827  1.00  0.00     0.062 A 
ATOM     40  C   UNL     1     176.962 171.915 176.114  1.00  0.00     0.016 A 
ATOM     41  C   UNL     1     179.019 171.148 177.866  1.00  0.00     0.158 A 
ATOM     42  C   UNL     1     178.183 172.609 176.127  1.00  0.00     0.051 A 
ATOM     43  C   UNL     1     179.198 172.240 177.003  1.00  0.00     0.157 A 
BRANCH  41  44
ATOM     44  O   UNL     1     180.037 170.759 178.737  1.00  0.00    -0.504 OA
ATOM     45  H   UNL     1     180.974 170.519 178.398  1.00  0.00     0.293 HD
ENDBRANCH  41  44
BRANCH  43  46
ATOM     46  O   UNL     1     180.363 173.000 177.036  1.00  0.00    -0.504 OA
ATOM     47  H   UNL     1     180.350 174.007 177.057  1.00  0.00     0.293 HD
ENDBRANCH  43  46
ENDBRANCH  28  38
BRANCH  34  48
ATOM     48  O   UNL     1     170.959 167.640 176.411  1.00  0.00    -0.507 OA
ATOM     49  H   UNL     1     170.846 167.471 175.419  1.00  0.00     0.293 HD
ENDBRANCH  34  48
BRANCH  37  50
ATOM     50  O   UNL     1     169.996 171.475 179.115  1.00  0.00    -0.508 OA
ATOM     51  H   UNL     1     170.081 172.478 179.246  1.00  0.00     0.293 HD
ENDBRANCH  37  50
ENDBRANCH  26  27
ENDBRANCH   5  26
BRANCH   4  52
ATOM     52  O   UNL     1     175.230 166.005 178.385  1.00  0.00    -0.384 OA
ATOM     53  H   UNL     1     174.506 166.056 177.713  1.00  0.00     0.211 HD
ENDBRANCH   4  52
TORSDOF 16
ENDMDL
MODEL 9
REMARK VINA RESULT:    -5.685     15.655     19.780
REMARK INTER + INTRA:         -11.769
REMARK INTER:                  -9.650
REMARK INTRA:                  -2.119
REMARK UNBOUND:                -2.428
REMARK SMILES C[C@@H]1O[C@H](OC[C@@H]2O[C@H](Oc3c(-c4ccc(O)c(O)c4)oc4cc(O)cc(O)c4c3=O)[C@H](O)[C@H](O)[C@H]2O)[C@H](O)[C@H](O)[C@@H]1O
REMARK SMILES IDX 7 1 36 2 34 3 32 4 9 5 8 6 6 7 5 8 4 9 1 10 2 11 42 12 3 13
REMARK SMILES IDX 40 14 38 15 43 16 41 18 39 20 37 22 35 24 10 26 11 27 12 28
REMARK SMILES IDX 30 29 21 30 29 31 31 32 22 33 27 34 23 35 26 36 24 37 13 38
REMARK SMILES IDX 20 39 14 40 18 41 15 42 16 43 19 44 17 46 28 48 25 50 33 52
REMARK H PARENT 43 17 41 19 39 21 37 23 35 25 19 45 17 47 28 49 25 51 33 53
REMARK Flexibility Score: inf
ROOT
ATOM      1  C   UNL     1     169.070 180.411 182.242  1.00  0.00     0.180 C 
ATOM      2  C   UNL     1     168.457 179.697 183.515  1.00  0.00     0.177 C 
ATOM      3  C   UNL     1     167.615 178.430 183.222  1.00  0.00     0.180 C 
ATOM      4  C   UNL     1     167.788 178.034 181.776  1.00  0.00     0.214 C 
ATOM      5  C   UNL     1     167.413 179.247 180.886  1.00  0.00     0.339 C 
ATOM      6  O   UNL     1     168.425 180.247 180.975  1.00  0.00    -0.332 OA
ENDROOT
BRANCH   1   7
ATOM      7  C   UNL     1     169.254 181.933 182.503  1.00  0.00     0.198 C 
BRANCH   7   8
ATOM      8  O   UNL     1     170.335 182.180 183.393  1.00  0.00    -0.347 OA
BRANCH   8   9
ATOM      9  C   UNL     1     169.975 183.142 184.376  1.00  0.00     0.281 C 
ATOM     10  C   UNL     1     166.589 184.178 185.311  1.00  0.00     0.041 C 
ATOM     11  C   UNL     1     168.129 184.128 185.401  1.00  0.00     0.150 C 
ATOM     12  C   UNL     1     168.626 183.846 186.832  1.00  0.00     0.174 C 
ATOM     13  O   UNL     1     168.574 183.102 184.530  1.00  0.00    -0.344 OA
ATOM     14  C   UNL     1     170.172 183.762 186.804  1.00  0.00     0.179 C 
ATOM     15  C   UNL     1     170.651 182.778 185.698  1.00  0.00     0.202 C 
BRANCH  12  16
ATOM     16  O   UNL     1     168.076 182.639 187.301  1.00  0.00    -0.388 OA
ATOM     17  H   UNL     1     167.824 182.115 186.506  1.00  0.00     0.211 HD
ENDBRANCH  12  16
BRANCH  14  18
ATOM     18  O   UNL     1     170.653 183.333 188.058  1.00  0.00    -0.387 OA
ATOM     19  H   UNL     1     169.854 183.133 188.619  1.00  0.00     0.211 HD
ENDBRANCH  14  18
BRANCH  15  20
ATOM     20  O   UNL     1     170.337 181.457 186.040  1.00  0.00    -0.385 OA
ATOM     21  H   UNL     1     169.755 181.112 185.291  1.00  0.00     0.211 HD
ENDBRANCH  15  20
ENDBRANCH   8   9
ENDBRANCH   7   8
ENDBRANCH   1   7
BRANCH   2  22
ATOM     22  O   UNL     1     169.512 179.301 184.377  1.00  0.00    -0.387 OA
ATOM     23  H   UNL     1     170.246 179.949 184.306  1.00  0.00     0.211 HD
ENDBRANCH   2  22
BRANCH   3  24
ATOM     24  O   UNL     1     166.267 178.691 183.521  1.00  0.00    -0.387 OA
ATOM     25  H   UNL     1     165.920 179.323 182.829  1.00  0.00     0.211 HD
ENDBRANCH   3  24
BRANCH   5  26
ATOM     26  O   UNL     1     166.151 179.880 181.176  1.00  0.00    -0.454 OA
BRANCH  26  27
ATOM     27  C   UNL     1     165.443 180.833 180.430  1.00  0.00     0.214 A 
ATOM     28  C   UNL     1     164.801 180.411 179.246  1.00  0.00     0.180 A 
ATOM     29  C   UNL     1     165.412 182.216 180.717  1.00  0.00     0.239 A 
ATOM     30  O   UNL     1     164.357 181.308 178.375  1.00  0.00    -0.452 OA
ATOM     31  C   UNL     1     164.958 183.146 179.761  1.00  0.00     0.111 A 
ATOM     32  O   UNL     1     165.734 182.596 181.856  1.00  0.00    -0.285 OA
ATOM     33  C   UNL     1     164.465 182.620 178.546  1.00  0.00     0.146 A 
ATOM     34  C   UNL     1     165.023 184.566 179.911  1.00  0.00     0.134 A 
ATOM     35  C   UNL     1     164.078 183.465 177.509  1.00  0.00     0.094 A 
ATOM     36  C   UNL     1     164.622 185.389 178.849  1.00  0.00     0.093 A 
ATOM     37  C   UNL     1     164.195 184.847 177.640  1.00  0.00     0.123 A 
BRANCH  28  38
ATOM     38  C   UNL     1     164.479 178.995 178.967  1.00  0.00     0.025 A 
ATOM     39  C   UNL     1     164.256 178.097 180.030  1.00  0.00     0.062 A 
ATOM     40  C   UNL     1     164.539 178.492 177.650  1.00  0.00     0.016 A 
ATOM     41  C   UNL     1     164.097 176.717 179.782  1.00  0.00     0.158 A 
ATOM     42  C   UNL     1     164.335 177.124 177.408  1.00  0.00     0.051 A 
ATOM     43  C   UNL     1     164.130 176.240 178.462  1.00  0.00     0.157 A 
BRANCH  41  44
ATOM     44  O   UNL     1     163.876 175.842 180.846  1.00  0.00    -0.504 OA
ATOM     45  H   UNL     1     163.446 176.157 181.721  1.00  0.00     0.293 HD
ENDBRANCH  41  44
BRANCH  43  46
ATOM     46  O   UNL     1     164.007 174.882 178.184  1.00  0.00    -0.504 OA
ATOM     47  H   UNL     1     164.103 174.175 178.894  1.00  0.00     0.293 HD
ENDBRANCH  43  46
ENDBRANCH  28  38
BRANCH  34  48
ATOM     48  O   UNL     1     165.556 185.212 181.030  1.00  0.00    -0.507 OA
ATOM     49  H   UNL     1     165.055 185.887 181.595  1.00  0.00     0.293 HD
ENDBRANCH  34  48
BRANCH  37  50
ATOM     50  O   UNL     1     163.879 185.702 176.570  1.00  0.00    -0.508 OA
ATOM     51  H   UNL     1     162.939 186.067 176.445  1.00  0.00     0.293 HD
ENDBRANCH  37  50
ENDBRANCH  26  27
ENDBRANCH   5  26
BRANCH   4  52
ATOM     52  O   UNL     1     167.074 176.861 181.490  1.00  0.00    -0.384 OA
ATOM     53  H   UNL     1     166.233 176.866 182.011  1.00  0.00     0.211 HD
ENDBRANCH   4  52
TORSDOF 16
ENDMDL
