MODEL 1
REMARK VINA RESULT:    -4.926      0.000      0.000
REMARK INTER + INTRA:          -5.926
REMARK INTER:                  -5.790
REMARK INTRA:                  -0.136
REMARK UNBOUND:                -0.136
REMARK SMILES O=C([O-])C=Cc1ccc(O)c(O)c1
REMARK SMILES IDX 6 1 13 2 7 3 11 4 8 5 9 6 5 7 4 8 2 9 1 10 3 11 12 12 10 14
REMARK H PARENT 12 13 10 15
REMARK Flexibility Score: inf
ROOT
ATOM      1  C   UNL     1     477.818  35.979 461.439  1.00  0.00    -0.022 A 
ATOM      2  C   UNL     1     478.385  34.981 460.629  1.00  0.00     0.058 A 
ATOM      3  C   UNL     1     478.280  37.305 461.307  1.00  0.00     0.012 A 
ATOM      4  C   UNL     1     479.374  35.298 459.687  1.00  0.00     0.157 A 
ATOM      5  C   UNL     1     479.266  37.620 460.368  1.00  0.00     0.051 A 
ATOM      6  C   UNL     1     479.813  36.620 459.554  1.00  0.00     0.157 A 
ENDROOT
BRANCH   1   7
ATOM      7  C   UNL     1     476.783  35.590 462.428  1.00  0.00     0.010 C 
ATOM      8  C   UNL     1     476.243  34.365 462.498  1.00  0.00     0.025 C 
BRANCH   8   9
ATOM      9  C   UNL     1     475.226  34.020 463.503  1.00  0.00     0.064 C 
ATOM     10  O   UNL     1     474.713  34.928 464.206  1.00  0.00    -0.545 OA
ATOM     11  O   UNL     1     474.822  32.702 463.692  1.00  0.00    -0.545 OA
ENDBRANCH   8   9
ENDBRANCH   1   7
BRANCH   4  12
ATOM     12  O   UNL     1     479.924  34.303 458.880  1.00  0.00    -0.504 OA
ATOM     13  H   UNL     1     480.257  33.429 459.269  1.00  0.00     0.293 HD
ENDBRANCH   4  12
BRANCH   6  14
ATOM     14  O   UNL     1     480.795  36.931 458.617  1.00  0.00    -0.504 OA
ATOM     15  H   UNL     1     480.654  37.654 457.920  1.00  0.00     0.293 HD
ENDBRANCH   6  14
TORSDOF 4
ENDMDL
MODEL 2
REMARK VINA RESULT:    -4.807      1.691      5.893
REMARK INTER + INTRA:          -5.786
REMARK INTER:                  -5.648
REMARK INTRA:                  -0.138
REMARK UNBOUND:                -0.136
REMARK SMILES O=C([O-])C=Cc1ccc(O)c(O)c1
REMARK SMILES IDX 6 1 13 2 7 3 11 4 8 5 9 6 5 7 4 8 2 9 1 10 3 11 12 12 10 14
REMARK H PARENT 12 13 10 15
REMARK Flexibility Score: inf
ROOT
ATOM      1  C   UNL     1     478.432  36.261 460.811  1.00  0.00    -0.022 A 
ATOM      2  C   UNL     1     478.216  34.941 461.239  1.00  0.00     0.058 A 
ATOM      3  C   UNL     1     477.580  37.278 461.286  1.00  0.00     0.012 A 
ATOM      4  C   UNL     1     477.188  34.639 462.143  1.00  0.00     0.157 A 
ATOM      5  C   UNL     1     476.555  36.977 462.188  1.00  0.00     0.051 A 
ATOM      6  C   UNL     1     476.358  35.660 462.621  1.00  0.00     0.157 A 
ENDROOT
BRANCH   1   7
ATOM      7  C   UNL     1     479.527  36.525 459.844  1.00  0.00     0.010 C 
ATOM      8  C   UNL     1     479.755  37.721 459.286  1.00  0.00     0.025 C 
BRANCH   8   9
ATOM      9  C   UNL     1     480.861  37.940 458.340  1.00  0.00     0.064 C 
ATOM     10  O   UNL     1     480.665  37.782 457.107  1.00  0.00    -0.545 OA
ATOM     11  O   UNL     1     482.123  38.317 458.786  1.00  0.00    -0.545 OA
ENDBRANCH   8   9
ENDBRANCH   1   7
BRANCH   4  12
ATOM     12  O   UNL     1     476.986  33.328 462.572  1.00  0.00    -0.504 OA
ATOM     13  H   UNL     1     477.764  32.705 462.753  1.00  0.00     0.293 HD
ENDBRANCH   4  12
BRANCH   6  14
ATOM     14  O   UNL     1     475.338  35.357 463.520  1.00  0.00    -0.504 OA
ATOM     15  H   UNL     1     475.530  34.908 464.408  1.00  0.00     0.293 HD
ENDBRANCH   6  14
TORSDOF 4
ENDMDL
MODEL 3
REMARK VINA RESULT:    -4.715      1.573      6.081
REMARK INTER + INTRA:          -5.678
REMARK INTER:                  -5.545
REMARK INTRA:                  -0.132
REMARK UNBOUND:                -0.136
REMARK SMILES O=C([O-])C=Cc1ccc(O)c(O)c1
REMARK SMILES IDX 6 1 13 2 7 3 11 4 8 5 9 6 5 7 4 8 2 9 1 10 3 11 12 12 10 14
REMARK H PARENT 12 13 10 15
REMARK Flexibility Score: inf
ROOT
ATOM      1  C   UNL     1     478.321  35.974 460.943  1.00  0.00    -0.022 A 
ATOM      2  C   UNL     1     477.492  36.988 461.451  1.00  0.00     0.058 A 
ATOM      3  C   UNL     1     478.112  34.647 461.369  1.00  0.00     0.012 A 
ATOM      4  C   UNL     1     476.457  36.686 462.347  1.00  0.00     0.157 A 
ATOM      5  C   UNL     1     477.080  34.346 462.263  1.00  0.00     0.051 A 
ATOM      6  C   UNL     1     476.249  35.362 462.752  1.00  0.00     0.157 A 
ENDROOT
BRANCH   1   7
ATOM      7  C   UNL     1     479.409  36.349 460.006  1.00  0.00     0.010 C 
ATOM      8  C   UNL     1     479.758  37.615 459.738  1.00  0.00     0.025 C 
BRANCH   8   9
ATOM      9  C   UNL     1     480.852  37.940 458.810  1.00  0.00     0.064 C 
ATOM     10  O   UNL     1     481.946  38.365 459.262  1.00  0.00    -0.545 OA
ATOM     11  O   UNL     1     480.696  37.788 457.436  1.00  0.00    -0.545 OA
ENDBRANCH   8   9
ENDBRANCH   1   7
BRANCH   4  12
ATOM     12  O   UNL     1     475.631  37.696 462.840  1.00  0.00    -0.504 OA
ATOM     13  H   UNL     1     474.708  37.858 462.457  1.00  0.00     0.293 HD
ENDBRANCH   4  12
BRANCH   6  14
ATOM     14  O   UNL     1     475.219  35.065 463.642  1.00  0.00    -0.504 OA
ATOM     15  H   UNL     1     474.858  34.122 463.739  1.00  0.00     0.293 HD
ENDBRANCH   6  14
TORSDOF 4
ENDMDL
MODEL 4
REMARK VINA RESULT:    -4.513      2.515      3.581
REMARK INTER + INTRA:          -5.441
REMARK INTER:                  -5.303
REMARK INTRA:                  -0.138
REMARK UNBOUND:                -0.136
REMARK SMILES O=C([O-])C=Cc1ccc(O)c(O)c1
REMARK SMILES IDX 6 1 13 2 7 3 11 4 8 5 9 6 5 7 4 8 2 9 1 10 3 11 12 12 10 14
REMARK H PARENT 12 13 10 15
REMARK Flexibility Score: inf
ROOT
ATOM      1  C   UNL     1     478.027  37.158 461.304  1.00  0.00    -0.022 A 
ATOM      2  C   UNL     1     478.875  37.481 460.232  1.00  0.00     0.058 A 
ATOM      3  C   UNL     1     477.814  35.800 461.618  1.00  0.00     0.012 A 
ATOM      4  C   UNL     1     479.520  36.475 459.500  1.00  0.00     0.157 A 
ATOM      5  C   UNL     1     478.458  34.797 460.888  1.00  0.00     0.051 A 
ATOM      6  C   UNL     1     479.314  35.131 459.830  1.00  0.00     0.157 A 
ENDROOT
BRANCH   1   7
ATOM      7  C   UNL     1     477.359  38.261 462.040  1.00  0.00     0.010 C 
ATOM      8  C   UNL     1     476.062  38.252 462.378  1.00  0.00     0.025 C 
BRANCH   8   9
ATOM      9  C   UNL     1     475.445  39.364 463.117  1.00  0.00     0.064 C 
ATOM     10  O   UNL     1     475.994  40.495 463.113  1.00  0.00    -0.545 OA
ATOM     11  O   UNL     1     474.261  39.184 463.826  1.00  0.00    -0.545 OA
ENDBRANCH   8   9
ENDBRANCH   1   7
BRANCH   4  12
ATOM     12  O   UNL     1     480.369  36.804 458.443  1.00  0.00    -0.504 OA
ATOM     13  H   UNL     1     480.225  37.639 457.889  1.00  0.00     0.293 HD
ENDBRANCH   4  12
BRANCH   6  14
ATOM     14  O   UNL     1     479.958  34.133 459.101  1.00  0.00    -0.504 OA
ATOM     15  H   UNL     1     480.969  34.100 459.025  1.00  0.00     0.293 HD
ENDBRANCH   6  14
TORSDOF 4
ENDMDL
MODEL 5
REMARK VINA RESULT:    -4.323      6.545      9.321
REMARK INTER + INTRA:          -5.217
REMARK INTER:                  -5.087
REMARK INTRA:                  -0.130
REMARK UNBOUND:                -0.136
REMARK SMILES O=C([O-])C=Cc1ccc(O)c(O)c1
REMARK SMILES IDX 6 1 13 2 7 3 11 4 8 5 9 6 5 7 4 8 2 9 1 10 3 11 12 12 10 14
REMARK H PARENT 12 13 10 15
REMARK Flexibility Score: inf
ROOT
ATOM      1  C   UNL     1     484.385  39.502 460.989  1.00  0.00    -0.022 A 
ATOM      2  C   UNL     1     484.923  38.666 459.997  1.00  0.00     0.058 A 
ATOM      3  C   UNL     1     483.004  39.785 460.966  1.00  0.00     0.012 A 
ATOM      4  C   UNL     1     484.100  38.101 459.013  1.00  0.00     0.157 A 
ATOM      5  C   UNL     1     482.184  39.221 459.984  1.00  0.00     0.051 A 
ATOM      6  C   UNL     1     482.728  38.376 459.008  1.00  0.00     0.157 A 
ENDROOT
BRANCH   1   7
ATOM      7  C   UNL     1     485.301  40.084 462.002  1.00  0.00     0.010 C 
ATOM      8  C   UNL     1     486.338  40.878 461.699  1.00  0.00     0.025 C 
BRANCH   8   9
ATOM      9  C   UNL     1     487.214  41.442 462.737  1.00  0.00     0.064 C 
ATOM     10  O   UNL     1     486.865  41.384 463.944  1.00  0.00    -0.545 OA
ATOM     11  O   UNL     1     488.425  42.042 462.406  1.00  0.00    -0.545 OA
ENDBRANCH   8   9
ENDBRANCH   1   7
BRANCH   4  12
ATOM     12  O   UNL     1     484.639  37.263 458.037  1.00  0.00    -0.504 OA
ATOM     13  H   UNL     1     484.570  36.255 458.107  1.00  0.00     0.293 HD
ENDBRANCH   4  12
BRANCH   6  14
ATOM     14  O   UNL     1     481.912  37.812 458.029  1.00  0.00    -0.504 OA
ATOM     15  H   UNL     1     481.580  38.353 457.239  1.00  0.00     0.293 HD
ENDBRANCH   6  14
TORSDOF 4
ENDMDL
MODEL 6
REMARK VINA RESULT:    -4.153      2.085      6.405
REMARK INTER + INTRA:          -5.018
REMARK INTER:                  -4.885
REMARK INTRA:                  -0.132
REMARK UNBOUND:                -0.136
REMARK SMILES O=C([O-])C=Cc1ccc(O)c(O)c1
REMARK SMILES IDX 6 1 13 2 7 3 11 4 8 5 9 6 5 7 4 8 2 9 1 10 3 11 12 12 10 14
REMARK H PARENT 12 13 10 15
REMARK Flexibility Score: inf
ROOT
ATOM      1  C   UNL     1     478.974  36.640 460.229  1.00  0.00    -0.022 A 
ATOM      2  C   UNL     1     478.138  37.556 460.889  1.00  0.00     0.058 A 
ATOM      3  C   UNL     1     478.849  35.268 460.527  1.00  0.00     0.012 A 
ATOM      4  C   UNL     1     477.178  37.115 461.811  1.00  0.00     0.157 A 
ATOM      5  C   UNL     1     477.892  34.829 461.447  1.00  0.00     0.051 A 
ATOM      6  C   UNL     1     477.053  35.749 462.088  1.00  0.00     0.157 A 
ENDROOT
BRANCH   1   7
ATOM      7  C   UNL     1     479.980  37.159 459.270  1.00  0.00     0.010 C 
ATOM      8  C   UNL     1     480.445  38.416 459.286  1.00  0.00     0.025 C 
BRANCH   8   9
ATOM      9  C   UNL     1     481.452  38.885 458.322  1.00  0.00     0.064 C 
ATOM     10  O   UNL     1     482.575  38.321 458.273  1.00  0.00    -0.545 OA
ATOM     11  O   UNL     1     481.184  39.946 457.463  1.00  0.00    -0.545 OA
ENDBRANCH   8   9
ENDBRANCH   1   7
BRANCH   4  12
ATOM     12  O   UNL     1     476.345  38.029 462.455  1.00  0.00    -0.504 OA
ATOM     13  H   UNL     1     475.408  37.777 462.746  1.00  0.00     0.293 HD
ENDBRANCH   4  12
BRANCH   6  14
ATOM     14  O   UNL     1     476.097  35.314 463.005  1.00  0.00    -0.504 OA
ATOM     15  H   UNL     1     475.414  35.950 463.400  1.00  0.00     0.293 HD
ENDBRANCH   6  14
TORSDOF 4
ENDMDL
MODEL 7
REMARK VINA RESULT:    -4.150      3.190      4.187
REMARK INTER + INTRA:          -5.014
REMARK INTER:                  -4.880
REMARK INTRA:                  -0.133
REMARK UNBOUND:                -0.136
REMARK SMILES O=C([O-])C=Cc1ccc(O)c(O)c1
REMARK SMILES IDX 6 1 13 2 7 3 11 4 8 5 9 6 5 7 4 8 2 9 1 10 3 11 12 12 10 14
REMARK H PARENT 12 13 10 15
REMARK Flexibility Score: inf
ROOT
ATOM      1  C   UNL     1     476.837  37.216 461.923  1.00  0.00    -0.022 A 
ATOM      2  C   UNL     1     476.800  35.892 462.392  1.00  0.00     0.058 A 
ATOM      3  C   UNL     1     477.800  37.569 460.956  1.00  0.00     0.012 A 
ATOM      4  C   UNL     1     477.688  34.930 461.891  1.00  0.00     0.157 A 
ATOM      5  C   UNL     1     478.685  36.609 460.458  1.00  0.00     0.051 A 
ATOM      6  C   UNL     1     478.630  35.288 460.920  1.00  0.00     0.157 A 
ENDROOT
BRANCH   1   7
ATOM      7  C   UNL     1     475.882  38.198 462.494  1.00  0.00     0.010 C 
ATOM      8  C   UNL     1     476.240  39.407 462.950  1.00  0.00     0.025 C 
BRANCH   8   9
ATOM      9  C   UNL     1     475.257  40.354 463.497  1.00  0.00     0.064 C 
ATOM     10  O   UNL     1     474.693  41.177 462.730  1.00  0.00    -0.545 OA
ATOM     11  O   UNL     1     474.940  40.358 464.851  1.00  0.00    -0.545 OA
ENDBRANCH   8   9
ENDBRANCH   1   7
BRANCH   4  12
ATOM     12  O   UNL     1     477.639  33.615 462.354  1.00  0.00    -0.504 OA
ATOM     13  H   UNL     1     478.427  33.192 462.830  1.00  0.00     0.293 HD
ENDBRANCH   4  12
BRANCH   6  14
ATOM     14  O   UNL     1     479.511  34.329 460.424  1.00  0.00    -0.504 OA
ATOM     15  H   UNL     1     479.241  33.695 459.680  1.00  0.00     0.293 HD
ENDBRANCH   6  14
TORSDOF 4
ENDMDL
MODEL 8
REMARK VINA RESULT:    -4.010      4.132      5.939
REMARK INTER + INTRA:          -4.849
REMARK INTER:                  -4.714
REMARK INTRA:                  -0.135
REMARK UNBOUND:                -0.136
REMARK SMILES O=C([O-])C=Cc1ccc(O)c(O)c1
REMARK SMILES IDX 6 1 13 2 7 3 11 4 8 5 9 6 5 7 4 8 2 9 1 10 3 11 12 12 10 14
REMARK H PARENT 12 13 10 15
REMARK Flexibility Score: inf
ROOT
ATOM      1  C   UNL     1     482.105  39.422 459.585  1.00  0.00    -0.022 A 
ATOM      2  C   UNL     1     482.670  38.305 458.947  1.00  0.00     0.058 A 
ATOM      3  C   UNL     1     482.917  40.549 459.828  1.00  0.00     0.012 A 
ATOM      4  C   UNL     1     484.010  38.316 458.536  1.00  0.00     0.157 A 
ATOM      5  C   UNL     1     484.253  40.559 459.418  1.00  0.00     0.051 A 
ATOM      6  C   UNL     1     484.803  39.446 458.769  1.00  0.00     0.157 A 
ENDROOT
BRANCH   1   7
ATOM      7  C   UNL     1     480.685  39.356 460.010  1.00  0.00     0.010 C 
ATOM      8  C   UNL     1     479.901  38.285 459.822  1.00  0.00     0.025 C 
BRANCH   8   9
ATOM      9  C   UNL     1     478.501  38.259 460.271  1.00  0.00     0.064 C 
ATOM     10  O   UNL     1     477.790  39.290 460.151  1.00  0.00    -0.545 OA
ATOM     11  O   UNL     1     477.946  37.111 460.827  1.00  0.00    -0.545 OA
ENDBRANCH   8   9
ENDBRANCH   1   7
BRANCH   4  12
ATOM     12  O   UNL     1     484.561  37.208 457.894  1.00  0.00    -0.504 OA
ATOM     13  H   UNL     1     484.033  36.672 457.216  1.00  0.00     0.293 HD
ENDBRANCH   4  12
BRANCH   6  14
ATOM     14  O   UNL     1     486.134  39.454 458.358  1.00  0.00    -0.504 OA
ATOM     15  H   UNL     1     486.764  40.205 458.618  1.00  0.00     0.293 HD
ENDBRANCH   6  14
TORSDOF 4
ENDMDL
MODEL 9
REMARK VINA RESULT:    -3.868      8.187     10.237
REMARK INTER + INTRA:          -4.682
REMARK INTER:                  -4.545
REMARK INTRA:                  -0.137
REMARK UNBOUND:                -0.136
REMARK SMILES O=C([O-])C=Cc1ccc(O)c(O)c1
REMARK SMILES IDX 6 1 13 2 7 3 11 4 8 5 9 6 5 7 4 8 2 9 1 10 3 11 12 12 10 14
REMARK H PARENT 12 13 10 15
REMARK Flexibility Score: inf
ROOT
ATOM      1  C   UNL     1     485.387  40.338 460.123  1.00  0.00    -0.022 A 
ATOM      2  C   UNL     1     484.886  40.704 458.863  1.00  0.00     0.058 A 
ATOM      3  C   UNL     1     485.373  38.977 460.491  1.00  0.00     0.012 A 
ATOM      4  C   UNL     1     484.404  39.733 457.973  1.00  0.00     0.157 A 
ATOM      5  C   UNL     1     484.892  38.010 459.605  1.00  0.00     0.051 A 
ATOM      6  C   UNL     1     484.409  38.383 458.344  1.00  0.00     0.157 A 
ENDROOT
BRANCH   1   7
ATOM      7  C   UNL     1     485.876  41.405 461.031  1.00  0.00     0.010 C 
ATOM      8  C   UNL     1     486.765  41.198 462.012  1.00  0.00     0.025 C 
BRANCH   8   9
ATOM      9  C   UNL     1     487.230  42.290 462.882  1.00  0.00     0.064 C 
ATOM     10  O   UNL     1     487.683  42.024 464.025  1.00  0.00    -0.545 OA
ATOM     11  O   UNL     1     487.178  43.615 462.462  1.00  0.00    -0.545 OA
ENDBRANCH   8   9
ENDBRANCH   1   7
BRANCH   4  12
ATOM     12  O   UNL     1     483.918  40.103 456.720  1.00  0.00    -0.504 OA
ATOM     13  H   UNL     1     484.381  40.808 456.159  1.00  0.00     0.293 HD
ENDBRANCH   4  12
BRANCH   6  14
ATOM     14  O   UNL     1     483.930  37.421 457.457  1.00  0.00    -0.504 OA
ATOM     15  H   UNL     1     483.695  36.485 457.768  1.00  0.00     0.293 HD
ENDBRANCH   6  14
TORSDOF 4
ENDMDL
