MODEL 1
REMARK VINA RESULT:    -5.358      0.000      0.000
REMARK INTER + INTRA:          -6.281
REMARK INTER:                  -6.142
REMARK INTRA:                  -0.140
REMARK UNBOUND:                -0.140
REMARK SMILES O=C([O-])C=Cc1ccc(O)cc1
REMARK SMILES IDX 6 1 7 2 12 3 8 4 11 5 9 6 5 7 4 8 2 9 1 10 3 11 10 12
REMARK H PARENT 10 13
REMARK Flexibility Score: inf
ROOT
ATOM      1  C   UNL     1     -32.831  -3.384 -18.707  1.00  0.00    -0.025 A 
ATOM      2  C   UNL     1     -31.541  -2.839 -18.584  1.00  0.00     0.012 A 
ATOM      3  C   UNL     1     -33.424  -3.444 -19.985  1.00  0.00     0.012 A 
ATOM      4  C   UNL     1     -30.848  -2.388 -19.711  1.00  0.00     0.047 A 
ATOM      5  C   UNL     1     -32.728  -2.991 -21.109  1.00  0.00     0.047 A 
ATOM      6  C   UNL     1     -31.440  -2.466 -20.978  1.00  0.00     0.115 A 
ENDROOT
BRANCH   1   7
ATOM      7  C   UNL     1     -33.530  -3.840 -17.479  1.00  0.00     0.010 C 
ATOM      8  C   UNL     1     -34.863  -3.832 -17.334  1.00  0.00     0.025 C 
BRANCH   8   9
ATOM      9  C   UNL     1     -35.521  -4.303 -16.104  1.00  0.00     0.064 C 
ATOM     10  O   UNL     1     -35.719  -3.527 -15.131  1.00  0.00    -0.545 OA
ATOM     11  O   UNL     1     -35.933  -5.626 -16.015  1.00  0.00    -0.545 OA
ENDBRANCH   8   9
ENDBRANCH   1   7
BRANCH   6  12
ATOM     12  O   UNL     1     -30.759  -2.020 -22.109  1.00  0.00    -0.508 OA
ATOM     13  H   UNL     1     -30.810  -2.521 -22.988  1.00  0.00     0.293 HD
ENDBRANCH   6  12
TORSDOF 3
ENDMDL
MODEL 2
REMARK VINA RESULT:    -5.215      3.587      4.725
REMARK INTER + INTRA:          -6.117
REMARK INTER:                  -5.967
REMARK INTRA:                  -0.149
REMARK UNBOUND:                -0.140
REMARK SMILES O=C([O-])C=Cc1ccc(O)cc1
REMARK SMILES IDX 6 1 7 2 12 3 8 4 11 5 9 6 5 7 4 8 2 9 1 10 3 11 10 12
REMARK H PARENT 10 13
REMARK Flexibility Score: inf
ROOT
ATOM      1  C   UNL     1     -35.860  -5.299 -16.594  1.00  0.00    -0.025 A 
ATOM      2  C   UNL     1     -36.170  -5.811 -17.866  1.00  0.00     0.012 A 
ATOM      3  C   UNL     1     -35.337  -3.994 -16.496  1.00  0.00     0.012 A 
ATOM      4  C   UNL     1     -35.985  -5.031 -19.012  1.00  0.00     0.047 A 
ATOM      5  C   UNL     1     -35.153  -3.217 -17.644  1.00  0.00     0.047 A 
ATOM      6  C   UNL     1     -35.479  -3.731 -18.903  1.00  0.00     0.115 A 
ENDROOT
BRANCH   1   7
ATOM      7  C   UNL     1     -36.064  -6.170 -15.410  1.00  0.00     0.010 C 
ATOM      8  C   UNL     1     -36.163  -7.506 -15.475  1.00  0.00     0.025 C 
BRANCH   8   9
ATOM      9  C   UNL     1     -36.354  -8.339 -14.276  1.00  0.00     0.064 C 
ATOM     10  O   UNL     1     -37.441  -8.939 -14.064  1.00  0.00    -0.545 OA
ATOM     11  O   UNL     1     -35.316  -8.466 -13.363  1.00  0.00    -0.545 OA
ENDBRANCH   8   9
ENDBRANCH   1   7
BRANCH   6  12
ATOM     12  O   UNL     1     -35.291  -2.943 -20.036  1.00  0.00    -0.508 OA
ATOM     13  H   UNL     1     -36.076  -2.553 -20.545  1.00  0.00     0.293 HD
ENDBRANCH   6  12
TORSDOF 3
ENDMDL
MODEL 3
REMARK VINA RESULT:    -5.138      3.593      4.545
REMARK INTER + INTRA:          -6.028
REMARK INTER:                  -5.890
REMARK INTRA:                  -0.138
REMARK UNBOUND:                -0.140
REMARK SMILES O=C([O-])C=Cc1ccc(O)cc1
REMARK SMILES IDX 6 1 7 2 12 3 8 4 11 5 9 6 5 7 4 8 2 9 1 10 3 11 10 12
REMARK H PARENT 10 13
REMARK Flexibility Score: inf
ROOT
ATOM      1  C   UNL     1     -35.814  -5.379 -16.693  1.00  0.00    -0.025 A 
ATOM      2  C   UNL     1     -35.402  -4.042 -16.556  1.00  0.00     0.012 A 
ATOM      3  C   UNL     1     -36.074  -5.880 -17.985  1.00  0.00     0.012 A 
ATOM      4  C   UNL     1     -35.229  -3.231 -17.681  1.00  0.00     0.047 A 
ATOM      5  C   UNL     1     -35.900  -5.066 -19.108  1.00  0.00     0.047 A 
ATOM      6  C   UNL     1     -35.475  -3.743 -18.961  1.00  0.00     0.115 A 
ENDROOT
BRANCH   1   7
ATOM      7  C   UNL     1     -35.994  -6.196 -15.467  1.00  0.00     0.010 C 
ATOM      8  C   UNL     1     -36.169  -7.525 -15.476  1.00  0.00     0.025 C 
BRANCH   8   9
ATOM      9  C   UNL     1     -36.333  -8.305 -14.237  1.00  0.00     0.064 C 
ATOM     10  O   UNL     1     -37.338  -9.042 -14.058  1.00  0.00    -0.545 OA
ATOM     11  O   UNL     1     -35.361  -8.225 -13.249  1.00  0.00    -0.545 OA
ENDBRANCH   8   9
ENDBRANCH   1   7
BRANCH   6  12
ATOM     12  O   UNL     1     -35.305  -2.945 -20.091  1.00  0.00    -0.508 OA
ATOM     13  H   UNL     1     -34.384  -2.655 -20.400  1.00  0.00     0.293 HD
ENDBRANCH   6  12
TORSDOF 3
ENDMDL
MODEL 4
REMARK VINA RESULT:    -5.079      3.071      4.066
REMARK INTER + INTRA:          -5.961
REMARK INTER:                  -5.827
REMARK INTRA:                  -0.135
REMARK UNBOUND:                -0.140
REMARK SMILES O=C([O-])C=Cc1ccc(O)cc1
REMARK SMILES IDX 6 1 7 2 12 3 8 4 11 5 9 6 5 7 4 8 2 9 1 10 3 11 10 12
REMARK H PARENT 10 13
REMARK Flexibility Score: inf
ROOT
ATOM      1  C   UNL     1     -35.726  -5.287 -17.133  1.00  0.00    -0.025 A 
ATOM      2  C   UNL     1     -34.972  -4.122 -16.906  1.00  0.00     0.012 A 
ATOM      3  C   UNL     1     -36.044  -5.642 -18.460  1.00  0.00     0.012 A 
ATOM      4  C   UNL     1     -34.524  -3.344 -17.977  1.00  0.00     0.047 A 
ATOM      5  C   UNL     1     -35.595  -4.861 -19.528  1.00  0.00     0.047 A 
ATOM      6  C   UNL     1     -34.833  -3.713 -19.292  1.00  0.00     0.115 A 
ENDROOT
BRANCH   1   7
ATOM      7  C   UNL     1     -36.186  -6.074 -15.962  1.00  0.00     0.010 C 
ATOM      8  C   UNL     1     -36.265  -7.412 -15.948  1.00  0.00     0.025 C 
BRANCH   8   9
ATOM      9  C   UNL     1     -36.717  -8.160 -14.762  1.00  0.00     0.064 C 
ATOM     10  O   UNL     1     -36.001  -8.238 -13.728  1.00  0.00    -0.545 OA
ATOM     11  O   UNL     1     -37.954  -8.789 -14.784  1.00  0.00    -0.545 OA
ENDBRANCH   8   9
ENDBRANCH   1   7
BRANCH   6  12
ATOM     12  O   UNL     1     -34.392  -2.946 -20.368  1.00  0.00    -0.508 OA
ATOM     13  H   UNL     1     -33.674  -3.284 -21.000  1.00  0.00     0.293 HD
ENDBRANCH   6  12
TORSDOF 3
ENDMDL
MODEL 5
REMARK VINA RESULT:    -5.058      3.790      4.944
REMARK INTER + INTRA:          -5.937
REMARK INTER:                  -5.800
REMARK INTRA:                  -0.137
REMARK UNBOUND:                -0.140
REMARK SMILES O=C([O-])C=Cc1ccc(O)cc1
REMARK SMILES IDX 6 1 7 2 12 3 8 4 11 5 9 6 5 7 4 8 2 9 1 10 3 11 10 12
REMARK H PARENT 10 13
REMARK Flexibility Score: inf
ROOT
ATOM      1  C   UNL     1     -30.230  -3.363 -18.784  1.00  0.00    -0.025 A 
ATOM      2  C   UNL     1     -31.616  -3.457 -18.570  1.00  0.00     0.012 A 
ATOM      3  C   UNL     1     -29.765  -2.801 -19.991  1.00  0.00     0.012 A 
ATOM      4  C   UNL     1     -32.518  -2.978 -19.525  1.00  0.00     0.047 A 
ATOM      5  C   UNL     1     -30.670  -2.324 -20.943  1.00  0.00     0.047 A 
ATOM      6  C   UNL     1     -32.046  -2.408 -20.714  1.00  0.00     0.115 A 
ENDROOT
BRANCH   1   7
ATOM      7  C   UNL     1     -29.314  -3.895 -17.745  1.00  0.00     0.010 C 
ATOM      8  C   UNL     1     -29.006  -5.194 -17.617  1.00  0.00     0.025 C 
BRANCH   8   9
ATOM      9  C   UNL     1     -28.083  -5.684 -16.579  1.00  0.00     0.064 C 
ATOM     10  O   UNL     1     -28.243  -6.813 -16.043  1.00  0.00    -0.545 OA
ATOM     11  O   UNL     1     -27.016  -4.887 -16.185  1.00  0.00    -0.545 OA
ENDBRANCH   8   9
ENDBRANCH   1   7
BRANCH   6  12
ATOM     12  O   UNL     1     -32.934  -1.926 -21.673  1.00  0.00    -0.508 OA
ATOM     13  H   UNL     1     -33.938  -2.019 -21.559  1.00  0.00     0.293 HD
ENDBRANCH   6  12
TORSDOF 3
ENDMDL
MODEL 6
REMARK VINA RESULT:    -4.857      4.581      7.168
REMARK INTER + INTRA:          -5.707
REMARK INTER:                  -5.567
REMARK INTRA:                  -0.140
REMARK UNBOUND:                -0.140
REMARK SMILES O=C([O-])C=Cc1ccc(O)cc1
REMARK SMILES IDX 6 1 7 2 12 3 8 4 11 5 9 6 5 7 4 8 2 9 1 10 3 11 10 12
REMARK H PARENT 10 13
REMARK Flexibility Score: inf
ROOT
ATOM      1  C   UNL     1     -36.390  -6.341 -15.910  1.00  0.00    -0.025 A 
ATOM      2  C   UNL     1     -36.288  -7.737 -16.042  1.00  0.00     0.012 A 
ATOM      3  C   UNL     1     -36.075  -5.752 -14.669  1.00  0.00     0.012 A 
ATOM      4  C   UNL     1     -35.857  -8.524 -14.971  1.00  0.00     0.047 A 
ATOM      5  C   UNL     1     -35.645  -6.542 -13.599  1.00  0.00     0.047 A 
ATOM      6  C   UNL     1     -35.532  -7.928 -13.746  1.00  0.00     0.115 A 
ENDROOT
BRANCH   1   7
ATOM      7  C   UNL     1     -36.862  -5.550 -17.074  1.00  0.00     0.010 C 
ATOM      8  C   UNL     1     -36.207  -5.479 -18.242  1.00  0.00     0.025 C 
BRANCH   8   9
ATOM      9  C   UNL     1     -36.712  -4.692 -19.379  1.00  0.00     0.064 C 
ATOM     10  O   UNL     1     -36.209  -4.808 -20.528  1.00  0.00    -0.545 OA
ATOM     11  O   UNL     1     -37.765  -3.808 -19.182  1.00  0.00    -0.545 OA
ENDBRANCH   8   9
ENDBRANCH   1   7
BRANCH   6  12
ATOM     12  O   UNL     1     -35.100  -8.701 -12.671  1.00  0.00    -0.508 OA
ATOM     13  H   UNL     1     -34.540  -9.535 -12.810  1.00  0.00     0.293 HD
ENDBRANCH   6  12
TORSDOF 3
ENDMDL
MODEL 7
REMARK VINA RESULT:    -4.801      1.889      2.910
REMARK INTER + INTRA:          -5.643
REMARK INTER:                  -5.498
REMARK INTRA:                  -0.145
REMARK UNBOUND:                -0.140
REMARK SMILES O=C([O-])C=Cc1ccc(O)cc1
REMARK SMILES IDX 6 1 7 2 12 3 8 4 11 5 9 6 5 7 4 8 2 9 1 10 3 11 10 12
REMARK H PARENT 10 13
REMARK Flexibility Score: inf
ROOT
ATOM      1  C   UNL     1     -34.884  -4.299 -17.841  1.00  0.00    -0.025 A 
ATOM      2  C   UNL     1     -35.394  -5.049 -18.915  1.00  0.00     0.012 A 
ATOM      3  C   UNL     1     -33.719  -3.531 -18.041  1.00  0.00     0.012 A 
ATOM      4  C   UNL     1     -34.772  -5.015 -20.166  1.00  0.00     0.047 A 
ATOM      5  C   UNL     1     -33.099  -3.500 -19.294  1.00  0.00     0.047 A 
ATOM      6  C   UNL     1     -33.623  -4.238 -20.359  1.00  0.00     0.115 A 
ENDROOT
BRANCH   1   7
ATOM      7  C   UNL     1     -35.574  -4.377 -16.529  1.00  0.00     0.010 C 
ATOM      8  C   UNL     1     -35.962  -5.527 -15.958  1.00  0.00     0.025 C 
BRANCH   8   9
ATOM      9  C   UNL     1     -36.635  -5.565 -14.649  1.00  0.00     0.064 C 
ATOM     10  O   UNL     1     -37.488  -4.695 -14.328  1.00  0.00    -0.545 OA
ATOM     11  O   UNL     1     -36.326  -6.580 -13.753  1.00  0.00    -0.545 OA
ENDBRANCH   8   9
ENDBRANCH   1   7
BRANCH   6  12
ATOM     12  O   UNL     1     -32.994  -4.195 -21.602  1.00  0.00    -0.508 OA
ATOM     13  H   UNL     1     -31.984  -4.217 -21.684  1.00  0.00     0.293 HD
ENDBRANCH   6  12
TORSDOF 3
ENDMDL
MODEL 8
REMARK VINA RESULT:    -4.785      3.591      7.552
REMARK INTER + INTRA:          -5.624
REMARK INTER:                  -5.480
REMARK INTRA:                  -0.145
REMARK UNBOUND:                -0.140
REMARK SMILES O=C([O-])C=Cc1ccc(O)cc1
REMARK SMILES IDX 6 1 7 2 12 3 8 4 11 5 9 6 5 7 4 8 2 9 1 10 3 11 10 12
REMARK H PARENT 10 13
REMARK Flexibility Score: inf
ROOT
ATOM      1  C   UNL     1     -36.727  -6.675 -16.255  1.00  0.00    -0.025 A 
ATOM      2  C   UNL     1     -37.872  -6.157 -15.625  1.00  0.00     0.012 A 
ATOM      3  C   UNL     1     -36.327  -7.994 -15.959  1.00  0.00     0.012 A 
ATOM      4  C   UNL     1     -38.615  -6.943 -14.740  1.00  0.00     0.047 A 
ATOM      5  C   UNL     1     -37.072  -8.777 -15.072  1.00  0.00     0.047 A 
ATOM      6  C   UNL     1     -38.218  -8.258 -14.463  1.00  0.00     0.115 A 
ENDROOT
BRANCH   1   7
ATOM      7  C   UNL     1     -35.966  -5.797 -17.178  1.00  0.00     0.010 C 
ATOM      8  C   UNL     1     -35.732  -4.497 -16.947  1.00  0.00     0.025 C 
BRANCH   8   9
ATOM      9  C   UNL     1     -34.963  -3.659 -17.882  1.00  0.00     0.064 C 
ATOM     10  O   UNL     1     -35.535  -3.008 -18.797  1.00  0.00    -0.545 OA
ATOM     11  O   UNL     1     -33.583  -3.584 -17.752  1.00  0.00    -0.545 OA
ENDBRANCH   8   9
ENDBRANCH   1   7
BRANCH   6  12
ATOM     12  O   UNL     1     -38.950  -9.052 -13.584  1.00  0.00    -0.508 OA
ATOM     13  H   UNL     1     -38.593  -9.292 -12.665  1.00  0.00     0.293 HD
ENDBRANCH   6  12
TORSDOF 3
ENDMDL
MODEL 9
REMARK VINA RESULT:    -4.685      7.094      8.656
REMARK INTER + INTRA:          -5.509
REMARK INTER:                  -5.370
REMARK INTRA:                  -0.139
REMARK UNBOUND:                -0.140
REMARK SMILES O=C([O-])C=Cc1ccc(O)cc1
REMARK SMILES IDX 6 1 7 2 12 3 8 4 11 5 9 6 5 7 4 8 2 9 1 10 3 11 10 12
REMARK H PARENT 10 13
REMARK Flexibility Score: inf
ROOT
ATOM      1  C   UNL     1     -38.741  -6.604 -13.619  1.00  0.00    -0.025 A 
ATOM      2  C   UNL     1     -39.144  -7.922 -13.900  1.00  0.00     0.012 A 
ATOM      3  C   UNL     1     -37.501  -6.153 -14.116  1.00  0.00     0.012 A 
ATOM      4  C   UNL     1     -38.342  -8.761 -14.678  1.00  0.00     0.047 A 
ATOM      5  C   UNL     1     -36.702  -6.996 -14.894  1.00  0.00     0.047 A 
ATOM      6  C   UNL     1     -37.119  -8.298 -15.180  1.00  0.00     0.115 A 
ENDROOT
BRANCH   1   7
ATOM      7  C   UNL     1     -39.623  -5.756 -12.780  1.00  0.00     0.010 C 
ATOM      8  C   UNL     1     -39.172  -4.800 -11.954  1.00  0.00     0.025 C 
BRANCH   8   9
ATOM      9  C   UNL     1     -40.079  -3.970 -11.144  1.00  0.00     0.064 C 
ATOM     10  O   UNL     1     -40.502  -2.861 -11.567  1.00  0.00    -0.545 OA
ATOM     11  O   UNL     1     -40.477  -4.419  -9.892  1.00  0.00    -0.545 OA
ENDBRANCH   8   9
ENDBRANCH   1   7
BRANCH   6  12
ATOM     12  O   UNL     1     -36.311  -9.125 -15.957  1.00  0.00    -0.508 OA
ATOM     13  H   UNL     1     -35.427  -9.481 -15.609  1.00  0.00     0.293 HD
ENDBRANCH   6  12
TORSDOF 3
ENDMDL
