MODEL 1
REMARK VINA RESULT:    -3.193      0.000      0.000
REMARK INTER + INTRA:          -6.746
REMARK INTER:                  -5.806
REMARK INTRA:                  -0.940
REMARK UNBOUND:                -0.940
REMARK SMILES CCCCCCCCCCCCCCCC(=O)[O-]
REMARK SMILES IDX 9 1 10 2 11 3 12 4 13 5 14 6 15 7 16 8 17 9 18 10 8 11 7 12
REMARK SMILES IDX 6 13 5 14 4 15 3 16 2 17 1 18
REMARK H PARENT
REMARK Flexibility Score: inf
ROOT
ATOM      1  C   UNL     1       0.508 -15.899 -18.367  1.00  0.00     0.000 C 
ENDROOT
BRANCH   1   2
ATOM      2  C   UNL     1       1.474 -14.813 -17.854  1.00  0.00     0.000 C 
BRANCH   2   3
ATOM      3  C   UNL     1       1.901 -13.766 -18.903  1.00  0.00     0.000 C 
BRANCH   3   4
ATOM      4  C   UNL     1       2.949 -12.751 -18.414  1.00  0.00     0.000 C 
BRANCH   4   5
ATOM      5  C   UNL     1       2.505 -11.293 -18.619  1.00  0.00     0.000 C 
BRANCH   5   6
ATOM      6  C   UNL     1       3.693 -10.322 -18.742  1.00  0.00     0.006 C 
BRANCH   6   7
ATOM      7  C   UNL     1       4.590 -10.575 -19.964  1.00  0.00     0.053 C 
BRANCH   7   8
ATOM      8  C   UNL     1       5.958 -11.041 -19.570  1.00  0.00     0.041 C 
ATOM      9  O   UNL     1       6.941 -10.837 -20.330  1.00  0.00    -0.550 OA
ATOM     10  O   UNL     1       6.154 -11.675 -18.349  1.00  0.00    -0.550 OA
ENDBRANCH   7   8
ENDBRANCH   6   7
ENDBRANCH   5   6
ENDBRANCH   4   5
ENDBRANCH   3   4
ENDBRANCH   2   3
ENDBRANCH   1   2
BRANCH   1  11
ATOM     11  C   UNL     1      -0.978 -15.499 -18.370  1.00  0.00     0.000 C 
BRANCH  11  12
ATOM     12  C   UNL     1      -1.879 -16.553 -19.031  1.00  0.00    -0.000 C 
BRANCH  12  13
ATOM     13  C   UNL     1      -1.041 -17.571 -19.820  1.00  0.00    -0.000 C 
BRANCH  13  14
ATOM     14  C   UNL     1      -1.838 -18.831 -20.193  1.00  0.00    -0.000 C 
BRANCH  14  15
ATOM     15  C   UNL     1      -1.281 -20.104 -19.531  1.00  0.00    -0.000 C 
BRANCH  15  16
ATOM     16  C   UNL     1       0.122 -19.881 -18.928  1.00  0.00    -0.000 C 
BRANCH  16  17
ATOM     17  C   UNL     1       0.178 -20.097 -17.407  1.00  0.00    -0.003 C 
ATOM     18  C   UNL     1       1.506 -19.664 -16.789  1.00  0.00     0.004 C 
ENDBRANCH  16  17
ENDBRANCH  15  16
ENDBRANCH  14  15
ENDBRANCH  13  14
ENDBRANCH  12  13
ENDBRANCH  11  12
ENDBRANCH   1  11
TORSDOF 14
ENDMDL
MODEL 2
REMARK VINA RESULT:    -2.811      3.386      8.501
REMARK INTER + INTRA:          -6.053
REMARK INTER:                  -5.112
REMARK INTRA:                  -0.941
REMARK UNBOUND:                -0.940
REMARK SMILES CCCCCCCCCCCCCCCC(=O)[O-]
REMARK SMILES IDX 9 1 10 2 11 3 12 4 13 5 14 6 15 7 16 8 17 9 18 10 8 11 7 12
REMARK SMILES IDX 6 13 5 14 4 15 3 16 2 17 1 18
REMARK H PARENT
REMARK Flexibility Score: inf
ROOT
ATOM      1  C   UNL     1       0.639 -15.973 -18.187  1.00  0.00     0.000 C 
ENDROOT
BRANCH   1   2
ATOM      2  C   UNL     1      -0.771 -15.482 -18.570  1.00  0.00     0.000 C 
BRANCH   2   3
ATOM      3  C   UNL     1      -1.858 -16.576 -18.610  1.00  0.00     0.000 C 
BRANCH   3   4
ATOM      4  C   UNL     1      -2.029 -17.267 -19.974  1.00  0.00     0.000 C 
BRANCH   4   5
ATOM      5  C   UNL     1      -1.539 -18.726 -19.966  1.00  0.00     0.000 C 
BRANCH   5   6
ATOM      6  C   UNL     1      -1.220 -19.237 -18.550  1.00  0.00     0.006 C 
BRANCH   6   7
ATOM      7  C   UNL     1       0.139 -19.943 -18.425  1.00  0.00     0.053 C 
BRANCH   7   8
ATOM      8  C   UNL     1       0.659 -19.920 -17.021  1.00  0.00     0.041 C 
ATOM      9  O   UNL     1      -0.121 -20.125 -16.053  1.00  0.00    -0.550 OA
ATOM     10  O   UNL     1       2.009 -19.702 -16.780  1.00  0.00    -0.550 OA
ENDBRANCH   7   8
ENDBRANCH   6   7
ENDBRANCH   5   6
ENDBRANCH   4   5
ENDBRANCH   3   4
ENDBRANCH   2   3
ENDBRANCH   1   2
BRANCH   1  11
ATOM     11  C   UNL     1       1.624 -14.864 -17.775  1.00  0.00     0.000 C 
BRANCH  11  12
ATOM     12  C   UNL     1       1.594 -13.657 -18.724  1.00  0.00    -0.000 C 
BRANCH  12  13
ATOM     13  C   UNL     1       2.828 -12.767 -18.518  1.00  0.00    -0.000 C 
BRANCH  13  14
ATOM     14  C   UNL     1       2.513 -11.272 -18.675  1.00  0.00    -0.000 C 
BRANCH  14  15
ATOM     15  C   UNL     1       3.780 -10.400 -18.734  1.00  0.00    -0.000 C 
BRANCH  15  16
ATOM     16  C   UNL     1       4.618 -10.676 -20.001  1.00  0.00    -0.000 C 
BRANCH  16  17
ATOM     17  C   UNL     1       6.094 -10.992 -19.703  1.00  0.00    -0.003 C 
ATOM     18  C   UNL     1       6.307 -11.612 -18.324  1.00  0.00     0.004 C 
ENDBRANCH  16  17
ENDBRANCH  15  16
ENDBRANCH  14  15
ENDBRANCH  13  14
ENDBRANCH  12  13
ENDBRANCH  11  12
ENDBRANCH   1  11
TORSDOF 14
ENDMDL
MODEL 3
REMARK VINA RESULT:    -2.807      2.881      3.855
REMARK INTER + INTRA:          -6.045
REMARK INTER:                  -5.207
REMARK INTRA:                  -0.838
REMARK UNBOUND:                -0.940
REMARK SMILES CCCCCCCCCCCCCCCC(=O)[O-]
REMARK SMILES IDX 9 1 10 2 11 3 12 4 13 5 14 6 15 7 16 8 17 9 18 10 8 11 7 12
REMARK SMILES IDX 6 13 5 14 4 15 3 16 2 17 1 18
REMARK H PARENT
REMARK Flexibility Score: inf
ROOT
ATOM      1  C   UNL     1       2.363 -13.728 -18.806  1.00  0.00     0.000 C 
ENDROOT
BRANCH   1   2
ATOM      2  C   UNL     1       2.350 -12.190 -18.704  1.00  0.00     0.000 C 
BRANCH   2   3
ATOM      3  C   UNL     1       3.740 -11.525 -18.638  1.00  0.00     0.000 C 
BRANCH   3   4
ATOM      4  C   UNL     1       3.720 -10.010 -18.367  1.00  0.00     0.000 C 
BRANCH   4   5
ATOM      5  C   UNL     1       2.530  -9.578 -17.493  1.00  0.00     0.000 C 
BRANCH   5   6
ATOM      6  C   UNL     1       2.906  -8.487 -16.475  1.00  0.00     0.006 C 
BRANCH   6   7
ATOM      7  C   UNL     1       3.881  -8.953 -15.383  1.00  0.00     0.053 C 
BRANCH   7   8
ATOM      8  C   UNL     1       3.607  -8.294 -14.066  1.00  0.00     0.041 C 
ATOM      9  O   UNL     1       3.512  -7.040 -13.992  1.00  0.00    -0.550 OA
ATOM     10  O   UNL     1       3.426  -9.065 -12.925  1.00  0.00    -0.550 OA
ENDBRANCH   7   8
ENDBRANCH   6   7
ENDBRANCH   5   6
ENDBRANCH   4   5
ENDBRANCH   3   4
ENDBRANCH   2   3
ENDBRANCH   1   2
BRANCH   1  11
ATOM     11  C   UNL     1       1.609 -14.461 -17.682  1.00  0.00     0.000 C 
BRANCH  11  12
ATOM     12  C   UNL     1       0.856 -15.704 -18.180  1.00  0.00    -0.000 C 
BRANCH  12  13
ATOM     13  C   UNL     1      -0.577 -15.344 -18.597  1.00  0.00    -0.000 C 
BRANCH  13  14
ATOM     14  C   UNL     1      -1.538 -16.540 -18.508  1.00  0.00    -0.000 C 
BRANCH  14  15
ATOM     15  C   UNL     1      -1.209 -17.645 -19.528  1.00  0.00    -0.000 C 
BRANCH  15  16
ATOM     16  C   UNL     1      -1.031 -19.023 -18.857  1.00  0.00    -0.000 C 
BRANCH  16  17
ATOM     17  C   UNL     1       0.423 -19.524 -18.858  1.00  0.00    -0.003 C 
ATOM     18  C   UNL     1       1.121 -19.336 -17.512  1.00  0.00     0.004 C 
ENDBRANCH  16  17
ENDBRANCH  15  16
ENDBRANCH  14  15
ENDBRANCH  13  14
ENDBRANCH  12  13
ENDBRANCH  11  12
ENDBRANCH   1  11
TORSDOF 14
ENDMDL
MODEL 4
REMARK VINA RESULT:    -2.755      1.964      2.259
REMARK INTER + INTRA:          -5.950
REMARK INTER:                  -4.961
REMARK INTRA:                  -0.989
REMARK UNBOUND:                -0.940
REMARK SMILES CCCCCCCCCCCCCCCC(=O)[O-]
REMARK SMILES IDX 9 1 10 2 11 3 12 4 13 5 14 6 15 7 16 8 17 9 18 10 8 11 7 12
REMARK SMILES IDX 6 13 5 14 4 15 3 16 2 17 1 18
REMARK H PARENT
REMARK Flexibility Score: inf
ROOT
ATOM      1  C   UNL     1       0.190 -15.964 -18.393  1.00  0.00     0.000 C 
ENDROOT
BRANCH   1   2
ATOM      2  C   UNL     1       0.897 -14.743 -17.772  1.00  0.00     0.000 C 
BRANCH   2   3
ATOM      3  C   UNL     1       2.095 -14.199 -18.577  1.00  0.00     0.000 C 
BRANCH   3   4
ATOM      4  C   UNL     1       2.377 -12.699 -18.382  1.00  0.00     0.000 C 
BRANCH   4   5
ATOM      5  C   UNL     1       3.699 -12.254 -19.031  1.00  0.00     0.000 C 
BRANCH   5   6
ATOM      6  C   UNL     1       4.275 -10.978 -18.390  1.00  0.00     0.006 C 
BRANCH   6   7
ATOM      7  C   UNL     1       3.502  -9.695 -18.734  1.00  0.00     0.053 C 
BRANCH   7   8
ATOM      8  C   UNL     1       2.634  -9.241 -17.602  1.00  0.00     0.041 C 
ATOM      9  O   UNL     1       1.379  -9.302 -17.701  1.00  0.00    -0.550 OA
ATOM     10  O   UNL     1       3.208  -8.779 -16.425  1.00  0.00    -0.550 OA
ENDBRANCH   7   8
ENDBRANCH   6   7
ENDBRANCH   5   6
ENDBRANCH   4   5
ENDBRANCH   3   4
ENDBRANCH   2   3
ENDBRANCH   1   2
BRANCH   1  11
ATOM     11  C   UNL     1      -1.348 -15.900 -18.382  1.00  0.00     0.000 C 
BRANCH  11  12
ATOM     12  C   UNL     1      -1.951 -15.812 -19.792  1.00  0.00    -0.000 C 
BRANCH  12  13
ATOM     13  C   UNL     1      -1.859 -17.165 -20.513  1.00  0.00    -0.000 C 
BRANCH  13  14
ATOM     14  C   UNL     1      -2.122 -18.354 -19.577  1.00  0.00    -0.000 C 
BRANCH  14  15
ATOM     15  C   UNL     1      -1.294 -19.598 -19.948  1.00  0.00    -0.000 C 
BRANCH  15  16
ATOM     16  C   UNL     1       0.132 -19.545 -19.361  1.00  0.00    -0.000 C 
BRANCH  16  17
ATOM     17  C   UNL     1       0.184 -19.814 -17.848  1.00  0.00    -0.003 C 
ATOM     18  C   UNL     1       1.505 -19.392 -17.209  1.00  0.00     0.004 C 
ENDBRANCH  16  17
ENDBRANCH  15  16
ENDBRANCH  14  15
ENDBRANCH  13  14
ENDBRANCH  12  13
ENDBRANCH  11  12
ENDBRANCH   1  11
TORSDOF 14
ENDMDL
MODEL 5
REMARK VINA RESULT:    -2.752      4.163      9.255
REMARK INTER + INTRA:          -5.944
REMARK INTER:                  -5.343
REMARK INTRA:                  -0.601
REMARK UNBOUND:                -0.940
REMARK SMILES CCCCCCCCCCCCCCCC(=O)[O-]
REMARK SMILES IDX 9 1 10 2 11 3 12 4 13 5 14 6 15 7 16 8 17 9 18 10 8 11 7 12
REMARK SMILES IDX 6 13 5 14 4 15 3 16 2 17 1 18
REMARK H PARENT
REMARK Flexibility Score: inf
ROOT
ATOM      1  C   UNL     1       2.418 -12.523 -18.736  1.00  0.00     0.000 C 
ENDROOT
BRANCH   1   2
ATOM      2  C   UNL     1       2.372 -14.031 -18.418  1.00  0.00     0.000 C 
BRANCH   2   3
ATOM      3  C   UNL     1       1.019 -14.548 -17.888  1.00  0.00     0.000 C 
BRANCH   3   4
ATOM      4  C   UNL     1       0.660 -15.981 -18.320  1.00  0.00     0.000 C 
BRANCH   4   5
ATOM      5  C   UNL     1      -0.838 -16.151 -18.625  1.00  0.00     0.000 C 
BRANCH   5   6
ATOM      6  C   UNL     1      -1.150 -17.476 -19.345  1.00  0.00     0.006 C 
BRANCH   6   7
ATOM      7  C   UNL     1      -1.218 -18.698 -18.416  1.00  0.00     0.053 C 
BRANCH   7   8
ATOM      8  C   UNL     1      -0.011 -19.575 -18.551  1.00  0.00     0.041 C 
ATOM      9  O   UNL     1       0.348 -19.989 -19.685  1.00  0.00    -0.550 OA
ATOM     10  O   UNL     1       0.736 -19.910 -17.429  1.00  0.00    -0.550 OA
ENDBRANCH   7   8
ENDBRANCH   6   7
ENDBRANCH   5   6
ENDBRANCH   4   5
ENDBRANCH   3   4
ENDBRANCH   2   3
ENDBRANCH   1   2
BRANCH   1  11
ATOM     11  C   UNL     1       3.829 -11.950 -18.964  1.00  0.00     0.000 C 
BRANCH  11  12
ATOM     12  C   UNL     1       3.898 -10.431 -18.746  1.00  0.00    -0.000 C 
BRANCH  12  13
ATOM     13  C   UNL     1       2.489  -9.828 -18.646  1.00  0.00    -0.000 C 
BRANCH  13  14
ATOM     14  C   UNL     1       2.183  -9.267 -17.249  1.00  0.00    -0.000 C 
BRANCH  14  15
ATOM     15  C   UNL     1       3.448  -9.078 -16.393  1.00  0.00    -0.000 C 
BRANCH  15  16
ATOM     16  C   UNL     1       3.315  -7.897 -15.409  1.00  0.00    -0.000 C 
BRANCH  16  17
ATOM     17  C   UNL     1       3.776  -8.233 -13.981  1.00  0.00    -0.003 C 
ATOM     18  C   UNL     1       3.597  -7.072 -13.005  1.00  0.00     0.004 C 
ENDBRANCH  16  17
ENDBRANCH  15  16
ENDBRANCH  14  15
ENDBRANCH  13  14
ENDBRANCH  12  13
ENDBRANCH  11  12
ENDBRANCH   1  11
TORSDOF 14
ENDMDL
MODEL 6
REMARK VINA RESULT:    -2.727      3.574      8.637
REMARK INTER + INTRA:          -5.899
REMARK INTER:                  -5.366
REMARK INTRA:                  -0.533
REMARK UNBOUND:                -0.940
REMARK SMILES CCCCCCCCCCCCCCCC(=O)[O-]
REMARK SMILES IDX 9 1 10 2 11 3 12 4 13 5 14 6 15 7 16 8 17 9 18 10 8 11 7 12
REMARK SMILES IDX 6 13 5 14 4 15 3 16 2 17 1 18
REMARK H PARENT
REMARK Flexibility Score: inf
ROOT
ATOM      1  C   UNL     1       0.263 -15.884 -18.373  1.00  0.00     0.000 C 
ENDROOT
BRANCH   1   2
ATOM      2  C   UNL     1      -1.228 -15.567 -18.600  1.00  0.00     0.000 C 
BRANCH   2   3
ATOM      3  C   UNL     1      -2.020 -16.648 -19.364  1.00  0.00     0.000 C 
BRANCH   3   4
ATOM      4  C   UNL     1      -1.731 -18.094 -18.922  1.00  0.00     0.000 C 
BRANCH   4   5
ATOM      5  C   UNL     1      -0.572 -18.734 -19.706  1.00  0.00     0.000 C 
BRANCH   5   6
ATOM      6  C   UNL     1       0.351 -19.583 -18.813  1.00  0.00     0.006 C 
BRANCH   6   7
ATOM      7  C   UNL     1      -0.321 -20.114 -17.537  1.00  0.00     0.053 C 
BRANCH   7   8
ATOM      8  C   UNL     1       0.585 -20.031 -16.347  1.00  0.00     0.041 C 
ATOM      9  O   UNL     1       1.827 -19.889 -16.505  1.00  0.00    -0.550 OA
ATOM     10  O   UNL     1       0.057 -20.078 -15.064  1.00  0.00    -0.550 OA
ENDBRANCH   7   8
ENDBRANCH   6   7
ENDBRANCH   5   6
ENDBRANCH   4   5
ENDBRANCH   3   4
ENDBRANCH   2   3
ENDBRANCH   1   2
BRANCH   1  11
ATOM     11  C   UNL     1       1.073 -14.758 -17.705  1.00  0.00     0.000 C 
BRANCH  11  12
ATOM     12  C   UNL     1       2.247 -14.275 -18.569  1.00  0.00    -0.000 C 
BRANCH  12  13
ATOM     13  C   UNL     1       2.180 -12.756 -18.784  1.00  0.00    -0.000 C 
BRANCH  13  14
ATOM     14  C   UNL     1       3.388 -12.018 -18.187  1.00  0.00    -0.000 C 
BRANCH  14  15
ATOM     15  C   UNL     1       3.890 -10.874 -19.086  1.00  0.00    -0.000 C 
BRANCH  15  16
ATOM     16  C   UNL     1       3.282  -9.512 -18.688  1.00  0.00    -0.000 C 
BRANCH  16  17
ATOM     17  C   UNL     1       2.579  -9.529 -17.320  1.00  0.00    -0.003 C 
ATOM     18  C   UNL     1       3.155  -8.509 -16.339  1.00  0.00     0.004 C 
ENDBRANCH  16  17
ENDBRANCH  15  16
ENDBRANCH  14  15
ENDBRANCH  13  14
ENDBRANCH  12  13
ENDBRANCH  11  12
ENDBRANCH   1  11
TORSDOF 14
ENDMDL
MODEL 7
REMARK VINA RESULT:    -2.691      3.890      9.042
REMARK INTER + INTRA:          -5.833
REMARK INTER:                  -5.129
REMARK INTRA:                  -0.705
REMARK UNBOUND:                -0.940
REMARK SMILES CCCCCCCCCCCCCCCC(=O)[O-]
REMARK SMILES IDX 9 1 10 2 11 3 12 4 13 5 14 6 15 7 16 8 17 9 18 10 8 11 7 12
REMARK SMILES IDX 6 13 5 14 4 15 3 16 2 17 1 18
REMARK H PARENT
REMARK Flexibility Score: inf
ROOT
ATOM      1  C   UNL     1       2.319 -13.972 -18.669  1.00  0.00     0.000 C 
ENDROOT
BRANCH   1   2
ATOM      2  C   UNL     1       1.324 -14.603 -17.675  1.00  0.00     0.000 C 
BRANCH   2   3
ATOM      3  C   UNL     1       0.638 -15.894 -18.164  1.00  0.00     0.000 C 
BRANCH   3   4
ATOM      4  C   UNL     1      -0.818 -15.716 -18.630  1.00  0.00     0.000 C 
BRANCH   4   5
ATOM      5  C   UNL     1      -1.422 -17.010 -19.201  1.00  0.00     0.000 C 
BRANCH   5   6
ATOM      6  C   UNL     1      -1.817 -18.016 -18.104  1.00  0.00     0.006 C 
BRANCH   6   7
ATOM      7  C   UNL     1      -1.412 -19.467 -18.404  1.00  0.00     0.053 C 
BRANCH   7   8
ATOM      8  C   UNL     1       0.027 -19.579 -18.804  1.00  0.00     0.041 C 
ATOM      9  O   UNL     1       0.334 -19.936 -19.972  1.00  0.00    -0.550 OA
ATOM     10  O   UNL     1       1.029 -19.260 -17.897  1.00  0.00    -0.550 OA
ENDBRANCH   7   8
ENDBRANCH   6   7
ENDBRANCH   5   6
ENDBRANCH   4   5
ENDBRANCH   3   4
ENDBRANCH   2   3
ENDBRANCH   1   2
BRANCH   1  11
ATOM     11  C   UNL     1       2.336 -12.433 -18.684  1.00  0.00     0.000 C 
BRANCH  11  12
ATOM     12  C   UNL     1       3.758 -11.853 -18.722  1.00  0.00    -0.000 C 
BRANCH  12  13
ATOM     13  C   UNL     1       3.727 -10.320 -18.629  1.00  0.00    -0.000 C 
BRANCH  13  14
ATOM     14  C   UNL     1       2.467  -9.795 -17.924  1.00  0.00    -0.000 C 
BRANCH  14  15
ATOM     15  C   UNL     1       2.762  -8.615 -16.981  1.00  0.00    -0.000 C 
BRANCH  15  16
ATOM     16  C   UNL     1       3.538  -9.055 -15.721  1.00  0.00    -0.000 C 
BRANCH  16  17
ATOM     17  C   UNL     1       3.554  -7.994 -14.608  1.00  0.00    -0.003 C 
ATOM     18  C   UNL     1       4.141  -8.512 -13.296  1.00  0.00     0.004 C 
ENDBRANCH  16  17
ENDBRANCH  15  16
ENDBRANCH  14  15
ENDBRANCH  13  14
ENDBRANCH  12  13
ENDBRANCH  11  12
ENDBRANCH   1  11
TORSDOF 14
ENDMDL
MODEL 8
REMARK VINA RESULT:    -2.643      3.088      4.275
REMARK INTER + INTRA:          -5.746
REMARK INTER:                  -5.043
REMARK INTRA:                  -0.703
REMARK UNBOUND:                -0.940
REMARK SMILES CCCCCCCCCCCCCCCC(=O)[O-]
REMARK SMILES IDX 9 1 10 2 11 3 12 4 13 5 14 6 15 7 16 8 17 9 18 10 8 11 7 12
REMARK SMILES IDX 6 13 5 14 4 15 3 16 2 17 1 18
REMARK H PARENT
REMARK Flexibility Score: inf
ROOT
ATOM      1  C   UNL     1       2.351 -12.605 -18.714  1.00  0.00     0.000 C 
ENDROOT
BRANCH   1   2
ATOM      2  C   UNL     1       3.751 -11.984 -18.885  1.00  0.00     0.000 C 
BRANCH   2   3
ATOM      3  C   UNL     1       3.944 -10.607 -18.218  1.00  0.00     0.000 C 
BRANCH   3   4
ATOM      4  C   UNL     1       2.742  -9.655 -18.341  1.00  0.00     0.000 C 
BRANCH   4   5
ATOM      5  C   UNL     1       2.294  -9.086 -16.984  1.00  0.00     0.000 C 
BRANCH   5   6
ATOM      6  C   UNL     1       3.457  -8.948 -15.984  1.00  0.00     0.006 C 
BRANCH   6   7
ATOM      7  C   UNL     1       3.346  -7.732 -15.052  1.00  0.00     0.053 C 
BRANCH   7   8
ATOM      8  C   UNL     1       3.824  -8.040 -13.666  1.00  0.00     0.041 C 
ATOM      9  O   UNL     1       3.621  -9.177 -13.164  1.00  0.00    -0.550 OA
ATOM     10  O   UNL     1       4.520  -7.082 -12.940  1.00  0.00    -0.550 OA
ENDBRANCH   7   8
ENDBRANCH   6   7
ENDBRANCH   5   6
ENDBRANCH   4   5
ENDBRANCH   3   4
ENDBRANCH   2   3
ENDBRANCH   1   2
BRANCH   1  11
ATOM     11  C   UNL     1       2.342 -14.109 -18.382  1.00  0.00     0.000 C 
BRANCH  11  12
ATOM     12  C   UNL     1       0.951 -14.623 -17.984  1.00  0.00    -0.000 C 
BRANCH  12  13
ATOM     13  C   UNL     1       0.836 -16.135 -18.227  1.00  0.00    -0.000 C 
BRANCH  13  14
ATOM     14  C   UNL     1      -0.547 -16.547 -18.753  1.00  0.00    -0.000 C 
BRANCH  14  15
ATOM     15  C   UNL     1      -0.613 -18.032 -19.153  1.00  0.00    -0.000 C 
BRANCH  15  16
ATOM     16  C   UNL     1       0.523 -18.859 -18.514  1.00  0.00    -0.000 C 
BRANCH  16  17
ATOM     17  C   UNL     1       0.020 -19.993 -17.606  1.00  0.00    -0.003 C 
ATOM     18  C   UNL     1      -1.491 -19.959 -17.385  1.00  0.00     0.004 C 
ENDBRANCH  16  17
ENDBRANCH  15  16
ENDBRANCH  14  15
ENDBRANCH  13  14
ENDBRANCH  12  13
ENDBRANCH  11  12
ENDBRANCH   1  11
TORSDOF 14
ENDMDL
MODEL 9
REMARK VINA RESULT:    -1.800      3.753      5.427
REMARK INTER + INTRA:          -4.213
REMARK INTER:                  -3.588
REMARK INTRA:                  -0.625
REMARK UNBOUND:                -0.940
REMARK SMILES CCCCCCCCCCCCCCCC(=O)[O-]
REMARK SMILES IDX 9 1 10 2 11 3 12 4 13 5 14 6 15 7 16 8 17 9 18 10 8 11 7 12
REMARK SMILES IDX 6 13 5 14 4 15 3 16 2 17 1 18
REMARK H PARENT
REMARK Flexibility Score: inf
ROOT
ATOM      1  C   UNL     1       3.810 -11.711 -19.191  1.00  0.00     0.000 C 
ENDROOT
BRANCH   1   2
ATOM      2  C   UNL     1       3.500 -10.239 -18.855  1.00  0.00     0.000 C 
BRANCH   2   3
ATOM      3  C   UNL     1       3.428  -9.911 -17.350  1.00  0.00     0.000 C 
BRANCH   3   4
ATOM      4  C   UNL     1       2.666  -8.619 -17.006  1.00  0.00     0.000 C 
BRANCH   4   5
ATOM      5  C   UNL     1       3.220  -7.918 -15.754  1.00  0.00     0.000 C 
BRANCH   5   6
ATOM      6  C   UNL     1       3.920  -8.892 -14.789  1.00  0.00     0.006 C 
BRANCH   6   7
ATOM      7  C   UNL     1       3.562  -8.679 -13.309  1.00  0.00     0.053 C 
BRANCH   7   8
ATOM      8  C   UNL     1       3.694  -7.245 -12.899  1.00  0.00     0.041 C 
ATOM      9  O   UNL     1       4.834  -6.736 -12.732  1.00  0.00    -0.550 OA
ATOM     10  O   UNL     1       2.560  -6.461 -12.731  1.00  0.00    -0.550 OA
ENDBRANCH   7   8
ENDBRANCH   6   7
ENDBRANCH   5   6
ENDBRANCH   4   5
ENDBRANCH   3   4
ENDBRANCH   2   3
ENDBRANCH   1   2
BRANCH   1  11
ATOM     11  C   UNL     1       3.232 -12.740 -18.201  1.00  0.00     0.000 C 
BRANCH  11  12
ATOM     12  C   UNL     1       2.065 -13.545 -18.792  1.00  0.00    -0.000 C 
BRANCH  12  13
ATOM     13  C   UNL     1       1.480 -14.507 -17.748  1.00  0.00    -0.000 C 
BRANCH  13  14
ATOM     14  C   UNL     1       0.866 -15.766 -18.379  1.00  0.00    -0.000 C 
BRANCH  14  15
ATOM     15  C   UNL     1      -0.670 -15.705 -18.453  1.00  0.00    -0.000 C 
BRANCH  15  16
ATOM     16  C   UNL     1      -1.293 -17.082 -18.770  1.00  0.00    -0.000 C 
BRANCH  16  17
ATOM     17  C   UNL     1      -0.254 -18.207 -18.910  1.00  0.00    -0.003 C 
ATOM     18  C   UNL     1      -0.783 -19.568 -18.459  1.00  0.00     0.004 C 
ENDBRANCH  16  17
ENDBRANCH  15  16
ENDBRANCH  14  15
ENDBRANCH  13  14
ENDBRANCH  12  13
ENDBRANCH  11  12
ENDBRANCH   1  11
TORSDOF 14
ENDMDL
