MODEL 1
REMARK VINA RESULT:    -3.451      0.000      0.000
REMARK INTER + INTRA:          -7.993
REMARK INTER:                  -6.680
REMARK INTRA:                  -1.313
REMARK UNBOUND:                -1.313
REMARK SMILES CCCCCCCCCCCCCCCCCC(=O)[O-]
REMARK SMILES IDX 10 1 11 2 12 3 13 4 14 5 15 6 16 7 17 8 18 9 19 10 20 11
REMARK SMILES IDX 9 12 8 13 7 14 6 15 5 16 4 17 3 18 2 19 1 20
REMARK H PARENT
REMARK Flexibility Score: inf
ROOT
ATOM      1  C   UNL     1     -32.635 -22.330 -34.934  1.00  0.00     0.000 C 
ENDROOT
BRANCH   1   2
ATOM      2  C   UNL     1     -31.230 -21.704 -34.962  1.00  0.00     0.000 C 
BRANCH   2   3
ATOM      3  C   UNL     1     -31.047 -20.613 -33.893  1.00  0.00     0.000 C 
BRANCH   3   4
ATOM      4  C   UNL     1     -29.689 -20.707 -33.174  1.00  0.00     0.000 C 
BRANCH   4   5
ATOM      5  C   UNL     1     -29.193 -19.338 -32.678  1.00  0.00     0.000 C 
BRANCH   5   6
ATOM      6  C   UNL     1     -28.333 -19.451 -31.407  1.00  0.00     0.000 C 
BRANCH   6   7
ATOM      7  C   UNL     1     -29.065 -18.956 -30.151  1.00  0.00     0.006 C 
BRANCH   7   8
ATOM      8  C   UNL     1     -30.586 -18.875 -30.342  1.00  0.00     0.053 C 
BRANCH   8   9
ATOM      9  C   UNL     1     -31.277 -19.877 -29.471  1.00  0.00     0.041 C 
ATOM     10  O   UNL     1     -32.204 -19.513 -28.700  1.00  0.00    -0.550 OA
ATOM     11  O   UNL     1     -30.924 -21.219 -29.540  1.00  0.00    -0.550 OA
ENDBRANCH   8   9
ENDBRANCH   7   8
ENDBRANCH   6   7
ENDBRANCH   5   6
ENDBRANCH   4   5
ENDBRANCH   3   4
ENDBRANCH   2   3
ENDBRANCH   1   2
BRANCH   1  12
ATOM     12  C   UNL     1     -33.709 -21.407 -35.539  1.00  0.00     0.000 C 
BRANCH  12  13
ATOM     13  C   UNL     1     -33.983 -21.620 -37.042  1.00  0.00    -0.000 C 
BRANCH  13  14
ATOM     14  C   UNL     1     -33.194 -20.697 -37.994  1.00  0.00    -0.000 C 
BRANCH  14  15
ATOM     15  C   UNL     1     -32.437 -21.418 -39.125  1.00  0.00    -0.000 C 
BRANCH  15  16
ATOM     16  C   UNL     1     -32.601 -22.946 -39.071  1.00  0.00    -0.000 C 
BRANCH  16  17
ATOM     17  C   UNL     1     -31.452 -23.646 -38.322  1.00  0.00    -0.000 C 
BRANCH  17  18
ATOM     18  C   UNL     1     -31.736 -25.100 -37.889  1.00  0.00    -0.000 C 
BRANCH  18  19
ATOM     19  C   UNL     1     -32.415 -25.975 -38.958  1.00  0.00    -0.003 C 
ATOM     20  C   UNL     1     -32.972 -27.280 -38.394  1.00  0.00     0.004 C 
ENDBRANCH  18  19
ENDBRANCH  17  18
ENDBRANCH  16  17
ENDBRANCH  15  16
ENDBRANCH  14  15
ENDBRANCH  13  14
ENDBRANCH  12  13
ENDBRANCH   1  12
TORSDOF 16
ENDMDL
MODEL 2
REMARK VINA RESULT:    -2.880      1.078      2.016
REMARK INTER + INTRA:          -6.887
REMARK INTER:                  -5.705
REMARK INTRA:                  -1.181
REMARK UNBOUND:                -1.313
REMARK SMILES CCCCCCCCCCCCCCCCCC(=O)[O-]
REMARK SMILES IDX 10 1 11 2 12 3 13 4 14 5 15 6 16 7 17 8 18 9 19 10 20 11
REMARK SMILES IDX 9 12 8 13 7 14 6 15 5 16 4 17 3 18 2 19 1 20
REMARK H PARENT
REMARK Flexibility Score: inf
ROOT
ATOM      1  C   UNL     1     -31.178 -20.850 -33.714  1.00  0.00     0.000 C 
ENDROOT
BRANCH   1   2
ATOM      2  C   UNL     1     -29.826 -20.732 -34.438  1.00  0.00     0.000 C 
BRANCH   2   3
ATOM      3  C   UNL     1     -28.960 -19.584 -33.892  1.00  0.00     0.000 C 
BRANCH   3   4
ATOM      4  C   UNL     1     -29.596 -18.883 -32.678  1.00  0.00     0.000 C 
BRANCH   4   5
ATOM      5  C   UNL     1     -28.666 -18.875 -31.453  1.00  0.00     0.000 C 
BRANCH   5   6
ATOM      6  C   UNL     1     -29.445 -18.892 -30.125  1.00  0.00     0.000 C 
BRANCH   6   7
ATOM      7  C   UNL     1     -30.967 -18.925 -30.333  1.00  0.00     0.006 C 
BRANCH   7   8
ATOM      8  C   UNL     1     -31.640 -20.102 -29.613  1.00  0.00     0.053 C 
BRANCH   8   9
ATOM      9  C   UNL     1     -30.796 -21.332 -29.722  1.00  0.00     0.041 C 
ATOM     10  O   UNL     1     -30.125 -21.731 -28.733  1.00  0.00    -0.550 OA
ATOM     11  O   UNL     1     -30.781 -22.064 -30.903  1.00  0.00    -0.550 OA
ENDBRANCH   8   9
ENDBRANCH   7   8
ENDBRANCH   6   7
ENDBRANCH   5   6
ENDBRANCH   4   5
ENDBRANCH   3   4
ENDBRANCH   2   3
ENDBRANCH   1   2
BRANCH   1  12
ATOM     12  C   UNL     1     -32.193 -21.712 -34.488  1.00  0.00     0.000 C 
BRANCH  12  13
ATOM     13  C   UNL     1     -33.425 -20.951 -35.020  1.00  0.00    -0.000 C 
BRANCH  13  14
ATOM     14  C   UNL     1     -33.988 -21.463 -36.363  1.00  0.00    -0.000 C 
BRANCH  14  15
ATOM     15  C   UNL     1     -33.996 -20.428 -37.504  1.00  0.00    -0.000 C 
BRANCH  15  16
ATOM     16  C   UNL     1     -33.298 -20.937 -38.776  1.00  0.00    -0.000 C 
BRANCH  16  17
ATOM     17  C   UNL     1     -32.155 -21.925 -38.478  1.00  0.00    -0.000 C 
BRANCH  17  18
ATOM     18  C   UNL     1     -32.408 -23.380 -38.925  1.00  0.00    -0.000 C 
BRANCH  18  19
ATOM     19  C   UNL     1     -32.045 -24.453 -37.882  1.00  0.00    -0.003 C 
ATOM     20  C   UNL     1     -32.143 -25.875 -38.431  1.00  0.00     0.004 C 
ENDBRANCH  18  19
ENDBRANCH  17  18
ENDBRANCH  16  17
ENDBRANCH  15  16
ENDBRANCH  14  15
ENDBRANCH  13  14
ENDBRANCH  12  13
ENDBRANCH   1  12
TORSDOF 16
ENDMDL
MODEL 3
REMARK VINA RESULT:    -2.324      2.934      8.271
REMARK INTER + INTRA:          -5.811
REMARK INTER:                  -4.427
REMARK INTRA:                  -1.384
REMARK UNBOUND:                -1.313
REMARK SMILES CCCCCCCCCCCCCCCCCC(=O)[O-]
REMARK SMILES IDX 10 1 11 2 12 3 13 4 14 5 15 6 16 7 17 8 18 9 19 10 20 11
REMARK SMILES IDX 9 12 8 13 7 14 6 15 5 16 4 17 3 18 2 19 1 20
REMARK H PARENT
REMARK Flexibility Score: inf
ROOT
ATOM      1  C   UNL     1     -30.590 -20.788 -34.290  1.00  0.00     0.000 C 
ENDROOT
BRANCH   1   2
ATOM      2  C   UNL     1     -32.033 -21.318 -34.234  1.00  0.00     0.000 C 
BRANCH   2   3
ATOM      3  C   UNL     1     -33.024 -20.420 -34.992  1.00  0.00     0.000 C 
BRANCH   3   4
ATOM      4  C   UNL     1     -33.891 -21.202 -35.994  1.00  0.00     0.000 C 
BRANCH   4   5
ATOM      5  C   UNL     1     -34.115 -20.429 -37.305  1.00  0.00     0.000 C 
BRANCH   5   6
ATOM      6  C   UNL     1     -33.729 -21.253 -38.546  1.00  0.00     0.000 C 
BRANCH   6   7
ATOM      7  C   UNL     1     -32.303 -21.818 -38.461  1.00  0.00     0.006 C 
BRANCH   7   8
ATOM      8  C   UNL     1     -32.208 -23.269 -38.954  1.00  0.00     0.053 C 
BRANCH   8   9
ATOM      9  C   UNL     1     -31.977 -24.198 -37.805  1.00  0.00     0.041 C 
ATOM     10  O   UNL     1     -31.459 -25.330 -37.999  1.00  0.00    -0.550 OA
ATOM     11  O   UNL     1     -32.297 -23.799 -36.513  1.00  0.00    -0.550 OA
ENDBRANCH   8   9
ENDBRANCH   7   8
ENDBRANCH   6   7
ENDBRANCH   5   6
ENDBRANCH   4   5
ENDBRANCH   3   4
ENDBRANCH   2   3
ENDBRANCH   1   2
BRANCH   1  12
ATOM     12  C   UNL     1     -30.435 -19.414 -33.612  1.00  0.00     0.000 C 
BRANCH  12  13
ATOM     13  C   UNL     1     -28.979 -18.963 -33.374  1.00  0.00    -0.000 C 
BRANCH  13  14
ATOM     14  C   UNL     1     -28.352 -19.433 -32.044  1.00  0.00    -0.000 C 
BRANCH  14  15
ATOM     15  C   UNL     1     -29.061 -18.929 -30.773  1.00  0.00    -0.000 C 
BRANCH  15  16
ATOM     16  C   UNL     1     -29.553 -20.073 -29.871  1.00  0.00    -0.000 C 
BRANCH  16  17
ATOM     17  C   UNL     1     -31.051 -20.379 -30.057  1.00  0.00    -0.000 C 
BRANCH  17  18
ATOM     18  C   UNL     1     -32.008 -19.544 -29.180  1.00  0.00    -0.000 C 
BRANCH  18  19
ATOM     19  C   UNL     1     -33.167 -18.875 -29.940  1.00  0.00    -0.003 C 
ATOM     20  C   UNL     1     -33.068 -19.050 -31.454  1.00  0.00     0.004 C 
ENDBRANCH  18  19
ENDBRANCH  17  18
ENDBRANCH  16  17
ENDBRANCH  15  16
ENDBRANCH  14  15
ENDBRANCH  13  14
ENDBRANCH  12  13
ENDBRANCH   1  12
TORSDOF 16
ENDMDL
MODEL 4
REMARK VINA RESULT:    -2.060      1.564      3.134
REMARK INTER + INTRA:          -5.301
REMARK INTER:                  -3.948
REMARK INTRA:                  -1.353
REMARK UNBOUND:                -1.313
REMARK SMILES CCCCCCCCCCCCCCCCCC(=O)[O-]
REMARK SMILES IDX 10 1 11 2 12 3 13 4 14 5 15 6 16 7 17 8 18 9 19 10 20 11
REMARK SMILES IDX 9 12 8 13 7 14 6 15 5 16 4 17 3 18 2 19 1 20
REMARK H PARENT
REMARK Flexibility Score: inf
ROOT
ATOM      1  C   UNL     1     -29.722 -20.372 -33.559  1.00  0.00     0.000 C 
ENDROOT
BRANCH   1   2
ATOM      2  C   UNL     1     -29.653 -18.981 -32.906  1.00  0.00     0.000 C 
BRANCH   2   3
ATOM      3  C   UNL     1     -28.554 -18.883 -31.834  1.00  0.00     0.000 C 
BRANCH   3   4
ATOM      4  C   UNL     1     -29.106 -18.998 -30.402  1.00  0.00     0.000 C 
BRANCH   4   5
ATOM      5  C   UNL     1     -30.639 -18.878 -30.354  1.00  0.00     0.000 C 
BRANCH   5   6
ATOM      6  C   UNL     1     -31.326 -20.236 -30.119  1.00  0.00     0.000 C 
BRANCH   6   7
ATOM      7  C   UNL     1     -30.326 -21.399 -30.040  1.00  0.00     0.006 C 
BRANCH   7   8
ATOM      8  C   UNL     1     -30.460 -22.212 -28.745  1.00  0.00     0.053 C 
BRANCH   8   9
ATOM      9  C   UNL     1     -29.270 -21.993 -27.865  1.00  0.00     0.041 C 
ATOM     10  O   UNL     1     -28.416 -21.116 -28.162  1.00  0.00    -0.550 OA
ATOM     11  O   UNL     1     -29.125 -22.729 -26.696  1.00  0.00    -0.550 OA
ENDBRANCH   8   9
ENDBRANCH   7   8
ENDBRANCH   6   7
ENDBRANCH   5   6
ENDBRANCH   4   5
ENDBRANCH   3   4
ENDBRANCH   2   3
ENDBRANCH   1   2
BRANCH   1  12
ATOM     12  C   UNL     1     -31.165 -20.812 -33.868  1.00  0.00     0.000 C 
BRANCH  12  13
ATOM     13  C   UNL     1     -31.297 -22.203 -34.523  1.00  0.00    -0.000 C 
BRANCH  13  14
ATOM     14  C   UNL     1     -32.697 -22.538 -35.081  1.00  0.00    -0.000 C 
BRANCH  14  15
ATOM     15  C   UNL     1     -33.292 -21.479 -36.028  1.00  0.00    -0.000 C 
BRANCH  15  16
ATOM     16  C   UNL     1     -33.424 -21.979 -37.476  1.00  0.00    -0.000 C 
BRANCH  16  17
ATOM     17  C   UNL     1     -32.064 -22.133 -38.182  1.00  0.00    -0.000 C 
BRANCH  17  18
ATOM     18  C   UNL     1     -31.821 -23.500 -38.855  1.00  0.00    -0.000 C 
BRANCH  18  19
ATOM     19  C   UNL     1     -31.754 -24.696 -37.889  1.00  0.00    -0.003 C 
ATOM     20  C   UNL     1     -32.402 -25.958 -38.456  1.00  0.00     0.004 C 
ENDBRANCH  18  19
ENDBRANCH  17  18
ENDBRANCH  16  17
ENDBRANCH  15  16
ENDBRANCH  14  15
ENDBRANCH  13  14
ENDBRANCH  12  13
ENDBRANCH   1  12
TORSDOF 16
ENDMDL
MODEL 5
REMARK VINA RESULT:    -2.000      1.413      2.082
REMARK INTER + INTRA:          -5.184
REMARK INTER:                  -5.145
REMARK INTRA:                  -0.039
REMARK UNBOUND:                -1.313
REMARK SMILES CCCCCCCCCCCCCCCCCC(=O)[O-]
REMARK SMILES IDX 10 1 11 2 12 3 13 4 14 5 15 6 16 7 17 8 18 9 19 10 20 11
REMARK SMILES IDX 9 12 8 13 7 14 6 15 5 16 4 17 3 18 2 19 1 20
REMARK H PARENT
REMARK Flexibility Score: inf
ROOT
ATOM      1  C   UNL     1     -31.658 -20.477 -33.122  1.00  0.00     0.000 C 
ENDROOT
BRANCH   1   2
ATOM      2  C   UNL     1     -30.526 -19.437 -33.165  1.00  0.00     0.000 C 
BRANCH   2   3
ATOM      3  C   UNL     1     -29.205 -20.020 -33.693  1.00  0.00     0.000 C 
BRANCH   3   4
ATOM      4  C   UNL     1     -27.967 -19.348 -33.071  1.00  0.00     0.000 C 
BRANCH   4   5
ATOM      5  C   UNL     1     -28.218 -18.878 -31.629  1.00  0.00     0.000 C 
BRANCH   5   6
ATOM      6  C   UNL     1     -28.944 -19.940 -30.783  1.00  0.00     0.000 C 
BRANCH   6   7
ATOM      7  C   UNL     1     -29.793 -19.324 -29.661  1.00  0.00     0.006 C 
BRANCH   7   8
ATOM      8  C   UNL     1     -31.074 -20.121 -29.378  1.00  0.00     0.053 C 
BRANCH   8   9
ATOM      9  C   UNL     1     -32.281 -19.270 -29.615  1.00  0.00     0.041 C 
ATOM     10  O   UNL     1     -32.565 -18.882 -30.779  1.00  0.00    -0.550 OA
ATOM     11  O   UNL     1     -33.117 -18.938 -28.556  1.00  0.00    -0.550 OA
ENDBRANCH   8   9
ENDBRANCH   7   8
ENDBRANCH   6   7
ENDBRANCH   5   6
ENDBRANCH   4   5
ENDBRANCH   3   4
ENDBRANCH   2   3
ENDBRANCH   1   2
BRANCH   1  12
ATOM     12  C   UNL     1     -32.104 -20.929 -34.526  1.00  0.00     0.000 C 
BRANCH  12  13
ATOM     13  C   UNL     1     -32.890 -22.256 -34.567  1.00  0.00    -0.000 C 
BRANCH  13  14
ATOM     14  C   UNL     1     -32.921 -22.962 -35.939  1.00  0.00    -0.000 C 
BRANCH  14  15
ATOM     15  C   UNL     1     -31.813 -22.533 -36.919  1.00  0.00    -0.000 C 
BRANCH  15  16
ATOM     16  C   UNL     1     -31.693 -23.472 -38.131  1.00  0.00    -0.000 C 
BRANCH  16  17
ATOM     17  C   UNL     1     -31.890 -24.955 -37.763  1.00  0.00    -0.000 C 
BRANCH  17  18
ATOM     18  C   UNL     1     -32.366 -25.862 -38.916  1.00  0.00    -0.000 C 
BRANCH  18  19
ATOM     19  C   UNL     1     -33.351 -26.971 -38.507  1.00  0.00    -0.003 C 
ATOM     20  C   UNL     1     -33.013 -28.327 -39.124  1.00  0.00     0.004 C 
ENDBRANCH  18  19
ENDBRANCH  17  18
ENDBRANCH  16  17
ENDBRANCH  15  16
ENDBRANCH  14  15
ENDBRANCH  13  14
ENDBRANCH  12  13
ENDBRANCH   1  12
TORSDOF 16
ENDMDL
MODEL 6
REMARK VINA RESULT:    -1.980      3.110      8.335
REMARK INTER + INTRA:          -5.145
REMARK INTER:                  -4.250
REMARK INTRA:                  -0.895
REMARK UNBOUND:                -1.313
REMARK SMILES CCCCCCCCCCCCCCCCCC(=O)[O-]
REMARK SMILES IDX 10 1 11 2 12 3 13 4 14 5 15 6 16 7 17 8 18 9 19 10 20 11
REMARK SMILES IDX 9 12 8 13 7 14 6 15 5 16 4 17 3 18 2 19 1 20
REMARK H PARENT
REMARK Flexibility Score: inf
ROOT
ATOM      1  C   UNL     1     -31.862 -22.046 -34.667  1.00  0.00     0.000 C 
ENDROOT
BRANCH   1   2
ATOM      2  C   UNL     1     -33.263 -21.849 -35.272  1.00  0.00     0.000 C 
BRANCH   2   3
ATOM      3  C   UNL     1     -33.546 -20.384 -35.646  1.00  0.00     0.000 C 
BRANCH   3   4
ATOM      4  C   UNL     1     -33.872 -20.204 -37.140  1.00  0.00     0.000 C 
BRANCH   4   5
ATOM      5  C   UNL     1     -33.505 -21.443 -37.974  1.00  0.00     0.000 C 
BRANCH   5   6
ATOM      6  C   UNL     1     -31.999 -21.515 -38.286  1.00  0.00     0.000 C 
BRANCH   6   7
ATOM      7  C   UNL     1     -31.627 -22.747 -39.125  1.00  0.00     0.006 C 
BRANCH   7   8
ATOM      8  C   UNL     1     -32.701 -23.843 -39.081  1.00  0.00     0.053 C 
BRANCH   8   9
ATOM      9  C   UNL     1     -32.371 -24.857 -38.031  1.00  0.00     0.041 C 
ATOM     10  O   UNL     1     -32.707 -24.661 -36.833  1.00  0.00    -0.550 OA
ATOM     11  O   UNL     1     -31.727 -26.037 -38.382  1.00  0.00    -0.550 OA
ENDBRANCH   8   9
ENDBRANCH   7   8
ENDBRANCH   6   7
ENDBRANCH   5   6
ENDBRANCH   4   5
ENDBRANCH   3   4
ENDBRANCH   2   3
ENDBRANCH   1   2
BRANCH   1  12
ATOM     12  C   UNL     1     -31.016 -20.759 -34.694  1.00  0.00     0.000 C 
BRANCH  12  13
ATOM     13  C   UNL     1     -29.920 -20.675 -33.612  1.00  0.00    -0.000 C 
BRANCH  13  14
ATOM     14  C   UNL     1     -29.497 -19.246 -33.211  1.00  0.00    -0.000 C 
BRANCH  14  15
ATOM     15  C   UNL     1     -28.985 -19.097 -31.766  1.00  0.00    -0.000 C 
BRANCH  15  16
ATOM     16  C   UNL     1     -30.124 -18.951 -30.743  1.00  0.00    -0.000 C 
BRANCH  16  17
ATOM     17  C   UNL     1     -30.794 -20.294 -30.397  1.00  0.00    -0.000 C 
BRANCH  17  18
ATOM     18  C   UNL     1     -31.841 -20.236 -29.265  1.00  0.00    -0.000 C 
BRANCH  18  19
ATOM     19  C   UNL     1     -32.574 -18.889 -29.127  1.00  0.00    -0.003 C 
ATOM     20  C   UNL     1     -33.983 -19.033 -28.554  1.00  0.00     0.004 C 
ENDBRANCH  18  19
ENDBRANCH  17  18
ENDBRANCH  16  17
ENDBRANCH  15  16
ENDBRANCH  14  15
ENDBRANCH  13  14
ENDBRANCH  12  13
ENDBRANCH   1  12
TORSDOF 16
ENDMDL
MODEL 7
REMARK VINA RESULT:    -1.833      3.110      8.026
REMARK INTER + INTRA:          -4.860
REMARK INTER:                  -3.729
REMARK INTRA:                  -1.131
REMARK UNBOUND:                -1.313
REMARK SMILES CCCCCCCCCCCCCCCCCC(=O)[O-]
REMARK SMILES IDX 10 1 11 2 12 3 13 4 14 5 15 6 16 7 17 8 18 9 19 10 20 11
REMARK SMILES IDX 9 12 8 13 7 14 6 15 5 16 4 17 3 18 2 19 1 20
REMARK H PARENT
REMARK Flexibility Score: inf
ROOT
ATOM      1  C   UNL     1     -31.433 -21.540 -33.415  1.00  0.00     0.000 C 
ENDROOT
BRANCH   1   2
ATOM      2  C   UNL     1     -32.621 -21.961 -34.295  1.00  0.00     0.000 C 
BRANCH   2   3
ATOM      3  C   UNL     1     -32.568 -21.340 -35.701  1.00  0.00     0.000 C 
BRANCH   3   4
ATOM      4  C   UNL     1     -33.925 -21.387 -36.425  1.00  0.00     0.000 C 
BRANCH   4   5
ATOM      5  C   UNL     1     -33.932 -20.546 -37.713  1.00  0.00     0.000 C 
BRANCH   5   6
ATOM      6  C   UNL     1     -33.616 -21.386 -38.964  1.00  0.00     0.000 C 
BRANCH   6   7
ATOM      7  C   UNL     1     -32.178 -21.926 -38.966  1.00  0.00     0.006 C 
BRANCH   7   8
ATOM      8  C   UNL     1     -32.116 -23.452 -39.119  1.00  0.00     0.053 C 
BRANCH   8   9
ATOM      9  C   UNL     1     -31.961 -24.105 -37.782  1.00  0.00     0.041 C 
ATOM     10  O   UNL     1     -30.833 -24.142 -37.221  1.00  0.00    -0.550 OA
ATOM     11  O   UNL     1     -33.069 -24.638 -37.135  1.00  0.00    -0.550 OA
ENDBRANCH   8   9
ENDBRANCH   7   8
ENDBRANCH   6   7
ENDBRANCH   5   6
ENDBRANCH   4   5
ENDBRANCH   3   4
ENDBRANCH   2   3
ENDBRANCH   1   2
BRANCH   1  12
ATOM     12  C   UNL     1     -31.352 -20.014 -33.216  1.00  0.00     0.000 C 
BRANCH  12  13
ATOM     13  C   UNL     1     -30.173 -19.324 -33.934  1.00  0.00    -0.000 C 
BRANCH  13  14
ATOM     14  C   UNL     1     -29.014 -18.877 -33.019  1.00  0.00    -0.000 C 
BRANCH  14  15
ATOM     15  C   UNL     1     -28.662 -19.859 -31.885  1.00  0.00    -0.000 C 
BRANCH  15  16
ATOM     16  C   UNL     1     -28.612 -19.183 -30.505  1.00  0.00    -0.000 C 
BRANCH  16  17
ATOM     17  C   UNL     1     -30.011 -18.876 -29.938  1.00  0.00    -0.000 C 
BRANCH  17  18
ATOM     18  C   UNL     1     -31.049 -20.007 -30.095  1.00  0.00    -0.000 C 
BRANCH  18  19
ATOM     19  C   UNL     1     -30.723 -21.299 -29.325  1.00  0.00    -0.003 C 
ATOM     20  C   UNL     1     -30.740 -22.542 -30.211  1.00  0.00     0.004 C 
ENDBRANCH  18  19
ENDBRANCH  17  18
ENDBRANCH  16  17
ENDBRANCH  15  16
ENDBRANCH  14  15
ENDBRANCH  13  14
ENDBRANCH  12  13
ENDBRANCH   1  12
TORSDOF 16
ENDMDL
MODEL 8
REMARK VINA RESULT:    -1.010      3.234      8.039
REMARK INTER + INTRA:          -3.268
REMARK INTER:                  -2.500
REMARK INTRA:                  -0.768
REMARK UNBOUND:                -1.313
REMARK SMILES CCCCCCCCCCCCCCCCCC(=O)[O-]
REMARK SMILES IDX 10 1 11 2 12 3 13 4 14 5 15 6 16 7 17 8 18 9 19 10 20 11
REMARK SMILES IDX 9 12 8 13 7 14 6 15 5 16 4 17 3 18 2 19 1 20
REMARK H PARENT
REMARK Flexibility Score: inf
ROOT
ATOM      1  C   UNL     1     -29.943 -20.732 -33.501  1.00  0.00     0.000 C 
ENDROOT
BRANCH   1   2
ATOM      2  C   UNL     1     -31.325 -20.809 -34.171  1.00  0.00     0.000 C 
BRANCH   2   3
ATOM      3  C   UNL     1     -31.910 -22.231 -34.165  1.00  0.00     0.000 C 
BRANCH   3   4
ATOM      4  C   UNL     1     -32.788 -22.519 -35.395  1.00  0.00     0.000 C 
BRANCH   4   5
ATOM      5  C   UNL     1     -33.208 -21.235 -36.130  1.00  0.00     0.000 C 
BRANCH   5   6
ATOM      6  C   UNL     1     -33.316 -21.438 -37.652  1.00  0.00     0.000 C 
BRANCH   6   7
ATOM      7  C   UNL     1     -32.030 -22.012 -38.265  1.00  0.00     0.006 C 
BRANCH   7   8
ATOM      8  C   UNL     1     -32.271 -23.314 -39.042  1.00  0.00     0.053 C 
BRANCH   8   9
ATOM      9  C   UNL     1     -31.829 -24.493 -38.235  1.00  0.00     0.041 C 
ATOM     10  O   UNL     1     -32.303 -25.637 -38.471  1.00  0.00    -0.550 OA
ATOM     11  O   UNL     1     -30.865 -24.339 -37.247  1.00  0.00    -0.550 OA
ENDBRANCH   8   9
ENDBRANCH   7   8
ENDBRANCH   6   7
ENDBRANCH   5   6
ENDBRANCH   4   5
ENDBRANCH   3   4
ENDBRANCH   2   3
ENDBRANCH   1   2
BRANCH   1  12
ATOM     12  C   UNL     1     -29.242 -19.381 -33.737  1.00  0.00     0.000 C 
BRANCH  12  13
ATOM     13  C   UNL     1     -28.367 -18.886 -32.567  1.00  0.00    -0.000 C 
BRANCH  13  14
ATOM     14  C   UNL     1     -28.534 -19.662 -31.244  1.00  0.00    -0.000 C 
BRANCH  14  15
ATOM     15  C   UNL     1     -29.212 -18.875 -30.107  1.00  0.00    -0.000 C 
BRANCH  15  16
ATOM     16  C   UNL     1     -30.747 -18.948 -30.165  1.00  0.00    -0.000 C 
BRANCH  16  17
ATOM     17  C   UNL     1     -31.297 -20.332 -29.770  1.00  0.00    -0.000 C 
BRANCH  17  18
ATOM     18  C   UNL     1     -30.753 -21.517 -30.597  1.00  0.00    -0.000 C 
BRANCH  18  19
ATOM     19  C   UNL     1     -30.622 -22.842 -29.825  1.00  0.00    -0.003 C 
ATOM     20  C   UNL     1     -31.457 -23.969 -30.429  1.00  0.00     0.004 C 
ENDBRANCH  18  19
ENDBRANCH  17  18
ENDBRANCH  16  17
ENDBRANCH  15  16
ENDBRANCH  14  15
ENDBRANCH  13  14
ENDBRANCH  12  13
ENDBRANCH   1  12
TORSDOF 16
ENDMDL
