MODEL 1
REMARK VINA RESULT:    -3.753      0.000      0.000
REMARK INTER + INTRA:          -8.984
REMARK INTER:                  -7.044
REMARK INTRA:                  -1.940
REMARK UNBOUND:                -1.940
REMARK SMILES CCCCCCCCC=CCCCCCCCC(=O)[O-]
REMARK SMILES IDX 10 1 9 2 11 3 12 4 13 5 14 6 15 7 16 8 17 9 18 10 19 11
REMARK SMILES IDX 20 12 8 13 7 14 6 15 5 16 4 17 3 18 2 19 1 20
REMARK H PARENT
REMARK Flexibility Score: inf
ROOT
ATOM      1  C   UNL     1      64.045  29.846  60.918  1.00  0.00    -0.031 C 
ATOM      2  C   UNL     1      63.213  30.612  61.645  1.00  0.00    -0.031 C 
ENDROOT
BRANCH   1   3
ATOM      3  C   UNL     1      63.612  28.650  60.108  1.00  0.00     0.027 C 
BRANCH   3   4
ATOM      4  C   UNL     1      64.015  27.345  60.803  1.00  0.00     0.004 C 
BRANCH   4   5
ATOM      5  C   UNL     1      62.822  26.383  60.895  1.00  0.00     0.000 C 
BRANCH   5   6
ATOM      6  C   UNL     1      61.939  26.643  62.128  1.00  0.00     0.000 C 
BRANCH   6   7
ATOM      7  C   UNL     1      60.425  26.680  61.844  1.00  0.00     0.000 C 
BRANCH   7   8
ATOM      8  C   UNL     1      60.059  27.382  60.518  1.00  0.00     0.006 C 
BRANCH   8   9
ATOM      9  C   UNL     1      58.867  28.336  60.672  1.00  0.00     0.053 C 
BRANCH   9  10
ATOM     10  C   UNL     1      57.633  27.577  61.044  1.00  0.00     0.041 C 
ATOM     11  O   UNL     1      56.928  27.952  62.017  1.00  0.00    -0.550 OA
ATOM     12  O   UNL     1      57.288  26.426  60.347  1.00  0.00    -0.550 OA
ENDBRANCH   9  10
ENDBRANCH   8   9
ENDBRANCH   7   8
ENDBRANCH   6   7
ENDBRANCH   5   6
ENDBRANCH   4   5
ENDBRANCH   3   4
ENDBRANCH   1   3
BRANCH   2  13
ATOM     13  C   UNL     1      61.719  30.398  61.701  1.00  0.00     0.027 C 
BRANCH  13  14
ATOM     14  C   UNL     1      60.964  31.700  61.397  1.00  0.00     0.004 C 
BRANCH  14  15
ATOM     15  C   UNL     1      61.657  32.552  60.321  1.00  0.00     0.000 C 
BRANCH  15  16
ATOM     16  C   UNL     1      61.172  34.012  60.320  1.00  0.00     0.000 C 
BRANCH  16  17
ATOM     17  C   UNL     1      62.271  35.006  60.738  1.00  0.00    -0.000 C 
BRANCH  17  18
ATOM     18  C   UNL     1      63.664  34.388  60.973  1.00  0.00    -0.000 C 
BRANCH  18  19
ATOM     19  C   UNL     1      64.603  35.220  61.864  1.00  0.00    -0.003 C 
ATOM     20  C   UNL     1      64.317  36.720  61.791  1.00  0.00     0.004 C 
ENDBRANCH  18  19
ENDBRANCH  17  18
ENDBRANCH  16  17
ENDBRANCH  15  16
ENDBRANCH  14  15
ENDBRANCH  13  14
ENDBRANCH   2  13
TORSDOF 15
ENDMDL
MODEL 2
REMARK VINA RESULT:    -3.719      2.643      4.064
REMARK INTER + INTRA:          -8.921
REMARK INTER:                  -5.855
REMARK INTRA:                  -3.066
REMARK UNBOUND:                -1.940
REMARK SMILES CCCCCCCCC=CCCCCCCCC(=O)[O-]
REMARK SMILES IDX 10 1 9 2 11 3 12 4 13 5 14 6 15 7 16 8 17 9 18 10 19 11
REMARK SMILES IDX 20 12 8 13 7 14 6 15 5 16 4 17 3 18 2 19 1 20
REMARK H PARENT
REMARK Flexibility Score: inf
ROOT
ATOM      1  C   UNL     1      63.405  32.839  58.885  1.00  0.00    -0.031 C 
ATOM      2  C   UNL     1      62.440  33.676  59.307  1.00  0.00    -0.031 C 
ENDROOT
BRANCH   1   3
ATOM      3  C   UNL     1      64.523  32.325  59.754  1.00  0.00     0.027 C 
BRANCH   3   4
ATOM      4  C   UNL     1      64.476  30.796  59.857  1.00  0.00     0.004 C 
BRANCH   4   5
ATOM      5  C   UNL     1      64.026  30.355  61.256  1.00  0.00     0.000 C 
BRANCH   5   6
ATOM      6  C   UNL     1      62.594  29.790  61.272  1.00  0.00     0.000 C 
BRANCH   6   7
ATOM      7  C   UNL     1      61.557  30.678  61.986  1.00  0.00     0.000 C 
BRANCH   7   8
ATOM      8  C   UNL     1      60.377  31.102  61.086  1.00  0.00     0.006 C 
BRANCH   8   9
ATOM      9  C   UNL     1      60.525  30.587  59.648  1.00  0.00     0.053 C 
BRANCH   9  10
ATOM     10  C   UNL     1      59.378  31.046  58.806  1.00  0.00     0.041 C 
ATOM     11  O   UNL     1      58.510  30.223  58.415  1.00  0.00    -0.550 OA
ATOM     12  O   UNL     1      59.293  32.375  58.411  1.00  0.00    -0.550 OA
ENDBRANCH   9  10
ENDBRANCH   8   9
ENDBRANCH   7   8
ENDBRANCH   6   7
ENDBRANCH   5   6
ENDBRANCH   4   5
ENDBRANCH   3   4
ENDBRANCH   1   3
BRANCH   2  13
ATOM     13  C   UNL     1      62.328  34.169  60.729  1.00  0.00     0.027 C 
BRANCH  13  14
ATOM     14  C   UNL     1      61.968  35.662  60.769  1.00  0.00     0.004 C 
BRANCH  14  15
ATOM     15  C   UNL     1      63.077  36.524  61.394  1.00  0.00     0.000 C 
BRANCH  15  16
ATOM     16  C   UNL     1      64.382  35.739  61.613  1.00  0.00     0.000 C 
BRANCH  16  17
ATOM     17  C   UNL     1      65.550  36.275  60.765  1.00  0.00    -0.000 C 
BRANCH  17  18
ATOM     18  C   UNL     1      65.499  35.908  59.268  1.00  0.00    -0.000 C 
BRANCH  18  19
ATOM     19  C   UNL     1      65.057  37.049  58.334  1.00  0.00    -0.003 C 
ATOM     20  C   UNL     1      63.734  36.758  57.625  1.00  0.00     0.004 C 
ENDBRANCH  18  19
ENDBRANCH  17  18
ENDBRANCH  16  17
ENDBRANCH  15  16
ENDBRANCH  14  15
ENDBRANCH  13  14
ENDBRANCH   2  13
TORSDOF 15
ENDMDL
MODEL 3
REMARK VINA RESULT:    -3.714     11.179     13.046
REMARK INTER + INTRA:          -8.911
REMARK INTER:                  -6.114
REMARK INTRA:                  -2.798
REMARK UNBOUND:                -1.940
REMARK SMILES CCCCCCCCC=CCCCCCCCC(=O)[O-]
REMARK SMILES IDX 10 1 9 2 11 3 12 4 13 5 14 6 15 7 16 8 17 9 18 10 19 11
REMARK SMILES IDX 20 12 8 13 7 14 6 15 5 16 4 17 3 18 2 19 1 20
REMARK H PARENT
REMARK Flexibility Score: inf
ROOT
ATOM      1  C   UNL     1      57.256  28.184  51.611  1.00  0.00    -0.031 C 
ATOM      2  C   UNL     1      56.741  26.953  51.443  1.00  0.00    -0.031 C 
ENDROOT
BRANCH   1   3
ATOM      3  C   UNL     1      57.326  29.231  50.529  1.00  0.00     0.027 C 
BRANCH   3   4
ATOM      4  C   UNL     1      58.776  29.476  50.099  1.00  0.00     0.004 C 
BRANCH   4   5
ATOM      5  C   UNL     1      59.210  28.462  49.030  1.00  0.00     0.000 C 
BRANCH   5   6
ATOM      6  C   UNL     1      60.541  27.770  49.369  1.00  0.00     0.000 C 
BRANCH   6   7
ATOM      7  C   UNL     1      60.785  27.538  50.873  1.00  0.00     0.000 C 
BRANCH   7   8
ATOM      8  C   UNL     1      60.275  26.173  51.382  1.00  0.00     0.006 C 
BRANCH   8   9
ATOM      9  C   UNL     1      59.902  25.224  50.236  1.00  0.00     0.053 C 
BRANCH   9  10
ATOM     10  C   UNL     1      60.904  24.119  50.124  1.00  0.00     0.041 C 
ATOM     11  O   UNL     1      60.597  23.042  49.550  1.00  0.00    -0.550 OA
ATOM     12  O   UNL     1      62.161  24.260  50.697  1.00  0.00    -0.550 OA
ENDBRANCH   9  10
ENDBRANCH   8   9
ENDBRANCH   7   8
ENDBRANCH   6   7
ENDBRANCH   5   6
ENDBRANCH   4   5
ENDBRANCH   3   4
ENDBRANCH   1   3
BRANCH   2  13
ATOM     13  C   UNL     1      56.118  26.480  50.152  1.00  0.00     0.027 C 
BRANCH  13  14
ATOM     14  C   UNL     1      54.636  26.127  50.352  1.00  0.00     0.004 C 
BRANCH  14  15
ATOM     15  C   UNL     1      53.711  26.878  49.379  1.00  0.00     0.000 C 
BRANCH  15  16
ATOM     16  C   UNL     1      52.875  27.964  50.079  1.00  0.00     0.000 C 
BRANCH  16  17
ATOM     17  C   UNL     1      53.597  29.322  50.146  1.00  0.00    -0.000 C 
BRANCH  17  18
ATOM     18  C   UNL     1      53.710  29.940  51.554  1.00  0.00    -0.000 C 
BRANCH  18  19
ATOM     19  C   UNL     1      53.046  29.122  52.677  1.00  0.00    -0.003 C 
ATOM     20  C   UNL     1      54.057  28.364  53.537  1.00  0.00     0.004 C 
ENDBRANCH  18  19
ENDBRANCH  17  18
ENDBRANCH  16  17
ENDBRANCH  15  16
ENDBRANCH  14  15
ENDBRANCH  13  14
ENDBRANCH   2  13
TORSDOF 15
ENDMDL
MODEL 4
REMARK VINA RESULT:    -3.642      3.896      5.379
REMARK INTER + INTRA:          -8.775
REMARK INTER:                  -6.139
REMARK INTRA:                  -2.636
REMARK UNBOUND:                -1.940
REMARK SMILES CCCCCCCCC=CCCCCCCCC(=O)[O-]
REMARK SMILES IDX 10 1 9 2 11 3 12 4 13 5 14 6 15 7 16 8 17 9 18 10 19 11
REMARK SMILES IDX 20 12 8 13 7 14 6 15 5 16 4 17 3 18 2 19 1 20
REMARK H PARENT
REMARK Flexibility Score: inf
ROOT
ATOM      1  C   UNL     1      61.109  31.452  58.541  1.00  0.00    -0.031 C 
ATOM      2  C   UNL     1      61.236  32.518  57.731  1.00  0.00    -0.031 C 
ENDROOT
BRANCH   1   3
ATOM      3  C   UNL     1      60.123  31.359  59.677  1.00  0.00     0.027 C 
BRANCH   3   4
ATOM      4  C   UNL     1      60.711  31.954  60.961  1.00  0.00     0.004 C 
BRANCH   4   5
ATOM      5  C   UNL     1      60.823  30.885  62.058  1.00  0.00     0.000 C 
BRANCH   5   6
ATOM      6  C   UNL     1      61.957  29.879  61.797  1.00  0.00     0.000 C 
BRANCH   6   7
ATOM      7  C   UNL     1      63.345  30.510  61.577  1.00  0.00     0.000 C 
BRANCH   7   8
ATOM      8  C   UNL     1      64.404  29.516  61.054  1.00  0.00     0.006 C 
BRANCH   8   9
ATOM      9  C   UNL     1      64.529  29.547  59.525  1.00  0.00     0.053 C 
BRANCH   9  10
ATOM     10  C   UNL     1      65.950  29.781  59.120  1.00  0.00     0.041 C 
ATOM     11  O   UNL     1      66.363  30.950  58.907  1.00  0.00    -0.550 OA
ATOM     12  O   UNL     1      66.804  28.702  58.929  1.00  0.00    -0.550 OA
ENDBRANCH   9  10
ENDBRANCH   8   9
ENDBRANCH   7   8
ENDBRANCH   6   7
ENDBRANCH   5   6
ENDBRANCH   4   5
ENDBRANCH   3   4
ENDBRANCH   1   3
BRANCH   2  13
ATOM     13  C   UNL     1      60.362  33.746  57.828  1.00  0.00     0.027 C 
BRANCH  13  14
ATOM     14  C   UNL     1      61.202  34.998  58.126  1.00  0.00     0.004 C 
BRANCH  14  15
ATOM     15  C   UNL     1      60.582  35.881  59.221  1.00  0.00     0.000 C 
BRANCH  15  16
ATOM     16  C   UNL     1      61.085  35.516  60.629  1.00  0.00     0.000 C 
BRANCH  16  17
ATOM     17  C   UNL     1      62.261  36.397  61.090  1.00  0.00    -0.000 C 
BRANCH  17  18
ATOM     18  C   UNL     1      63.633  35.696  61.130  1.00  0.00    -0.000 C 
BRANCH  18  19
ATOM     19  C   UNL     1      63.581  34.160  61.047  1.00  0.00    -0.003 C 
ATOM     20  C   UNL     1      64.226  33.611  59.774  1.00  0.00     0.004 C 
ENDBRANCH  18  19
ENDBRANCH  17  18
ENDBRANCH  16  17
ENDBRANCH  15  16
ENDBRANCH  14  15
ENDBRANCH  13  14
ENDBRANCH   2  13
TORSDOF 15
ENDMDL
MODEL 5
REMARK VINA RESULT:    -3.603      3.434      5.330
REMARK INTER + INTRA:          -8.702
REMARK INTER:                  -6.055
REMARK INTRA:                  -2.646
REMARK UNBOUND:                -1.940
REMARK SMILES CCCCCCCCC=CCCCCCCCC(=O)[O-]
REMARK SMILES IDX 10 1 9 2 11 3 12 4 13 5 14 6 15 7 16 8 17 9 18 10 19 11
REMARK SMILES IDX 20 12 8 13 7 14 6 15 5 16 4 17 3 18 2 19 1 20
REMARK H PARENT
REMARK Flexibility Score: inf
ROOT
ATOM      1  C   UNL     1      62.277  32.116  60.027  1.00  0.00    -0.031 C 
ATOM      2  C   UNL     1      63.449  32.774  60.043  1.00  0.00    -0.031 C 
ENDROOT
BRANCH   1   3
ATOM      3  C   UNL     1      61.179  32.310  61.042  1.00  0.00     0.027 C 
BRANCH   3   4
ATOM      4  C   UNL     1      60.715  30.963  61.607  1.00  0.00     0.004 C 
BRANCH   4   5
ATOM      5  C   UNL     1      60.323  30.000  60.478  1.00  0.00     0.000 C 
BRANCH   5   6
ATOM      6  C   UNL     1      60.977  28.615  60.621  1.00  0.00     0.000 C 
BRANCH   6   7
ATOM      7  C   UNL     1      62.310  28.605  61.394  1.00  0.00     0.000 C 
BRANCH   7   8
ATOM      8  C   UNL     1      63.550  28.425  60.492  1.00  0.00     0.006 C 
BRANCH   8   9
ATOM      9  C   UNL     1      64.755  29.234  60.988  1.00  0.00     0.053 C 
BRANCH   9  10
ATOM     10  C   UNL     1      66.004  28.415  60.909  1.00  0.00     0.041 C 
ATOM     11  O   UNL     1      67.005  28.718  61.608  1.00  0.00    -0.550 OA
ATOM     12  O   UNL     1      66.079  27.346  60.025  1.00  0.00    -0.550 OA
ENDBRANCH   9  10
ENDBRANCH   8   9
ENDBRANCH   7   8
ENDBRANCH   6   7
ENDBRANCH   5   6
ENDBRANCH   4   5
ENDBRANCH   3   4
ENDBRANCH   1   3
BRANCH   2  13
ATOM     13  C   UNL     1      63.796  33.834  61.061  1.00  0.00     0.027 C 
BRANCH  13  14
ATOM     14  C   UNL     1      63.574  35.242  60.488  1.00  0.00     0.004 C 
BRANCH  14  15
ATOM     15  C   UNL     1      62.359  35.952  61.109  1.00  0.00     0.000 C 
BRANCH  15  16
ATOM     16  C   UNL     1      61.082  35.780  60.268  1.00  0.00     0.000 C 
BRANCH  16  17
ATOM     17  C   UNL     1      61.334  35.950  58.758  1.00  0.00    -0.000 C 
BRANCH  17  18
ATOM     18  C   UNL     1      60.909  34.756  57.881  1.00  0.00    -0.000 C 
BRANCH  18  19
ATOM     19  C   UNL     1      59.509  34.192  58.185  1.00  0.00    -0.003 C 
ATOM     20  C   UNL     1      59.357  32.727  57.776  1.00  0.00     0.004 C 
ENDBRANCH  18  19
ENDBRANCH  17  18
ENDBRANCH  16  17
ENDBRANCH  15  16
ENDBRANCH  14  15
ENDBRANCH  13  14
ENDBRANCH   2  13
TORSDOF 15
ENDMDL
MODEL 6
REMARK VINA RESULT:    -3.592      2.530      5.482
REMARK INTER + INTRA:          -8.682
REMARK INTER:                  -5.989
REMARK INTRA:                  -2.693
REMARK UNBOUND:                -1.940
REMARK SMILES CCCCCCCCC=CCCCCCCCC(=O)[O-]
REMARK SMILES IDX 10 1 9 2 11 3 12 4 13 5 14 6 15 7 16 8 17 9 18 10 19 11
REMARK SMILES IDX 20 12 8 13 7 14 6 15 5 16 4 17 3 18 2 19 1 20
REMARK H PARENT
REMARK Flexibility Score: inf
ROOT
ATOM      1  C   UNL     1      60.778  35.727  60.383  1.00  0.00    -0.031 C 
ATOM      2  C   UNL     1      61.609  36.596  60.984  1.00  0.00    -0.031 C 
ENDROOT
BRANCH   1   3
ATOM      3  C   UNL     1      61.158  34.860  59.210  1.00  0.00     0.027 C 
BRANCH   3   4
ATOM      4  C   UNL     1      60.794  33.395  59.473  1.00  0.00     0.004 C 
BRANCH   4   5
ATOM      5  C   UNL     1      61.148  32.992  60.912  1.00  0.00     0.000 C 
BRANCH   5   6
ATOM      6  C   UNL     1      60.803  31.526  61.224  1.00  0.00     0.000 C 
BRANCH   6   7
ATOM      7  C   UNL     1      61.999  30.658  61.659  1.00  0.00     0.000 C 
BRANCH   7   8
ATOM      8  C   UNL     1      61.799  29.149  61.402  1.00  0.00     0.006 C 
BRANCH   8   9
ATOM      9  C   UNL     1      63.129  28.407  61.219  1.00  0.00     0.053 C 
BRANCH   9  10
ATOM     10  C   UNL     1      62.886  26.984  60.828  1.00  0.00     0.041 C 
ATOM     11  O   UNL     1      62.648  26.117  61.708  1.00  0.00    -0.550 OA
ATOM     12  O   UNL     1      62.972  26.606  59.493  1.00  0.00    -0.550 OA
ENDBRANCH   9  10
ENDBRANCH   8   9
ENDBRANCH   7   8
ENDBRANCH   6   7
ENDBRANCH   5   6
ENDBRANCH   4   5
ENDBRANCH   3   4
ENDBRANCH   1   3
BRANCH   2  13
ATOM     13  C   UNL     1      63.054  36.778  60.586  1.00  0.00     0.027 C 
BRANCH  13  14
ATOM     14  C   UNL     1      63.997  36.350  61.721  1.00  0.00     0.004 C 
BRANCH  14  15
ATOM     15  C   UNL     1      64.440  34.882  61.603  1.00  0.00     0.000 C 
BRANCH  15  16
ATOM     16  C   UNL     1      64.531  34.409  60.142  1.00  0.00     0.000 C 
BRANCH  16  17
ATOM     17  C   UNL     1      64.452  32.877  60.005  1.00  0.00    -0.000 C 
BRANCH  17  18
ATOM     18  C   UNL     1      64.133  32.358  58.588  1.00  0.00    -0.000 C 
BRANCH  18  19
ATOM     19  C   UNL     1      63.838  30.850  58.499  1.00  0.00    -0.003 C 
ATOM     20  C   UNL     1      62.517  30.544  57.792  1.00  0.00     0.004 C 
ENDBRANCH  18  19
ENDBRANCH  17  18
ENDBRANCH  16  17
ENDBRANCH  15  16
ENDBRANCH  14  15
ENDBRANCH  13  14
ENDBRANCH   2  13
TORSDOF 15
ENDMDL
MODEL 7
REMARK VINA RESULT:    -3.578     10.032     11.720
REMARK INTER + INTRA:          -8.656
REMARK INTER:                  -5.743
REMARK INTRA:                  -2.913
REMARK UNBOUND:                -1.940
REMARK SMILES CCCCCCCCC=CCCCCCCCC(=O)[O-]
REMARK SMILES IDX 10 1 9 2 11 3 12 4 13 5 14 6 15 7 16 8 17 9 18 10 19 11
REMARK SMILES IDX 20 12 8 13 7 14 6 15 5 16 4 17 3 18 2 19 1 20
REMARK H PARENT
REMARK Flexibility Score: inf
ROOT
ATOM      1  C   UNL     1      59.704  25.981  52.448  1.00  0.00    -0.031 C 
ATOM      2  C   UNL     1      60.640  26.769  51.890  1.00  0.00    -0.031 C 
ENDROOT
BRANCH   1   3
ATOM      3  C   UNL     1      58.747  25.116  51.669  1.00  0.00     0.027 C 
BRANCH   3   4
ATOM      4  C   UNL     1      57.358  25.760  51.604  1.00  0.00     0.004 C 
BRANCH   4   5
ATOM      5  C   UNL     1      57.016  26.182  50.168  1.00  0.00     0.000 C 
BRANCH   5   6
ATOM      6  C   UNL     1      55.534  26.558  49.993  1.00  0.00     0.000 C 
BRANCH   6   7
ATOM      7  C   UNL     1      55.188  28.012  50.367  1.00  0.00     0.000 C 
BRANCH   7   8
ATOM      8  C   UNL     1      53.735  28.411  50.031  1.00  0.00     0.006 C 
BRANCH   8   9
ATOM      9  C   UNL     1      53.458  29.895  50.307  1.00  0.00     0.053 C 
BRANCH   9  10
ATOM     10  C   UNL     1      53.567  30.184  51.770  1.00  0.00     0.041 C 
ATOM     11  O   UNL     1      54.249  31.162  52.174  1.00  0.00    -0.550 OA
ATOM     12  O   UNL     1      52.955  29.344  52.693  1.00  0.00    -0.550 OA
ENDBRANCH   9  10
ENDBRANCH   8   9
ENDBRANCH   7   8
ENDBRANCH   6   7
ENDBRANCH   5   6
ENDBRANCH   4   5
ENDBRANCH   3   4
ENDBRANCH   1   3
BRANCH   2  13
ATOM     13  C   UNL     1      60.883  26.849  50.402  1.00  0.00     0.027 C 
BRANCH  13  14
ATOM     14  C   UNL     1      60.774  28.297  49.902  1.00  0.00     0.004 C 
BRANCH  14  15
ATOM     15  C   UNL     1      59.563  28.518  48.980  1.00  0.00     0.000 C 
BRANCH  15  16
ATOM     16  C   UNL     1      58.504  29.442  49.606  1.00  0.00     0.000 C 
BRANCH  16  17
ATOM     17  C   UNL     1      58.930  29.993  50.979  1.00  0.00    -0.000 C 
BRANCH  17  18
ATOM     18  C   UNL     1      57.800  30.111  52.021  1.00  0.00    -0.000 C 
BRANCH  18  19
ATOM     19  C   UNL     1      57.748  28.973  53.056  1.00  0.00    -0.003 C 
ATOM     20  C   UNL     1      56.468  28.987  53.891  1.00  0.00     0.004 C 
ENDBRANCH  18  19
ENDBRANCH  17  18
ENDBRANCH  16  17
ENDBRANCH  15  16
ENDBRANCH  14  15
ENDBRANCH  13  14
ENDBRANCH   2  13
TORSDOF 15
ENDMDL
MODEL 8
REMARK VINA RESULT:    -3.572     10.414     12.539
REMARK INTER + INTRA:          -8.645
REMARK INTER:                  -5.988
REMARK INTRA:                  -2.657
REMARK UNBOUND:                -1.940
REMARK SMILES CCCCCCCCC=CCCCCCCCC(=O)[O-]
REMARK SMILES IDX 10 1 9 2 11 3 12 4 13 5 14 6 15 7 16 8 17 9 18 10 19 11
REMARK SMILES IDX 20 12 8 13 7 14 6 15 5 16 4 17 3 18 2 19 1 20
REMARK H PARENT
REMARK Flexibility Score: inf
ROOT
ATOM      1  C   UNL     1      56.253  26.553  50.334  1.00  0.00    -0.031 C 
ATOM      2  C   UNL     1      55.081  26.364  49.703  1.00  0.00    -0.031 C 
ENDROOT
BRANCH   1   3
ATOM      3  C   UNL     1      56.393  27.172  51.701  1.00  0.00     0.027 C 
BRANCH   3   4
ATOM      4  C   UNL     1      57.395  28.331  51.675  1.00  0.00     0.004 C 
BRANCH   4   5
ATOM      5  C   UNL     1      57.128  29.261  50.482  1.00  0.00     0.000 C 
BRANCH   5   6
ATOM      6  C   UNL     1      58.388  29.530  49.642  1.00  0.00     0.000 C 
BRANCH   6   7
ATOM      7  C   UNL     1      59.712  29.101  50.305  1.00  0.00     0.000 C 
BRANCH   7   8
ATOM      8  C   UNL     1      60.472  28.008  49.524  1.00  0.00     0.006 C 
BRANCH   8   9
ATOM      9  C   UNL     1      59.666  26.707  49.407  1.00  0.00     0.053 C 
BRANCH   9  10
ATOM     10  C   UNL     1      60.149  25.700  50.401  1.00  0.00     0.041 C 
ATOM     11  O   UNL     1      59.340  24.894  50.930  1.00  0.00    -0.550 OA
ATOM     12  O   UNL     1      61.486  25.683  50.780  1.00  0.00    -0.550 OA
ENDBRANCH   9  10
ENDBRANCH   8   9
ENDBRANCH   7   8
ENDBRANCH   6   7
ENDBRANCH   5   6
ENDBRANCH   4   5
ENDBRANCH   3   4
ENDBRANCH   1   3
BRANCH   2  13
ATOM     13  C   UNL     1      53.743  26.708  50.311  1.00  0.00     0.027 C 
BRANCH  13  14
ATOM     14  C   UNL     1      53.140  27.956  49.648  1.00  0.00     0.004 C 
BRANCH  14  15
ATOM     15  C   UNL     1      53.521  29.257  50.373  1.00  0.00     0.000 C 
BRANCH  15  16
ATOM     16  C   UNL     1      53.104  29.251  51.854  1.00  0.00     0.000 C 
BRANCH  16  17
ATOM     17  C   UNL     1      54.164  29.881  52.776  1.00  0.00    -0.000 C 
BRANCH  17  18
ATOM     18  C   UNL     1      54.492  31.360  52.488  1.00  0.00    -0.000 C 
BRANCH  18  19
ATOM     19  C   UNL     1      55.423  32.031  53.514  1.00  0.00    -0.003 C 
ATOM     20  C   UNL     1      56.899  31.703  53.281  1.00  0.00     0.004 C 
ENDBRANCH  18  19
ENDBRANCH  17  18
ENDBRANCH  16  17
ENDBRANCH  15  16
ENDBRANCH  14  15
ENDBRANCH  13  14
ENDBRANCH   2  13
TORSDOF 15
ENDMDL
MODEL 9
REMARK VINA RESULT:    -3.522     10.334     12.372
REMARK INTER + INTRA:          -8.550
REMARK INTER:                  -5.635
REMARK INTRA:                  -2.915
REMARK UNBOUND:                -1.940
REMARK SMILES CCCCCCCCC=CCCCCCCCC(=O)[O-]
REMARK SMILES IDX 10 1 9 2 11 3 12 4 13 5 14 6 15 7 16 8 17 9 18 10 19 11
REMARK SMILES IDX 20 12 8 13 7 14 6 15 5 16 4 17 3 18 2 19 1 20
REMARK H PARENT
REMARK Flexibility Score: inf
ROOT
ATOM      1  C   UNL     1      55.361  27.136  50.159  1.00  0.00    -0.031 C 
ATOM      2  C   UNL     1      54.755  28.337  50.145  1.00  0.00    -0.031 C 
ENDROOT
BRANCH   1   3
ATOM      3  C   UNL     1      55.419  26.227  51.360  1.00  0.00     0.027 C 
BRANCH   3   4
ATOM      4  C   UNL     1      56.871  25.942  51.759  1.00  0.00     0.004 C 
BRANCH   4   5
ATOM      5  C   UNL     1      57.779  25.888  50.521  1.00  0.00     0.000 C 
BRANCH   5   6
ATOM      6  C   UNL     1      59.125  25.197  50.799  1.00  0.00     0.000 C 
BRANCH   6   7
ATOM      7  C   UNL     1      60.306  25.719  49.958  1.00  0.00     0.000 C 
BRANCH   7   8
ATOM      8  C   UNL     1      61.311  26.572  50.761  1.00  0.00     0.006 C 
BRANCH   8   9
ATOM      9  C   UNL     1      62.653  26.732  50.033  1.00  0.00     0.053 C 
BRANCH   9  10
ATOM     10  C   UNL     1      62.776  28.106  49.456  1.00  0.00     0.041 C 
ATOM     11  O   UNL     1      63.314  28.275  48.332  1.00  0.00    -0.550 OA
ATOM     12  O   UNL     1      62.340  29.207  50.184  1.00  0.00    -0.550 OA
ENDBRANCH   9  10
ENDBRANCH   8   9
ENDBRANCH   7   8
ENDBRANCH   6   7
ENDBRANCH   5   6
ENDBRANCH   4   5
ENDBRANCH   3   4
ENDBRANCH   1   3
BRANCH   2  13
ATOM     13  C   UNL     1      54.009  28.907  51.327  1.00  0.00     0.027 C 
BRANCH  13  14
ATOM     14  C   UNL     1      54.871  29.931  52.081  1.00  0.00     0.004 C 
BRANCH  14  15
ATOM     15  C   UNL     1      55.376  29.401  53.433  1.00  0.00     0.000 C 
BRANCH  15  16
ATOM     16  C   UNL     1      56.894  29.149  53.439  1.00  0.00     0.000 C 
BRANCH  16  17
ATOM     17  C   UNL     1      57.661  30.105  52.506  1.00  0.00    -0.000 C 
BRANCH  17  18
ATOM     18  C   UNL     1      58.552  29.420  51.451  1.00  0.00    -0.000 C 
BRANCH  18  19
ATOM     19  C   UNL     1      58.118  29.641  49.991  1.00  0.00    -0.003 C 
ATOM     20  C   UNL     1      59.067  28.991  48.983  1.00  0.00     0.004 C 
ENDBRANCH  18  19
ENDBRANCH  17  18
ENDBRANCH  16  17
ENDBRANCH  15  16
ENDBRANCH  14  15
ENDBRANCH  13  14
ENDBRANCH   2  13
TORSDOF 15
ENDMDL
