MODEL 1
REMARK VINA RESULT:    -6.341      0.000      0.000
REMARK INTER + INTRA:          -7.744
REMARK INTER:                  -7.453
REMARK INTRA:                  -0.291
REMARK UNBOUND:                -0.291
REMARK SMILES O=c1cc(-c2ccc(O)c(O)c2)oc2cc(O)cc(O)c12
REMARK SMILES IDX 4 1 3 2 2 3 1 4 21 5 19 6 18 7 16 8 15 9 14 10 13 11 5 12
REMARK SMILES IDX 6 13 7 14 8 15 12 16 10 17 9 18 11 20 20 22 17 24
REMARK H PARENT 9 19 11 21 20 23 17 25
REMARK Flexibility Score: inf
ROOT
ATOM      1  C   UNL     1      18.388  -0.739  31.785  1.00  0.00     0.138 A 
ATOM      2  C   UNL     1      18.104   0.609  32.042  1.00  0.00     0.100 A 
ATOM      3  C   UNL     1      18.662   1.598  31.230  1.00  0.00     0.197 A 
ATOM      4  O   UNL     1      18.341   2.795  31.447  1.00  0.00    -0.289 OA
ATOM      5  C   UNL     1      19.535   1.235  30.177  1.00  0.00     0.107 A 
ATOM      6  C   UNL     1      20.193   2.159  29.312  1.00  0.00     0.134 A 
ATOM      7  C   UNL     1      20.942   1.679  28.230  1.00  0.00     0.093 A 
ATOM      8  C   UNL     1      21.105   0.307  28.019  1.00  0.00     0.123 A 
ATOM      9  C   UNL     1      20.510  -0.604  28.890  1.00  0.00     0.094 A 
ATOM     10  C   UNL     1      19.729  -0.155  29.958  1.00  0.00     0.146 A 
ATOM     11  O   UNL     1      19.165  -1.057  30.756  1.00  0.00    -0.456 OA
ENDROOT
BRANCH   1  12
ATOM     12  C   UNL     1      17.821  -1.831  32.617  1.00  0.00     0.021 A 
ATOM     13  C   UNL     1      18.361  -3.131  32.597  1.00  0.00     0.016 A 
ATOM     14  C   UNL     1      17.800  -4.142  33.382  1.00  0.00     0.051 A 
ATOM     15  C   UNL     1      16.688  -3.876  34.191  1.00  0.00     0.157 A 
ATOM     16  C   UNL     1      16.696  -1.576  33.422  1.00  0.00     0.062 A 
ATOM     17  C   UNL     1      16.134  -2.587  34.209  1.00  0.00     0.158 A 
BRANCH  15  18
ATOM     18  O   UNL     1      16.133  -4.888  34.974  1.00  0.00    -0.504 OA
ATOM     19  H   UNL     1      16.700  -5.640  35.350  1.00  0.00     0.293 HD
ENDBRANCH  15  18
BRANCH  17  20
ATOM     20  O   UNL     1      15.025  -2.290  35.002  1.00  0.00    -0.504 OA
ATOM     21  H   UNL     1      15.117  -1.922  35.940  1.00  0.00     0.293 HD
ENDBRANCH  17  20
ENDBRANCH   1  12
BRANCH   6  22
ATOM     22  O   UNL     1      20.167   3.546  29.484  1.00  0.00    -0.507 OA
ATOM     23  H   UNL     1      20.964   4.112  29.730  1.00  0.00     0.293 HD
ENDBRANCH   6  22
BRANCH   8  24
ATOM     24  O   UNL     1      21.863  -0.162  26.949  1.00  0.00    -0.508 OA
ATOM     25  H   UNL     1      22.184  -1.123  26.906  1.00  0.00     0.293 HD
ENDBRANCH   8  24
TORSDOF 5
ENDMDL
MODEL 2
REMARK VINA RESULT:    -6.292      2.543      7.750
REMARK INTER + INTRA:          -7.686
REMARK INTER:                  -7.405
REMARK INTRA:                  -0.282
REMARK UNBOUND:                -0.291
REMARK SMILES O=c1cc(-c2ccc(O)c(O)c2)oc2cc(O)cc(O)c12
REMARK SMILES IDX 4 1 3 2 2 3 1 4 21 5 19 6 18 7 16 8 15 9 14 10 13 11 5 12
REMARK SMILES IDX 6 13 7 14 8 15 12 16 10 17 9 18 11 20 20 22 17 24
REMARK H PARENT 9 19 11 21 20 23 17 25
REMARK Flexibility Score: inf
ROOT
ATOM      1  C   UNL     1      20.666   1.109  27.648  1.00  0.00     0.138 A 
ATOM      2  C   UNL     1      21.061   2.255  28.351  1.00  0.00     0.100 A 
ATOM      3  C   UNL     1      20.570   2.477  29.639  1.00  0.00     0.197 A 
ATOM      4  O   UNL     1      20.988   3.482  30.269  1.00  0.00    -0.289 OA
ATOM      5  C   UNL     1      19.654   1.561  30.210  1.00  0.00     0.107 A 
ATOM      6  C   UNL     1      19.057   1.707  31.498  1.00  0.00     0.134 A 
ATOM      7  C   UNL     1      18.255   0.677  32.007  1.00  0.00     0.093 A 
ATOM      8  C   UNL     1      17.981  -0.464  31.249  1.00  0.00     0.123 A 
ATOM      9  C   UNL     1      18.515  -0.591  29.969  1.00  0.00     0.094 A 
ATOM     10  C   UNL     1      19.347   0.403  29.447  1.00  0.00     0.146 A 
ATOM     11  O   UNL     1      19.849   0.237  28.228  1.00  0.00    -0.456 OA
ENDROOT
BRANCH   1  12
ATOM     12  C   UNL     1      21.157   0.824  26.275  1.00  0.00     0.021 A 
ATOM     13  C   UNL     1      21.461  -0.485  25.855  1.00  0.00     0.016 A 
ATOM     14  C   UNL     1      21.932  -0.722  24.562  1.00  0.00     0.051 A 
ATOM     15  C   UNL     1      22.117   0.341  23.669  1.00  0.00     0.157 A 
ATOM     16  C   UNL     1      21.359   1.888  25.377  1.00  0.00     0.062 A 
ATOM     17  C   UNL     1      21.830   1.652  24.081  1.00  0.00     0.158 A 
BRANCH  15  18
ATOM     18  O   UNL     1      22.586   0.100  22.378  1.00  0.00    -0.504 OA
ATOM     19  H   UNL     1      23.493  -0.321  22.214  1.00  0.00     0.293 HD
ENDBRANCH  15  18
BRANCH  17  20
ATOM     20  O   UNL     1      22.006   2.734  23.217  1.00  0.00    -0.504 OA
ATOM     21  H   UNL     1      21.321   2.978  22.513  1.00  0.00     0.293 HD
ENDBRANCH  17  20
ENDBRANCH   1  12
BRANCH   6  22
ATOM     22  O   UNL     1      19.197   2.842  32.301  1.00  0.00    -0.507 OA
ATOM     23  H   UNL     1      19.849   3.592  32.131  1.00  0.00     0.293 HD
ENDBRANCH   6  22
BRANCH   8  24
ATOM     24  O   UNL     1      17.170  -1.477  31.758  1.00  0.00    -0.508 OA
ATOM     25  H   UNL     1      17.538  -2.191  32.376  1.00  0.00     0.293 HD
ENDBRANCH   8  24
TORSDOF 5
ENDMDL
MODEL 3
REMARK VINA RESULT:    -6.098      1.921      7.400
REMARK INTER + INTRA:          -7.458
REMARK INTER:                  -7.178
REMARK INTRA:                  -0.280
REMARK UNBOUND:                -0.291
REMARK SMILES O=c1cc(-c2ccc(O)c(O)c2)oc2cc(O)cc(O)c12
REMARK SMILES IDX 4 1 3 2 2 3 1 4 21 5 19 6 18 7 16 8 15 9 14 10 13 11 5 12
REMARK SMILES IDX 6 13 7 14 8 15 12 16 10 17 9 18 11 20 20 22 17 24
REMARK H PARENT 9 19 11 21 20 23 17 25
REMARK Flexibility Score: inf
ROOT
ATOM      1  C   UNL     1      17.950  -1.183  31.573  1.00  0.00     0.138 A 
ATOM      2  C   UNL     1      17.691  -2.111  30.556  1.00  0.00     0.100 A 
ATOM      3  C   UNL     1      16.918  -3.240  30.833  1.00  0.00     0.197 A 
ATOM      4  O   UNL     1      16.651  -4.024  29.886  1.00  0.00    -0.289 OA
ATOM      5  C   UNL     1      16.429  -3.454  32.144  1.00  0.00     0.107 A 
ATOM      6  C   UNL     1      15.666  -4.589  32.552  1.00  0.00     0.134 A 
ATOM      7  C   UNL     1      15.137  -4.635  33.848  1.00  0.00     0.093 A 
ATOM      8  C   UNL     1      15.396  -3.616  34.769  1.00  0.00     0.123 A 
ATOM      9  C   UNL     1      16.185  -2.530  34.397  1.00  0.00     0.094 A 
ATOM     10  C   UNL     1      16.698  -2.439  33.100  1.00  0.00     0.146 A 
ATOM     11  O   UNL     1      17.433  -1.378  32.781  1.00  0.00    -0.456 OA
ENDROOT
BRANCH   1  12
ATOM     12  C   UNL     1      18.766   0.034  31.333  1.00  0.00     0.021 A 
ATOM     13  C   UNL     1      18.415   1.281  31.885  1.00  0.00     0.016 A 
ATOM     14  C   UNL     1      19.196   2.412  31.633  1.00  0.00     0.051 A 
ATOM     15  C   UNL     1      20.333   2.321  30.821  1.00  0.00     0.157 A 
ATOM     16  C   UNL     1      19.903  -0.045  30.507  1.00  0.00     0.062 A 
ATOM     17  C   UNL     1      20.687   1.086  30.255  1.00  0.00     0.158 A 
BRANCH  15  18
ATOM     18  O   UNL     1      21.111   3.452  30.574  1.00  0.00    -0.504 OA
ATOM     19  H   UNL     1      21.093   3.922  29.676  1.00  0.00     0.293 HD
ENDBRANCH  15  18
BRANCH  17  20
ATOM     20  O   UNL     1      21.812   0.963  29.440  1.00  0.00    -0.504 OA
ATOM     21  H   UNL     1      22.477   0.208  29.552  1.00  0.00     0.293 HD
ENDBRANCH  17  20
ENDBRANCH   1  12
BRANCH   6  22
ATOM     22  O   UNL     1      15.421  -5.699  31.739  1.00  0.00    -0.507 OA
ATOM     23  H   UNL     1      15.754  -6.633  31.923  1.00  0.00     0.293 HD
ENDBRANCH   6  22
BRANCH   8  24
ATOM     24  O   UNL     1      14.878  -3.678  36.060  1.00  0.00    -0.508 OA
ATOM     25  H   UNL     1      15.400  -4.097  36.822  1.00  0.00     0.293 HD
ENDBRANCH   8  24
TORSDOF 5
ENDMDL
MODEL 4
REMARK VINA RESULT:    -6.076      1.476      2.216
REMARK INTER + INTRA:          -7.433
REMARK INTER:                  -7.119
REMARK INTRA:                  -0.314
REMARK UNBOUND:                -0.291
REMARK SMILES O=c1cc(-c2ccc(O)c(O)c2)oc2cc(O)cc(O)c12
REMARK SMILES IDX 4 1 3 2 2 3 1 4 21 5 19 6 18 7 16 8 15 9 14 10 13 11 5 12
REMARK SMILES IDX 6 13 7 14 8 15 12 16 10 17 9 18 11 20 20 22 17 24
REMARK H PARENT 9 19 11 21 20 23 17 25
REMARK Flexibility Score: inf
ROOT
ATOM      1  C   UNL     1      19.056  -0.420  31.118  1.00  0.00     0.138 A 
ATOM      2  C   UNL     1      19.103   0.958  30.869  1.00  0.00     0.100 A 
ATOM      3  C   UNL     1      20.057   1.467  29.986  1.00  0.00     0.197 A 
ATOM      4  O   UNL     1      20.037   2.699  29.735  1.00  0.00    -0.289 OA
ATOM      5  C   UNL     1      20.987   0.592  29.375  1.00  0.00     0.107 A 
ATOM      6  C   UNL     1      22.029   1.004  28.490  1.00  0.00     0.134 A 
ATOM      7  C   UNL     1      22.817   0.036  27.854  1.00  0.00     0.093 A 
ATOM      8  C   UNL     1      22.638  -1.325  28.117  1.00  0.00     0.123 A 
ATOM      9  C   UNL     1      21.660  -1.734  29.021  1.00  0.00     0.094 A 
ATOM     10  C   UNL     1      20.836  -0.794  29.645  1.00  0.00     0.146 A 
ATOM     11  O   UNL     1      19.904  -1.226  30.488  1.00  0.00    -0.456 OA
ENDROOT
BRANCH   1  12
ATOM     12  C   UNL     1      18.062  -1.014  32.048  1.00  0.00     0.021 A 
ATOM     13  C   UNL     1      17.386  -0.234  33.005  1.00  0.00     0.016 A 
ATOM     14  C   UNL     1      16.463  -0.822  33.874  1.00  0.00     0.051 A 
ATOM     15  C   UNL     1      16.206  -2.197  33.810  1.00  0.00     0.157 A 
ATOM     16  C   UNL     1      17.808  -2.397  32.000  1.00  0.00     0.062 A 
ATOM     17  C   UNL     1      16.884  -2.987  32.869  1.00  0.00     0.158 A 
BRANCH  15  18
ATOM     18  O   UNL     1      15.284  -2.779  34.679  1.00  0.00    -0.504 OA
ATOM     19  H   UNL     1      14.288  -2.618  34.581  1.00  0.00     0.293 HD
ENDBRANCH  15  18
BRANCH  17  20
ATOM     20  O   UNL     1      16.653  -4.360  32.781  1.00  0.00    -0.504 OA
ATOM     21  H   UNL     1      16.297  -4.897  33.563  1.00  0.00     0.293 HD
ENDBRANCH  17  20
ENDBRANCH   1  12
BRANCH   6  22
ATOM     22  O   UNL     1      22.347   2.338  28.224  1.00  0.00    -0.507 OA
ATOM     23  H   UNL     1      22.350   3.078  28.909  1.00  0.00     0.293 HD
ENDBRANCH   6  22
BRANCH   8  24
ATOM     24  O   UNL     1      23.436  -2.280  27.491  1.00  0.00    -0.508 OA
ATOM     25  H   UNL     1      23.850  -3.048  28.008  1.00  0.00     0.293 HD
ENDBRANCH   8  24
TORSDOF 5
ENDMDL
MODEL 5
REMARK VINA RESULT:    -6.065      2.210      7.394
REMARK INTER + INTRA:          -7.420
REMARK INTER:                  -7.155
REMARK INTRA:                  -0.265
REMARK UNBOUND:                -0.291
REMARK SMILES O=c1cc(-c2ccc(O)c(O)c2)oc2cc(O)cc(O)c12
REMARK SMILES IDX 4 1 3 2 2 3 1 4 21 5 19 6 18 7 16 8 15 9 14 10 13 11 5 12
REMARK SMILES IDX 6 13 7 14 8 15 12 16 10 17 9 18 11 20 20 22 17 24
REMARK H PARENT 9 19 11 21 20 23 17 25
REMARK Flexibility Score: inf
ROOT
ATOM      1  C   UNL     1      20.953   0.416  29.252  1.00  0.00     0.138 A 
ATOM      2  C   UNL     1      20.167   1.419  29.834  1.00  0.00     0.100 A 
ATOM      3  C   UNL     1      19.198   1.076  30.778  1.00  0.00     0.197 A 
ATOM      4  O   UNL     1      18.550   2.003  31.328  1.00  0.00    -0.289 OA
ATOM      5  C   UNL     1      18.995  -0.284  31.115  1.00  0.00     0.107 A 
ATOM      6  C   UNL     1      18.009  -0.755  32.033  1.00  0.00     0.134 A 
ATOM      7  C   UNL     1      17.978  -2.112  32.377  1.00  0.00     0.093 A 
ATOM      8  C   UNL     1      18.859  -3.024  31.790  1.00  0.00     0.123 A 
ATOM      9  C   UNL     1      19.790  -2.583  30.852  1.00  0.00     0.094 A 
ATOM     10  C   UNL     1      19.868  -1.229  30.514  1.00  0.00     0.146 A 
ATOM     11  O   UNL     1      20.781  -0.847  29.627  1.00  0.00    -0.456 OA
ENDROOT
BRANCH   1  12
ATOM     12  C   UNL     1      21.998   0.725  28.243  1.00  0.00     0.021 A 
ATOM     13  C   UNL     1      23.367   0.540  28.515  1.00  0.00     0.016 A 
ATOM     14  C   UNL     1      24.329   0.850  27.550  1.00  0.00     0.051 A 
ATOM     15  C   UNL     1      23.944   1.358  26.303  1.00  0.00     0.157 A 
ATOM     16  C   UNL     1      21.621   1.249  26.993  1.00  0.00     0.062 A 
ATOM     17  C   UNL     1      22.583   1.559  26.025  1.00  0.00     0.158 A 
BRANCH  15  18
ATOM     18  O   UNL     1      24.907   1.664  25.343  1.00  0.00    -0.504 OA
ATOM     19  H   UNL     1      24.775   1.430  24.365  1.00  0.00     0.293 HD
ENDBRANCH  15  18
BRANCH  17  20
ATOM     20  O   UNL     1      22.166   2.065  24.794  1.00  0.00    -0.504 OA
ATOM     21  H   UNL     1      22.817   2.457  24.125  1.00  0.00     0.293 HD
ENDBRANCH  17  20
ENDBRANCH   1  12
BRANCH   6  22
ATOM     22  O   UNL     1      17.028   0.057  32.611  1.00  0.00    -0.507 OA
ATOM     23  H   UNL     1      16.242  -0.281  33.143  1.00  0.00     0.293 HD
ENDBRANCH   6  22
BRANCH   8  24
ATOM     24  O   UNL     1      18.812  -4.375  32.127  1.00  0.00    -0.508 OA
ATOM     25  H   UNL     1      18.813  -4.681  33.093  1.00  0.00     0.293 HD
ENDBRANCH   8  24
TORSDOF 5
ENDMDL
MODEL 6
REMARK VINA RESULT:    -6.057      2.933      8.133
REMARK INTER + INTRA:          -7.411
REMARK INTER:                  -7.135
REMARK INTRA:                  -0.276
REMARK UNBOUND:                -0.291
REMARK SMILES O=c1cc(-c2ccc(O)c(O)c2)oc2cc(O)cc(O)c12
REMARK SMILES IDX 4 1 3 2 2 3 1 4 21 5 19 6 18 7 16 8 15 9 14 10 13 11 5 12
REMARK SMILES IDX 6 13 7 14 8 15 12 16 10 17 9 18 11 20 20 22 17 24
REMARK H PARENT 9 19 11 21 20 23 17 25
REMARK Flexibility Score: inf
ROOT
ATOM      1  C   UNL     1      20.432   0.664  27.471  1.00  0.00     0.138 A 
ATOM      2  C   UNL     1      19.656  -0.496  27.590  1.00  0.00     0.100 A 
ATOM      3  C   UNL     1      18.913  -0.713  28.751  1.00  0.00     0.197 A 
ATOM      4  O   UNL     1      18.178  -1.733  28.804  1.00  0.00    -0.289 OA
ATOM      5  C   UNL     1      18.974   0.223  29.811  1.00  0.00     0.107 A 
ATOM      6  C   UNL     1      18.291   0.085  31.057  1.00  0.00     0.134 A 
ATOM      7  C   UNL     1      18.334   1.132  31.986  1.00  0.00     0.093 A 
ATOM      8  C   UNL     1      19.082   2.286  31.738  1.00  0.00     0.123 A 
ATOM      9  C   UNL     1      19.796   2.406  30.547  1.00  0.00     0.094 A 
ATOM     10  C   UNL     1      19.746   1.394  29.586  1.00  0.00     0.146 A 
ATOM     11  O   UNL     1      20.429   1.555  28.457  1.00  0.00    -0.456 OA
ENDROOT
BRANCH   1  12
ATOM     12  C   UNL     1      21.242   0.945  26.258  1.00  0.00     0.021 A 
ATOM     13  C   UNL     1      20.649   1.080  24.988  1.00  0.00     0.016 A 
ATOM     14  C   UNL     1      21.437   1.333  23.863  1.00  0.00     0.051 A 
ATOM     15  C   UNL     1      22.827   1.447  23.982  1.00  0.00     0.157 A 
ATOM     16  C   UNL     1      22.641   1.046  26.367  1.00  0.00     0.062 A 
ATOM     17  C   UNL     1      23.431   1.301  25.241  1.00  0.00     0.158 A 
BRANCH  15  18
ATOM     18  O   UNL     1      23.610   1.701  22.856  1.00  0.00    -0.504 OA
ATOM     19  H   UNL     1      24.487   2.204  22.922  1.00  0.00     0.293 HD
ENDBRANCH  15  18
BRANCH  17  20
ATOM     20  O   UNL     1      24.814   1.406  25.393  1.00  0.00    -0.504 OA
ATOM     21  H   UNL     1      25.460   1.023  24.714  1.00  0.00     0.293 HD
ENDBRANCH  17  20
ENDBRANCH   1  12
BRANCH   6  22
ATOM     22  O   UNL     1      17.586  -1.059  31.439  1.00  0.00    -0.507 OA
ATOM     23  H   UNL     1      17.954  -1.997  31.418  1.00  0.00     0.293 HD
ENDBRANCH   6  22
BRANCH   8  24
ATOM     24  O   UNL     1      19.130   3.316  32.674  1.00  0.00    -0.508 OA
ATOM     25  H   UNL     1      19.669   3.232  33.529  1.00  0.00     0.293 HD
ENDBRANCH   8  24
TORSDOF 5
ENDMDL
MODEL 7
REMARK VINA RESULT:    -5.974      2.873      5.010
REMARK INTER + INTRA:          -7.313
REMARK INTER:                  -7.002
REMARK INTRA:                  -0.310
REMARK UNBOUND:                -0.291
REMARK SMILES O=c1cc(-c2ccc(O)c(O)c2)oc2cc(O)cc(O)c12
REMARK SMILES IDX 4 1 3 2 2 3 1 4 21 5 19 6 18 7 16 8 15 9 14 10 13 11 5 12
REMARK SMILES IDX 6 13 7 14 8 15 12 16 10 17 9 18 11 20 20 22 17 24
REMARK H PARENT 9 19 11 21 20 23 17 25
REMARK Flexibility Score: inf
ROOT
ATOM      1  C   UNL     1      20.857   0.829  28.523  1.00  0.00     0.138 A 
ATOM      2  C   UNL     1      22.020   1.591  28.695  1.00  0.00     0.100 A 
ATOM      3  C   UNL     1      22.925   1.717  27.640  1.00  0.00     0.197 A 
ATOM      4  O   UNL     1      23.930   2.456  27.804  1.00  0.00    -0.289 OA
ATOM      5  C   UNL     1      22.677   1.050  26.417  1.00  0.00     0.107 A 
ATOM      6  C   UNL     1      23.548   1.073  25.287  1.00  0.00     0.134 A 
ATOM      7  C   UNL     1      23.142   0.470  24.090  1.00  0.00     0.093 A 
ATOM      8  C   UNL     1      21.923  -0.206  24.000  1.00  0.00     0.123 A 
ATOM      9  C   UNL     1      21.089  -0.280  25.114  1.00  0.00     0.094 A 
ATOM     10  C   UNL     1      21.451   0.340  26.312  1.00  0.00     0.146 A 
ATOM     11  O   UNL     1      20.620   0.258  27.346  1.00  0.00    -0.456 OA
ENDROOT
BRANCH   1  12
ATOM     12  C   UNL     1      19.861   0.662  29.612  1.00  0.00     0.021 A 
ATOM     13  C   UNL     1      19.766   1.581  30.674  1.00  0.00     0.016 A 
ATOM     14  C   UNL     1      18.827   1.392  31.691  1.00  0.00     0.051 A 
ATOM     15  C   UNL     1      17.974   0.282  31.671  1.00  0.00     0.157 A 
ATOM     16  C   UNL     1      19.010  -0.458  29.607  1.00  0.00     0.062 A 
ATOM     17  C   UNL     1      18.068  -0.648  30.624  1.00  0.00     0.158 A 
BRANCH  15  18
ATOM     18  O   UNL     1      17.037   0.098  32.687  1.00  0.00    -0.504 OA
ATOM     19  H   UNL     1      16.162   0.610  32.701  1.00  0.00     0.293 HD
ENDBRANCH  15  18
BRANCH  17  20
ATOM     20  O   UNL     1      17.236  -1.767  30.576  1.00  0.00    -0.504 OA
ATOM     21  H   UNL     1      16.445  -1.822  29.947  1.00  0.00     0.293 HD
ENDBRANCH  17  20
ENDBRANCH   1  12
BRANCH   6  22
ATOM     22  O   UNL     1      24.823   1.646  25.295  1.00  0.00    -0.507 OA
ATOM     23  H   UNL     1      25.188   2.229  26.032  1.00  0.00     0.293 HD
ENDBRANCH   6  22
BRANCH   8  24
ATOM     24  O   UNL     1      21.533  -0.814  22.809  1.00  0.00    -0.508 OA
ATOM     25  H   UNL     1      22.215  -1.158  22.142  1.00  0.00     0.293 HD
ENDBRANCH   8  24
TORSDOF 5
ENDMDL
MODEL 8
REMARK VINA RESULT:    -5.943      1.624      2.851
REMARK INTER + INTRA:          -7.276
REMARK INTER:                  -6.997
REMARK INTRA:                  -0.279
REMARK UNBOUND:                -0.291
REMARK SMILES O=c1cc(-c2ccc(O)c(O)c2)oc2cc(O)cc(O)c12
REMARK SMILES IDX 4 1 3 2 2 3 1 4 21 5 19 6 18 7 16 8 15 9 14 10 13 11 5 12
REMARK SMILES IDX 6 13 7 14 8 15 12 16 10 17 9 18 11 20 20 22 17 24
REMARK H PARENT 9 19 11 21 20 23 17 25
REMARK Flexibility Score: inf
ROOT
ATOM      1  C   UNL     1      18.581  -0.734  30.711  1.00  0.00     0.138 A 
ATOM      2  C   UNL     1      18.390  -1.102  29.372  1.00  0.00     0.100 A 
ATOM      3  C   UNL     1      19.240  -0.592  28.389  1.00  0.00     0.197 A 
ATOM      4  O   UNL     1      19.082  -0.987  27.205  1.00  0.00    -0.289 OA
ATOM      5  C   UNL     1      20.265   0.315  28.747  1.00  0.00     0.107 A 
ATOM      6  C   UNL     1      21.164   0.930  27.824  1.00  0.00     0.134 A 
ATOM      7  C   UNL     1      22.214   1.721  28.307  1.00  0.00     0.093 A 
ATOM      8  C   UNL     1      22.360   1.968  29.675  1.00  0.00     0.123 A 
ATOM      9  C   UNL     1      21.456   1.416  30.579  1.00  0.00     0.094 A 
ATOM     10  C   UNL     1      20.418   0.595  30.131  1.00  0.00     0.146 A 
ATOM     11  O   UNL     1      19.586   0.075  31.028  1.00  0.00    -0.456 OA
ENDROOT
BRANCH   1  12
ATOM     12  C   UNL     1      17.707  -1.247  31.797  1.00  0.00     0.021 A 
ATOM     13  C   UNL     1      17.309  -0.431  32.873  1.00  0.00     0.016 A 
ATOM     14  C   UNL     1      16.495  -0.943  33.886  1.00  0.00     0.051 A 
ATOM     15  C   UNL     1      16.071  -2.277  33.848  1.00  0.00     0.157 A 
ATOM     16  C   UNL     1      17.289  -2.590  31.774  1.00  0.00     0.062 A 
ATOM     17  C   UNL     1      16.472  -3.104  32.787  1.00  0.00     0.158 A 
BRANCH  15  18
ATOM     18  O   UNL     1      15.257  -2.784  34.861  1.00  0.00    -0.504 OA
ATOM     19  H   UNL     1      14.263  -2.590  34.889  1.00  0.00     0.293 HD
ENDBRANCH  15  18
BRANCH  17  20
ATOM     20  O   UNL     1      16.071  -4.438  32.722  1.00  0.00    -0.504 OA
ATOM     21  H   UNL     1      15.439  -4.844  33.400  1.00  0.00     0.293 HD
ENDBRANCH  17  20
ENDBRANCH   1  12
BRANCH   6  22
ATOM     22  O   UNL     1      21.056   0.818  26.435  1.00  0.00    -0.507 OA
ATOM     23  H   UNL     1      21.707   0.325  25.844  1.00  0.00     0.293 HD
ENDBRANCH   6  22
BRANCH   8  24
ATOM     24  O   UNL     1      23.399   2.769  30.145  1.00  0.00    -0.508 OA
ATOM     25  H   UNL     1      23.885   2.555  31.008  1.00  0.00     0.293 HD
ENDBRANCH   8  24
TORSDOF 5
ENDMDL
MODEL 9
REMARK VINA RESULT:    -5.942      2.137      7.385
REMARK INTER + INTRA:          -7.276
REMARK INTER:                  -6.969
REMARK INTRA:                  -0.307
REMARK UNBOUND:                -0.291
REMARK SMILES O=c1cc(-c2ccc(O)c(O)c2)oc2cc(O)cc(O)c12
REMARK SMILES IDX 4 1 3 2 2 3 1 4 21 5 19 6 18 7 16 8 15 9 14 10 13 11 5 12
REMARK SMILES IDX 6 13 7 14 8 15 12 16 10 17 9 18 11 20 20 22 17 24
REMARK H PARENT 9 19 11 21 20 23 17 25
REMARK Flexibility Score: inf
ROOT
ATOM      1  C   UNL     1      20.811   0.422  29.309  1.00  0.00     0.138 A 
ATOM      2  C   UNL     1      19.979   1.389  29.888  1.00  0.00     0.100 A 
ATOM      3  C   UNL     1      19.033   1.005  30.840  1.00  0.00     0.197 A 
ATOM      4  O   UNL     1      18.341   1.902  31.387  1.00  0.00    -0.289 OA
ATOM      5  C   UNL     1      18.901  -0.361  31.189  1.00  0.00     0.107 A 
ATOM      6  C   UNL     1      17.945  -0.874  32.115  1.00  0.00     0.134 A 
ATOM      7  C   UNL     1      17.985  -2.228  32.470  1.00  0.00     0.093 A 
ATOM      8  C   UNL     1      18.908  -3.099  31.885  1.00  0.00     0.123 A 
ATOM      9  C   UNL     1      19.811  -2.618  30.939  1.00  0.00     0.094 A 
ATOM     10  C   UNL     1      19.818  -1.266  30.590  1.00  0.00     0.146 A 
ATOM     11  O   UNL     1      20.706  -0.845  29.695  1.00  0.00    -0.456 OA
ENDROOT
BRANCH   1  12
ATOM     12  C   UNL     1      21.834   0.777  28.292  1.00  0.00     0.021 A 
ATOM     13  C   UNL     1      21.654   1.858  27.408  1.00  0.00     0.016 A 
ATOM     14  C   UNL     1      22.628   2.161  26.454  1.00  0.00     0.051 A 
ATOM     15  C   UNL     1      23.792   1.389  26.359  1.00  0.00     0.157 A 
ATOM     16  C   UNL     1      23.000  -0.003  28.180  1.00  0.00     0.062 A 
ATOM     17  C   UNL     1      23.977   0.301  27.226  1.00  0.00     0.158 A 
BRANCH  15  18
ATOM     18  O   UNL     1      24.763   1.696  25.406  1.00  0.00    -0.504 OA
ATOM     19  H   UNL     1      25.726   1.876  25.668  1.00  0.00     0.293 HD
ENDBRANCH  15  18
BRANCH  17  20
ATOM     20  O   UNL     1      25.123  -0.491  27.155  1.00  0.00    -0.504 OA
ATOM     21  H   UNL     1      25.115  -1.414  26.740  1.00  0.00     0.293 HD
ENDBRANCH  17  20
ENDBRANCH   1  12
BRANCH   6  22
ATOM     22  O   UNL     1      16.927  -0.109  32.692  1.00  0.00    -0.507 OA
ATOM     23  H   UNL     1      16.366  -0.396  33.479  1.00  0.00     0.293 HD
ENDBRANCH   6  22
BRANCH   8  24
ATOM     24  O   UNL     1      18.931  -4.448  32.233  1.00  0.00    -0.508 OA
ATOM     25  H   UNL     1      18.124  -4.904  32.641  1.00  0.00     0.293 HD
ENDBRANCH   8  24
TORSDOF 5
ENDMDL
