MODEL 1
REMARK VINA RESULT:    -4.428      0.000      0.000
REMARK INTER + INTRA:          -9.141
REMARK INTER:                  -8.051
REMARK INTRA:                  -1.089
REMARK UNBOUND:                -1.089
REMARK SMILES CCCCCCCCCCCCCCCC(=O)[O-]
REMARK SMILES IDX 9 1 10 2 11 3 12 4 13 5 14 6 15 7 16 8 17 9 18 10 8 11 7 12
REMARK SMILES IDX 6 13 5 14 4 15 3 16 2 17 1 18
REMARK H PARENT
REMARK Flexibility Score: inf
ROOT
ATOM      1  C   UNL     1       3.976  -1.699  -5.584  1.00  0.00     0.000 C 
ENDROOT
BRANCH   1   2
ATOM      2  C   UNL     1       5.231  -1.775  -4.707  1.00  0.00     0.000 C 
BRANCH   2   3
ATOM      3  C   UNL     1       5.932  -0.411  -4.631  1.00  0.00     0.000 C 
BRANCH   3   4
ATOM      4  C   UNL     1       6.416  -0.070  -3.211  1.00  0.00     0.000 C 
BRANCH   4   5
ATOM      5  C   UNL     1       5.893  -1.061  -2.157  1.00  0.00     0.000 C 
BRANCH   5   6
ATOM      6  C   UNL     1       5.429  -0.361  -0.868  1.00  0.00     0.006 C 
BRANCH   6   7
ATOM      7  C   UNL     1       6.311  -0.700   0.340  1.00  0.00     0.053 C 
BRANCH   7   8
ATOM      8  C   UNL     1       5.980   0.194   1.495  1.00  0.00     0.041 C 
ATOM      9  O   UNL     1       6.338   1.401   1.483  1.00  0.00    -0.550 OA
ATOM     10  O   UNL     1       5.319  -0.319   2.603  1.00  0.00    -0.550 OA
ENDBRANCH   7   8
ENDBRANCH   6   7
ENDBRANCH   5   6
ENDBRANCH   4   5
ENDBRANCH   3   4
ENDBRANCH   2   3
ENDBRANCH   1   2
BRANCH   1  11
ATOM     11  C   UNL     1       2.740  -1.346  -4.747  1.00  0.00     0.000 C 
BRANCH  11  12
ATOM     12  C   UNL     1       2.450  -2.440  -3.707  1.00  0.00    -0.000 C 
BRANCH  12  13
ATOM     13  C   UNL     1       1.512  -3.537  -4.241  1.00  0.00    -0.000 C 
BRANCH  13  14
ATOM     14  C   UNL     1       2.132  -4.948  -4.316  1.00  0.00    -0.000 C 
BRANCH  14  15
ATOM     15  C   UNL     1       1.440  -6.016  -3.451  1.00  0.00    -0.000 C 
BRANCH  15  16
ATOM     16  C   UNL     1       0.888  -5.450  -2.132  1.00  0.00    -0.000 C 
BRANCH  16  17
ATOM     17  C   UNL     1       1.055  -6.426  -0.957  1.00  0.00    -0.003 C 
ATOM     18  C   UNL     1       1.933  -7.629  -1.305  1.00  0.00     0.004 C 
ENDBRANCH  16  17
ENDBRANCH  15  16
ENDBRANCH  14  15
ENDBRANCH  13  14
ENDBRANCH  12  13
ENDBRANCH  11  12
ENDBRANCH   1  11
TORSDOF 14
ENDMDL
MODEL 2
REMARK VINA RESULT:    -4.425      2.259      3.552
REMARK INTER + INTRA:          -9.135
REMARK INTER:                  -7.155
REMARK INTRA:                  -1.980
REMARK UNBOUND:                -1.089
REMARK SMILES CCCCCCCCCCCCCCCC(=O)[O-]
REMARK SMILES IDX 9 1 10 2 11 3 12 4 13 5 14 6 15 7 16 8 17 9 18 10 8 11 7 12
REMARK SMILES IDX 6 13 5 14 4 15 3 16 2 17 1 18
REMARK H PARENT
REMARK Flexibility Score: inf
ROOT
ATOM      1  C   UNL     1       5.874  -3.216  -4.826  1.00  0.00     0.000 C 
ENDROOT
BRANCH   1   2
ATOM      2  C   UNL     1       6.924  -3.880  -3.928  1.00  0.00     0.000 C 
BRANCH   2   3
ATOM      3  C   UNL     1       7.814  -2.826  -3.252  1.00  0.00     0.000 C 
BRANCH   3   4
ATOM      4  C   UNL     1       7.509  -2.665  -1.753  1.00  0.00     0.000 C 
BRANCH   4   5
ATOM      5  C   UNL     1       7.174  -1.212  -1.372  1.00  0.00     0.000 C 
BRANCH   5   6
ATOM      6  C   UNL     1       6.410  -1.114  -0.041  1.00  0.00     0.006 C 
BRANCH   6   7
ATOM      7  C   UNL     1       5.649   0.211   0.107  1.00  0.00     0.053 C 
BRANCH   7   8
ATOM      8  C   UNL     1       5.530   0.585   1.552  1.00  0.00     0.041 C 
ATOM      9  O   UNL     1       5.612   1.792   1.901  1.00  0.00    -0.550 OA
ATOM     10  O   UNL     1       5.378  -0.403   2.516  1.00  0.00    -0.550 OA
ENDBRANCH   7   8
ENDBRANCH   6   7
ENDBRANCH   5   6
ENDBRANCH   4   5
ENDBRANCH   3   4
ENDBRANCH   2   3
ENDBRANCH   1   2
BRANCH   1  11
ATOM     11  C   UNL     1       6.223  -1.745  -5.088  1.00  0.00     0.000 C 
BRANCH  11  12
ATOM     12  C   UNL     1       5.089  -0.820  -4.621  1.00  0.00    -0.000 C 
BRANCH  12  13
ATOM     13  C   UNL     1       4.154  -1.490  -3.599  1.00  0.00    -0.000 C 
BRANCH  13  14
ATOM     14  C   UNL     1       2.675  -1.586  -4.029  1.00  0.00    -0.000 C 
BRANCH  14  15
ATOM     15  C   UNL     1       2.098  -3.011  -4.084  1.00  0.00    -0.000 C 
BRANCH  15  16
ATOM     16  C   UNL     1       2.192  -3.639  -5.485  1.00  0.00    -0.000 C 
BRANCH  16  17
ATOM     17  C   UNL     1       2.334  -2.584  -6.594  1.00  0.00    -0.003 C 
ATOM     18  C   UNL     1       3.450  -2.912  -7.587  1.00  0.00     0.004 C 
ENDBRANCH  16  17
ENDBRANCH  15  16
ENDBRANCH  14  15
ENDBRANCH  13  14
ENDBRANCH  12  13
ENDBRANCH  11  12
ENDBRANCH   1  11
TORSDOF 14
ENDMDL
MODEL 3
REMARK VINA RESULT:    -4.359      3.397      6.568
REMARK INTER + INTRA:          -9.016
REMARK INTER:                  -7.335
REMARK INTRA:                  -1.681
REMARK UNBOUND:                -1.089
REMARK SMILES CCCCCCCCCCCCCCCC(=O)[O-]
REMARK SMILES IDX 9 1 10 2 11 3 12 4 13 5 14 6 15 7 16 8 17 9 18 10 8 11 7 12
REMARK SMILES IDX 6 13 5 14 4 15 3 16 2 17 1 18
REMARK H PARENT
REMARK Flexibility Score: inf
ROOT
ATOM      1  C   UNL     1       2.431  -1.402  -4.860  1.00  0.00     0.000 C 
ENDROOT
BRANCH   1   2
ATOM      2  C   UNL     1       3.008  -2.245  -6.004  1.00  0.00     0.000 C 
BRANCH   2   3
ATOM      3  C   UNL     1       2.194  -3.532  -6.202  1.00  0.00     0.000 C 
BRANCH   3   4
ATOM      4  C   UNL     1       2.908  -4.776  -5.647  1.00  0.00     0.000 C 
BRANCH   4   5
ATOM      5  C   UNL     1       2.276  -5.284  -4.339  1.00  0.00     0.000 C 
BRANCH   5   6
ATOM      6  C   UNL     1       0.916  -4.628  -4.047  1.00  0.00     0.006 C 
BRANCH   6   7
ATOM      7  C   UNL     1       0.607  -4.551  -2.546  1.00  0.00     0.053 C 
BRANCH   7   8
ATOM      8  C   UNL     1       0.548  -5.925  -1.954  1.00  0.00     0.041 C 
ATOM      9  O   UNL     1       1.332  -6.247  -1.023  1.00  0.00    -0.550 OA
ATOM     10  O   UNL     1      -0.339  -6.864  -2.465  1.00  0.00    -0.550 OA
ENDBRANCH   7   8
ENDBRANCH   6   7
ENDBRANCH   5   6
ENDBRANCH   4   5
ENDBRANCH   3   4
ENDBRANCH   2   3
ENDBRANCH   1   2
BRANCH   1  11
ATOM     11  C   UNL     1       3.248  -1.584  -3.575  1.00  0.00     0.000 C 
BRANCH  11  12
ATOM     12  C   UNL     1       4.727  -1.850  -3.897  1.00  0.00    -0.000 C 
BRANCH  12  13
ATOM     13  C   UNL     1       5.685  -0.980  -3.063  1.00  0.00    -0.000 C 
BRANCH  13  14
ATOM     14  C   UNL     1       5.241  -0.726  -1.608  1.00  0.00    -0.000 C 
BRANCH  14  15
ATOM     15  C   UNL     1       6.310  -1.006  -0.537  1.00  0.00    -0.000 C 
BRANCH  15  16
ATOM     16  C   UNL     1       7.577  -1.657  -1.115  1.00  0.00    -0.000 C 
BRANCH  16  17
ATOM     17  C   UNL     1       7.646  -3.166  -0.830  1.00  0.00    -0.003 C 
ATOM     18  C   UNL     1       8.104  -3.978  -2.042  1.00  0.00     0.004 C 
ENDBRANCH  16  17
ENDBRANCH  15  16
ENDBRANCH  14  15
ENDBRANCH  13  14
ENDBRANCH  12  13
ENDBRANCH  11  12
ENDBRANCH   1  11
TORSDOF 14
ENDMDL
MODEL 4
REMARK VINA RESULT:    -4.355      1.415      2.542
REMARK INTER + INTRA:          -9.009
REMARK INTER:                  -7.674
REMARK INTRA:                  -1.336
REMARK UNBOUND:                -1.089
REMARK SMILES CCCCCCCCCCCCCCCC(=O)[O-]
REMARK SMILES IDX 9 1 10 2 11 3 12 4 13 5 14 6 15 7 16 8 17 9 18 10 8 11 7 12
REMARK SMILES IDX 6 13 5 14 4 15 3 16 2 17 1 18
REMARK H PARENT
REMARK Flexibility Score: inf
ROOT
ATOM      1  C   UNL     1       6.890  -1.540  -4.259  1.00  0.00     0.000 C 
ENDROOT
BRANCH   1   2
ATOM      2  C   UNL     1       6.748  -2.756  -3.336  1.00  0.00     0.000 C 
BRANCH   2   3
ATOM      3  C   UNL     1       7.770  -2.698  -2.191  1.00  0.00     0.000 C 
BRANCH   3   4
ATOM      4  C   UNL     1       7.143  -2.256  -0.858  1.00  0.00     0.000 C 
BRANCH   4   5
ATOM      5  C   UNL     1       7.078  -0.726  -0.714  1.00  0.00     0.000 C 
BRANCH   5   6
ATOM      6  C   UNL     1       5.658  -0.221  -0.410  1.00  0.00     0.006 C 
BRANCH   6   7
ATOM      7  C   UNL     1       5.646   0.952   0.580  1.00  0.00     0.053 C 
BRANCH   7   8
ATOM      8  C   UNL     1       6.032   0.484   1.948  1.00  0.00     0.041 C 
ATOM      9  O   UNL     1       5.308  -0.345   2.560  1.00  0.00    -0.550 OA
ATOM     10  O   UNL     1       7.164   0.999   2.566  1.00  0.00    -0.550 OA
ENDBRANCH   7   8
ENDBRANCH   6   7
ENDBRANCH   5   6
ENDBRANCH   4   5
ENDBRANCH   3   4
ENDBRANCH   2   3
ENDBRANCH   1   2
BRANCH   1  11
ATOM     11  C   UNL     1       5.593  -0.723  -4.297  1.00  0.00     0.000 C 
BRANCH  11  12
ATOM     12  C   UNL     1       4.442  -1.487  -3.625  1.00  0.00    -0.000 C 
BRANCH  12  13
ATOM     13  C   UNL     1       3.125  -1.399  -4.416  1.00  0.00    -0.000 C 
BRANCH  13  14
ATOM     14  C   UNL     1       2.081  -2.482  -4.072  1.00  0.00    -0.000 C 
BRANCH  14  15
ATOM     15  C   UNL     1       2.357  -3.874  -4.669  1.00  0.00    -0.000 C 
BRANCH  15  16
ATOM     16  C   UNL     1       1.561  -4.990  -3.972  1.00  0.00    -0.000 C 
BRANCH  16  17
ATOM     17  C   UNL     1       0.591  -4.447  -2.911  1.00  0.00    -0.003 C 
ATOM     18  C   UNL     1      -0.465  -5.472  -2.493  1.00  0.00     0.004 C 
ENDBRANCH  16  17
ENDBRANCH  15  16
ENDBRANCH  14  15
ENDBRANCH  13  14
ENDBRANCH  12  13
ENDBRANCH  11  12
ENDBRANCH   1  11
TORSDOF 14
ENDMDL
MODEL 5
REMARK VINA RESULT:    -4.241      1.217      1.911
REMARK INTER + INTRA:          -8.802
REMARK INTER:                  -7.695
REMARK INTRA:                  -1.107
REMARK UNBOUND:                -1.089
REMARK SMILES CCCCCCCCCCCCCCCC(=O)[O-]
REMARK SMILES IDX 9 1 10 2 11 3 12 4 13 5 14 6 15 7 16 8 17 9 18 10 8 11 7 12
REMARK SMILES IDX 6 13 5 14 4 15 3 16 2 17 1 18
REMARK H PARENT
REMARK Flexibility Score: inf
ROOT
ATOM      1  C   UNL     1       5.160  -2.959  -4.646  1.00  0.00     0.000 C 
ENDROOT
BRANCH   1   2
ATOM      2  C   UNL     1       6.297  -1.985  -4.314  1.00  0.00     0.000 C 
BRANCH   2   3
ATOM      3  C   UNL     1       6.429  -1.792  -2.796  1.00  0.00     0.000 C 
BRANCH   3   4
ATOM      4  C   UNL     1       5.897  -0.429  -2.323  1.00  0.00     0.000 C 
BRANCH   4   5
ATOM      5  C   UNL     1       5.554  -0.418  -0.823  1.00  0.00     0.000 C 
BRANCH   5   6
ATOM      6  C   UNL     1       6.711  -0.932   0.051  1.00  0.00     0.006 C 
BRANCH   6   7
ATOM      7  C   UNL     1       7.186   0.108   1.074  1.00  0.00     0.053 C 
BRANCH   7   8
ATOM      8  C   UNL     1       6.050   0.531   1.953  1.00  0.00     0.041 C 
ATOM      9  O   UNL     1       5.719   1.744   2.018  1.00  0.00    -0.550 OA
ATOM     10  O   UNL     1       5.390  -0.407   2.736  1.00  0.00    -0.550 OA
ENDBRANCH   7   8
ENDBRANCH   6   7
ENDBRANCH   5   6
ENDBRANCH   4   5
ENDBRANCH   3   4
ENDBRANCH   2   3
ENDBRANCH   1   2
BRANCH   1  11
ATOM     11  C   UNL     1       4.340  -2.460  -5.842  1.00  0.00     0.000 C 
BRANCH  11  12
ATOM     12  C   UNL     1       3.027  -1.812  -5.377  1.00  0.00    -0.000 C 
BRANCH  12  13
ATOM     13  C   UNL     1       2.661  -2.178  -3.928  1.00  0.00    -0.000 C 
BRANCH  13  14
ATOM     14  C   UNL     1       1.523  -3.209  -3.781  1.00  0.00    -0.000 C 
BRANCH  14  15
ATOM     15  C   UNL     1       1.887  -4.651  -4.175  1.00  0.00    -0.000 C 
BRANCH  15  16
ATOM     16  C   UNL     1       0.770  -5.658  -3.854  1.00  0.00    -0.000 C 
BRANCH  16  17
ATOM     17  C   UNL     1       0.008  -5.302  -2.567  1.00  0.00    -0.003 C 
ATOM     18  C   UNL     1      -1.508  -5.267  -2.765  1.00  0.00     0.004 C 
ENDBRANCH  16  17
ENDBRANCH  15  16
ENDBRANCH  14  15
ENDBRANCH  13  14
ENDBRANCH  12  13
ENDBRANCH  11  12
ENDBRANCH   1  11
TORSDOF 14
ENDMDL
MODEL 6
REMARK VINA RESULT:    -4.236      2.131      4.569
REMARK INTER + INTRA:          -8.792
REMARK INTER:                  -6.979
REMARK INTRA:                  -1.813
REMARK UNBOUND:                -1.089
REMARK SMILES CCCCCCCCCCCCCCCC(=O)[O-]
REMARK SMILES IDX 9 1 10 2 11 3 12 4 13 5 14 6 15 7 16 8 17 9 18 10 8 11 7 12
REMARK SMILES IDX 6 13 5 14 4 15 3 16 2 17 1 18
REMARK H PARENT
REMARK Flexibility Score: inf
ROOT
ATOM      1  C   UNL     1       6.800  -2.256  -1.935  1.00  0.00     0.000 C 
ENDROOT
BRANCH   1   2
ATOM      2  C   UNL     1       7.643  -2.662  -0.720  1.00  0.00     0.000 C 
BRANCH   2   3
ATOM      3  C   UNL     1       9.077  -2.124  -0.842  1.00  0.00     0.000 C 
BRANCH   3   4
ATOM      4  C   UNL     1       9.434  -1.129   0.274  1.00  0.00     0.000 C 
BRANCH   4   5
ATOM      5  C   UNL     1       9.129   0.328  -0.114  1.00  0.00     0.000 C 
BRANCH   5   6
ATOM      6  C   UNL     1       8.066   0.970   0.792  1.00  0.00     0.006 C 
BRANCH   6   7
ATOM      7  C   UNL     1       7.648   0.057   1.952  1.00  0.00     0.053 C 
BRANCH   7   8
ATOM      8  C   UNL     1       6.333   0.499   2.516  1.00  0.00     0.041 C 
ATOM      9  O   UNL     1       5.335  -0.268   2.469  1.00  0.00    -0.550 OA
ATOM     10  O   UNL     1       6.198   1.774   3.048  1.00  0.00    -0.550 OA
ENDBRANCH   7   8
ENDBRANCH   6   7
ENDBRANCH   5   6
ENDBRANCH   4   5
ENDBRANCH   3   4
ENDBRANCH   2   3
ENDBRANCH   1   2
BRANCH   1  11
ATOM     11  C   UNL     1       6.004  -0.976  -1.649  1.00  0.00     0.000 C 
BRANCH  11  12
ATOM     12  C   UNL     1       6.379   0.137  -2.639  1.00  0.00    -0.000 C 
BRANCH  12  13
ATOM     13  C   UNL     1       6.767  -0.403  -4.027  1.00  0.00    -0.000 C 
BRANCH  13  14
ATOM     14  C   UNL     1       5.644  -0.360  -5.083  1.00  0.00    -0.000 C 
BRANCH  14  15
ATOM     15  C   UNL     1       4.732  -1.599  -5.123  1.00  0.00    -0.000 C 
BRANCH  15  16
ATOM     16  C   UNL     1       3.240  -1.246  -4.996  1.00  0.00    -0.000 C 
BRANCH  16  17
ATOM     17  C   UNL     1       2.589  -1.879  -3.756  1.00  0.00    -0.003 C 
ATOM     18  C   UNL     1       1.895  -3.208  -4.062  1.00  0.00     0.004 C 
ENDBRANCH  16  17
ENDBRANCH  15  16
ENDBRANCH  14  15
ENDBRANCH  13  14
ENDBRANCH  12  13
ENDBRANCH  11  12
ENDBRANCH   1  11
TORSDOF 14
ENDMDL
MODEL 7
REMARK VINA RESULT:    -4.226      1.961      4.274
REMARK INTER + INTRA:          -8.775
REMARK INTER:                  -7.437
REMARK INTRA:                  -1.338
REMARK UNBOUND:                -1.089
REMARK SMILES CCCCCCCCCCCCCCCC(=O)[O-]
REMARK SMILES IDX 9 1 10 2 11 3 12 4 13 5 14 6 15 7 16 8 17 9 18 10 8 11 7 12
REMARK SMILES IDX 6 13 5 14 4 15 3 16 2 17 1 18
REMARK H PARENT
REMARK Flexibility Score: inf
ROOT
ATOM      1  C   UNL     1       7.444  -2.754  -0.878  1.00  0.00     0.000 C 
ENDROOT
BRANCH   1   2
ATOM      2  C   UNL     1       7.574  -1.275  -0.494  1.00  0.00     0.000 C 
BRANCH   2   3
ATOM      3  C   UNL     1       6.426  -0.845   0.431  1.00  0.00     0.000 C 
BRANCH   3   4
ATOM      4  C   UNL     1       5.468   0.155  -0.238  1.00  0.00     0.000 C 
BRANCH   4   5
ATOM      5  C   UNL     1       6.211   1.295  -0.955  1.00  0.00     0.000 C 
BRANCH   5   6
ATOM      6  C   UNL     1       5.887   2.676  -0.362  1.00  0.00     0.006 C 
BRANCH   6   7
ATOM      7  C   UNL     1       5.133   2.584   0.972  1.00  0.00     0.053 C 
BRANCH   7   8
ATOM      8  C   UNL     1       6.040   2.936   2.109  1.00  0.00     0.041 C 
ATOM      9  O   UNL     1       7.287   2.812   1.985  1.00  0.00    -0.550 OA
ATOM     10  O   UNL     1       5.506   3.355   3.321  1.00  0.00    -0.550 OA
ENDBRANCH   7   8
ENDBRANCH   6   7
ENDBRANCH   5   6
ENDBRANCH   4   5
ENDBRANCH   3   4
ENDBRANCH   2   3
ENDBRANCH   1   2
BRANCH   1  11
ATOM     11  C   UNL     1       7.525  -2.938  -2.398  1.00  0.00     0.000 C 
BRANCH  11  12
ATOM     12  C   UNL     1       6.927  -1.728  -3.131  1.00  0.00    -0.000 C 
BRANCH  12  13
ATOM     13  C   UNL     1       5.416  -1.871  -3.387  1.00  0.00    -0.000 C 
BRANCH  13  14
ATOM     14  C   UNL     1       4.850  -0.958  -4.494  1.00  0.00    -0.000 C 
BRANCH  14  15
ATOM     15  C   UNL     1       3.458  -1.350  -5.021  1.00  0.00    -0.000 C 
BRANCH  15  16
ATOM     16  C   UNL     1       2.569  -1.988  -3.940  1.00  0.00    -0.000 C 
BRANCH  16  17
ATOM     17  C   UNL     1       2.092  -3.397  -4.326  1.00  0.00    -0.003 C 
ATOM     18  C   UNL     1       1.137  -4.003  -3.297  1.00  0.00     0.004 C 
ENDBRANCH  16  17
ENDBRANCH  15  16
ENDBRANCH  14  15
ENDBRANCH  13  14
ENDBRANCH  12  13
ENDBRANCH  11  12
ENDBRANCH   1  11
TORSDOF 14
ENDMDL
MODEL 8
REMARK VINA RESULT:    -4.047      3.286      6.742
REMARK INTER + INTRA:          -8.448
REMARK INTER:                  -6.985
REMARK INTRA:                  -1.464
REMARK UNBOUND:                -1.089
REMARK SMILES CCCCCCCCCCCCCCCC(=O)[O-]
REMARK SMILES IDX 9 1 10 2 11 3 12 4 13 5 14 6 15 7 16 8 17 9 18 10 8 11 7 12
REMARK SMILES IDX 6 13 5 14 4 15 3 16 2 17 1 18
REMARK H PARENT
REMARK Flexibility Score: inf
ROOT
ATOM      1  C   UNL     1       4.813  -1.022  -4.858  1.00  0.00     0.000 C 
ENDROOT
BRANCH   1   2
ATOM      2  C   UNL     1       4.040  -1.533  -3.636  1.00  0.00     0.000 C 
BRANCH   2   3
ATOM      3  C   UNL     1       2.556  -1.740  -3.973  1.00  0.00     0.000 C 
BRANCH   3   4
ATOM      4  C   UNL     1       2.335  -2.830  -5.035  1.00  0.00     0.000 C 
BRANCH   4   5
ATOM      5  C   UNL     1       1.938  -4.183  -4.419  1.00  0.00     0.000 C 
BRANCH   5   6
ATOM      6  C   UNL     1       1.114  -4.025  -3.130  1.00  0.00     0.006 C 
BRANCH   6   7
ATOM      7  C   UNL     1      -0.014  -5.058  -3.018  1.00  0.00     0.053 C 
BRANCH   7   8
ATOM      8  C   UNL     1       0.320  -6.085  -1.982  1.00  0.00     0.041 C 
ATOM      9  O   UNL     1      -0.198  -7.231  -2.036  1.00  0.00    -0.550 OA
ATOM     10  O   UNL     1       1.166  -5.760  -0.929  1.00  0.00    -0.550 OA
ENDBRANCH   7   8
ENDBRANCH   6   7
ENDBRANCH   5   6
ENDBRANCH   4   5
ENDBRANCH   3   4
ENDBRANCH   2   3
ENDBRANCH   1   2
BRANCH   1  11
ATOM     11  C   UNL     1       6.115  -1.808  -5.054  1.00  0.00     0.000 C 
BRANCH  11  12
ATOM     12  C   UNL     1       6.157  -3.040  -4.137  1.00  0.00    -0.000 C 
BRANCH  12  13
ATOM     13  C   UNL     1       7.538  -3.261  -3.496  1.00  0.00    -0.000 C 
BRANCH  13  14
ATOM     14  C   UNL     1       7.620  -2.934  -1.990  1.00  0.00    -0.000 C 
BRANCH  14  15
ATOM     15  C   UNL     1       7.407  -1.454  -1.627  1.00  0.00    -0.000 C 
BRANCH  15  16
ATOM     16  C   UNL     1       6.474  -1.264  -0.419  1.00  0.00    -0.000 C 
BRANCH  16  17
ATOM     17  C   UNL     1       5.464  -0.125  -0.629  1.00  0.00    -0.003 C 
ATOM     18  C   UNL     1       5.506   0.919   0.488  1.00  0.00     0.004 C 
ENDBRANCH  16  17
ENDBRANCH  15  16
ENDBRANCH  14  15
ENDBRANCH  13  14
ENDBRANCH  12  13
ENDBRANCH  11  12
ENDBRANCH   1  11
TORSDOF 14
ENDMDL
MODEL 9
REMARK VINA RESULT:    -4.000      3.454      6.647
REMARK INTER + INTRA:          -8.362
REMARK INTER:                  -6.894
REMARK INTRA:                  -1.469
REMARK UNBOUND:                -1.089
REMARK SMILES CCCCCCCCCCCCCCCC(=O)[O-]
REMARK SMILES IDX 9 1 10 2 11 3 12 4 13 5 14 6 15 7 16 8 17 9 18 10 8 11 7 12
REMARK SMILES IDX 6 13 5 14 4 15 3 16 2 17 1 18
REMARK H PARENT
REMARK Flexibility Score: inf
ROOT
ATOM      1  C   UNL     1       6.160  -3.240  -4.779  1.00  0.00     0.000 C 
ENDROOT
BRANCH   1   2
ATOM      2  C   UNL     1       5.849  -1.997  -5.622  1.00  0.00     0.000 C 
BRANCH   2   3
ATOM      3  C   UNL     1       5.126  -0.932  -4.784  1.00  0.00     0.000 C 
BRANCH   3   4
ATOM      4  C   UNL     1       3.964  -1.513  -3.960  1.00  0.00     0.000 C 
BRANCH   4   5
ATOM      5  C   UNL     1       2.602  -1.332  -4.652  1.00  0.00     0.000 C 
BRANCH   5   6
ATOM      6  C   UNL     1       2.238  -2.520  -5.558  1.00  0.00     0.006 C 
BRANCH   6   7
ATOM      7  C   UNL     1       2.532  -3.876  -4.902  1.00  0.00     0.053 C 
BRANCH   7   8
ATOM      8  C   UNL     1       1.299  -4.417  -4.247  1.00  0.00     0.041 C 
ATOM      9  O   UNL     1       0.576  -5.252  -4.852  1.00  0.00    -0.550 OA
ATOM     10  O   UNL     1       0.923  -3.962  -2.989  1.00  0.00    -0.550 OA
ENDBRANCH   7   8
ENDBRANCH   6   7
ENDBRANCH   5   6
ENDBRANCH   4   5
ENDBRANCH   3   4
ENDBRANCH   2   3
ENDBRANCH   1   2
BRANCH   1  11
ATOM     11  C   UNL     1       7.671  -3.497  -4.714  1.00  0.00     0.000 C 
BRANCH  11  12
ATOM     12  C   UNL     1       8.187  -3.383  -3.272  1.00  0.00    -0.000 C 
BRANCH  12  13
ATOM     13  C   UNL     1       7.167  -2.730  -2.323  1.00  0.00    -0.000 C 
BRANCH  13  14
ATOM     14  C   UNL     1       7.528  -2.801  -0.825  1.00  0.00    -0.000 C 
BRANCH  14  15
ATOM     15  C   UNL     1       7.240  -1.522  -0.018  1.00  0.00    -0.000 C 
BRANCH  15  16
ATOM     16  C   UNL     1       6.131  -0.660  -0.643  1.00  0.00    -0.000 C 
BRANCH  16  17
ATOM     17  C   UNL     1       5.557   0.368   0.346  1.00  0.00    -0.003 C 
ATOM     18  C   UNL     1       5.740  -0.048   1.806  1.00  0.00     0.004 C 
ENDBRANCH  16  17
ENDBRANCH  15  16
ENDBRANCH  14  15
ENDBRANCH  13  14
ENDBRANCH  12  13
ENDBRANCH  11  12
ENDBRANCH   1  11
TORSDOF 14
ENDMDL
