MODEL 1
REMARK VINA RESULT:    -4.188      0.000      0.000
REMARK INTER + INTRA:          -7.207
REMARK INTER:                  -6.637
REMARK INTRA:                  -0.571
REMARK UNBOUND:                -0.571
REMARK SMILES CCCCCCCCCCCC(=O)[O-]
REMARK SMILES IDX 7 1 8 2 9 3 10 4 11 5 12 6 13 7 14 8 6 9 5 10 4 11 3 12 2 13
REMARK SMILES IDX 1 14
REMARK H PARENT
REMARK Flexibility Score: inf
ROOT
ATOM      1  C   UNL     1      25.407  19.008  25.990  1.00  0.00     0.000 C 
ENDROOT
BRANCH   1   2
ATOM      2  C   UNL     1      25.822  20.411  25.511  1.00  0.00     0.000 C 
BRANCH   2   3
ATOM      3  C   UNL     1      26.652  20.372  24.218  1.00  0.00     0.000 C 
BRANCH   3   4
ATOM      4  C   UNL     1      27.768  19.314  24.260  1.00  0.00     0.006 C 
BRANCH   4   5
ATOM      5  C   UNL     1      28.691  19.398  23.036  1.00  0.00     0.053 C 
BRANCH   5   6
ATOM      6  C   UNL     1      29.831  20.343  23.264  1.00  0.00     0.041 C 
ATOM      7  O   UNL     1      30.093  20.753  24.425  1.00  0.00    -0.550 OA
ATOM      8  O   UNL     1      30.621  20.749  22.196  1.00  0.00    -0.550 OA
ENDBRANCH   5   6
ENDBRANCH   4   5
ENDBRANCH   3   4
ENDBRANCH   2   3
ENDBRANCH   1   2
BRANCH   1   9
ATOM      9  C   UNL     1      24.014  18.997  26.643  1.00  0.00     0.000 C 
BRANCH   9  10
ATOM     10  C   UNL     1      23.076  20.063  26.049  1.00  0.00    -0.000 C 
BRANCH  10  11
ATOM     11  C   UNL     1      22.360  20.896  27.127  1.00  0.00    -0.000 C 
BRANCH  11  12
ATOM     12  C   UNL     1      22.497  22.425  26.974  1.00  0.00    -0.000 C 
BRANCH  12  13
ATOM     13  C   UNL     1      23.930  22.928  26.729  1.00  0.00    -0.003 C 
ATOM     14  C   UNL     1      24.126  24.389  27.131  1.00  0.00     0.004 C 
ENDBRANCH  12  13
ENDBRANCH  11  12
ENDBRANCH  10  11
ENDBRANCH   9  10
ENDBRANCH   1   9
TORSDOF 10
ENDMDL
MODEL 2
REMARK VINA RESULT:    -4.113      0.889      1.439
REMARK INTER + INTRA:          -7.088
REMARK INTER:                  -6.533
REMARK INTRA:                  -0.555
REMARK UNBOUND:                -0.571
REMARK SMILES CCCCCCCCCCCC(=O)[O-]
REMARK SMILES IDX 7 1 8 2 9 3 10 4 11 5 12 6 13 7 14 8 6 9 5 10 4 11 3 12 2 13
REMARK SMILES IDX 1 14
REMARK H PARENT
REMARK Flexibility Score: inf
ROOT
ATOM      1  C   UNL     1      24.306  19.204  26.424  1.00  0.00     0.000 C 
ENDROOT
BRANCH   1   2
ATOM      2  C   UNL     1      25.344  19.215  25.288  1.00  0.00     0.000 C 
BRANCH   2   3
ATOM      3  C   UNL     1      26.364  20.356  25.430  1.00  0.00     0.000 C 
BRANCH   3   4
ATOM      4  C   UNL     1      27.323  20.448  24.230  1.00  0.00     0.006 C 
BRANCH   4   5
ATOM      5  C   UNL     1      28.776  20.682  24.666  1.00  0.00     0.053 C 
BRANCH   5   6
ATOM      6  C   UNL     1      29.748  20.035  23.728  1.00  0.00     0.041 C 
ATOM      7  O   UNL     1      30.224  18.899  23.992  1.00  0.00    -0.550 OA
ATOM      8  O   UNL     1      30.107  20.674  22.549  1.00  0.00    -0.550 OA
ENDBRANCH   5   6
ENDBRANCH   4   5
ENDBRANCH   3   4
ENDBRANCH   2   3
ENDBRANCH   1   2
BRANCH   1   9
ATOM      9  C   UNL     1      23.009  19.938  26.045  1.00  0.00     0.000 C 
BRANCH   9  10
ATOM     10  C   UNL     1      22.523  20.888  27.154  1.00  0.00    -0.000 C 
BRANCH  10  11
ATOM     11  C   UNL     1      22.641  22.373  26.764  1.00  0.00    -0.000 C 
BRANCH  11  12
ATOM     12  C   UNL     1      24.075  22.940  26.765  1.00  0.00    -0.000 C 
BRANCH  12  13
ATOM     13  C   UNL     1      24.218  24.346  27.376  1.00  0.00    -0.003 C 
ATOM     14  C   UNL     1      24.897  25.338  26.434  1.00  0.00     0.004 C 
ENDBRANCH  12  13
ENDBRANCH  11  12
ENDBRANCH  10  11
ENDBRANCH   9  10
ENDBRANCH   1   9
TORSDOF 10
ENDMDL
MODEL 3
REMARK VINA RESULT:    -4.003     20.459     21.996
REMARK INTER + INTRA:          -6.913
REMARK INTER:                  -6.482
REMARK INTRA:                  -0.431
REMARK UNBOUND:                -0.571
REMARK SMILES CCCCCCCCCCCC(=O)[O-]
REMARK SMILES IDX 7 1 8 2 9 3 10 4 11 5 12 6 13 7 14 8 6 9 5 10 4 11 3 12 2 13
REMARK SMILES IDX 1 14
REMARK H PARENT
REMARK Flexibility Score: inf
ROOT
ATOM      1  C   UNL     1      17.115  33.471  11.387  1.00  0.00     0.000 C 
ENDROOT
BRANCH   1   2
ATOM      2  C   UNL     1      15.592  33.685  11.332  1.00  0.00     0.000 C 
BRANCH   2   3
ATOM      3  C   UNL     1      14.846  32.473  10.751  1.00  0.00     0.000 C 
BRANCH   3   4
ATOM      4  C   UNL     1      14.775  31.292  11.734  1.00  0.00     0.006 C 
BRANCH   4   5
ATOM      5  C   UNL     1      13.368  30.681  11.804  1.00  0.00     0.053 C 
BRANCH   5   6
ATOM      6  C   UNL     1      13.403  29.260  12.278  1.00  0.00     0.041 C 
ATOM      7  O   UNL     1      13.262  28.314  11.459  1.00  0.00    -0.550 OA
ATOM      8  O   UNL     1      13.618  28.980  13.622  1.00  0.00    -0.550 OA
ENDBRANCH   5   6
ENDBRANCH   4   5
ENDBRANCH   3   4
ENDBRANCH   2   3
ENDBRANCH   1   2
BRANCH   1   9
ATOM      9  C   UNL     1      17.840  34.081  10.175  1.00  0.00     0.000 C 
BRANCH   9  10
ATOM     10  C   UNL     1      19.323  34.377  10.463  1.00  0.00    -0.000 C 
BRANCH  10  11
ATOM     11  C   UNL     1      19.694  35.852  10.223  1.00  0.00    -0.000 C 
BRANCH  11  12
ATOM     12  C   UNL     1      18.524  36.851  10.337  1.00  0.00    -0.000 C 
BRANCH  12  13
ATOM     13  C   UNL     1      18.914  38.255  10.833  1.00  0.00    -0.003 C 
ATOM     14  C   UNL     1      19.898  38.221  12.002  1.00  0.00     0.004 C 
ENDBRANCH  12  13
ENDBRANCH  11  12
ENDBRANCH  10  11
ENDBRANCH   9  10
ENDBRANCH   1   9
TORSDOF 10
ENDMDL
MODEL 4
REMARK VINA RESULT:    -3.877      2.981      5.995
REMARK INTER + INTRA:          -6.714
REMARK INTER:                  -5.991
REMARK INTRA:                  -0.723
REMARK UNBOUND:                -0.571
REMARK SMILES CCCCCCCCCCCC(=O)[O-]
REMARK SMILES IDX 7 1 8 2 9 3 10 4 11 5 12 6 13 7 14 8 6 9 5 10 4 11 3 12 2 13
REMARK SMILES IDX 1 14
REMARK H PARENT
REMARK Flexibility Score: inf
ROOT
ATOM      1  C   UNL     1      24.704  19.093  26.325  1.00  0.00     0.000 C 
ENDROOT
BRANCH   1   2
ATOM      2  C   UNL     1      23.433  19.811  25.838  1.00  0.00     0.000 C 
BRANCH   2   3
ATOM      3  C   UNL     1      22.714  20.569  26.964  1.00  0.00     0.000 C 
BRANCH   3   4
ATOM      4  C   UNL     1      22.728  22.094  26.757  1.00  0.00     0.006 C 
BRANCH   4   5
ATOM      5  C   UNL     1      24.135  22.622  26.441  1.00  0.00     0.053 C 
BRANCH   5   6
ATOM      6  C   UNL     1      24.246  24.093  26.698  1.00  0.00     0.041 C 
ATOM      7  O   UNL     1      24.066  24.550  27.857  1.00  0.00    -0.550 OA
ATOM      8  O   UNL     1      24.578  24.957  25.661  1.00  0.00    -0.550 OA
ENDBRANCH   5   6
ENDBRANCH   4   5
ENDBRANCH   3   4
ENDBRANCH   2   3
ENDBRANCH   1   2
BRANCH   1   9
ATOM      9  C   UNL     1      25.740  18.903  25.204  1.00  0.00     0.000 C 
BRANCH   9  10
ATOM     10  C   UNL     1      26.339  20.237  24.722  1.00  0.00    -0.000 C 
BRANCH  10  11
ATOM     11  C   UNL     1      27.441  20.768  25.657  1.00  0.00    -0.000 C 
BRANCH  11  12
ATOM     12  C   UNL     1      28.798  21.050  24.978  1.00  0.00    -0.000 C 
BRANCH  12  13
ATOM     13  C   UNL     1      29.329  19.911  24.088  1.00  0.00    -0.003 C 
ATOM     14  C   UNL     1      30.012  20.416  22.818  1.00  0.00     0.004 C 
ENDBRANCH  12  13
ENDBRANCH  11  12
ENDBRANCH  10  11
ENDBRANCH   9  10
ENDBRANCH   1   9
TORSDOF 10
ENDMDL
MODEL 5
REMARK VINA RESULT:    -3.809      2.769      6.263
REMARK INTER + INTRA:          -6.606
REMARK INTER:                  -5.768
REMARK INTRA:                  -0.838
REMARK UNBOUND:                -0.571
REMARK SMILES CCCCCCCCCCCC(=O)[O-]
REMARK SMILES IDX 7 1 8 2 9 3 10 4 11 5 12 6 13 7 14 8 6 9 5 10 4 11 3 12 2 13
REMARK SMILES IDX 1 14
REMARK H PARENT
REMARK Flexibility Score: inf
ROOT
ATOM      1  C   UNL     1      25.042  19.286  24.497  1.00  0.00     0.000 C 
ENDROOT
BRANCH   1   2
ATOM      2  C   UNL     1      25.035  18.875  25.980  1.00  0.00     0.000 C 
BRANCH   2   3
ATOM      3  C   UNL     1      23.701  19.189  26.674  1.00  0.00     0.000 C 
BRANCH   3   4
ATOM      4  C   UNL     1      22.930  20.331  25.989  1.00  0.00     0.006 C 
BRANCH   4   5
ATOM      5  C   UNL     1      22.672  21.508  26.940  1.00  0.00     0.053 C 
BRANCH   5   6
ATOM      6  C   UNL     1      23.654  22.618  26.729  1.00  0.00     0.041 C 
ATOM      7  O   UNL     1      23.295  23.818  26.866  1.00  0.00    -0.550 OA
ATOM      8  O   UNL     1      24.974  22.328  26.407  1.00  0.00    -0.550 OA
ENDBRANCH   5   6
ENDBRANCH   4   5
ENDBRANCH   3   4
ENDBRANCH   2   3
ENDBRANCH   1   2
BRANCH   1   9
ATOM      9  C   UNL     1      26.346  19.992  24.087  1.00  0.00     0.000 C 
BRANCH   9  10
ATOM     10  C   UNL     1      27.402  19.976  25.206  1.00  0.00    -0.000 C 
BRANCH  10  11
ATOM     11  C   UNL     1      28.439  21.105  25.065  1.00  0.00    -0.000 C 
BRANCH  11  12
ATOM     12  C   UNL     1      29.811  20.670  24.509  1.00  0.00    -0.000 C 
BRANCH  12  13
ATOM     13  C   UNL     1      29.854  20.444  22.987  1.00  0.00    -0.003 C 
ATOM     14  C   UNL     1      29.922  18.966  22.606  1.00  0.00     0.004 C 
ENDBRANCH  12  13
ENDBRANCH  11  12
ENDBRANCH  10  11
ENDBRANCH   9  10
ENDBRANCH   1   9
TORSDOF 10
ENDMDL
MODEL 6
REMARK VINA RESULT:    -3.463      1.244      2.222
REMARK INTER + INTRA:          -6.058
REMARK INTER:                  -5.553
REMARK INTRA:                  -0.506
REMARK UNBOUND:                -0.571
REMARK SMILES CCCCCCCCCCCC(=O)[O-]
REMARK SMILES IDX 7 1 8 2 9 3 10 4 11 5 12 6 13 7 14 8 6 9 5 10 4 11 3 12 2 13
REMARK SMILES IDX 1 14
REMARK H PARENT
REMARK Flexibility Score: inf
ROOT
ATOM      1  C   UNL     1      26.427  21.113  25.535  1.00  0.00     0.000 C 
ENDROOT
BRANCH   1   2
ATOM      2  C   UNL     1      27.922  20.908  25.236  1.00  0.00     0.000 C 
BRANCH   2   3
ATOM      3  C   UNL     1      28.265  19.447  24.906  1.00  0.00     0.000 C 
BRANCH   3   4
ATOM      4  C   UNL     1      28.294  19.171  23.393  1.00  0.00     0.006 C 
BRANCH   4   5
ATOM      5  C   UNL     1      29.372  19.993  22.675  1.00  0.00     0.053 C 
BRANCH   5   6
ATOM      6  C   UNL     1      30.733  19.389  22.838  1.00  0.00     0.041 C 
ATOM      7  O   UNL     1      31.537  19.363  21.868  1.00  0.00    -0.550 OA
ATOM      8  O   UNL     1      31.124  18.878  24.069  1.00  0.00    -0.550 OA
ENDBRANCH   5   6
ENDBRANCH   4   5
ENDBRANCH   3   4
ENDBRANCH   2   3
ENDBRANCH   1   2
BRANCH   1   9
ATOM      9  C   UNL     1      25.738  19.822  26.007  1.00  0.00     0.000 C 
BRANCH   9  10
ATOM     10  C   UNL     1      24.789  19.237  24.946  1.00  0.00    -0.000 C 
BRANCH  10  11
ATOM     11  C   UNL     1      23.310  19.296  25.369  1.00  0.00    -0.000 C 
BRANCH  11  12
ATOM     12  C   UNL     1      23.054  19.860  26.782  1.00  0.00    -0.000 C 
BRANCH  12  13
ATOM     13  C   UNL     1      22.273  21.186  26.820  1.00  0.00    -0.003 C 
ATOM     14  C   UNL     1      23.183  22.414  26.809  1.00  0.00     0.004 C 
ENDBRANCH  12  13
ENDBRANCH  11  12
ENDBRANCH  10  11
ENDBRANCH   9  10
ENDBRANCH   1   9
TORSDOF 10
ENDMDL
MODEL 7
REMARK VINA RESULT:    -3.364      3.885      7.228
REMARK INTER + INTRA:          -5.902
REMARK INTER:                  -5.601
REMARK INTRA:                  -0.301
REMARK UNBOUND:                -0.571
REMARK SMILES CCCCCCCCCCCC(=O)[O-]
REMARK SMILES IDX 7 1 8 2 9 3 10 4 11 5 12 6 13 7 14 8 6 9 5 10 4 11 3 12 2 13
REMARK SMILES IDX 1 14
REMARK H PARENT
REMARK Flexibility Score: inf
ROOT
ATOM      1  C   UNL     1      26.934  20.711  24.749  1.00  0.00     0.000 C 
ENDROOT
BRANCH   1   2
ATOM      2  C   UNL     1      25.976  20.650  25.953  1.00  0.00     0.000 C 
BRANCH   2   3
ATOM      3  C   UNL     1      25.180  19.337  26.009  1.00  0.00     0.000 C 
BRANCH   3   4
ATOM      4  C   UNL     1      23.660  19.560  25.932  1.00  0.00     0.006 C 
BRANCH   4   5
ATOM      5  C   UNL     1      22.949  19.159  27.232  1.00  0.00     0.053 C 
BRANCH   5   6
ATOM      6  C   UNL     1      22.061  20.254  27.740  1.00  0.00     0.041 C 
ATOM      7  O   UNL     1      22.032  21.370  27.157  1.00  0.00    -0.550 OA
ATOM      8  O   UNL     1      21.244  20.032  28.842  1.00  0.00    -0.550 OA
ENDBRANCH   5   6
ENDBRANCH   4   5
ENDBRANCH   3   4
ENDBRANCH   2   3
ENDBRANCH   1   2
BRANCH   1   9
ATOM      9  C   UNL     1      26.426  19.892  23.551  1.00  0.00     0.000 C 
BRANCH   9  10
ATOM     10  C   UNL     1      27.551  19.104  22.855  1.00  0.00    -0.000 C 
BRANCH  10  11
ATOM     11  C   UNL     1      28.877  19.142  23.637  1.00  0.00    -0.000 C 
BRANCH  11  12
ATOM     12  C   UNL     1      29.794  20.341  23.317  1.00  0.00    -0.000 C 
BRANCH  12  13
ATOM     13  C   UNL     1      30.855  20.077  22.234  1.00  0.00    -0.003 C 
ATOM     14  C   UNL     1      31.744  18.875  22.551  1.00  0.00     0.004 C 
ENDBRANCH  12  13
ENDBRANCH  11  12
ENDBRANCH  10  11
ENDBRANCH   9  10
ENDBRANCH   1   9
TORSDOF 10
ENDMDL
MODEL 8
REMARK VINA RESULT:    -2.944      1.348      2.739
REMARK INTER + INTRA:          -5.235
REMARK INTER:                  -4.758
REMARK INTRA:                  -0.478
REMARK UNBOUND:                -0.571
REMARK SMILES CCCCCCCCCCCC(=O)[O-]
REMARK SMILES IDX 7 1 8 2 9 3 10 4 11 5 12 6 13 7 14 8 6 9 5 10 4 11 3 12 2 13
REMARK SMILES IDX 1 14
REMARK H PARENT
REMARK Flexibility Score: inf
ROOT
ATOM      1  C   UNL     1      25.343  21.327  26.456  1.00  0.00     0.000 C 
ENDROOT
BRANCH   1   2
ATOM      2  C   UNL     1      26.341  21.135  25.300  1.00  0.00     0.000 C 
BRANCH   2   3
ATOM      3  C   UNL     1      26.226  19.750  24.644  1.00  0.00     0.000 C 
BRANCH   3   4
ATOM      4  C   UNL     1      27.184  19.576  23.452  1.00  0.00     0.006 C 
BRANCH   4   5
ATOM      5  C   UNL     1      28.592  19.157  23.897  1.00  0.00     0.053 C 
BRANCH   5   6
ATOM      6  C   UNL     1      29.581  20.270  23.731  1.00  0.00     0.041 C 
ATOM      7  O   UNL     1      30.176  20.432  22.633  1.00  0.00    -0.550 OA
ATOM      8  O   UNL     1      29.825  21.146  24.781  1.00  0.00    -0.550 OA
ENDBRANCH   5   6
ENDBRANCH   4   5
ENDBRANCH   3   4
ENDBRANCH   2   3
ENDBRANCH   1   2
BRANCH   1   9
ATOM      9  C   UNL     1      24.528  22.624  26.322  1.00  0.00     0.000 C 
BRANCH   9  10
ATOM     10  C   UNL     1      23.067  22.452  26.773  1.00  0.00    -0.000 C 
BRANCH  10  11
ATOM     11  C   UNL     1      22.684  20.980  27.011  1.00  0.00    -0.000 C 
BRANCH  11  12
ATOM     12  C   UNL     1      21.445  20.759  27.903  1.00  0.00    -0.000 C 
BRANCH  12  13
ATOM     13  C   UNL     1      21.397  19.401  28.624  1.00  0.00    -0.003 C 
ATOM     14  C   UNL     1      21.876  19.478  30.073  1.00  0.00     0.004 C 
ENDBRANCH  12  13
ENDBRANCH  11  12
ENDBRANCH  10  11
ENDBRANCH   9  10
ENDBRANCH   1   9
TORSDOF 10
ENDMDL
