MODEL 1
REMARK VINA RESULT:    -2.373      0.000      0.000
REMARK INTER + INTRA:          -4.735
REMARK INTER:                  -4.037
REMARK INTRA:                  -0.697
REMARK UNBOUND:                -0.697
REMARK SMILES CCCCCCCCCCCCCC(=O)[O-]
REMARK SMILES IDX 8 1 9 2 10 3 11 4 12 5 13 6 14 7 15 8 16 9 7 10 6 11 5 12
REMARK SMILES IDX 4 13 3 14 2 15 1 16
REMARK H PARENT
REMARK Flexibility Score: inf
ROOT
ATOM      1  C   UNL     1      -2.448  37.901  19.102  1.00  0.00     0.000 C 
ENDROOT
BRANCH   1   2
ATOM      2  C   UNL     1      -3.763  37.434  18.465  1.00  0.00     0.000 C 
BRANCH   2   3
ATOM      3  C   UNL     1      -4.823  37.151  19.539  1.00  0.00     0.000 C 
BRANCH   3   4
ATOM      4  C   UNL     1      -4.779  35.701  20.049  1.00  0.00     0.000 C 
BRANCH   4   5
ATOM      5  C   UNL     1      -4.173  35.587  21.458  1.00  0.00     0.006 C 
BRANCH   5   6
ATOM      6  C   UNL     1      -5.112  36.137  22.539  1.00  0.00     0.053 C 
BRANCH   6   7
ATOM      7  C   UNL     1      -5.112  35.280  23.768  1.00  0.00     0.041 C 
ATOM      8  O   UNL     1      -5.102  34.025  23.664  1.00  0.00    -0.550 OA
ATOM      9  O   UNL     1      -5.091  35.866  25.027  1.00  0.00    -0.550 OA
ENDBRANCH   6   7
ENDBRANCH   5   6
ENDBRANCH   4   5
ENDBRANCH   3   4
ENDBRANCH   2   3
ENDBRANCH   1   2
BRANCH   1  10
ATOM     10  C   UNL     1      -1.281  37.770  18.116  1.00  0.00     0.000 C 
BRANCH  10  11
ATOM     11  C   UNL     1      -1.423  36.502  17.259  1.00  0.00    -0.000 C 
BRANCH  11  12
ATOM     12  C   UNL     1      -1.893  36.796  15.823  1.00  0.00    -0.000 C 
BRANCH  12  13
ATOM     13  C   UNL     1      -3.151  36.028  15.377  1.00  0.00    -0.000 C 
BRANCH  13  14
ATOM     14  C   UNL     1      -4.096  36.877  14.510  1.00  0.00    -0.000 C 
BRANCH  14  15
ATOM     15  C   UNL     1      -3.554  38.293  14.263  1.00  0.00    -0.003 C 
ATOM     16  C   UNL     1      -4.662  39.342  14.158  1.00  0.00     0.004 C 
ENDBRANCH  14  15
ENDBRANCH  13  14
ENDBRANCH  12  13
ENDBRANCH  11  12
ENDBRANCH  10  11
ENDBRANCH   1  10
TORSDOF 12
ENDMDL
MODEL 2
REMARK VINA RESULT:    -2.204      3.836      7.474
REMARK INTER + INTRA:          -4.447
REMARK INTER:                  -4.512
REMARK INTRA:                   0.065
REMARK UNBOUND:                -0.697
REMARK SMILES CCCCCCCCCCCCCC(=O)[O-]
REMARK SMILES IDX 8 1 9 2 10 3 11 4 12 5 13 6 14 7 15 8 16 9 7 10 6 11 5 12
REMARK SMILES IDX 4 13 3 14 2 15 1 16
REMARK H PARENT
REMARK Flexibility Score: inf
ROOT
ATOM      1  C   UNL     1      -2.421  37.246  19.870  1.00  0.00     0.000 C 
ENDROOT
BRANCH   1   2
ATOM      2  C   UNL     1      -1.549  38.055  18.900  1.00  0.00     0.000 C 
BRANCH   2   3
ATOM      3  C   UNL     1      -1.167  37.213  17.674  1.00  0.00     0.000 C 
BRANCH   3   4
ATOM      4  C   UNL     1      -2.269  37.191  16.602  1.00  0.00     0.000 C 
BRANCH   4   5
ATOM      5  C   UNL     1      -1.915  36.290  15.407  1.00  0.00     0.006 C 
BRANCH   5   6
ATOM      6  C   UNL     1      -2.418  36.866  14.077  1.00  0.00     0.053 C 
BRANCH   6   7
ATOM      7  C   UNL     1      -3.770  37.497  14.219  1.00  0.00     0.041 C 
ATOM      8  O   UNL     1      -3.874  38.692  14.604  1.00  0.00    -0.550 OA
ATOM      9  O   UNL     1      -4.912  36.777  13.895  1.00  0.00    -0.550 OA
ENDBRANCH   6   7
ENDBRANCH   5   6
ENDBRANCH   4   5
ENDBRANCH   3   4
ENDBRANCH   2   3
ENDBRANCH   1   2
BRANCH   1  10
ATOM     10  C   UNL     1      -3.910  37.523  19.633  1.00  0.00     0.000 C 
BRANCH  10  11
ATOM     11  C   UNL     1      -4.649  36.242  19.215  1.00  0.00    -0.000 C 
BRANCH  11  12
ATOM     12  C   UNL     1      -5.117  35.399  20.415  1.00  0.00    -0.000 C 
BRANCH  12  13
ATOM     13  C   UNL     1      -4.159  35.388  21.620  1.00  0.00    -0.000 C 
BRANCH  13  14
ATOM     14  C   UNL     1      -4.880  35.149  22.957  1.00  0.00    -0.000 C 
BRANCH  14  15
ATOM     15  C   UNL     1      -5.125  36.452  23.734  1.00  0.00    -0.003 C 
ATOM     16  C   UNL     1      -5.032  36.266  25.249  1.00  0.00     0.004 C 
ENDBRANCH  14  15
ENDBRANCH  13  14
ENDBRANCH  12  13
ENDBRANCH  11  12
ENDBRANCH  10  11
ENDBRANCH   1  10
TORSDOF 12
ENDMDL
MODEL 3
REMARK VINA RESULT:    -1.056      1.712      2.983
REMARK INTER + INTRA:          -2.495
REMARK INTER:                  -1.806
REMARK INTRA:                  -0.689
REMARK UNBOUND:                -0.697
REMARK SMILES CCCCCCCCCCCCCC(=O)[O-]
REMARK SMILES IDX 8 1 9 2 10 3 11 4 12 5 13 6 14 7 15 8 16 9 7 10 6 11 5 12
REMARK SMILES IDX 4 13 3 14 2 15 1 16
REMARK H PARENT
REMARK Flexibility Score: inf
ROOT
ATOM      1  C   UNL     1      -5.119  35.116  19.723  1.00  0.00     0.000 C 
ENDROOT
BRANCH   1   2
ATOM      2  C   UNL     1      -4.948  35.627  21.159  1.00  0.00     0.000 C 
BRANCH   2   3
ATOM      3  C   UNL     1      -3.840  34.852  21.888  1.00  0.00     0.000 C 
BRANCH   3   4
ATOM      4  C   UNL     1      -4.023  34.851  23.415  1.00  0.00     0.000 C 
BRANCH   4   5
ATOM      5  C   UNL     1      -5.125  35.818  23.880  1.00  0.00     0.006 C 
BRANCH   5   6
ATOM      6  C   UNL     1      -5.031  36.125  25.380  1.00  0.00     0.053 C 
BRANCH   6   7
ATOM      7  C   UNL     1      -4.654  37.552  25.636  1.00  0.00     0.041 C 
ATOM      8  O   UNL     1      -4.054  37.868  26.698  1.00  0.00    -0.550 OA
ATOM      9  O   UNL     1      -4.936  38.528  24.688  1.00  0.00    -0.550 OA
ENDBRANCH   6   7
ENDBRANCH   5   6
ENDBRANCH   4   5
ENDBRANCH   3   4
ENDBRANCH   2   3
ENDBRANCH   1   2
BRANCH   1  10
ATOM     10  C   UNL     1      -4.943  36.252  18.709  1.00  0.00     0.000 C 
BRANCH  10  11
ATOM     11  C   UNL     1      -3.854  35.910  17.681  1.00  0.00    -0.000 C 
BRANCH  11  12
ATOM     12  C   UNL     1      -2.737  36.967  17.612  1.00  0.00    -0.000 C 
BRANCH  12  13
ATOM     13  C   UNL     1      -2.345  37.413  16.191  1.00  0.00    -0.000 C 
BRANCH  13  14
ATOM     14  C   UNL     1      -2.789  36.417  15.106  1.00  0.00    -0.000 C 
BRANCH  14  15
ATOM     15  C   UNL     1      -3.754  37.046  14.090  1.00  0.00    -0.003 C 
ATOM     16  C   UNL     1      -4.251  38.427  14.519  1.00  0.00     0.004 C 
ENDBRANCH  14  15
ENDBRANCH  13  14
ENDBRANCH  12  13
ENDBRANCH  11  12
ENDBRANCH  10  11
ENDBRANCH   1  10
TORSDOF 12
ENDMDL
MODEL 4
REMARK VINA RESULT:    -0.995      1.367      2.629
REMARK INTER + INTRA:          -2.391
REMARK INTER:                  -1.708
REMARK INTRA:                  -0.683
REMARK UNBOUND:                -0.697
REMARK SMILES CCCCCCCCCCCCCC(=O)[O-]
REMARK SMILES IDX 8 1 9 2 10 3 11 4 12 5 13 6 14 7 15 8 16 9 7 10 6 11 5 12
REMARK SMILES IDX 4 13 3 14 2 15 1 16
REMARK H PARENT
REMARK Flexibility Score: inf
ROOT
ATOM      1  C   UNL     1      -1.893  36.125  16.661  1.00  0.00     0.000 C 
ENDROOT
BRANCH   1   2
ATOM      2  C   UNL     1      -3.153  35.252  16.727  1.00  0.00     0.000 C 
BRANCH   2   3
ATOM      3  C   UNL     1      -3.965  35.557  17.995  1.00  0.00     0.000 C 
BRANCH   3   4
ATOM      4  C   UNL     1      -3.794  37.008  18.474  1.00  0.00     0.000 C 
BRANCH   4   5
ATOM      5  C   UNL     1      -4.388  37.242  19.874  1.00  0.00     0.006 C 
BRANCH   5   6
ATOM      6  C   UNL     1      -5.125  36.005  20.405  1.00  0.00     0.053 C 
BRANCH   6   7
ATOM      7  C   UNL     1      -4.759  35.705  21.826  1.00  0.00     0.041 C 
ATOM      8  O   UNL     1      -4.278  34.582  22.132  1.00  0.00    -0.550 OA
ATOM      9  O   UNL     1      -4.920  36.675  22.807  1.00  0.00    -0.550 OA
ENDBRANCH   6   7
ENDBRANCH   5   6
ENDBRANCH   4   5
ENDBRANCH   3   4
ENDBRANCH   2   3
ENDBRANCH   1   2
BRANCH   1  10
ATOM     10  C   UNL     1      -1.717  36.732  15.264  1.00  0.00     0.000 C 
BRANCH  10  11
ATOM     11  C   UNL     1      -2.796  36.217  14.299  1.00  0.00    -0.000 C 
BRANCH  11  12
ATOM     12  C   UNL     1      -4.047  37.113  14.263  1.00  0.00    -0.000 C 
BRANCH  12  13
ATOM     13  C   UNL     1      -3.808  38.588  14.634  1.00  0.00    -0.000 C 
BRANCH  13  14
ATOM     14  C   UNL     1      -4.881  39.531  14.065  1.00  0.00    -0.000 C 
BRANCH  14  15
ATOM     15  C   UNL     1      -4.995  40.840  14.862  1.00  0.00    -0.003 C 
ATOM     16  C   UNL     1      -5.100  42.074  13.964  1.00  0.00     0.004 C 
ENDBRANCH  14  15
ENDBRANCH  13  14
ENDBRANCH  12  13
ENDBRANCH  11  12
ENDBRANCH  10  11
ENDBRANCH   1  10
TORSDOF 12
ENDMDL
MODEL 5
REMARK VINA RESULT:    -0.825      1.365      2.143
REMARK INTER + INTRA:          -2.102
REMARK INTER:                  -1.549
REMARK INTRA:                  -0.553
REMARK UNBOUND:                -0.697
REMARK SMILES CCCCCCCCCCCCCC(=O)[O-]
REMARK SMILES IDX 8 1 9 2 10 3 11 4 12 5 13 6 14 7 15 8 16 9 7 10 6 11 5 12
REMARK SMILES IDX 4 13 3 14 2 15 1 16
REMARK H PARENT
REMARK Flexibility Score: inf
ROOT
ATOM      1  C   UNL     1      -1.435  38.007  18.007  1.00  0.00     0.000 C 
ENDROOT
BRANCH   1   2
ATOM      2  C   UNL     1      -1.232  37.638  19.482  1.00  0.00     0.000 C 
BRANCH   2   3
ATOM      3  C   UNL     1      -2.581  37.488  20.200  1.00  0.00     0.000 C 
BRANCH   3   4
ATOM      4  C   UNL     1      -3.772  37.897  19.319  1.00  0.00     0.000 C 
BRANCH   4   5
ATOM      5  C   UNL     1      -5.124  37.711  20.028  1.00  0.00     0.006 C 
BRANCH   5   6
ATOM      6  C   UNL     1      -4.972  37.039  21.399  1.00  0.00     0.053 C 
BRANCH   6   7
ATOM      7  C   UNL     1      -4.876  35.548  21.282  1.00  0.00     0.041 C 
ATOM      8  O   UNL     1      -4.698  34.843  22.310  1.00  0.00    -0.550 OA
ATOM      9  O   UNL     1      -5.013  34.936  20.043  1.00  0.00    -0.550 OA
ENDBRANCH   6   7
ENDBRANCH   5   6
ENDBRANCH   4   5
ENDBRANCH   3   4
ENDBRANCH   2   3
ENDBRANCH   1   2
BRANCH   1  10
ATOM     10  C   UNL     1      -0.551  37.146  17.096  1.00  0.00     0.000 C 
BRANCH  10  11
ATOM     11  C   UNL     1      -1.403  36.222  16.214  1.00  0.00    -0.000 C 
BRANCH  11  12
ATOM     12  C   UNL     1      -2.913  36.494  16.340  1.00  0.00    -0.000 C 
BRANCH  12  13
ATOM     13  C   UNL     1      -3.742  36.175  15.082  1.00  0.00    -0.000 C 
BRANCH  13  14
ATOM     14  C   UNL     1      -3.614  37.251  13.991  1.00  0.00    -0.000 C 
BRANCH  14  15
ATOM     15  C   UNL     1      -4.837  38.179  13.934  1.00  0.00    -0.003 C 
ATOM     16  C   UNL     1      -4.488  39.639  14.225  1.00  0.00     0.004 C 
ENDBRANCH  14  15
ENDBRANCH  13  14
ENDBRANCH  12  13
ENDBRANCH  11  12
ENDBRANCH  10  11
ENDBRANCH   1  10
TORSDOF 12
ENDMDL
MODEL 6
REMARK VINA RESULT:    -0.505      3.058      4.257
REMARK INTER + INTRA:          -1.556
REMARK INTER:                  -2.077
REMARK INTRA:                   0.521
REMARK UNBOUND:                -0.697
REMARK SMILES CCCCCCCCCCCCCC(=O)[O-]
REMARK SMILES IDX 8 1 9 2 10 3 11 4 12 5 13 6 14 7 15 8 16 9 7 10 6 11 5 12
REMARK SMILES IDX 4 13 3 14 2 15 1 16
REMARK H PARENT
REMARK Flexibility Score: inf
ROOT
ATOM      1  C   UNL     1      -4.198  35.148  19.955  1.00  0.00     0.000 C 
ENDROOT
BRANCH   1   2
ATOM      2  C   UNL     1      -5.125  35.584  21.097  1.00  0.00     0.000 C 
BRANCH   2   3
ATOM      3  C   UNL     1      -5.079  37.106  21.291  1.00  0.00     0.000 C 
BRANCH   3   4
ATOM      4  C   UNL     1      -4.368  37.831  20.136  1.00  0.00     0.000 C 
BRANCH   4   5
ATOM      5  C   UNL     1      -2.928  37.334  19.922  1.00  0.00     0.006 C 
BRANCH   5   6
ATOM      6  C   UNL     1      -2.036  38.404  19.280  1.00  0.00     0.053 C 
BRANCH   6   7
ATOM      7  C   UNL     1      -0.625  37.929  19.114  1.00  0.00     0.041 C 
ATOM      8  O   UNL     1      -0.009  38.138  18.036  1.00  0.00    -0.550 OA
ATOM      9  O   UNL     1       0.020  37.282  20.161  1.00  0.00    -0.550 OA
ENDBRANCH   6   7
ENDBRANCH   5   6
ENDBRANCH   4   5
ENDBRANCH   3   4
ENDBRANCH   2   3
ENDBRANCH   1   2
BRANCH   1  10
ATOM     10  C   UNL     1      -4.956  34.310  18.919  1.00  0.00     0.000 C 
BRANCH  10  11
ATOM     11  C   UNL     1      -4.424  34.572  17.502  1.00  0.00    -0.000 C 
BRANCH  11  12
ATOM     12  C   UNL     1      -3.766  35.955  17.352  1.00  0.00    -0.000 C 
BRANCH  12  13
ATOM     13  C   UNL     1      -2.656  36.040  16.288  1.00  0.00    -0.000 C 
BRANCH  13  14
ATOM     14  C   UNL     1      -2.759  37.301  15.413  1.00  0.00    -0.000 C 
BRANCH  14  15
ATOM     15  C   UNL     1      -3.906  37.217  14.395  1.00  0.00    -0.003 C 
ATOM     16  C   UNL     1      -4.436  38.591  13.984  1.00  0.00     0.004 C 
ENDBRANCH  14  15
ENDBRANCH  13  14
ENDBRANCH  12  13
ENDBRANCH  11  12
ENDBRANCH  10  11
ENDBRANCH   1  10
TORSDOF 12
ENDMDL
MODEL 7
REMARK VINA RESULT:    -0.168      2.907      6.630
REMARK INTER + INTRA:          -0.983
REMARK INTER:                  -0.375
REMARK INTRA:                  -0.608
REMARK UNBOUND:                -0.697
REMARK SMILES CCCCCCCCCCCCCC(=O)[O-]
REMARK SMILES IDX 8 1 9 2 10 3 11 4 12 5 13 6 14 7 15 8 16 9 7 10 6 11 5 12
REMARK SMILES IDX 4 13 3 14 2 15 1 16
REMARK H PARENT
REMARK Flexibility Score: inf
ROOT
ATOM      1  C   UNL     1      -4.560  34.931  17.656  1.00  0.00     0.000 C 
ENDROOT
BRANCH   1   2
ATOM      2  C   UNL     1      -3.993  36.117  16.865  1.00  0.00     0.000 C 
BRANCH   2   3
ATOM      3  C   UNL     1      -3.040  35.635  15.761  1.00  0.00     0.000 C 
BRANCH   3   4
ATOM      4  C   UNL     1      -1.727  36.433  15.721  1.00  0.00     0.000 C 
BRANCH   4   5
ATOM      5  C   UNL     1      -1.694  37.572  16.755  1.00  0.00     0.006 C 
BRANCH   5   6
ATOM      6  C   UNL     1      -0.555  37.401  17.769  1.00  0.00     0.053 C 
BRANCH   6   7
ATOM      7  C   UNL     1      -0.962  37.835  19.144  1.00  0.00     0.041 C 
ATOM      8  O   UNL     1      -1.924  38.634  19.297  1.00  0.00    -0.550 OA
ATOM      9  O   UNL     1      -0.300  37.333  20.257  1.00  0.00    -0.550 OA
ENDBRANCH   6   7
ENDBRANCH   5   6
ENDBRANCH   4   5
ENDBRANCH   3   4
ENDBRANCH   2   3
ENDBRANCH   1   2
BRANCH   1  10
ATOM     10  C   UNL     1      -4.821  35.317  19.117  1.00  0.00     0.000 C 
BRANCH  10  11
ATOM     11  C   UNL     1      -4.154  36.657  19.460  1.00  0.00    -0.000 C 
BRANCH  11  12
ATOM     12  C   UNL     1      -4.469  37.138  20.888  1.00  0.00    -0.000 C 
BRANCH  12  13
ATOM     13  C   UNL     1      -5.124  36.087  21.803  1.00  0.00    -0.000 C 
BRANCH  13  14
ATOM     14  C   UNL     1      -5.048  36.458  23.293  1.00  0.00    -0.000 C 
BRANCH  14  15
ATOM     15  C   UNL     1      -5.117  35.226  24.210  1.00  0.00    -0.003 C 
ATOM     16  C   UNL     1      -4.864  33.916  23.464  1.00  0.00     0.004 C 
ENDBRANCH  14  15
ENDBRANCH  13  14
ENDBRANCH  12  13
ENDBRANCH  11  12
ENDBRANCH  10  11
ENDBRANCH   1  10
TORSDOF 12
ENDMDL
