MODEL 1
REMARK VINA RESULT:    -3.412      0.000      0.000
REMARK INTER + INTRA:          -8.258
REMARK INTER:                  -6.205
REMARK INTRA:                  -2.053
REMARK UNBOUND:                -2.053
REMARK SMILES CCCCCCCCCCCCCCCC(=O)[O-]
REMARK SMILES IDX 9 1 10 2 11 3 12 4 13 5 14 6 15 7 16 8 17 9 18 10 8 11 7 12
REMARK SMILES IDX 6 13 5 14 4 15 3 16 2 17 1 18
REMARK H PARENT
REMARK Flexibility Score: inf
ROOT
ATOM      1  C   UNL     1     -30.460 -54.436  52.246  1.00  0.00     0.000 C 
ENDROOT
BRANCH   1   2
ATOM      2  C   UNL     1     -29.890 -55.805  51.832  1.00  0.00     0.000 C 
BRANCH   2   3
ATOM      3  C   UNL     1     -29.389 -56.632  53.028  1.00  0.00     0.000 C 
BRANCH   3   4
ATOM      4  C   UNL     1     -30.123 -56.284  54.333  1.00  0.00     0.000 C 
BRANCH   4   5
ATOM      5  C   UNL     1     -29.350 -56.733  55.586  1.00  0.00     0.000 C 
BRANCH   5   6
ATOM      6  C   UNL     1     -28.973 -55.555  56.503  1.00  0.00     0.006 C 
BRANCH   6   7
ATOM      7  C   UNL     1     -28.516 -54.294  55.755  1.00  0.00     0.053 C 
BRANCH   7   8
ATOM      8  C   UNL     1     -27.055 -54.026  55.948  1.00  0.00     0.041 C 
ATOM      9  O   UNL     1     -26.636 -52.845  56.063  1.00  0.00    -0.550 OA
ATOM     10  O   UNL     1     -26.160 -55.085  56.034  1.00  0.00    -0.550 OA
ENDBRANCH   7   8
ENDBRANCH   6   7
ENDBRANCH   5   6
ENDBRANCH   4   5
ENDBRANCH   3   4
ENDBRANCH   2   3
ENDBRANCH   1   2
BRANCH   1  11
ATOM     11  C   UNL     1     -30.658 -53.434  51.093  1.00  0.00     0.000 C 
BRANCH  11  12
ATOM     12  C   UNL     1     -31.020 -52.023  51.578  1.00  0.00    -0.000 C 
BRANCH  12  13
ATOM     13  C   UNL     1     -30.069 -50.976  50.981  1.00  0.00    -0.000 C 
BRANCH  13  14
ATOM     14  C   UNL     1     -28.615 -51.471  50.883  1.00  0.00    -0.000 C 
BRANCH  14  15
ATOM     15  C   UNL     1     -27.694 -51.015  52.030  1.00  0.00    -0.000 C 
BRANCH  15  16
ATOM     16  C   UNL     1     -26.870 -52.165  52.629  1.00  0.00    -0.000 C 
BRANCH  16  17
ATOM     17  C   UNL     1     -27.017 -53.440  51.790  1.00  0.00    -0.003 C 
ATOM     18  C   UNL     1     -26.289 -54.614  52.439  1.00  0.00     0.004 C 
ENDBRANCH  16  17
ENDBRANCH  15  16
ENDBRANCH  14  15
ENDBRANCH  13  14
ENDBRANCH  12  13
ENDBRANCH  11  12
ENDBRANCH   1  11
TORSDOF 14
ENDMDL
MODEL 2
REMARK VINA RESULT:    -3.385      1.262      3.234
REMARK INTER + INTRA:          -8.208
REMARK INTER:                  -5.808
REMARK INTRA:                  -2.401
REMARK UNBOUND:                -2.053
REMARK SMILES CCCCCCCCCCCCCCCC(=O)[O-]
REMARK SMILES IDX 9 1 10 2 11 3 12 4 13 5 14 6 15 7 16 8 17 9 18 10 8 11 7 12
REMARK SMILES IDX 6 13 5 14 4 15 3 16 2 17 1 18
REMARK H PARENT
REMARK Flexibility Score: inf
ROOT
ATOM      1  C   UNL     1     -29.484 -51.474  51.239  1.00  0.00     0.000 C 
ENDROOT
BRANCH   1   2
ATOM      2  C   UNL     1     -30.534 -52.600  51.217  1.00  0.00     0.000 C 
BRANCH   2   3
ATOM      3  C   UNL     1     -29.927 -53.990  51.471  1.00  0.00     0.000 C 
BRANCH   3   4
ATOM      4  C   UNL     1     -30.305 -54.554  52.850  1.00  0.00     0.000 C 
BRANCH   4   5
ATOM      5  C   UNL     1     -29.309 -54.147  53.951  1.00  0.00     0.000 C 
BRANCH   5   6
ATOM      6  C   UNL     1     -29.369 -55.074  55.178  1.00  0.00     0.006 C 
BRANCH   6   7
ATOM      7  C   UNL     1     -27.995 -55.489  55.724  1.00  0.00     0.053 C 
BRANCH   7   8
ATOM      8  C   UNL     1     -27.286 -54.348  56.386  1.00  0.00     0.041 C 
ATOM      9  O   UNL     1     -27.944 -53.392  56.876  1.00  0.00    -0.550 OA
ATOM     10  O   UNL     1     -25.901 -54.356  56.491  1.00  0.00    -0.550 OA
ENDBRANCH   7   8
ENDBRANCH   6   7
ENDBRANCH   5   6
ENDBRANCH   4   5
ENDBRANCH   3   4
ENDBRANCH   2   3
ENDBRANCH   1   2
BRANCH   1  11
ATOM     11  C   UNL     1     -28.022 -51.942  51.132  1.00  0.00     0.000 C 
BRANCH  11  12
ATOM     12  C   UNL     1     -27.188 -51.600  52.375  1.00  0.00    -0.000 C 
BRANCH  12  13
ATOM     13  C   UNL     1     -26.409 -52.827  52.869  1.00  0.00    -0.000 C 
BRANCH  13  14
ATOM     14  C   UNL     1     -26.429 -53.995  51.867  1.00  0.00    -0.000 C 
BRANCH  14  15
ATOM     15  C   UNL     1     -26.186 -55.385  52.483  1.00  0.00    -0.000 C 
BRANCH  15  16
ATOM     16  C   UNL     1     -27.065 -56.480  51.857  1.00  0.00    -0.000 C 
BRANCH  16  17
ATOM     17  C   UNL     1     -27.325 -57.613  52.857  1.00  0.00    -0.003 C 
ATOM     18  C   UNL     1     -28.805 -57.981  52.900  1.00  0.00     0.004 C 
ENDBRANCH  16  17
ENDBRANCH  15  16
ENDBRANCH  14  15
ENDBRANCH  13  14
ENDBRANCH  12  13
ENDBRANCH  11  12
ENDBRANCH   1  11
TORSDOF 14
ENDMDL
MODEL 3
REMARK VINA RESULT:    -3.337     12.088     14.975
REMARK INTER + INTRA:          -8.121
REMARK INTER:                  -6.447
REMARK INTRA:                  -1.673
REMARK UNBOUND:                -2.053
REMARK SMILES CCCCCCCCCCCCCCCC(=O)[O-]
REMARK SMILES IDX 9 1 10 2 11 3 12 4 13 5 14 6 15 7 16 8 17 9 18 10 8 11 7 12
REMARK SMILES IDX 6 13 5 14 4 15 3 16 2 17 1 18
REMARK H PARENT
REMARK Flexibility Score: inf
ROOT
ATOM      1  C   UNL     1     -23.660 -68.375  58.024  1.00  0.00     0.000 C 
ENDROOT
BRANCH   1   2
ATOM      2  C   UNL     1     -23.467 -66.848  58.007  1.00  0.00     0.000 C 
BRANCH   2   3
ATOM      3  C   UNL     1     -22.931 -66.327  56.662  1.00  0.00     0.000 C 
BRANCH   3   4
ATOM      4  C   UNL     1     -23.344 -64.872  56.387  1.00  0.00     0.000 C 
BRANCH   4   5
ATOM      5  C   UNL     1     -23.449 -64.032  57.673  1.00  0.00     0.000 C 
BRANCH   5   6
ATOM      6  C   UNL     1     -23.490 -62.519  57.391  1.00  0.00     0.006 C 
BRANCH   6   7
ATOM      7  C   UNL     1     -24.022 -61.674  58.558  1.00  0.00     0.053 C 
BRANCH   7   8
ATOM      8  C   UNL     1     -25.357 -62.156  59.037  1.00  0.00     0.041 C 
ATOM      9  O   UNL     1     -25.503 -62.542  60.226  1.00  0.00    -0.550 OA
ATOM     10  O   UNL     1     -26.448 -62.149  58.177  1.00  0.00    -0.550 OA
ENDBRANCH   7   8
ENDBRANCH   6   7
ENDBRANCH   5   6
ENDBRANCH   4   5
ENDBRANCH   3   4
ENDBRANCH   2   3
ENDBRANCH   1   2
BRANCH   1  11
ATOM     11  C   UNL     1     -22.845 -69.124  59.094  1.00  0.00     0.000 C 
BRANCH  11  12
ATOM     12  C   UNL     1     -21.336 -69.125  58.809  1.00  0.00    -0.000 C 
BRANCH  12  13
ATOM     13  C   UNL     1     -20.532 -68.978  60.109  1.00  0.00    -0.000 C 
BRANCH  13  14
ATOM     14  C   UNL     1     -19.480 -67.856  60.042  1.00  0.00    -0.000 C 
BRANCH  14  15
ATOM     15  C   UNL     1     -19.847 -66.675  59.124  1.00  0.00    -0.000 C 
BRANCH  15  16
ATOM     16  C   UNL     1     -18.791 -66.408  58.041  1.00  0.00    -0.000 C 
BRANCH  16  17
ATOM     17  C   UNL     1     -19.278 -65.343  57.050  1.00  0.00    -0.003 C 
ATOM     18  C   UNL     1     -19.855 -64.134  57.781  1.00  0.00     0.004 C 
ENDBRANCH  16  17
ENDBRANCH  15  16
ENDBRANCH  14  15
ENDBRANCH  13  14
ENDBRANCH  12  13
ENDBRANCH  11  12
ENDBRANCH   1  11
TORSDOF 14
ENDMDL
MODEL 4
REMARK VINA RESULT:    -3.313      1.789      5.385
REMARK INTER + INTRA:          -8.078
REMARK INTER:                  -5.825
REMARK INTRA:                  -2.253
REMARK UNBOUND:                -2.053
REMARK SMILES CCCCCCCCCCCCCCCC(=O)[O-]
REMARK SMILES IDX 9 1 10 2 11 3 12 4 13 5 14 6 15 7 16 8 17 9 18 10 8 11 7 12
REMARK SMILES IDX 6 13 5 14 4 15 3 16 2 17 1 18
REMARK H PARENT
REMARK Flexibility Score: inf
ROOT
ATOM      1  C   UNL     1     -25.922 -51.933  56.093  1.00  0.00     0.000 C 
ENDROOT
BRANCH   1   2
ATOM      2  C   UNL     1     -26.231 -51.277  54.734  1.00  0.00     0.000 C 
BRANCH   2   3
ATOM      3  C   UNL     1     -26.081 -52.250  53.552  1.00  0.00     0.000 C 
BRANCH   3   4
ATOM      4  C   UNL     1     -27.285 -52.207  52.598  1.00  0.00     0.000 C 
BRANCH   4   5
ATOM      5  C   UNL     1     -27.302 -53.387  51.610  1.00  0.00     0.000 C 
BRANCH   5   6
ATOM      6  C   UNL     1     -26.345 -54.520  52.023  1.00  0.00     0.006 C 
BRANCH   6   7
ATOM      7  C   UNL     1     -26.953 -55.927  51.924  1.00  0.00     0.053 C 
BRANCH   7   8
ATOM      8  C   UNL     1     -26.616 -56.768  53.116  1.00  0.00     0.041 C 
ATOM      9  O   UNL     1     -27.343 -57.748  53.427  1.00  0.00    -0.550 OA
ATOM     10  O   UNL     1     -25.479 -56.490  53.865  1.00  0.00    -0.550 OA
ENDBRANCH   7   8
ENDBRANCH   6   7
ENDBRANCH   5   6
ENDBRANCH   4   5
ENDBRANCH   3   4
ENDBRANCH   2   3
ENDBRANCH   1   2
BRANCH   1  11
ATOM     11  C   UNL     1     -26.318 -53.416  56.208  1.00  0.00     0.000 C 
BRANCH  11  12
ATOM     12  C   UNL     1     -27.837 -53.630  56.258  1.00  0.00    -0.000 C 
BRANCH  12  13
ATOM     13  C   UNL     1     -28.199 -55.083  55.915  1.00  0.00    -0.000 C 
BRANCH  13  14
ATOM     14  C   UNL     1     -29.620 -55.230  55.343  1.00  0.00    -0.000 C 
BRANCH  14  15
ATOM     15  C   UNL     1     -29.806 -54.681  53.916  1.00  0.00    -0.000 C 
BRANCH  15  16
ATOM     16  C   UNL     1     -30.566 -55.649  52.996  1.00  0.00    -0.000 C 
BRANCH  16  17
ATOM     17  C   UNL     1     -30.584 -55.133  51.552  1.00  0.00    -0.003 C 
ATOM     18  C   UNL     1     -31.006 -53.667  51.496  1.00  0.00     0.004 C 
ENDBRANCH  16  17
ENDBRANCH  15  16
ENDBRANCH  14  15
ENDBRANCH  13  14
ENDBRANCH  12  13
ENDBRANCH  11  12
ENDBRANCH   1  11
TORSDOF 14
ENDMDL
MODEL 5
REMARK VINA RESULT:    -3.297      2.452      4.145
REMARK INTER + INTRA:          -8.048
REMARK INTER:                  -5.914
REMARK INTRA:                  -2.135
REMARK UNBOUND:                -2.053
REMARK SMILES CCCCCCCCCCCCCCCC(=O)[O-]
REMARK SMILES IDX 9 1 10 2 11 3 12 4 13 5 14 6 15 7 16 8 17 9 18 10 8 11 7 12
REMARK SMILES IDX 6 13 5 14 4 15 3 16 2 17 1 18
REMARK H PARENT
REMARK Flexibility Score: inf
ROOT
ATOM      1  C   UNL     1     -26.267 -51.709  53.958  1.00  0.00     0.000 C 
ENDROOT
BRANCH   1   2
ATOM      2  C   UNL     1     -26.631 -53.060  54.600  1.00  0.00     0.000 C 
BRANCH   2   3
ATOM      3  C   UNL     1     -26.595 -53.022  56.138  1.00  0.00     0.000 C 
BRANCH   3   4
ATOM      4  C   UNL     1     -27.797 -53.740  56.773  1.00  0.00     0.000 C 
BRANCH   4   5
ATOM      5  C   UNL     1     -28.190 -55.022  56.017  1.00  0.00     0.000 C 
BRANCH   5   6
ATOM      6  C   UNL     1     -29.530 -54.883  55.272  1.00  0.00     0.006 C 
BRANCH   6   7
ATOM      7  C   UNL     1     -30.319 -56.196  55.142  1.00  0.00     0.053 C 
BRANCH   7   8
ATOM      8  C   UNL     1     -30.906 -56.627  56.450  1.00  0.00     0.041 C 
ATOM      9  O   UNL     1     -31.858 -55.981  56.962  1.00  0.00    -0.550 OA
ATOM     10  O   UNL     1     -30.425 -57.764  57.087  1.00  0.00    -0.550 OA
ENDBRANCH   7   8
ENDBRANCH   6   7
ENDBRANCH   5   6
ENDBRANCH   4   5
ENDBRANCH   3   4
ENDBRANCH   2   3
ENDBRANCH   1   2
BRANCH   1  11
ATOM     11  C   UNL     1     -26.750 -51.523  52.508  1.00  0.00     0.000 C 
BRANCH  11  12
ATOM     12  C   UNL     1     -28.099 -52.202  52.232  1.00  0.00    -0.000 C 
BRANCH  12  13
ATOM     13  C   UNL     1     -27.931 -53.388  51.272  1.00  0.00    -0.000 C 
BRANCH  13  14
ATOM     14  C   UNL     1     -28.691 -54.646  51.731  1.00  0.00    -0.000 C 
BRANCH  14  15
ATOM     15  C   UNL     1     -27.799 -55.848  52.094  1.00  0.00    -0.000 C 
BRANCH  15  16
ATOM     16  C   UNL     1     -26.300 -55.549  51.939  1.00  0.00    -0.000 C 
BRANCH  16  17
ATOM     17  C   UNL     1     -25.501 -56.130  53.112  1.00  0.00    -0.003 C 
ATOM     18  C   UNL     1     -26.259 -57.273  53.783  1.00  0.00     0.004 C 
ENDBRANCH  16  17
ENDBRANCH  15  16
ENDBRANCH  14  15
ENDBRANCH  13  14
ENDBRANCH  12  13
ENDBRANCH  11  12
ENDBRANCH   1  11
TORSDOF 14
ENDMDL
MODEL 6
REMARK VINA RESULT:    -3.231      2.064      3.975
REMARK INTER + INTRA:          -7.928
REMARK INTER:                  -5.796
REMARK INTRA:                  -2.132
REMARK UNBOUND:                -2.053
REMARK SMILES CCCCCCCCCCCCCCCC(=O)[O-]
REMARK SMILES IDX 9 1 10 2 11 3 12 4 13 5 14 6 15 7 16 8 17 9 18 10 8 11 7 12
REMARK SMILES IDX 6 13 5 14 4 15 3 16 2 17 1 18
REMARK H PARENT
REMARK Flexibility Score: inf
ROOT
ATOM      1  C   UNL     1     -29.830 -51.992  51.244  1.00  0.00     0.000 C 
ENDROOT
BRANCH   1   2
ATOM      2  C   UNL     1     -30.506 -53.211  51.898  1.00  0.00     0.000 C 
BRANCH   2   3
ATOM      3  C   UNL     1     -30.064 -54.547  51.277  1.00  0.00     0.000 C 
BRANCH   3   4
ATOM      4  C   UNL     1     -29.927 -55.665  52.322  1.00  0.00     0.000 C 
BRANCH   4   5
ATOM      5  C   UNL     1     -29.314 -56.951  51.738  1.00  0.00     0.000 C 
BRANCH   5   6
ATOM      6  C   UNL     1     -28.101 -57.449  52.544  1.00  0.00     0.006 C 
BRANCH   6   7
ATOM      7  C   UNL     1     -26.756 -57.296  51.817  1.00  0.00     0.053 C 
BRANCH   7   8
ATOM      8  C   UNL     1     -25.595 -57.410  52.757  1.00  0.00     0.041 C 
ATOM      9  O   UNL     1     -25.711 -58.055  53.832  1.00  0.00    -0.550 OA
ATOM     10  O   UNL     1     -24.375 -56.832  52.429  1.00  0.00    -0.550 OA
ENDBRANCH   7   8
ENDBRANCH   6   7
ENDBRANCH   5   6
ENDBRANCH   4   5
ENDBRANCH   3   4
ENDBRANCH   2   3
ENDBRANCH   1   2
BRANCH   1  11
ATOM     11  C   UNL     1     -28.304 -52.102  51.078  1.00  0.00     0.000 C 
BRANCH  11  12
ATOM     12  C   UNL     1     -27.525 -51.264  52.102  1.00  0.00    -0.000 C 
BRANCH  12  13
ATOM     13  C   UNL     1     -26.503 -52.127  52.856  1.00  0.00    -0.000 C 
BRANCH  13  14
ATOM     14  C   UNL     1     -26.862 -53.624  52.853  1.00  0.00    -0.000 C 
BRANCH  14  15
ATOM     15  C   UNL     1     -26.778 -54.316  54.226  1.00  0.00    -0.000 C 
BRANCH  15  16
ATOM     16  C   UNL     1     -28.040 -54.110  55.077  1.00  0.00    -0.000 C 
BRANCH  16  17
ATOM     17  C   UNL     1     -27.677 -53.635  56.489  1.00  0.00    -0.003 C 
ATOM     18  C   UNL     1     -26.312 -52.953  56.507  1.00  0.00     0.004 C 
ENDBRANCH  16  17
ENDBRANCH  15  16
ENDBRANCH  14  15
ENDBRANCH  13  14
ENDBRANCH  12  13
ENDBRANCH  11  12
ENDBRANCH   1  11
TORSDOF 14
ENDMDL
MODEL 7
REMARK VINA RESULT:    -3.220      1.260      4.720
REMARK INTER + INTRA:          -7.908
REMARK INTER:                  -5.827
REMARK INTRA:                  -2.080
REMARK UNBOUND:                -2.053
REMARK SMILES CCCCCCCCCCCCCCCC(=O)[O-]
REMARK SMILES IDX 9 1 10 2 11 3 12 4 13 5 14 6 15 7 16 8 17 9 18 10 8 11 7 12
REMARK SMILES IDX 6 13 5 14 4 15 3 16 2 17 1 18
REMARK H PARENT
REMARK Flexibility Score: inf
ROOT
ATOM      1  C   UNL     1     -30.179 -54.526  52.221  1.00  0.00     0.000 C 
ENDROOT
BRANCH   1   2
ATOM      2  C   UNL     1     -30.562 -53.388  51.256  1.00  0.00     0.000 C 
BRANCH   2   3
ATOM      3  C   UNL     1     -29.457 -52.329  51.109  1.00  0.00     0.000 C 
BRANCH   3   4
ATOM      4  C   UNL     1     -28.061 -52.885  51.436  1.00  0.00     0.000 C 
BRANCH   4   5
ATOM      5  C   UNL     1     -27.324 -52.050  52.498  1.00  0.00     0.000 C 
BRANCH   5   6
ATOM      6  C   UNL     1     -26.530 -52.920  53.489  1.00  0.00     0.006 C 
BRANCH   6   7
ATOM      7  C   UNL     1     -27.245 -53.165  54.827  1.00  0.00     0.053 C 
BRANCH   7   8
ATOM      8  C   UNL     1     -26.335 -52.949  55.997  1.00  0.00     0.041 C 
ATOM      9  O   UNL     1     -25.969 -53.924  56.703  1.00  0.00    -0.550 OA
ATOM     10  O   UNL     1     -25.865 -51.674  56.286  1.00  0.00    -0.550 OA
ENDBRANCH   7   8
ENDBRANCH   6   7
ENDBRANCH   5   6
ENDBRANCH   4   5
ENDBRANCH   3   4
ENDBRANCH   2   3
ENDBRANCH   1   2
BRANCH   1  11
ATOM     11  C   UNL     1     -30.311 -55.946  51.641  1.00  0.00     0.000 C 
BRANCH  11  12
ATOM     12  C   UNL     1     -29.172 -56.880  52.076  1.00  0.00    -0.000 C 
BRANCH  12  13
ATOM     13  C   UNL     1     -28.236 -56.180  53.072  1.00  0.00    -0.000 C 
BRANCH  13  14
ATOM     14  C   UNL     1     -27.301 -57.157  53.806  1.00  0.00    -0.000 C 
BRANCH  14  15
ATOM     15  C   UNL     1     -27.544 -57.276  55.321  1.00  0.00    -0.000 C 
BRANCH  15  16
ATOM     16  C   UNL     1     -28.587 -56.275  55.841  1.00  0.00    -0.000 C 
BRANCH  16  17
ATOM     17  C   UNL     1     -29.776 -57.004  56.479  1.00  0.00    -0.003 C 
ATOM     18  C   UNL     1     -30.901 -57.212  55.469  1.00  0.00     0.004 C 
ENDBRANCH  16  17
ENDBRANCH  15  16
ENDBRANCH  14  15
ENDBRANCH  13  14
ENDBRANCH  12  13
ENDBRANCH  11  12
ENDBRANCH   1  11
TORSDOF 14
ENDMDL
MODEL 8
REMARK VINA RESULT:    -3.193      2.360      4.288
REMARK INTER + INTRA:          -7.860
REMARK INTER:                  -6.176
REMARK INTRA:                  -1.684
REMARK UNBOUND:                -2.053
REMARK SMILES CCCCCCCCCCCCCCCC(=O)[O-]
REMARK SMILES IDX 9 1 10 2 11 3 12 4 13 5 14 6 15 7 16 8 17 9 18 10 8 11 7 12
REMARK SMILES IDX 6 13 5 14 4 15 3 16 2 17 1 18
REMARK H PARENT
REMARK Flexibility Score: inf
ROOT
ATOM      1  C   UNL     1     -26.799 -53.068  54.038  1.00  0.00     0.000 C 
ENDROOT
BRANCH   1   2
ATOM      2  C   UNL     1     -26.686 -52.904  55.565  1.00  0.00     0.000 C 
BRANCH   2   3
ATOM      3  C   UNL     1     -27.327 -54.067  56.341  1.00  0.00     0.000 C 
BRANCH   3   4
ATOM      4  C   UNL     1     -26.963 -55.440  55.752  1.00  0.00     0.000 C 
BRANCH   4   5
ATOM      5  C   UNL     1     -28.181 -56.373  55.626  1.00  0.00     0.000 C 
BRANCH   5   6
ATOM      6  C   UNL     1     -29.391 -55.882  56.441  1.00  0.00     0.006 C 
BRANCH   6   7
ATOM      7  C   UNL     1     -30.586 -56.848  56.441  1.00  0.00     0.053 C 
BRANCH   7   8
ATOM      8  C   UNL     1     -30.713 -57.582  57.740  1.00  0.00     0.041 C 
ATOM      9  O   UNL     1     -30.541 -56.975  58.830  1.00  0.00    -0.550 OA
ATOM     10  O   UNL     1     -31.055 -58.928  57.748  1.00  0.00    -0.550 OA
ENDBRANCH   7   8
ENDBRANCH   6   7
ENDBRANCH   5   6
ENDBRANCH   4   5
ENDBRANCH   3   4
ENDBRANCH   2   3
ENDBRANCH   1   2
BRANCH   1  11
ATOM     11  C   UNL     1     -26.293 -51.871  53.213  1.00  0.00     0.000 C 
BRANCH  11  12
ATOM     12  C   UNL     1     -27.369 -51.278  52.291  1.00  0.00    -0.000 C 
BRANCH  12  13
ATOM     13  C   UNL     1     -27.752 -52.271  51.184  1.00  0.00    -0.000 C 
BRANCH  13  14
ATOM     14  C   UNL     1     -29.260 -52.578  51.148  1.00  0.00    -0.000 C 
BRANCH  14  15
ATOM     15  C   UNL     1     -29.629 -54.053  51.396  1.00  0.00    -0.000 C 
BRANCH  15  16
ATOM     16  C   UNL     1     -29.894 -54.363  52.877  1.00  0.00    -0.000 C 
BRANCH  16  17
ATOM     17  C   UNL     1     -31.053 -55.356  53.030  1.00  0.00    -0.003 C 
ATOM     18  C   UNL     1     -30.599 -56.783  52.736  1.00  0.00     0.004 C 
ENDBRANCH  16  17
ENDBRANCH  15  16
ENDBRANCH  14  15
ENDBRANCH  13  14
ENDBRANCH  12  13
ENDBRANCH  11  12
ENDBRANCH   1  11
TORSDOF 14
ENDMDL
