MODEL 1
REMARK VINA RESULT:    -2.368      0.000      0.000
REMARK INTER + INTRA:          -6.342
REMARK INTER:                  -5.413
REMARK INTRA:                  -0.929
REMARK UNBOUND:                -0.929
REMARK SMILES CCCCCCCCCCCCCCCCCCCCCCCC(=O)[O-]
REMARK SMILES IDX 13 1 14 2 15 3 16 4 17 5 18 6 19 7 20 8 21 9 22 10 23 11
REMARK SMILES IDX 24 12 25 13 26 14 12 15 11 16 10 17 9 18 8 19 7 20 6 21 5 22
REMARK SMILES IDX 4 23 3 24 2 25 1 26
REMARK H PARENT
REMARK Flexibility Score: inf
ROOT
ATOM      1  C   UNL     1      -1.613  22.757   2.691  1.00  0.00     0.000 C 
ENDROOT
BRANCH   1   2
ATOM      2  C   UNL     1      -0.684  23.439   3.715  1.00  0.00     0.000 C 
BRANCH   2   3
ATOM      3  C   UNL     1       0.819  23.380   3.380  1.00  0.00     0.000 C 
BRANCH   3   4
ATOM      4  C   UNL     1       1.588  22.273   4.135  1.00  0.00     0.000 C 
BRANCH   4   5
ATOM      5  C   UNL     1       1.046  22.033   5.556  1.00  0.00     0.000 C 
BRANCH   5   6
ATOM      6  C   UNL     1       1.698  22.949   6.604  1.00  0.00     0.000 C 
BRANCH   6   7
ATOM      7  C   UNL     1       3.222  23.057   6.433  1.00  0.00     0.000 C 
BRANCH   7   8
ATOM      8  C   UNL     1       3.948  22.019   7.302  1.00  0.00     0.000 C 
BRANCH   8   9
ATOM      9  C   UNL     1       5.313  22.521   7.801  1.00  0.00     0.000 C 
BRANCH   9  10
ATOM     10  C   UNL     1       5.767  23.802   7.080  1.00  0.00     0.006 C 
BRANCH  10  11
ATOM     11  C   UNL     1       6.948  23.547   6.133  1.00  0.00     0.053 C 
BRANCH  11  12
ATOM     12  C   UNL     1       6.680  24.058   4.752  1.00  0.00     0.041 C 
ATOM     13  O   UNL     1       6.111  25.170   4.588  1.00  0.00    -0.550 OA
ATOM     14  O   UNL     1       7.085  23.322   3.646  1.00  0.00    -0.550 OA
ENDBRANCH  11  12
ENDBRANCH  10  11
ENDBRANCH   9  10
ENDBRANCH   8   9
ENDBRANCH   7   8
ENDBRANCH   6   7
ENDBRANCH   5   6
ENDBRANCH   4   5
ENDBRANCH   3   4
ENDBRANCH   2   3
ENDBRANCH   1   2
BRANCH   1  15
ATOM     15  C   UNL     1      -2.654  21.793   3.291  1.00  0.00     0.000 C 
BRANCH  15  16
ATOM     16  C   UNL     1      -3.378  20.890   2.273  1.00  0.00     0.000 C 
BRANCH  16  17
ATOM     17  C   UNL     1      -4.831  21.318   1.978  1.00  0.00     0.000 C 
BRANCH  17  18
ATOM     18  C   UNL     1      -5.745  21.228   3.214  1.00  0.00    -0.000 C 
BRANCH  18  19
ATOM     19  C   UNL     1      -7.211  20.932   2.831  1.00  0.00    -0.000 C 
BRANCH  19  20
ATOM     20  C   UNL     1      -8.025  22.190   2.469  1.00  0.00    -0.000 C 
BRANCH  20  21
ATOM     21  C   UNL     1      -9.553  22.021   2.555  1.00  0.00    -0.000 C 
BRANCH  21  22
ATOM     22  C   UNL     1     -10.261  23.267   3.112  1.00  0.00    -0.000 C 
BRANCH  22  23
ATOM     23  C   UNL     1     -10.730  23.078   4.564  1.00  0.00    -0.000 C 
BRANCH  23  24
ATOM     24  C   UNL     1     -12.070  22.334   4.664  1.00  0.00    -0.000 C 
BRANCH  24  25
ATOM     25  C   UNL     1     -13.093  22.915   3.680  1.00  0.00    -0.003 C 
ATOM     26  C   UNL     1     -13.124  22.113   2.383  1.00  0.00     0.004 C 
ENDBRANCH  24  25
ENDBRANCH  23  24
ENDBRANCH  22  23
ENDBRANCH  21  22
ENDBRANCH  20  21
ENDBRANCH  19  20
ENDBRANCH  18  19
ENDBRANCH  17  18
ENDBRANCH  16  17
ENDBRANCH  15  16
ENDBRANCH   1  15
TORSDOF 22
ENDMDL
MODEL 2
REMARK VINA RESULT:    -2.304      2.456      5.450
REMARK INTER + INTRA:          -6.196
REMARK INTER:                  -4.639
REMARK INTRA:                  -1.557
REMARK UNBOUND:                -0.929
REMARK SMILES CCCCCCCCCCCCCCCCCCCCCCCC(=O)[O-]
REMARK SMILES IDX 13 1 14 2 15 3 16 4 17 5 18 6 19 7 20 8 21 9 22 10 23 11
REMARK SMILES IDX 24 12 25 13 26 14 12 15 11 16 10 17 9 18 8 19 7 20 6 21 5 22
REMARK SMILES IDX 4 23 3 24 2 25 1 26
REMARK H PARENT
REMARK Flexibility Score: inf
ROOT
ATOM      1  C   UNL     1       2.587  20.890   7.072  1.00  0.00     0.000 C 
ENDROOT
BRANCH   1   2
ATOM      2  C   UNL     1       3.580  21.244   5.947  1.00  0.00     0.000 C 
BRANCH   2   3
ATOM      3  C   UNL     1       5.068  21.208   6.348  1.00  0.00     0.000 C 
BRANCH   3   4
ATOM      4  C   UNL     1       5.325  21.531   7.836  1.00  0.00     0.000 C 
BRANCH   4   5
ATOM      5  C   UNL     1       5.489  23.039   8.100  1.00  0.00     0.000 C 
BRANCH   5   6
ATOM      6  C   UNL     1       5.124  23.899   6.880  1.00  0.00     0.000 C 
BRANCH   6   7
ATOM      7  C   UNL     1       6.238  24.885   6.493  1.00  0.00     0.000 C 
BRANCH   7   8
ATOM      8  C   UNL     1       6.500  24.852   4.980  1.00  0.00     0.000 C 
BRANCH   8   9
ATOM      9  C   UNL     1       5.821  23.657   4.291  1.00  0.00     0.000 C 
BRANCH   9  10
ATOM     10  C   UNL     1       5.726  23.834   2.766  1.00  0.00     0.006 C 
BRANCH  10  11
ATOM     11  C   UNL     1       5.356  25.271   2.372  1.00  0.00     0.053 C 
BRANCH  11  12
ATOM     12  C   UNL     1       3.874  25.466   2.290  1.00  0.00     0.041 C 
ATOM     13  O   UNL     1       3.096  24.506   2.534  1.00  0.00    -0.550 OA
ATOM     14  O   UNL     1       3.352  26.714   1.974  1.00  0.00    -0.550 OA
ENDBRANCH  11  12
ENDBRANCH  10  11
ENDBRANCH   9  10
ENDBRANCH   8   9
ENDBRANCH   7   8
ENDBRANCH   6   7
ENDBRANCH   5   6
ENDBRANCH   4   5
ENDBRANCH   3   4
ENDBRANCH   2   3
ENDBRANCH   1   2
BRANCH   1  15
ATOM     15  C   UNL     1       1.269  21.689   7.057  1.00  0.00     0.000 C 
BRANCH  15  16
ATOM     16  C   UNL     1       1.161  22.759   5.954  1.00  0.00     0.000 C 
BRANCH  16  17
ATOM     17  C   UNL     1       0.750  22.199   4.576  1.00  0.00     0.000 C 
BRANCH  17  18
ATOM     18  C   UNL     1      -0.031  20.875   4.675  1.00  0.00    -0.000 C 
BRANCH  18  19
ATOM     19  C   UNL     1      -1.468  21.008   4.125  1.00  0.00    -0.000 C 
BRANCH  19  20
ATOM     20  C   UNL     1      -1.633  22.129   3.081  1.00  0.00    -0.000 C 
BRANCH  20  21
ATOM     21  C   UNL     1      -3.068  22.324   2.560  1.00  0.00    -0.000 C 
BRANCH  21  22
ATOM     22  C   UNL     1      -3.637  21.062   1.891  1.00  0.00    -0.000 C 
BRANCH  22  23
ATOM     23  C   UNL     1      -5.143  20.889   2.145  1.00  0.00    -0.000 C 
BRANCH  23  24
ATOM     24  C   UNL     1      -5.634  21.673   3.372  1.00  0.00    -0.000 C 
BRANCH  24  25
ATOM     25  C   UNL     1      -6.968  21.112   3.880  1.00  0.00    -0.003 C 
ATOM     26  C   UNL     1      -8.055  21.231   2.815  1.00  0.00     0.004 C 
ENDBRANCH  24  25
ENDBRANCH  23  24
ENDBRANCH  22  23
ENDBRANCH  21  22
ENDBRANCH  20  21
ENDBRANCH  19  20
ENDBRANCH  18  19
ENDBRANCH  17  18
ENDBRANCH  16  17
ENDBRANCH  15  16
ENDBRANCH   1  15
TORSDOF 22
ENDMDL
MODEL 3
REMARK VINA RESULT:    -2.023      5.305     13.140
REMARK INTER + INTRA:          -5.555
REMARK INTER:                  -3.964
REMARK INTRA:                  -1.590
REMARK UNBOUND:                -0.929
REMARK SMILES CCCCCCCCCCCCCCCCCCCCCCCC(=O)[O-]
REMARK SMILES IDX 13 1 14 2 15 3 16 4 17 5 18 6 19 7 20 8 21 9 22 10 23 11
REMARK SMILES IDX 24 12 25 13 26 14 12 15 11 16 10 17 9 18 8 19 7 20 6 21 5 22
REMARK SMILES IDX 4 23 3 24 2 25 1 26
REMARK H PARENT
REMARK Flexibility Score: inf
ROOT
ATOM      1  C   UNL     1       0.093  22.998   3.757  1.00  0.00     0.000 C 
ENDROOT
BRANCH   1   2
ATOM      2  C   UNL     1      -0.998  23.679   2.908  1.00  0.00     0.000 C 
BRANCH   2   3
ATOM      3  C   UNL     1      -1.863  22.725   2.060  1.00  0.00     0.000 C 
BRANCH   3   4
ATOM      4  C   UNL     1      -3.263  22.455   2.652  1.00  0.00     0.000 C 
BRANCH   4   5
ATOM      5  C   UNL     1      -3.715  20.994   2.474  1.00  0.00     0.000 C 
BRANCH   5   6
ATOM      6  C   UNL     1      -5.125  20.876   1.875  1.00  0.00     0.000 C 
BRANCH   6   7
ATOM      7  C   UNL     1      -6.229  21.260   2.873  1.00  0.00     0.000 C 
BRANCH   7   8
ATOM      8  C   UNL     1      -7.064  22.436   2.346  1.00  0.00     0.000 C 
BRANCH   8   9
ATOM      9  C   UNL     1      -8.530  22.049   2.089  1.00  0.00     0.000 C 
BRANCH   9  10
ATOM     10  C   UNL     1      -9.324  21.860   3.393  1.00  0.00     0.006 C 
BRANCH  10  11
ATOM     11  C   UNL     1     -10.343  22.985   3.619  1.00  0.00     0.053 C 
BRANCH  11  12
ATOM     12  C   UNL     1     -11.597  22.484   4.267  1.00  0.00     0.041 C 
ATOM     13  O   UNL     1     -12.721  22.889   3.867  1.00  0.00    -0.550 OA
ATOM     14  O   UNL     1     -11.526  21.548   5.291  1.00  0.00    -0.550 OA
ENDBRANCH  11  12
ENDBRANCH  10  11
ENDBRANCH   9  10
ENDBRANCH   8   9
ENDBRANCH   7   8
ENDBRANCH   6   7
ENDBRANCH   5   6
ENDBRANCH   4   5
ENDBRANCH   3   4
ENDBRANCH   2   3
ENDBRANCH   1   2
BRANCH   1  15
ATOM     15  C   UNL     1       1.521  23.537   3.545  1.00  0.00     0.000 C 
BRANCH  15  16
ATOM     16  C   UNL     1       2.093  23.343   2.127  1.00  0.00     0.000 C 
BRANCH  16  17
ATOM     17  C   UNL     1       2.989  22.096   1.979  1.00  0.00     0.000 C 
BRANCH  17  18
ATOM     18  C   UNL     1       4.373  22.270   2.632  1.00  0.00    -0.000 C 
BRANCH  18  19
ATOM     19  C   UNL     1       5.135  23.485   2.060  1.00  0.00    -0.000 C 
BRANCH  19  20
ATOM     20  C   UNL     1       5.586  24.497   3.132  1.00  0.00    -0.000 C 
BRANCH  20  21
ATOM     21  C   UNL     1       6.251  23.875   4.372  1.00  0.00    -0.000 C 
BRANCH  21  22
ATOM     22  C   UNL     1       6.080  24.734   5.636  1.00  0.00    -0.000 C 
BRANCH  22  23
ATOM     23  C   UNL     1       5.847  23.887   6.897  1.00  0.00    -0.000 C 
BRANCH  23  24
ATOM     24  C   UNL     1       5.303  22.485   6.581  1.00  0.00    -0.000 C 
BRANCH  24  25
ATOM     25  C   UNL     1       3.804  22.540   6.263  1.00  0.00    -0.003 C 
ATOM     26  C   UNL     1       3.044  21.452   7.016  1.00  0.00     0.004 C 
ENDBRANCH  24  25
ENDBRANCH  23  24
ENDBRANCH  22  23
ENDBRANCH  21  22
ENDBRANCH  20  21
ENDBRANCH  19  20
ENDBRANCH  18  19
ENDBRANCH  17  18
ENDBRANCH  16  17
ENDBRANCH  15  16
ENDBRANCH   1  15
TORSDOF 22
ENDMDL
MODEL 4
REMARK VINA RESULT:    -1.897      1.901      2.418
REMARK INTER + INTRA:          -5.267
REMARK INTER:                  -4.601
REMARK INTRA:                  -0.666
REMARK UNBOUND:                -0.929
REMARK SMILES CCCCCCCCCCCCCCCCCCCCCCCC(=O)[O-]
REMARK SMILES IDX 13 1 14 2 15 3 16 4 17 5 18 6 19 7 20 8 21 9 22 10 23 11
REMARK SMILES IDX 24 12 25 13 26 14 12 15 11 16 10 17 9 18 8 19 7 20 6 21 5 22
REMARK SMILES IDX 4 23 3 24 2 25 1 26
REMARK H PARENT
REMARK Flexibility Score: inf
ROOT
ATOM      1  C   UNL     1      -1.865  22.862   3.039  1.00  0.00     0.000 C 
ENDROOT
BRANCH   1   2
ATOM      2  C   UNL     1      -0.733  23.178   4.037  1.00  0.00     0.000 C 
BRANCH   2   3
ATOM      3  C   UNL     1       0.678  23.276   3.422  1.00  0.00     0.000 C 
BRANCH   3   4
ATOM      4  C   UNL     1       1.336  21.908   3.141  1.00  0.00     0.000 C 
BRANCH   4   5
ATOM      5  C   UNL     1       1.065  20.875   4.250  1.00  0.00     0.000 C 
BRANCH   5   6
ATOM      6  C   UNL     1       1.936  21.099   5.496  1.00  0.00     0.000 C 
BRANCH   6   7
ATOM      7  C   UNL     1       2.808  22.361   5.394  1.00  0.00     0.000 C 
BRANCH   7   8
ATOM      8  C   UNL     1       4.102  22.074   4.619  1.00  0.00     0.000 C 
BRANCH   8   9
ATOM      9  C   UNL     1       5.004  23.314   4.502  1.00  0.00     0.000 C 
BRANCH   9  10
ATOM     10  C   UNL     1       4.230  24.562   4.044  1.00  0.00     0.006 C 
BRANCH  10  11
ATOM     11  C   UNL     1       4.137  24.657   2.514  1.00  0.00     0.053 C 
BRANCH  11  12
ATOM     12  C   UNL     1       3.388  25.876   2.073  1.00  0.00     0.041 C 
ATOM     13  O   UNL     1       2.140  25.826   1.908  1.00  0.00    -0.550 OA
ATOM     14  O   UNL     1       4.061  27.074   1.875  1.00  0.00    -0.550 OA
ENDBRANCH  11  12
ENDBRANCH  10  11
ENDBRANCH   9  10
ENDBRANCH   8   9
ENDBRANCH   7   8
ENDBRANCH   6   7
ENDBRANCH   5   6
ENDBRANCH   4   5
ENDBRANCH   3   4
ENDBRANCH   2   3
ENDBRANCH   1   2
BRANCH   1  15
ATOM     15  C   UNL     1      -3.015  22.006   3.603  1.00  0.00     0.000 C 
BRANCH  15  16
ATOM     16  C   UNL     1      -3.518  20.886   2.673  1.00  0.00     0.000 C 
BRANCH  16  17
ATOM     17  C   UNL     1      -4.838  21.220   1.947  1.00  0.00     0.000 C 
BRANCH  17  18
ATOM     18  C   UNL     1      -5.873  21.898   2.864  1.00  0.00    -0.000 C 
BRANCH  18  19
ATOM     19  C   UNL     1      -7.190  21.095   2.945  1.00  0.00    -0.000 C 
BRANCH  19  20
ATOM     20  C   UNL     1      -8.308  21.642   2.035  1.00  0.00    -0.000 C 
BRANCH  20  21
ATOM     21  C   UNL     1      -9.677  21.807   2.719  1.00  0.00    -0.000 C 
BRANCH  21  22
ATOM     22  C   UNL     1     -10.190  23.257   2.685  1.00  0.00    -0.000 C 
BRANCH  22  23
ATOM     23  C   UNL     1     -11.071  23.598   3.897  1.00  0.00    -0.000 C 
BRANCH  23  24
ATOM     24  C   UNL     1     -12.530  23.153   3.717  1.00  0.00    -0.000 C 
BRANCH  24  25
ATOM     25  C   UNL     1     -12.677  21.648   3.973  1.00  0.00    -0.003 C 
ATOM     26  C   UNL     1     -12.745  21.349   5.468  1.00  0.00     0.004 C 
ENDBRANCH  24  25
ENDBRANCH  23  24
ENDBRANCH  22  23
ENDBRANCH  21  22
ENDBRANCH  20  21
ENDBRANCH  19  20
ENDBRANCH  18  19
ENDBRANCH  17  18
ENDBRANCH  16  17
ENDBRANCH  15  16
ENDBRANCH   1  15
TORSDOF 22
ENDMDL
MODEL 5
REMARK VINA RESULT:    -1.859      4.700     11.042
REMARK INTER + INTRA:          -5.179
REMARK INTER:                  -3.603
REMARK INTRA:                  -1.576
REMARK UNBOUND:                -0.929
REMARK SMILES CCCCCCCCCCCCCCCCCCCCCCCC(=O)[O-]
REMARK SMILES IDX 13 1 14 2 15 3 16 4 17 5 18 6 19 7 20 8 21 9 22 10 23 11
REMARK SMILES IDX 24 12 25 13 26 14 12 15 11 16 10 17 9 18 8 19 7 20 6 21 5 22
REMARK SMILES IDX 4 23 3 24 2 25 1 26
REMARK H PARENT
REMARK Flexibility Score: inf
ROOT
ATOM      1  C   UNL     1       3.315  24.422   3.507  1.00  0.00     0.000 C 
ENDROOT
BRANCH   1   2
ATOM      2  C   UNL     1       2.753  23.875   2.181  1.00  0.00     0.000 C 
BRANCH   2   3
ATOM      3  C   UNL     1       1.289  23.395   2.236  1.00  0.00     0.000 C 
BRANCH   3   4
ATOM      4  C   UNL     1       1.130  21.859   2.202  1.00  0.00     0.000 C 
BRANCH   4   5
ATOM      5  C   UNL     1      -0.307  21.414   1.875  1.00  0.00     0.000 C 
BRANCH   5   6
ATOM      6  C   UNL     1      -1.365  22.425   2.346  1.00  0.00     0.000 C 
BRANCH   6   7
ATOM      7  C   UNL     1      -1.632  22.345   3.858  1.00  0.00     0.000 C 
BRANCH   7   8
ATOM      8  C   UNL     1      -2.467  21.104   4.204  1.00  0.00     0.000 C 
BRANCH   8   9
ATOM      9  C   UNL     1      -3.633  20.887   3.225  1.00  0.00     0.000 C 
BRANCH   9  10
ATOM     10  C   UNL     1      -4.385  22.192   2.910  1.00  0.00     0.006 C 
BRANCH  10  11
ATOM     11  C   UNL     1      -5.502  21.983   1.878  1.00  0.00     0.053 C 
BRANCH  11  12
ATOM     12  C   UNL     1      -6.853  21.920   2.520  1.00  0.00     0.041 C 
ATOM     13  O   UNL     1      -7.066  21.119   3.469  1.00  0.00    -0.550 OA
ATOM     14  O   UNL     1      -7.868  22.767   2.093  1.00  0.00    -0.550 OA
ENDBRANCH  11  12
ENDBRANCH  10  11
ENDBRANCH   9  10
ENDBRANCH   8   9
ENDBRANCH   7   8
ENDBRANCH   6   7
ENDBRANCH   5   6
ENDBRANCH   4   5
ENDBRANCH   3   4
ENDBRANCH   2   3
ENDBRANCH   1   2
BRANCH   1  15
ATOM     15  C   UNL     1       4.727  25.033   3.418  1.00  0.00     0.000 C 
BRANCH  15  16
ATOM     16  C   UNL     1       5.884  24.014   3.403  1.00  0.00     0.000 C 
BRANCH  16  17
ATOM     17  C   UNL     1       6.055  23.241   4.728  1.00  0.00     0.000 C 
BRANCH  17  18
ATOM     18  C   UNL     1       6.668  24.101   5.849  1.00  0.00    -0.000 C 
BRANCH  18  19
ATOM     19  C   UNL     1       5.792  24.103   7.121  1.00  0.00    -0.000 C 
BRANCH  19  20
ATOM     20  C   UNL     1       4.365  23.567   6.895  1.00  0.00    -0.000 C 
BRANCH  20  21
ATOM     21  C   UNL     1       4.010  22.306   7.703  1.00  0.00    -0.000 C 
BRANCH  21  22
ATOM     22  C   UNL     1       3.591  21.125   6.811  1.00  0.00    -0.000 C 
BRANCH  22  23
ATOM     23  C   UNL     1       2.064  20.996   6.684  1.00  0.00    -0.000 C 
BRANCH  23  24
ATOM     24  C   UNL     1       1.347  22.354   6.721  1.00  0.00    -0.000 C 
BRANCH  24  25
ATOM     25  C   UNL     1      -0.158  22.171   6.951  1.00  0.00    -0.003 C 
ATOM     26  C   UNL     1      -0.424  21.204   8.100  1.00  0.00     0.004 C 
ENDBRANCH  24  25
ENDBRANCH  23  24
ENDBRANCH  22  23
ENDBRANCH  21  22
ENDBRANCH  20  21
ENDBRANCH  19  20
ENDBRANCH  18  19
ENDBRANCH  17  18
ENDBRANCH  16  17
ENDBRANCH  15  16
ENDBRANCH   1  15
TORSDOF 22
ENDMDL
MODEL 6
REMARK VINA RESULT:    -1.452      5.317     10.161
REMARK INTER + INTRA:          -4.249
REMARK INTER:                  -2.986
REMARK INTRA:                  -1.262
REMARK UNBOUND:                -0.929
REMARK SMILES CCCCCCCCCCCCCCCCCCCCCCCC(=O)[O-]
REMARK SMILES IDX 13 1 14 2 15 3 16 4 17 5 18 6 19 7 20 8 21 9 22 10 23 11
REMARK SMILES IDX 24 12 25 13 26 14 12 15 11 16 10 17 9 18 8 19 7 20 6 21 5 22
REMARK SMILES IDX 4 23 3 24 2 25 1 26
REMARK H PARENT
REMARK Flexibility Score: inf
ROOT
ATOM      1  C   UNL     1       1.001  23.273   3.272  1.00  0.00     0.000 C 
ENDROOT
BRANCH   1   2
ATOM      2  C   UNL     1      -0.395  23.762   2.838  1.00  0.00     0.000 C 
BRANCH   2   3
ATOM      3  C   UNL     1      -1.442  22.652   2.619  1.00  0.00     0.000 C 
BRANCH   3   4
ATOM      4  C   UNL     1      -1.271  21.435   3.555  1.00  0.00     0.000 C 
BRANCH   4   5
ATOM      5  C   UNL     1      -2.107  21.550   4.843  1.00  0.00     0.000 C 
BRANCH   5   6
ATOM      6  C   UNL     1      -1.385  20.978   6.073  1.00  0.00     0.000 C 
BRANCH   6   7
ATOM      7  C   UNL     1      -0.650  22.055   6.887  1.00  0.00     0.000 C 
BRANCH   7   8
ATOM      8  C   UNL     1       0.351  21.419   7.864  1.00  0.00     0.000 C 
BRANCH   8   9
ATOM      9  C   UNL     1       1.601  20.875   7.153  1.00  0.00     0.000 C 
BRANCH   9  10
ATOM     10  C   UNL     1       2.906  21.362   7.807  1.00  0.00     0.006 C 
BRANCH  10  11
ATOM     11  C   UNL     1       4.146  20.961   6.995  1.00  0.00     0.053 C 
BRANCH  11  12
ATOM     12  C   UNL     1       5.411  21.456   7.623  1.00  0.00     0.041 C 
ATOM     13  O   UNL     1       5.365  22.165   8.664  1.00  0.00    -0.550 OA
ATOM     14  O   UNL     1       6.641  21.111   7.078  1.00  0.00    -0.550 OA
ENDBRANCH  11  12
ENDBRANCH  10  11
ENDBRANCH   9  10
ENDBRANCH   8   9
ENDBRANCH   7   8
ENDBRANCH   6   7
ENDBRANCH   5   6
ENDBRANCH   4   5
ENDBRANCH   3   4
ENDBRANCH   2   3
ENDBRANCH   1   2
BRANCH   1  15
ATOM     15  C   UNL     1       1.205  21.747   3.224  1.00  0.00     0.000 C 
BRANCH  15  16
ATOM     16  C   UNL     1       2.639  21.284   2.905  1.00  0.00     0.000 C 
BRANCH  16  17
ATOM     17  C   UNL     1       3.602  21.351   4.109  1.00  0.00     0.000 C 
BRANCH  17  18
ATOM     18  C   UNL     1       5.032  20.899   3.760  1.00  0.00    -0.000 C 
BRANCH  18  19
ATOM     19  C   UNL     1       5.356  21.106   2.264  1.00  0.00    -0.000 C 
BRANCH  19  20
ATOM     20  C   UNL     1       5.585  22.579   1.875  1.00  0.00    -0.000 C 
BRANCH  20  21
ATOM     21  C   UNL     1       6.962  23.146   2.267  1.00  0.00    -0.000 C 
BRANCH  21  22
ATOM     22  C   UNL     1       7.003  24.684   2.241  1.00  0.00    -0.000 C 
BRANCH  22  23
ATOM     23  C   UNL     1       6.912  25.299   3.647  1.00  0.00    -0.000 C 
BRANCH  23  24
ATOM     24  C   UNL     1       6.739  24.243   4.749  1.00  0.00    -0.000 C 
BRANCH  24  25
ATOM     25  C   UNL     1       5.426  24.460   5.511  1.00  0.00    -0.003 C 
ATOM     26  C   UNL     1       4.263  24.681   4.549  1.00  0.00     0.004 C 
ENDBRANCH  24  25
ENDBRANCH  23  24
ENDBRANCH  22  23
ENDBRANCH  21  22
ENDBRANCH  20  21
ENDBRANCH  19  20
ENDBRANCH  18  19
ENDBRANCH  17  18
ENDBRANCH  16  17
ENDBRANCH  15  16
ENDBRANCH   1  15
TORSDOF 22
ENDMDL
MODEL 7
REMARK VINA RESULT:    -1.408      2.539      5.097
REMARK INTER + INTRA:          -4.148
REMARK INTER:                  -4.096
REMARK INTRA:                  -0.052
REMARK UNBOUND:                -0.929
REMARK SMILES CCCCCCCCCCCCCCCCCCCCCCCC(=O)[O-]
REMARK SMILES IDX 13 1 14 2 15 3 16 4 17 5 18 6 19 7 20 8 21 9 22 10 23 11
REMARK SMILES IDX 24 12 25 13 26 14 12 15 11 16 10 17 9 18 8 19 7 20 6 21 5 22
REMARK SMILES IDX 4 23 3 24 2 25 1 26
REMARK H PARENT
REMARK Flexibility Score: inf
ROOT
ATOM      1  C   UNL     1       1.040  22.883   6.258  1.00  0.00     0.000 C 
ENDROOT
BRANCH   1   2
ATOM      2  C   UNL     1       2.389  22.496   5.620  1.00  0.00     0.000 C 
BRANCH   2   3
ATOM      3  C   UNL     1       3.523  22.186   6.618  1.00  0.00     0.000 C 
BRANCH   3   4
ATOM      4  C   UNL     1       4.298  23.433   7.095  1.00  0.00     0.000 C 
BRANCH   4   5
ATOM      5  C   UNL     1       5.811  23.183   7.224  1.00  0.00     0.000 C 
BRANCH   5   6
ATOM      6  C   UNL     1       6.189  21.707   7.025  1.00  0.00     0.000 C 
BRANCH   6   7
ATOM      7  C   UNL     1       6.995  21.468   5.738  1.00  0.00     0.000 C 
BRANCH   7   8
ATOM      8  C   UNL     1       6.895  22.675   4.794  1.00  0.00     0.000 C 
BRANCH   8   9
ATOM      9  C   UNL     1       7.125  22.291   3.322  1.00  0.00     0.000 C 
BRANCH   9  10
ATOM     10  C   UNL     1       6.124  22.974   2.374  1.00  0.00     0.006 C 
BRANCH  10  11
ATOM     11  C   UNL     1       4.876  23.477   3.113  1.00  0.00     0.053 C 
BRANCH  11  12
ATOM     12  C   UNL     1       3.612  23.037   2.442  1.00  0.00     0.041 C 
ATOM     13  O   UNL     1       2.662  23.850   2.289  1.00  0.00    -0.550 OA
ATOM     14  O   UNL     1       3.494  21.741   1.959  1.00  0.00    -0.550 OA
ENDBRANCH  11  12
ENDBRANCH  10  11
ENDBRANCH   9  10
ENDBRANCH   8   9
ENDBRANCH   7   8
ENDBRANCH   6   7
ENDBRANCH   5   6
ENDBRANCH   4   5
ENDBRANCH   3   4
ENDBRANCH   2   3
ENDBRANCH   1   2
BRANCH   1  15
ATOM     15  C   UNL     1       0.405  21.801   7.153  1.00  0.00     0.000 C 
BRANCH  15  16
ATOM     16  C   UNL     1      -1.067  21.470   6.840  1.00  0.00     0.000 C 
BRANCH  16  17
ATOM     17  C   UNL     1      -1.362  21.281   5.337  1.00  0.00     0.000 C 
BRANCH  17  18
ATOM     18  C   UNL     1      -0.334  21.986   4.432  1.00  0.00    -0.000 C 
BRANCH  18  19
ATOM     19  C   UNL     1      -0.990  22.591   3.172  1.00  0.00    -0.000 C 
BRANCH  19  20
ATOM     20  C   UNL     1      -1.531  21.537   2.185  1.00  0.00    -0.000 C 
BRANCH  20  21
ATOM     21  C   UNL     1      -3.035  21.649   1.879  1.00  0.00    -0.000 C 
BRANCH  21  22
ATOM     22  C   UNL     1      -3.908  20.875   2.882  1.00  0.00    -0.000 C 
BRANCH  22  23
ATOM     23  C   UNL     1      -5.403  20.932   2.528  1.00  0.00    -0.000 C 
BRANCH  23  24
ATOM     24  C   UNL     1      -6.165  21.995   3.332  1.00  0.00    -0.000 C 
BRANCH  24  25
ATOM     25  C   UNL     1      -7.568  22.217   2.752  1.00  0.00    -0.003 C 
ATOM     26  C   UNL     1      -8.135  20.923   2.178  1.00  0.00     0.004 C 
ENDBRANCH  24  25
ENDBRANCH  23  24
ENDBRANCH  22  23
ENDBRANCH  21  22
ENDBRANCH  20  21
ENDBRANCH  19  20
ENDBRANCH  18  19
ENDBRANCH  17  18
ENDBRANCH  16  17
ENDBRANCH  15  16
ENDBRANCH   1  15
TORSDOF 22
ENDMDL
MODEL 8
REMARK VINA RESULT:    -1.305      1.809      3.459
REMARK INTER + INTRA:          -3.912
REMARK INTER:                  -3.749
REMARK INTRA:                  -0.163
REMARK UNBOUND:                -0.929
REMARK SMILES CCCCCCCCCCCCCCCCCCCCCCCC(=O)[O-]
REMARK SMILES IDX 13 1 14 2 15 3 16 4 17 5 18 6 19 7 20 8 21 9 22 10 23 11
REMARK SMILES IDX 24 12 25 13 26 14 12 15 11 16 10 17 9 18 8 19 7 20 6 21 5 22
REMARK SMILES IDX 4 23 3 24 2 25 1 26
REMARK H PARENT
REMARK Flexibility Score: inf
ROOT
ATOM      1  C   UNL     1      -1.288  21.800   6.940  1.00  0.00     0.000 C 
ENDROOT
BRANCH   1   2
ATOM      2  C   UNL     1      -0.920  21.073   8.249  1.00  0.00     0.000 C 
BRANCH   2   3
ATOM      3  C   UNL     1       0.583  21.052   8.589  1.00  0.00     0.000 C 
BRANCH   3   4
ATOM      4  C   UNL     1       1.502  21.387   7.393  1.00  0.00     0.000 C 
BRANCH   4   5
ATOM      5  C   UNL     1       1.561  22.895   7.089  1.00  0.00     0.000 C 
BRANCH   5   6
ATOM      6  C   UNL     1       2.743  23.273   6.183  1.00  0.00     0.000 C 
BRANCH   6   7
ATOM      7  C   UNL     1       2.777  22.460   4.880  1.00  0.00     0.000 C 
BRANCH   7   8
ATOM      8  C   UNL     1       3.333  23.300   3.721  1.00  0.00     0.000 C 
BRANCH   8   9
ATOM      9  C   UNL     1       4.032  24.581   4.206  1.00  0.00     0.000 C 
BRANCH   9  10
ATOM     10  C   UNL     1       5.547  24.562   3.936  1.00  0.00     0.006 C 
BRANCH  10  11
ATOM     11  C   UNL     1       6.150  23.163   4.118  1.00  0.00     0.053 C 
BRANCH  11  12
ATOM     12  C   UNL     1       6.527  22.896   5.542  1.00  0.00     0.041 C 
ATOM     13  O   UNL     1       6.331  21.757   6.045  1.00  0.00    -0.550 OA
ATOM     14  O   UNL     1       7.121  23.893   6.305  1.00  0.00    -0.550 OA
ENDBRANCH  11  12
ENDBRANCH  10  11
ENDBRANCH   9  10
ENDBRANCH   8   9
ENDBRANCH   7   8
ENDBRANCH   6   7
ENDBRANCH   5   6
ENDBRANCH   4   5
ENDBRANCH   3   4
ENDBRANCH   2   3
ENDBRANCH   1   2
BRANCH   1  15
ATOM     15  C   UNL     1      -0.739  21.152   5.654  1.00  0.00     0.000 C 
BRANCH  15  16
ATOM     16  C   UNL     1      -1.783  20.894   4.551  1.00  0.00     0.000 C 
BRANCH  16  17
ATOM     17  C   UNL     1      -1.713  21.891   3.375  1.00  0.00     0.000 C 
BRANCH  17  18
ATOM     18  C   UNL     1      -2.363  21.349   2.089  1.00  0.00    -0.000 C 
BRANCH  18  19
ATOM     19  C   UNL     1      -3.842  21.776   1.963  1.00  0.00    -0.000 C 
BRANCH  19  20
ATOM     20  C   UNL     1      -4.817  20.875   2.746  1.00  0.00    -0.000 C 
BRANCH  20  21
ATOM     21  C   UNL     1      -5.765  21.623   3.701  1.00  0.00    -0.000 C 
BRANCH  21  22
ATOM     22  C   UNL     1      -7.088  20.875   3.936  1.00  0.00    -0.000 C 
BRANCH  22  23
ATOM     23  C   UNL     1      -8.318  21.772   3.723  1.00  0.00    -0.000 C 
BRANCH  23  24
ATOM     24  C   UNL     1      -9.617  20.971   3.551  1.00  0.00    -0.000 C 
BRANCH  24  25
ATOM     25  C   UNL     1     -10.653  21.377   4.606  1.00  0.00    -0.003 C 
ATOM     26  C   UNL     1     -10.336  22.753   5.185  1.00  0.00     0.004 C 
ENDBRANCH  24  25
ENDBRANCH  23  24
ENDBRANCH  22  23
ENDBRANCH  21  22
ENDBRANCH  20  21
ENDBRANCH  19  20
ENDBRANCH  18  19
ENDBRANCH  17  18
ENDBRANCH  16  17
ENDBRANCH  15  16
ENDBRANCH   1  15
TORSDOF 22
ENDMDL
