MODEL 1
REMARK VINA RESULT:    -4.599      0.000      0.000
REMARK INTER + INTRA:          -4.733
REMARK INTER:                  -4.733
REMARK INTRA:                   0.000
REMARK UNBOUND:                 0.000
REMARK SMILES O=c1ccc2ccc(O)cc2o1
REMARK SMILES IDX 6 1 7 2 8 3 10 4 11 5 5 6 4 7 3 8 2 9 1 10 12 11 9 12
REMARK H PARENT 9 13
REMARK Flexibility Score: inf
ROOT
ATOM      1  C   UNL     1      11.909  11.884  20.065  1.00  0.00     0.016 A 
ATOM      2  C   UNL     1      10.586  11.877  19.610  1.00  0.00     0.047 A 
ATOM      3  C   UNL     1      10.029  13.030  19.037  1.00  0.00     0.119 A 
ATOM      4  C   UNL     1      10.798  14.194  18.920  1.00  0.00     0.094 A 
ATOM      5  C   UNL     1      12.122  14.211  19.374  1.00  0.00     0.142 A 
ATOM      6  C   UNL     1      12.681  13.048  19.951  1.00  0.00     0.018 A 
ATOM      7  C   UNL     1      14.006  13.096  20.394  1.00  0.00     0.019 A 
ATOM      8  C   UNL     1      14.732  14.278  20.257  1.00  0.00     0.094 A 
ATOM      9  C   UNL     1      14.113  15.391  19.677  1.00  0.00     0.336 A 
ATOM     10  O   UNL     1      14.752  16.467  19.544  1.00  0.00    -0.246 OA
ATOM     11  O   UNL     1      12.850  15.319  19.262  1.00  0.00    -0.423 OA
ENDROOT
BRANCH   3  12
ATOM     12  O   UNL     1       8.713  13.030  18.581  1.00  0.00    -0.508 OA
ATOM     13  H   UNL     1       8.254  12.176  18.286  1.00  0.00     0.293 HD
ENDBRANCH   3  12
TORSDOF 1
ENDMDL
MODEL 2
REMARK VINA RESULT:    -4.396      3.059      4.486
REMARK INTER + INTRA:          -4.525
REMARK INTER:                  -4.525
REMARK INTRA:                   0.000
REMARK UNBOUND:                 0.000
REMARK SMILES O=c1ccc2ccc(O)cc2o1
REMARK SMILES IDX 6 1 7 2 8 3 10 4 11 5 5 6 4 7 3 8 2 9 1 10 12 11 9 12
REMARK H PARENT 9 13
REMARK Flexibility Score: inf
ROOT
ATOM      1  C   UNL     1      13.108  15.317  21.664  1.00  0.00     0.016 A 
ATOM      2  C   UNL     1      13.215  15.424  20.274  1.00  0.00     0.047 A 
ATOM      3  C   UNL     1      12.337  14.714  19.441  1.00  0.00     0.119 A 
ATOM      4  C   UNL     1      11.350  13.895  20.001  1.00  0.00     0.094 A 
ATOM      5  C   UNL     1      11.236  13.782  21.392  1.00  0.00     0.142 A 
ATOM      6  C   UNL     1      12.121  14.497  22.229  1.00  0.00     0.018 A 
ATOM      7  C   UNL     1      11.982  14.365  23.613  1.00  0.00     0.019 A 
ATOM      8  C   UNL     1      10.983  13.537  24.125  1.00  0.00     0.094 A 
ATOM      9  C   UNL     1      10.143  12.858  23.236  1.00  0.00     0.336 A 
ATOM     10  O   UNL     1       9.236  12.107  23.678  1.00  0.00    -0.246 OA
ATOM     11  O   UNL     1      10.296  13.003  21.921  1.00  0.00    -0.423 OA
ENDROOT
BRANCH   3  12
ATOM     12  O   UNL     1      12.438  14.816  18.055  1.00  0.00    -0.508 OA
ATOM     13  H   UNL     1      12.592  14.000  17.473  1.00  0.00     0.293 HD
ENDBRANCH   3  12
TORSDOF 1
ENDMDL
MODEL 3
REMARK VINA RESULT:    -4.311      1.999      2.376
REMARK INTER + INTRA:          -4.437
REMARK INTER:                  -4.437
REMARK INTRA:                   0.000
REMARK UNBOUND:                 0.000
REMARK SMILES O=c1ccc2ccc(O)cc2o1
REMARK SMILES IDX 6 1 7 2 8 3 10 4 11 5 5 6 4 7 3 8 2 9 1 10 12 11 9 12
REMARK H PARENT 9 13
REMARK Flexibility Score: inf
ROOT
ATOM      1  C   UNL     1      12.376  13.920  18.840  1.00  0.00     0.016 A 
ATOM      2  C   UNL     1      11.322  13.038  19.100  1.00  0.00     0.047 A 
ATOM      3  C   UNL     1      10.808  12.915  20.400  1.00  0.00     0.119 A 
ATOM      4  C   UNL     1      11.350  13.677  21.441  1.00  0.00     0.094 A 
ATOM      5  C   UNL     1      12.406  14.561  21.190  1.00  0.00     0.142 A 
ATOM      6  C   UNL     1      12.923  14.683  19.880  1.00  0.00     0.018 A 
ATOM      7  C   UNL     1      13.976  15.574  19.660  1.00  0.00     0.019 A 
ATOM      8  C   UNL     1      14.484  16.312  20.730  1.00  0.00     0.094 A 
ATOM      9  C   UNL     1      13.923  16.139  22.000  1.00  0.00     0.336 A 
ATOM     10  O   UNL     1      14.367  16.795  22.977  1.00  0.00    -0.246 OA
ATOM     11  O   UNL     1      12.919  15.283  22.182  1.00  0.00    -0.423 OA
ENDROOT
BRANCH   3  12
ATOM     12  O   UNL     1       9.757  12.040  20.667  1.00  0.00    -0.508 OA
ATOM     13  H   UNL     1       8.790  12.336  20.600  1.00  0.00     0.293 HD
ENDBRANCH   3  12
TORSDOF 1
ENDMDL
MODEL 4
REMARK VINA RESULT:    -4.288      2.087      4.895
REMARK INTER + INTRA:          -4.414
REMARK INTER:                  -4.414
REMARK INTRA:                   0.000
REMARK UNBOUND:                 0.000
REMARK SMILES O=c1ccc2ccc(O)cc2o1
REMARK SMILES IDX 6 1 7 2 8 3 10 4 11 5 5 6 4 7 3 8 2 9 1 10 12 11 9 12
REMARK H PARENT 9 13
REMARK Flexibility Score: inf
ROOT
ATOM      1  C   UNL     1      14.501  16.006  19.656  1.00  0.00     0.016 A 
ATOM      2  C   UNL     1      15.067  16.659  20.756  1.00  0.00     0.047 A 
ATOM      3  C   UNL     1      14.522  16.488  22.038  1.00  0.00     0.119 A 
ATOM      4  C   UNL     1      13.406  15.661  22.218  1.00  0.00     0.094 A 
ATOM      5  C   UNL     1      12.832  15.005  21.124  1.00  0.00     0.142 A 
ATOM      6  C   UNL     1      13.383  15.179  19.834  1.00  0.00     0.018 A 
ATOM      7  C   UNL     1      12.789  14.509  18.760  1.00  0.00     0.019 A 
ATOM      8  C   UNL     1      11.679  13.697  18.990  1.00  0.00     0.094 A 
ATOM      9  C   UNL     1      11.187  13.573  20.294  1.00  0.00     0.336 A 
ATOM     10  O   UNL     1      10.187  12.845  20.521  1.00  0.00    -0.246 OA
ATOM     11  O   UNL     1      11.772  14.221  21.299  1.00  0.00    -0.423 OA
ENDROOT
BRANCH   3  12
ATOM     12  O   UNL     1      15.081  17.134  23.137  1.00  0.00    -0.508 OA
ATOM     13  H   UNL     1      16.076  17.097  23.325  1.00  0.00     0.293 HD
ENDBRANCH   3  12
TORSDOF 1
ENDMDL
MODEL 5
REMARK VINA RESULT:    -4.212      2.879      3.044
REMARK INTER + INTRA:          -4.335
REMARK INTER:                  -4.335
REMARK INTRA:                   0.000
REMARK UNBOUND:                 0.000
REMARK SMILES O=c1ccc2ccc(O)cc2o1
REMARK SMILES IDX 6 1 7 2 8 3 10 4 11 5 5 6 4 7 3 8 2 9 1 10 12 11 9 12
REMARK H PARENT 9 13
REMARK Flexibility Score: inf
ROOT
ATOM      1  C   UNL     1      11.438  13.420  22.109  1.00  0.00     0.016 A 
ATOM      2  C   UNL     1      11.008  13.319  20.782  1.00  0.00     0.047 A 
ATOM      3  C   UNL     1      11.460  14.236  19.821  1.00  0.00     0.119 A 
ATOM      4  C   UNL     1      12.345  15.256  20.189  1.00  0.00     0.094 A 
ATOM      5  C   UNL     1      12.779  15.366  21.515  1.00  0.00     0.142 A 
ATOM      6  C   UNL     1      12.322  14.441  22.482  1.00  0.00     0.018 A 
ATOM      7  C   UNL     1      12.774  14.576  23.797  1.00  0.00     0.019 A 
ATOM      8  C   UNL     1      13.655  15.609  24.117  1.00  0.00     0.094 A 
ATOM      9  C   UNL     1      14.065  16.488  23.108  1.00  0.00     0.336 A 
ATOM     10  O   UNL     1      14.859  17.426  23.376  1.00  0.00    -0.246 OA
ATOM     11  O   UNL     1      13.619  16.337  21.862  1.00  0.00    -0.423 OA
ENDROOT
BRANCH   3  12
ATOM     12  O   UNL     1      11.037  14.141  18.497  1.00  0.00    -0.508 OA
ATOM     13  H   UNL     1      11.187  13.300  17.952  1.00  0.00     0.293 HD
ENDBRANCH   3  12
TORSDOF 1
ENDMDL
MODEL 6
REMARK VINA RESULT:    -4.197      1.517      4.405
REMARK INTER + INTRA:          -4.320
REMARK INTER:                  -4.320
REMARK INTRA:                   0.000
REMARK UNBOUND:                 0.000
REMARK SMILES O=c1ccc2ccc(O)cc2o1
REMARK SMILES IDX 6 1 7 2 8 3 10 4 11 5 5 6 4 7 3 8 2 9 1 10 12 11 9 12
REMARK H PARENT 9 13
REMARK Flexibility Score: inf
ROOT
ATOM      1  C   UNL     1      12.949  14.762  22.005  1.00  0.00     0.016 A 
ATOM      2  C   UNL     1      13.915  15.647  21.516  1.00  0.00     0.047 A 
ATOM      3  C   UNL     1      14.040  15.865  20.135  1.00  0.00     0.119 A 
ATOM      4  C   UNL     1      13.195  15.195  19.242  1.00  0.00     0.094 A 
ATOM      5  C   UNL     1      12.226  14.307  19.723  1.00  0.00     0.142 A 
ATOM      6  C   UNL     1      12.103  14.089  21.114  1.00  0.00     0.018 A 
ATOM      7  C   UNL     1      11.125  13.197  21.564  1.00  0.00     0.019 A 
ATOM      8  C   UNL     1      10.307  12.552  20.636  1.00  0.00     0.094 A 
ATOM      9  C   UNL     1      10.487  12.817  19.274  1.00  0.00     0.336 A 
ATOM     10  O   UNL     1       9.759  12.245  18.422  1.00  0.00    -0.246 OA
ATOM     11  O   UNL     1      11.425  13.671  18.872  1.00  0.00    -0.423 OA
ENDROOT
BRANCH   3  12
ATOM     12  O   UNL     1      14.999  16.746  19.641  1.00  0.00    -0.508 OA
ATOM     13  H   UNL     1      15.597  16.495  18.862  1.00  0.00     0.293 HD
ENDBRANCH   3  12
TORSDOF 1
ENDMDL
MODEL 7
REMARK VINA RESULT:    -3.893      2.530      4.432
REMARK INTER + INTRA:          -4.007
REMARK INTER:                  -4.007
REMARK INTRA:                   0.000
REMARK UNBOUND:                 0.000
REMARK SMILES O=c1ccc2ccc(O)cc2o1
REMARK SMILES IDX 6 1 7 2 8 3 10 4 11 5 5 6 4 7 3 8 2 9 1 10 12 11 9 12
REMARK H PARENT 9 13
REMARK Flexibility Score: inf
ROOT
ATOM      1  C   UNL     1      11.896  13.902  18.991  1.00  0.00     0.016 A 
ATOM      2  C   UNL     1      12.899  14.852  18.768  1.00  0.00     0.047 A 
ATOM      3  C   UNL     1      13.538  15.472  19.852  1.00  0.00     0.119 A 
ATOM      4  C   UNL     1      13.173  15.142  21.162  1.00  0.00     0.094 A 
ATOM      5  C   UNL     1      12.170  14.193  21.395  1.00  0.00     0.142 A 
ATOM      6  C   UNL     1      11.527  13.570  20.301  1.00  0.00     0.018 A 
ATOM      7  C   UNL     1      10.530  12.626  20.565  1.00  0.00     0.019 A 
ATOM      8  C   UNL     1      10.200  12.330  21.888  1.00  0.00     0.094 A 
ATOM      9  C   UNL     1      10.879  12.987  22.920  1.00  0.00     0.336 A 
ATOM     10  O   UNL     1      10.596  12.734  24.119  1.00  0.00    -0.246 OA
ATOM     11  O   UNL     1      11.825  13.882  22.641  1.00  0.00    -0.423 OA
ENDROOT
BRANCH   3  12
ATOM     12  O   UNL     1      14.538  16.418  19.638  1.00  0.00    -0.508 OA
ATOM     13  H   UNL     1      14.819  16.690  18.702  1.00  0.00     0.293 HD
ENDBRANCH   3  12
TORSDOF 1
ENDMDL
MODEL 8
REMARK VINA RESULT:    -3.628      2.273      2.644
REMARK INTER + INTRA:          -3.734
REMARK INTER:                  -3.734
REMARK INTRA:                   0.000
REMARK UNBOUND:                 0.000
REMARK SMILES O=c1ccc2ccc(O)cc2o1
REMARK SMILES IDX 6 1 7 2 8 3 10 4 11 5 5 6 4 7 3 8 2 9 1 10 12 11 9 12
REMARK H PARENT 9 13
REMARK Flexibility Score: inf
ROOT
ATOM      1  C   UNL     1      10.794  12.617  20.050  1.00  0.00     0.016 A 
ATOM      2  C   UNL     1      10.236  12.030  21.191  1.00  0.00     0.047 A 
ATOM      3  C   UNL     1      10.632  12.454  22.469  1.00  0.00     0.119 A 
ATOM      4  C   UNL     1      11.588  13.468  22.605  1.00  0.00     0.094 A 
ATOM      5  C   UNL     1      12.151  14.060  21.468  1.00  0.00     0.142 A 
ATOM      6  C   UNL     1      11.752  13.631  20.182  1.00  0.00     0.018 A 
ATOM      7  C   UNL     1      12.332  14.242  19.067  1.00  0.00     0.019 A 
ATOM      8  C   UNL     1      13.280  15.247  19.252  1.00  0.00     0.094 A 
ATOM      9  C   UNL     1      13.628  15.620  20.555  1.00  0.00     0.336 A 
ATOM     10  O   UNL     1      14.481  16.525  20.743  1.00  0.00    -0.246 OA
ATOM     11  O   UNL     1      13.060  15.023  21.601  1.00  0.00    -0.423 OA
ENDROOT
BRANCH   3  12
ATOM     12  O   UNL     1      10.081  11.875  23.609  1.00  0.00    -0.508 OA
ATOM     13  H   UNL     1      10.418  12.106  24.537  1.00  0.00     0.293 HD
ENDBRANCH   3  12
TORSDOF 1
ENDMDL
MODEL 9
REMARK VINA RESULT:    -3.398      2.474      3.115
REMARK INTER + INTRA:          -3.497
REMARK INTER:                  -3.497
REMARK INTRA:                   0.000
REMARK UNBOUND:                 0.000
REMARK SMILES O=c1ccc2ccc(O)cc2o1
REMARK SMILES IDX 6 1 7 2 8 3 10 4 11 5 5 6 4 7 3 8 2 9 1 10 12 11 9 12
REMARK H PARENT 9 13
REMARK Flexibility Score: inf
ROOT
ATOM      1  C   UNL     1      11.709  14.578  19.533  1.00  0.00     0.016 A 
ATOM      2  C   UNL     1      10.557  14.110  18.893  1.00  0.00     0.047 A 
ATOM      3  C   UNL     1       9.893  12.972  19.376  1.00  0.00     0.119 A 
ATOM      4  C   UNL     1      10.383  12.302  20.504  1.00  0.00     0.094 A 
ATOM      5  C   UNL     1      11.536  12.764  21.150  1.00  0.00     0.142 A 
ATOM      6  C   UNL     1      12.203  13.909  20.661  1.00  0.00     0.018 A 
ATOM      7  C   UNL     1      13.351  14.347  21.328  1.00  0.00     0.019 A 
ATOM      8  C   UNL     1      13.802  13.646  22.447  1.00  0.00     0.094 A 
ATOM      9  C   UNL     1      13.090  12.520  22.874  1.00  0.00     0.336 A 
ATOM     10  O   UNL     1      13.480  11.875  23.881  1.00  0.00    -0.246 OA
ATOM     11  O   UNL     1      11.999  12.125  22.221  1.00  0.00    -0.423 OA
ENDROOT
BRANCH   3  12
ATOM     12  O   UNL     1       8.745  12.500  18.745  1.00  0.00    -0.508 OA
ATOM     13  H   UNL     1       8.725  11.596  18.286  1.00  0.00     0.293 HD
ENDBRANCH   3  12
TORSDOF 1
ENDMDL
