MODEL 1
REMARK VINA RESULT:    -4.912      0.000      0.000
REMARK INTER + INTRA:          -9.159
REMARK INTER:                  -8.358
REMARK INTRA:                  -0.801
REMARK UNBOUND:                -0.801
REMARK SMILES CCCCCCCCCCCCCC(=O)[O-]
REMARK SMILES IDX 8 1 9 2 10 3 11 4 12 5 13 6 14 7 15 8 16 9 7 10 6 11 5 12
REMARK SMILES IDX 4 13 3 14 2 15 1 16
REMARK H PARENT
REMARK Flexibility Score: inf
ROOT
ATOM      1  C   UNL     1     -20.302  -4.995  23.414  1.00  0.00     0.000 C 
ENDROOT
BRANCH   1   2
ATOM      2  C   UNL     1     -19.028  -5.326  22.619  1.00  0.00     0.000 C 
BRANCH   2   3
ATOM      3  C   UNL     1     -18.105  -4.099  22.460  1.00  0.00     0.000 C 
BRANCH   3   4
ATOM      4  C   UNL     1     -16.607  -4.442  22.532  1.00  0.00     0.000 C 
BRANCH   4   5
ATOM      5  C   UNL     1     -16.332  -5.948  22.425  1.00  0.00     0.006 C 
BRANCH   5   6
ATOM      6  C   UNL     1     -15.253  -6.236  21.377  1.00  0.00     0.053 C 
BRANCH   6   7
ATOM      7  C   UNL     1     -15.876  -6.510  20.046  1.00  0.00     0.041 C 
ATOM      8  O   UNL     1     -15.152  -6.689  19.031  1.00  0.00    -0.550 OA
ATOM      9  O   UNL     1     -17.257  -6.619  19.933  1.00  0.00    -0.550 OA
ENDBRANCH   6   7
ENDBRANCH   5   6
ENDBRANCH   4   5
ENDBRANCH   3   4
ENDBRANCH   2   3
ENDBRANCH   1   2
BRANCH   1  10
ATOM     10  C   UNL     1     -21.029  -6.252  23.919  1.00  0.00     0.000 C 
BRANCH  10  11
ATOM     11  C   UNL     1     -22.350  -5.927  24.632  1.00  0.00    -0.000 C 
BRANCH  11  12
ATOM     12  C   UNL     1     -22.457  -6.687  25.961  1.00  0.00    -0.000 C 
BRANCH  12  13
ATOM     13  C   UNL     1     -22.898  -5.786  27.125  1.00  0.00    -0.000 C 
BRANCH  13  14
ATOM     14  C   UNL     1     -22.575  -4.302  26.880  1.00  0.00    -0.000 C 
BRANCH  14  15
ATOM     15  C   UNL     1     -23.810  -3.399  27.019  1.00  0.00    -0.003 C 
ATOM     16  C   UNL     1     -25.040  -3.968  26.311  1.00  0.00     0.004 C 
ENDBRANCH  14  15
ENDBRANCH  13  14
ENDBRANCH  12  13
ENDBRANCH  11  12
ENDBRANCH  10  11
ENDBRANCH   1  10
TORSDOF 12
ENDMDL
MODEL 2
REMARK VINA RESULT:    -4.835     15.872     17.631
REMARK INTER + INTRA:          -9.027
REMARK INTER:                  -7.355
REMARK INTRA:                  -1.672
REMARK UNBOUND:                -0.801
REMARK SMILES CCCCCCCCCCCCCC(=O)[O-]
REMARK SMILES IDX 8 1 9 2 10 3 11 4 12 5 13 6 14 7 15 8 16 9 7 10 6 11 5 12
REMARK SMILES IDX 4 13 3 14 2 15 1 16
REMARK H PARENT
REMARK Flexibility Score: inf
ROOT
ATOM      1  C   UNL     1     -16.575   9.741  29.551  1.00  0.00     0.000 C 
ENDROOT
BRANCH   1   2
ATOM      2  C   UNL     1     -17.591   9.189  30.566  1.00  0.00     0.000 C 
BRANCH   2   3
ATOM      3  C   UNL     1     -17.064   9.260  32.015  1.00  0.00     0.000 C 
BRANCH   3   4
ATOM      4  C   UNL     1     -15.576   9.640  32.110  1.00  0.00     0.000 C 
BRANCH   4   5
ATOM      5  C   UNL     1     -14.669   8.440  32.410  1.00  0.00     0.006 C 
BRANCH   5   6
ATOM      6  C   UNL     1     -13.915   7.992  31.154  1.00  0.00     0.053 C 
BRANCH   6   7
ATOM      7  C   UNL     1     -14.580   6.801  30.541  1.00  0.00     0.041 C 
ATOM      8  O   UNL     1     -14.200   6.369  29.421  1.00  0.00    -0.550 OA
ATOM      9  O   UNL     1     -15.586   6.135  31.231  1.00  0.00    -0.550 OA
ENDBRANCH   6   7
ENDBRANCH   5   6
ENDBRANCH   4   5
ENDBRANCH   3   4
ENDBRANCH   2   3
ENDBRANCH   1   2
BRANCH   1  10
ATOM     10  C   UNL     1     -17.087  10.992  28.819  1.00  0.00     0.000 C 
BRANCH  10  11
ATOM     11  C   UNL     1     -15.970  12.001  28.517  1.00  0.00    -0.000 C 
BRANCH  11  12
ATOM     12  C   UNL     1     -14.664  11.600  29.218  1.00  0.00    -0.000 C 
BRANCH  12  13
ATOM     13  C   UNL     1     -13.521  11.327  28.229  1.00  0.00    -0.000 C 
BRANCH  13  14
ATOM     14  C   UNL     1     -13.156   9.835  28.144  1.00  0.00    -0.000 C 
BRANCH  14  15
ATOM     15  C   UNL     1     -13.394   9.249  26.743  1.00  0.00    -0.003 C 
ATOM     16  C   UNL     1     -13.594  10.328  25.679  1.00  0.00     0.004 C 
ENDBRANCH  14  15
ENDBRANCH  13  14
ENDBRANCH  12  13
ENDBRANCH  11  12
ENDBRANCH  10  11
ENDBRANCH   1  10
TORSDOF 12
ENDMDL
MODEL 3
REMARK VINA RESULT:    -4.832      1.417      2.885
REMARK INTER + INTRA:          -9.023
REMARK INTER:                  -7.933
REMARK INTRA:                  -1.090
REMARK UNBOUND:                -0.801
REMARK SMILES CCCCCCCCCCCCCC(=O)[O-]
REMARK SMILES IDX 8 1 9 2 10 3 11 4 12 5 13 6 14 7 15 8 16 9 7 10 6 11 5 12
REMARK SMILES IDX 4 13 3 14 2 15 1 16
REMARK H PARENT
REMARK Flexibility Score: inf
ROOT
ATOM      1  C   UNL     1     -18.134  -4.381  22.526  1.00  0.00     0.000 C 
ENDROOT
BRANCH   1   2
ATOM      2  C   UNL     1     -16.611  -4.539  22.375  1.00  0.00     0.000 C 
BRANCH   2   3
ATOM      3  C   UNL     1     -16.158  -6.004  22.548  1.00  0.00     0.000 C 
BRANCH   3   4
ATOM      4  C   UNL     1     -15.111  -6.450  21.512  1.00  0.00     0.000 C 
BRANCH   4   5
ATOM      5  C   UNL     1     -15.727  -6.805  20.152  1.00  0.00     0.006 C 
BRANCH   5   6
ATOM      6  C   UNL     1     -15.179  -5.896  19.047  1.00  0.00     0.053 C 
BRANCH   6   7
ATOM      7  C   UNL     1     -16.196  -4.871  18.660  1.00  0.00     0.041 C 
ATOM      8  O   UNL     1     -17.404  -5.022  18.984  1.00  0.00    -0.550 OA
ATOM      9  O   UNL     1     -15.803  -3.721  17.987  1.00  0.00    -0.550 OA
ENDBRANCH   6   7
ENDBRANCH   5   6
ENDBRANCH   4   5
ENDBRANCH   3   4
ENDBRANCH   2   3
ENDBRANCH   1   2
BRANCH   1  10
ATOM     10  C   UNL     1     -18.895  -5.688  22.251  1.00  0.00     0.000 C 
BRANCH  10  11
ATOM     11  C   UNL     1     -20.176  -5.816  23.089  1.00  0.00    -0.000 C 
BRANCH  11  12
ATOM     12  C   UNL     1     -20.451  -4.523  23.870  1.00  0.00    -0.000 C 
BRANCH  12  13
ATOM     13  C   UNL     1     -21.740  -4.597  24.702  1.00  0.00    -0.000 C 
BRANCH  13  14
ATOM     14  C   UNL     1     -22.444  -5.960  24.583  1.00  0.00    -0.000 C 
BRANCH  14  15
ATOM     15  C   UNL     1     -22.515  -6.706  25.924  1.00  0.00    -0.003 C 
ATOM     16  C   UNL     1     -22.760  -5.771  27.108  1.00  0.00     0.004 C 
ENDBRANCH  14  15
ENDBRANCH  13  14
ENDBRANCH  12  13
ENDBRANCH  11  12
ENDBRANCH  10  11
ENDBRANCH   1  10
TORSDOF 12
ENDMDL
MODEL 4
REMARK VINA RESULT:    -4.828      2.933      5.742
REMARK INTER + INTRA:          -9.015
REMARK INTER:                  -7.731
REMARK INTRA:                  -1.284
REMARK UNBOUND:                -0.801
REMARK SMILES CCCCCCCCCCCCCC(=O)[O-]
REMARK SMILES IDX 8 1 9 2 10 3 11 4 12 5 13 6 14 7 15 8 16 9 7 10 6 11 5 12
REMARK SMILES IDX 4 13 3 14 2 15 1 16
REMARK H PARENT
REMARK Flexibility Score: inf
ROOT
ATOM      1  C   UNL     1     -15.063  -5.841  20.250  1.00  0.00     0.000 C 
ENDROOT
BRANCH   1   2
ATOM      2  C   UNL     1     -15.327  -6.710  19.008  1.00  0.00     0.000 C 
BRANCH   2   3
ATOM      3  C   UNL     1     -16.672  -6.365  18.333  1.00  0.00     0.000 C 
BRANCH   3   4
ATOM      4  C   UNL     1     -16.911  -4.854  18.175  1.00  0.00     0.000 C 
BRANCH   4   5
ATOM      5  C   UNL     1     -16.610  -4.344  16.760  1.00  0.00     0.006 C 
BRANCH   5   6
ATOM      6  C   UNL     1     -15.219  -3.706  16.690  1.00  0.00     0.053 C 
BRANCH   6   7
ATOM      7  C   UNL     1     -14.254  -4.626  16.013  1.00  0.00     0.041 C 
ATOM      8  O   UNL     1     -13.241  -5.047  16.630  1.00  0.00    -0.550 OA
ATOM      9  O   UNL     1     -14.500  -5.060  14.716  1.00  0.00    -0.550 OA
ENDBRANCH   6   7
ENDBRANCH   5   6
ENDBRANCH   4   5
ENDBRANCH   3   4
ENDBRANCH   2   3
ENDBRANCH   1   2
BRANCH   1  10
ATOM     10  C   UNL     1     -15.140  -6.641  21.561  1.00  0.00     0.000 C 
BRANCH  10  11
ATOM     11  C   UNL     1     -16.157  -6.056  22.552  1.00  0.00    -0.000 C 
BRANCH  11  12
ATOM     12  C   UNL     1     -16.544  -4.623  22.159  1.00  0.00    -0.000 C 
BRANCH  12  13
ATOM     13  C   UNL     1     -18.045  -4.476  21.862  1.00  0.00    -0.000 C 
BRANCH  13  14
ATOM     14  C   UNL     1     -18.885  -5.604  22.486  1.00  0.00    -0.000 C 
BRANCH  14  15
ATOM     15  C   UNL     1     -20.038  -5.071  23.350  1.00  0.00    -0.003 C 
ATOM     16  C   UNL     1     -21.017  -6.167  23.770  1.00  0.00     0.004 C 
ENDBRANCH  14  15
ENDBRANCH  13  14
ENDBRANCH  12  13
ENDBRANCH  11  12
ENDBRANCH  10  11
ENDBRANCH   1  10
TORSDOF 12
ENDMDL
MODEL 5
REMARK VINA RESULT:    -4.675     15.191     16.708
REMARK INTER + INTRA:          -8.755
REMARK INTER:                  -7.044
REMARK INTRA:                  -1.711
REMARK UNBOUND:                -0.801
REMARK SMILES CCCCCCCCCCCCCC(=O)[O-]
REMARK SMILES IDX 8 1 9 2 10 3 11 4 12 5 13 6 14 7 15 8 16 9 7 10 6 11 5 12
REMARK SMILES IDX 4 13 3 14 2 15 1 16
REMARK H PARENT
REMARK Flexibility Score: inf
ROOT
ATOM      1  C   UNL     1     -15.220  10.355  30.407  1.00  0.00     0.000 C 
ENDROOT
BRANCH   1   2
ATOM      2  C   UNL     1     -15.021  10.441  31.930  1.00  0.00     0.000 C 
BRANCH   2   3
ATOM      3  C   UNL     1     -14.658   9.074  32.547  1.00  0.00     0.000 C 
BRANCH   3   4
ATOM      4  C   UNL     1     -13.942   8.128  31.568  1.00  0.00     0.000 C 
BRANCH   4   5
ATOM      5  C   UNL     1     -14.750   6.860  31.260  1.00  0.00     0.006 C 
BRANCH   5   6
ATOM      6  C   UNL     1     -14.672   6.506  29.772  1.00  0.00     0.053 C 
BRANCH   6   7
ATOM      7  C   UNL     1     -14.633   5.023  29.588  1.00  0.00     0.041 C 
ATOM      8  O   UNL     1     -13.915   4.514  28.686  1.00  0.00    -0.550 OA
ATOM      9  O   UNL     1     -15.350   4.197  30.444  1.00  0.00    -0.550 OA
ENDBRANCH   6   7
ENDBRANCH   5   6
ENDBRANCH   4   5
ENDBRANCH   3   4
ENDBRANCH   2   3
ENDBRANCH   1   2
BRANCH   1  10
ATOM     10  C   UNL     1     -14.693  11.596  29.669  1.00  0.00     0.000 C 
BRANCH  10  11
ATOM     11  C   UNL     1     -13.985  11.247  28.352  1.00  0.00    -0.000 C 
BRANCH  11  12
ATOM     12  C   UNL     1     -13.302   9.875  28.444  1.00  0.00    -0.000 C 
BRANCH  12  13
ATOM     13  C   UNL     1     -13.547   9.007  27.200  1.00  0.00    -0.000 C 
BRANCH  13  14
ATOM     14  C   UNL     1     -14.861   9.359  26.482  1.00  0.00    -0.000 C 
BRANCH  14  15
ATOM     15  C   UNL     1     -15.970   8.329  26.745  1.00  0.00    -0.003 C 
ATOM     16  C   UNL     1     -17.117   8.897  27.581  1.00  0.00     0.004 C 
ENDBRANCH  14  15
ENDBRANCH  13  14
ENDBRANCH  12  13
ENDBRANCH  11  12
ENDBRANCH  10  11
ENDBRANCH   1  10
TORSDOF 12
ENDMDL
MODEL 6
REMARK VINA RESULT:    -4.673      1.278      2.018
REMARK INTER + INTRA:          -8.752
REMARK INTER:                  -7.557
REMARK INTRA:                  -1.195
REMARK UNBOUND:                -0.801
REMARK SMILES CCCCCCCCCCCCCC(=O)[O-]
REMARK SMILES IDX 8 1 9 2 10 3 11 4 12 5 13 6 14 7 15 8 16 9 7 10 6 11 5 12
REMARK SMILES IDX 4 13 3 14 2 15 1 16
REMARK H PARENT
REMARK Flexibility Score: inf
ROOT
ATOM      1  C   UNL     1     -22.062  -5.249  23.268  1.00  0.00     0.000 C 
ENDROOT
BRANCH   1   2
ATOM      2  C   UNL     1     -20.692  -5.844  23.636  1.00  0.00     0.000 C 
BRANCH   2   3
ATOM      3  C   UNL     1     -19.624  -5.554  22.561  1.00  0.00     0.000 C 
BRANCH   3   4
ATOM      4  C   UNL     1     -18.799  -4.285  22.840  1.00  0.00     0.000 C 
BRANCH   4   5
ATOM      5  C   UNL     1     -17.334  -4.414  22.402  1.00  0.00     0.006 C 
BRANCH   5   6
ATOM      6  C   UNL     1     -16.900  -5.883  22.361  1.00  0.00     0.053 C 
BRANCH   6   7
ATOM      7  C   UNL     1     -16.109  -6.161  21.123  1.00  0.00     0.041 C 
ATOM      8  O   UNL     1     -14.858  -6.289  21.186  1.00  0.00    -0.550 OA
ATOM      9  O   UNL     1     -16.758  -6.330  19.907  1.00  0.00    -0.550 OA
ENDBRANCH   6   7
ENDBRANCH   5   6
ENDBRANCH   4   5
ENDBRANCH   3   4
ENDBRANCH   2   3
ENDBRANCH   1   2
BRANCH   1  10
ATOM     10  C   UNL     1     -23.208  -5.831  24.112  1.00  0.00     0.000 C 
BRANCH  10  11
ATOM     11  C   UNL     1     -22.722  -6.421  25.444  1.00  0.00    -0.000 C 
BRANCH  11  12
ATOM     12  C   UNL     1     -23.441  -5.761  26.630  1.00  0.00    -0.000 C 
BRANCH  12  13
ATOM     13  C   UNL     1     -22.631  -4.611  27.248  1.00  0.00    -0.000 C 
BRANCH  13  14
ATOM     14  C   UNL     1     -23.101  -3.229  26.762  1.00  0.00    -0.000 C 
BRANCH  14  15
ATOM     15  C   UNL     1     -21.943  -2.228  26.624  1.00  0.00    -0.003 C 
ATOM     16  C   UNL     1     -21.107  -2.463  25.366  1.00  0.00     0.004 C 
ENDBRANCH  14  15
ENDBRANCH  13  14
ENDBRANCH  12  13
ENDBRANCH  11  12
ENDBRANCH  10  11
ENDBRANCH   1  10
TORSDOF 12
ENDMDL
MODEL 7
REMARK VINA RESULT:    -4.655      4.538      8.411
REMARK INTER + INTRA:          -8.722
REMARK INTER:                  -7.023
REMARK INTRA:                  -1.699
REMARK UNBOUND:                -0.801
REMARK SMILES CCCCCCCCCCCCCC(=O)[O-]
REMARK SMILES IDX 8 1 9 2 10 3 11 4 12 5 13 6 14 7 15 8 16 9 7 10 6 11 5 12
REMARK SMILES IDX 4 13 3 14 2 15 1 16
REMARK H PARENT
REMARK Flexibility Score: inf
ROOT
ATOM      1  C   UNL     1     -17.056  -5.821  18.370  1.00  0.00     0.000 C 
ENDROOT
BRANCH   1   2
ATOM      2  C   UNL     1     -15.828  -6.603  18.867  1.00  0.00     0.000 C 
BRANCH   2   3
ATOM      3  C   UNL     1     -15.104  -5.878  20.022  1.00  0.00     0.000 C 
BRANCH   3   4
ATOM      4  C   UNL     1     -14.854  -6.773  21.248  1.00  0.00     0.000 C 
BRANCH   4   5
ATOM      5  C   UNL     1     -15.775  -6.442  22.430  1.00  0.00     0.006 C 
BRANCH   5   6
ATOM      6  C   UNL     1     -16.481  -5.099  22.217  1.00  0.00     0.053 C 
BRANCH   6   7
ATOM      7  C   UNL     1     -17.965  -5.275  22.258  1.00  0.00     0.041 C 
ATOM      8  O   UNL     1     -18.511  -6.206  21.609  1.00  0.00    -0.550 OA
ATOM      9  O   UNL     1     -18.742  -4.443  23.054  1.00  0.00    -0.550 OA
ENDBRANCH   6   7
ENDBRANCH   5   6
ENDBRANCH   4   5
ENDBRANCH   3   4
ENDBRANCH   2   3
ENDBRANCH   1   2
BRANCH   1  10
ATOM     10  C   UNL     1     -16.933  -5.396  16.898  1.00  0.00     0.000 C 
BRANCH  10  11
ATOM     11  C   UNL     1     -15.638  -5.896  16.242  1.00  0.00    -0.000 C 
BRANCH  11  12
ATOM     12  C   UNL     1     -14.778  -4.719  15.759  1.00  0.00    -0.000 C 
BRANCH  12  13
ATOM     13  C   UNL     1     -14.016  -4.034  16.903  1.00  0.00    -0.000 C 
BRANCH  13  14
ATOM     14  C   UNL     1     -14.584  -2.645  17.245  1.00  0.00    -0.000 C 
BRANCH  14  15
ATOM     15  C   UNL     1     -14.359  -2.262  18.715  1.00  0.00    -0.003 C 
ATOM     16  C   UNL     1     -15.618  -2.422  19.567  1.00  0.00     0.004 C 
ENDBRANCH  14  15
ENDBRANCH  13  14
ENDBRANCH  12  13
ENDBRANCH  11  12
ENDBRANCH  10  11
ENDBRANCH   1  10
TORSDOF 12
ENDMDL
MODEL 8
REMARK VINA RESULT:    -4.646      3.872      8.246
REMARK INTER + INTRA:          -8.706
REMARK INTER:                  -7.580
REMARK INTRA:                  -1.126
REMARK UNBOUND:                -0.801
REMARK SMILES CCCCCCCCCCCCCC(=O)[O-]
REMARK SMILES IDX 8 1 9 2 10 3 11 4 12 5 13 6 14 7 15 8 16 9 7 10 6 11 5 12
REMARK SMILES IDX 4 13 3 14 2 15 1 16
REMARK H PARENT
REMARK Flexibility Score: inf
ROOT
ATOM      1  C   UNL     1     -18.110  -4.601  22.371  1.00  0.00     0.000 C 
ENDROOT
BRANCH   1   2
ATOM      2  C   UNL     1     -18.774  -5.927  21.963  1.00  0.00     0.000 C 
BRANCH   2   3
ATOM      3  C   UNL     1     -19.838  -6.384  22.983  1.00  0.00     0.000 C 
BRANCH   3   4
ATOM      4  C   UNL     1     -20.684  -5.230  23.547  1.00  0.00     0.000 C 
BRANCH   4   5
ATOM      5  C   UNL     1     -22.016  -5.701  24.147  1.00  0.00     0.006 C 
BRANCH   5   6
ATOM      6  C   UNL     1     -22.295  -5.003  25.481  1.00  0.00     0.053 C 
BRANCH   6   7
ATOM      7  C   UNL     1     -23.295  -5.777  26.278  1.00  0.00     0.041 C 
ATOM      8  O   UNL     1     -24.490  -5.860  25.889  1.00  0.00    -0.550 OA
ATOM      9  O   UNL     1     -22.898  -6.453  27.426  1.00  0.00    -0.550 OA
ENDBRANCH   6   7
ENDBRANCH   5   6
ENDBRANCH   4   5
ENDBRANCH   3   4
ENDBRANCH   2   3
ENDBRANCH   1   2
BRANCH   1  10
ATOM     10  C   UNL     1     -16.592  -4.734  22.572  1.00  0.00     0.000 C 
BRANCH  10  11
ATOM     11  C   UNL     1     -16.125  -6.196  22.608  1.00  0.00    -0.000 C 
BRANCH  11  12
ATOM     12  C   UNL     1     -15.034  -6.449  21.557  1.00  0.00    -0.000 C 
BRANCH  12  13
ATOM     13  C   UNL     1     -15.611  -6.841  20.188  1.00  0.00    -0.000 C 
BRANCH  13  14
ATOM     14  C   UNL     1     -15.148  -5.903  19.059  1.00  0.00    -0.000 C 
BRANCH  14  15
ATOM     15  C   UNL     1     -15.996  -4.626  18.969  1.00  0.00    -0.003 C 
ATOM     16  C   UNL     1     -15.237  -3.379  19.425  1.00  0.00     0.004 C 
ENDBRANCH  14  15
ENDBRANCH  13  14
ENDBRANCH  12  13
ENDBRANCH  11  12
ENDBRANCH  10  11
ENDBRANCH   1  10
TORSDOF 12
ENDMDL
MODEL 9
REMARK VINA RESULT:    -3.393     15.858     17.139
REMARK INTER + INTRA:          -6.574
REMARK INTER:                  -4.511
REMARK INTRA:                  -2.063
REMARK UNBOUND:                -0.801
REMARK SMILES CCCCCCCCCCCCCC(=O)[O-]
REMARK SMILES IDX 8 1 9 2 10 3 11 4 12 5 13 6 14 7 15 8 16 9 7 10 6 11 5 12
REMARK SMILES IDX 4 13 3 14 2 15 1 16
REMARK H PARENT
REMARK Flexibility Score: inf
ROOT
ATOM      1  C   UNL     1     -17.464   8.807  29.210  1.00  0.00     0.000 C 
ENDROOT
BRANCH   1   2
ATOM      2  C   UNL     1     -16.459   9.655  28.412  1.00  0.00     0.000 C 
BRANCH   2   3
ATOM      3  C   UNL     1     -16.205  11.028  29.068  1.00  0.00     0.000 C 
BRANCH   3   4
ATOM      4  C   UNL     1     -14.730  11.275  29.429  1.00  0.00     0.000 C 
BRANCH   4   5
ATOM      5  C   UNL     1     -13.977  12.073  28.356  1.00  0.00     0.006 C 
BRANCH   5   6
ATOM      6  C   UNL     1     -12.875  11.225  27.713  1.00  0.00     0.053 C 
BRANCH   6   7
ATOM      7  C   UNL     1     -13.294  10.769  26.352  1.00  0.00     0.041 C 
ATOM      8  O   UNL     1     -13.703  11.602  25.502  1.00  0.00    -0.550 OA
ATOM      9  O   UNL     1     -13.183   9.428  26.004  1.00  0.00    -0.550 OA
ENDBRANCH   6   7
ENDBRANCH   5   6
ENDBRANCH   4   5
ENDBRANCH   3   4
ENDBRANCH   2   3
ENDBRANCH   1   2
BRANCH   1  10
ATOM     10  C   UNL     1     -17.638   9.299  30.656  1.00  0.00     0.000 C 
BRANCH  10  11
ATOM     11  C   UNL     1     -16.974   8.368  31.682  1.00  0.00    -0.000 C 
BRANCH  11  12
ATOM     12  C   UNL     1     -15.649   8.961  32.183  1.00  0.00    -0.000 C 
BRANCH  12  13
ATOM     13  C   UNL     1     -14.426   8.164  31.704  1.00  0.00    -0.000 C 
BRANCH  13  14
ATOM     14  C   UNL     1     -14.807   6.804  31.094  1.00  0.00    -0.000 C 
BRANCH  14  15
ATOM     15  C   UNL     1     -14.396   6.683  29.619  1.00  0.00    -0.003 C 
ATOM     16  C   UNL     1     -13.440   7.792  29.180  1.00  0.00     0.004 C 
ENDBRANCH  14  15
ENDBRANCH  13  14
ENDBRANCH  12  13
ENDBRANCH  11  12
ENDBRANCH  10  11
ENDBRANCH   1  10
TORSDOF 12
ENDMDL
