MODEL 1
REMARK VINA RESULT:     0.000      0.000      0.000
REMARK INTER + INTRA:          -5.022
REMARK INTER:                   0.000
REMARK INTRA:                  -5.022
REMARK UNBOUND:                -5.022
REMARK SMILES CCCCCCCCCCCCCCCCCCCCCC(=O)[O-]
REMARK SMILES IDX 12 1 11 2 10 3 9 4 8 5 7 6 6 7 5 8 4 9 3 10 2 11 1 12 13 13
REMARK SMILES IDX 14 14 15 15 16 16 17 17 18 18 19 19 20 20 21 21 22 22 23 23
REMARK SMILES IDX 24 24
REMARK H PARENT
REMARK Flexibility Score: inf
ROOT
ATOM      1  C   UNL     1     181.913 187.945 190.137  1.00  0.00     0.000 C 
ENDROOT
BRANCH   1   2
ATOM      2  C   UNL     1     182.304 189.423 190.296  1.00  0.00     0.000 C 
BRANCH   2   3
ATOM      3  C   UNL     1     181.217 190.386 189.791  1.00  0.00     0.000 C 
BRANCH   3   4
ATOM      4  C   UNL     1     180.816 191.455 190.829  1.00  0.00    -0.000 C 
BRANCH   4   5
ATOM      5  C   UNL     1     179.407 192.015 190.570  1.00  0.00    -0.000 C 
BRANCH   5   6
ATOM      6  C   UNL     1     178.907 191.726 189.147  1.00  0.00    -0.000 C 
BRANCH   6   7
ATOM      7  C   UNL     1     177.373 191.638 189.064  1.00  0.00    -0.000 C 
BRANCH   7   8
ATOM      8  C   UNL     1     176.700 191.664 190.448  1.00  0.00    -0.000 C 
BRANCH   8   9
ATOM      9  C   UNL     1     175.505 190.701 190.607  1.00  0.00    -0.000 C 
BRANCH   9  10
ATOM     10  C   UNL     1     175.259 189.758 189.410  1.00  0.00    -0.000 C 
BRANCH  10  11
ATOM     11  C   UNL     1     174.805 188.336 189.792  1.00  0.00    -0.003 C 
ATOM     12  C   UNL     1     174.665 188.143 191.301  1.00  0.00     0.004 C 
ENDBRANCH  10  11
ENDBRANCH   9  10
ENDBRANCH   8   9
ENDBRANCH   7   8
ENDBRANCH   6   7
ENDBRANCH   5   6
ENDBRANCH   4   5
ENDBRANCH   3   4
ENDBRANCH   2   3
ENDBRANCH   1   2
BRANCH   1  13
ATOM     13  C   UNL     1     181.885 187.199 191.483  1.00  0.00     0.000 C 
BRANCH  13  14
ATOM     14  C   UNL     1     181.786 188.128 192.707  1.00  0.00     0.000 C 
BRANCH  14  15
ATOM     15  C   UNL     1     180.472 187.935 193.488  1.00  0.00     0.000 C 
BRANCH  15  16
ATOM     16  C   UNL     1     179.481 189.097 193.263  1.00  0.00     0.000 C 
BRANCH  16  17
ATOM     17  C   UNL     1     178.192 188.677 192.536  1.00  0.00     0.000 C 
BRANCH  17  18
ATOM     18  C   UNL     1     178.398 188.467 191.025  1.00  0.00     0.000 C 
BRANCH  18  19
ATOM     19  C   UNL     1     178.238 186.998 190.605  1.00  0.00     0.000 C 
BRANCH  19  20
ATOM     20  C   UNL     1     178.457 186.787 189.098  1.00  0.00     0.006 C 
BRANCH  20  21
ATOM     21  C   UNL     1     178.473 188.111 188.324  1.00  0.00     0.053 C 
BRANCH  21  22
ATOM     22  C   UNL     1     179.502 188.107 187.236  1.00  0.00     0.041 C 
ATOM     23  O   UNL     1     179.997 187.020 186.838  1.00  0.00    -0.550 OA
ATOM     24  O   UNL     1     179.952 189.306 186.700  1.00  0.00    -0.550 OA
ENDBRANCH  21  22
ENDBRANCH  20  21
ENDBRANCH  19  20
ENDBRANCH  18  19
ENDBRANCH  17  18
ENDBRANCH  16  17
ENDBRANCH  15  16
ENDBRANCH  14  15
ENDBRANCH  13  14
ENDBRANCH   1  13
TORSDOF 20
ENDMDL
MODEL 2
REMARK VINA RESULT:     0.007      3.909      6.626
REMARK INTER + INTRA:          -5.007
REMARK INTER:                   0.000
REMARK INTRA:                  -5.007
REMARK UNBOUND:                -5.022
REMARK SMILES CCCCCCCCCCCCCCCCCCCCCC(=O)[O-]
REMARK SMILES IDX 12 1 11 2 10 3 9 4 8 5 7 6 6 7 5 8 4 9 3 10 2 11 1 12 13 13
REMARK SMILES IDX 14 14 15 15 16 16 17 17 18 18 19 19 20 20 21 21 22 22 23 23
REMARK SMILES IDX 24 24
REMARK H PARENT
REMARK Flexibility Score: inf
ROOT
ATOM      1  C   UNL     1     181.879 187.045 189.199  1.00  0.00     0.000 C 
ENDROOT
BRANCH   1   2
ATOM      2  C   UNL     1     182.167 185.627 189.716  1.00  0.00     0.000 C 
BRANCH   2   3
ATOM      3  C   UNL     1     180.910 184.919 190.249  1.00  0.00     0.000 C 
BRANCH   3   4
ATOM      4  C   UNL     1     181.190 184.004 191.460  1.00  0.00    -0.000 C 
BRANCH   4   5
ATOM      5  C   UNL     1     180.001 183.955 192.436  1.00  0.00    -0.000 C 
BRANCH   5   6
ATOM      6  C   UNL     1     178.739 184.618 191.866  1.00  0.00    -0.000 C 
BRANCH   6   7
ATOM      7  C   UNL     1     177.812 185.169 192.964  1.00  0.00    -0.000 C 
BRANCH   7   8
ATOM      8  C   UNL     1     178.525 185.333 194.317  1.00  0.00    -0.000 C 
BRANCH   8   9
ATOM      9  C   UNL     1     178.137 186.603 195.105  1.00  0.00    -0.000 C 
BRANCH   9  10
ATOM     10  C   UNL     1     179.216 187.127 196.076  1.00  0.00    -0.000 C 
BRANCH  10  11
ATOM     11  C   UNL     1     179.468 188.645 196.001  1.00  0.00    -0.003 C 
ATOM     12  C   UNL     1     180.919 189.022 196.295  1.00  0.00     0.004 C 
ENDBRANCH  10  11
ENDBRANCH   9  10
ENDBRANCH   8   9
ENDBRANCH   7   8
ENDBRANCH   6   7
ENDBRANCH   5   6
ENDBRANCH   4   5
ENDBRANCH   3   4
ENDBRANCH   2   3
ENDBRANCH   1   2
BRANCH   1  13
ATOM     13  C   UNL     1     180.395 187.248 188.843  1.00  0.00     0.000 C 
BRANCH  13  14
ATOM     14  C   UNL     1     179.752 188.467 189.531  1.00  0.00     0.000 C 
BRANCH  14  15
ATOM     15  C   UNL     1     178.620 188.067 190.496  1.00  0.00     0.000 C 
BRANCH  15  16
ATOM     16  C   UNL     1     178.904 188.509 191.947  1.00  0.00     0.000 C 
BRANCH  16  17
ATOM     17  C   UNL     1     180.398 188.727 192.245  1.00  0.00     0.000 C 
BRANCH  17  18
ATOM     18  C   UNL     1     181.065 187.500 192.891  1.00  0.00     0.000 C 
BRANCH  18  19
ATOM     19  C   UNL     1     182.599 187.567 192.843  1.00  0.00     0.000 C 
BRANCH  19  20
ATOM     20  C   UNL     1     183.265 186.371 193.544  1.00  0.00     0.006 C 
BRANCH  20  21
ATOM     21  C   UNL     1     182.390 185.796 194.665  1.00  0.00     0.053 C 
BRANCH  21  22
ATOM     22  C   UNL     1     182.796 184.400 195.026  1.00  0.00     0.041 C 
ATOM     23  O   UNL     1     184.003 184.052 194.946  1.00  0.00    -0.550 OA
ATOM     24  O   UNL     1     181.834 183.470 195.400  1.00  0.00    -0.550 OA
ENDBRANCH  21  22
ENDBRANCH  20  21
ENDBRANCH  19  20
ENDBRANCH  18  19
ENDBRANCH  17  18
ENDBRANCH  16  17
ENDBRANCH  15  16
ENDBRANCH  14  15
ENDBRANCH  13  14
ENDBRANCH   1  13
TORSDOF 20
ENDMDL
MODEL 3
REMARK VINA RESULT:     0.044      3.139      5.931
REMARK INTER + INTRA:          -4.927
REMARK INTER:                   0.000
REMARK INTRA:                  -4.927
REMARK UNBOUND:                -5.022
REMARK SMILES CCCCCCCCCCCCCCCCCCCCCC(=O)[O-]
REMARK SMILES IDX 12 1 11 2 10 3 9 4 8 5 7 6 6 7 5 8 4 9 3 10 2 11 1 12 13 13
REMARK SMILES IDX 14 14 15 15 16 16 17 17 18 18 19 19 20 20 21 21 22 22 23 23
REMARK SMILES IDX 24 24
REMARK H PARENT
REMARK Flexibility Score: inf
ROOT
ATOM      1  C   UNL     1     176.968 183.131 193.642  1.00  0.00     0.000 C 
ENDROOT
BRANCH   1   2
ATOM      2  C   UNL     1     176.791 182.659 192.191  1.00  0.00     0.000 C 
BRANCH   2   3
ATOM      3  C   UNL     1     177.891 183.187 191.254  1.00  0.00     0.000 C 
BRANCH   3   4
ATOM      4  C   UNL     1     178.419 184.581 191.655  1.00  0.00    -0.000 C 
BRANCH   4   5
ATOM      5  C   UNL     1     179.956 184.647 191.632  1.00  0.00    -0.000 C 
BRANCH   5   6
ATOM      6  C   UNL     1     180.526 185.576 192.714  1.00  0.00    -0.000 C 
BRANCH   6   7
ATOM      7  C   UNL     1     179.549 185.793 193.883  1.00  0.00    -0.000 C 
BRANCH   7   8
ATOM      8  C   UNL     1     179.311 187.282 194.191  1.00  0.00    -0.000 C 
BRANCH   8   9
ATOM      9  C   UNL     1     179.492 188.230 192.986  1.00  0.00    -0.000 C 
BRANCH   9  10
ATOM     10  C   UNL     1     178.182 188.772 192.376  1.00  0.00    -0.000 C 
BRANCH  10  11
ATOM     11  C   UNL     1     177.859 188.239 190.967  1.00  0.00    -0.003 C 
ATOM     12  C   UNL     1     179.110 187.966 190.134  1.00  0.00     0.004 C 
ENDBRANCH  10  11
ENDBRANCH   9  10
ENDBRANCH   8   9
ENDBRANCH   7   8
ENDBRANCH   6   7
ENDBRANCH   5   6
ENDBRANCH   4   5
ENDBRANCH   3   4
ENDBRANCH   2   3
ENDBRANCH   1   2
BRANCH   1  13
ATOM     13  C   UNL     1     175.718 183.851 194.180  1.00  0.00     0.000 C 
BRANCH  13  14
ATOM     14  C   UNL     1     175.975 185.308 194.608  1.00  0.00     0.000 C 
BRANCH  14  15
ATOM     15  C   UNL     1     175.704 186.312 193.471  1.00  0.00     0.000 C 
BRANCH  15  16
ATOM     16  C   UNL     1     174.605 185.820 192.506  1.00  0.00     0.000 C 
BRANCH  16  17
ATOM     17  C   UNL     1     174.987 185.942 191.021  1.00  0.00     0.000 C 
BRANCH  17  18
ATOM     18  C   UNL     1     174.480 184.761 190.173  1.00  0.00     0.000 C 
BRANCH  18  19
ATOM     19  C   UNL     1     175.312 184.547 188.900  1.00  0.00     0.000 C 
BRANCH  19  20
ATOM     20  C   UNL     1     176.431 185.590 188.742  1.00  0.00     0.006 C 
BRANCH  20  21
ATOM     21  C   UNL     1     177.274 185.350 187.483  1.00  0.00     0.053 C 
BRANCH  21  22
ATOM     22  C   UNL     1     178.471 184.497 187.771  1.00  0.00     0.041 C 
ATOM     23  O   UNL     1     178.378 183.243 187.729  1.00  0.00    -0.550 OA
ATOM     24  O   UNL     1     179.675 185.088 188.135  1.00  0.00    -0.550 OA
ENDBRANCH  21  22
ENDBRANCH  20  21
ENDBRANCH  19  20
ENDBRANCH  18  19
ENDBRANCH  17  18
ENDBRANCH  16  17
ENDBRANCH  15  16
ENDBRANCH  14  15
ENDBRANCH  13  14
ENDBRANCH   1  13
TORSDOF 20
ENDMDL
MODEL 4
REMARK VINA RESULT:     0.049      7.073     10.298
REMARK INTER + INTRA:          -4.916
REMARK INTER:                   0.000
REMARK INTRA:                  -4.916
REMARK UNBOUND:                -5.022
REMARK SMILES CCCCCCCCCCCCCCCCCCCCCC(=O)[O-]
REMARK SMILES IDX 12 1 11 2 10 3 9 4 8 5 7 6 6 7 5 8 4 9 3 10 2 11 1 12 13 13
REMARK SMILES IDX 14 14 15 15 16 16 17 17 18 18 19 19 20 20 21 21 22 22 23 23
REMARK SMILES IDX 24 24
REMARK H PARENT
REMARK Flexibility Score: inf
ROOT
ATOM      1  C   UNL     1     183.858 184.756 188.353  1.00  0.00     0.000 C 
ENDROOT
BRANCH   1   2
ATOM      2  C   UNL     1     182.851 183.679 187.918  1.00  0.00     0.000 C 
BRANCH   2   3
ATOM      3  C   UNL     1     183.422 182.721 186.859  1.00  0.00     0.000 C 
BRANCH   3   4
ATOM      4  C   UNL     1     182.453 181.582 186.478  1.00  0.00    -0.000 C 
BRANCH   4   5
ATOM      5  C   UNL     1     183.132 180.509 185.608  1.00  0.00    -0.000 C 
BRANCH   5   6
ATOM      6  C   UNL     1     184.391 181.031 184.901  1.00  0.00    -0.000 C 
BRANCH   6   7
ATOM      7  C   UNL     1     185.659 180.256 185.300  1.00  0.00    -0.000 C 
BRANCH   7   8
ATOM      8  C   UNL     1     186.638 181.105 186.130  1.00  0.00    -0.000 C 
BRANCH   8   9
ATOM      9  C   UNL     1     186.574 180.864 187.654  1.00  0.00    -0.000 C 
BRANCH   9  10
ATOM     10  C   UNL     1     185.831 179.582 188.084  1.00  0.00    -0.000 C 
BRANCH  10  11
ATOM     11  C   UNL     1     184.604 179.819 188.986  1.00  0.00    -0.003 C 
ATOM     12  C   UNL     1     184.773 181.022 189.913  1.00  0.00     0.004 C 
ENDBRANCH  10  11
ENDBRANCH   9  10
ENDBRANCH   8   9
ENDBRANCH   7   8
ENDBRANCH   6   7
ENDBRANCH   5   6
ENDBRANCH   4   5
ENDBRANCH   3   4
ENDBRANCH   2   3
ENDBRANCH   1   2
BRANCH   1  13
ATOM     13  C   UNL     1     185.315 184.272 188.244  1.00  0.00     0.000 C 
BRANCH  13  14
ATOM     14  C   UNL     1     186.282 185.332 187.684  1.00  0.00     0.000 C 
BRANCH  14  15
ATOM     15  C   UNL     1     187.104 184.806 186.492  1.00  0.00     0.000 C 
BRANCH  15  16
ATOM     16  C   UNL     1     186.591 185.348 185.142  1.00  0.00     0.000 C 
BRANCH  16  17
ATOM     17  C   UNL     1     185.849 184.298 184.296  1.00  0.00     0.000 C 
BRANCH  17  18
ATOM     18  C   UNL     1     184.396 184.697 183.986  1.00  0.00     0.000 C 
BRANCH  18  19
ATOM     19  C   UNL     1     183.940 185.933 184.777  1.00  0.00     0.000 C 
BRANCH  19  20
ATOM     20  C   UNL     1     182.419 185.962 185.003  1.00  0.00     0.006 C 
BRANCH  20  21
ATOM     21  C   UNL     1     181.713 184.769 184.348  1.00  0.00     0.053 C 
BRANCH  21  22
ATOM     22  C   UNL     1     180.282 184.666 184.778  1.00  0.00     0.041 C 
ATOM     23  O   UNL     1     179.984 184.065 185.844  1.00  0.00    -0.550 OA
ATOM     24  O   UNL     1     179.275 185.187 183.976  1.00  0.00    -0.550 OA
ENDBRANCH  21  22
ENDBRANCH  20  21
ENDBRANCH  19  20
ENDBRANCH  18  19
ENDBRANCH  17  18
ENDBRANCH  16  17
ENDBRANCH  15  16
ENDBRANCH  14  15
ENDBRANCH  13  14
ENDBRANCH   1  13
TORSDOF 20
ENDMDL
MODEL 5
REMARK VINA RESULT:     0.051      4.878      7.843
REMARK INTER + INTRA:          -4.912
REMARK INTER:                   0.000
REMARK INTRA:                  -4.912
REMARK UNBOUND:                -5.022
REMARK SMILES CCCCCCCCCCCCCCCCCCCCCC(=O)[O-]
REMARK SMILES IDX 12 1 11 2 10 3 9 4 8 5 7 6 6 7 5 8 4 9 3 10 2 11 1 12 13 13
REMARK SMILES IDX 14 14 15 15 16 16 17 17 18 18 19 19 20 20 21 21 22 22 23 23
REMARK SMILES IDX 24 24
REMARK H PARENT
REMARK Flexibility Score: inf
ROOT
ATOM      1  C   UNL     1     181.686 187.448 193.030  1.00  0.00     0.000 C 
ENDROOT
BRANCH   1   2
ATOM      2  C   UNL     1     182.467 186.187 193.432  1.00  0.00     0.000 C 
BRANCH   2   3
ATOM      3  C   UNL     1     181.828 184.894 192.900  1.00  0.00     0.000 C 
BRANCH   3   4
ATOM      4  C   UNL     1     182.832 183.730 192.752  1.00  0.00    -0.000 C 
BRANCH   4   5
ATOM      5  C   UNL     1     182.164 182.359 192.954  1.00  0.00    -0.000 C 
BRANCH   5   6
ATOM      6  C   UNL     1     180.659 182.470 193.242  1.00  0.00    -0.000 C 
BRANCH   6   7
ATOM      7  C   UNL     1     179.810 181.607 192.293  1.00  0.00    -0.000 C 
BRANCH   7   8
ATOM      8  C   UNL     1     178.858 182.444 191.420  1.00  0.00    -0.000 C 
BRANCH   8   9
ATOM      9  C   UNL     1     179.381 182.750 190.000  1.00  0.00    -0.000 C 
BRANCH   9  10
ATOM     10  C   UNL     1     179.904 184.187 189.790  1.00  0.00    -0.000 C 
BRANCH  10  11
ATOM     11  C   UNL     1     181.366 184.277 189.313  1.00  0.00    -0.003 C 
ATOM     12  C   UNL     1     182.042 182.911 189.206  1.00  0.00     0.004 C 
ENDBRANCH  10  11
ENDBRANCH   9  10
ENDBRANCH   8   9
ENDBRANCH   7   8
ENDBRANCH   6   7
ENDBRANCH   5   6
ENDBRANCH   4   5
ENDBRANCH   3   4
ENDBRANCH   2   3
ENDBRANCH   1   2
BRANCH   1  13
ATOM     13  C   UNL     1     180.905 187.258 191.717  1.00  0.00     0.000 C 
BRANCH  13  14
ATOM     14  C   UNL     1     179.533 187.958 191.703  1.00  0.00     0.000 C 
BRANCH  14  15
ATOM     15  C   UNL     1     178.591 187.427 192.800  1.00  0.00     0.000 C 
BRANCH  15  16
ATOM     16  C   UNL     1     178.217 185.945 192.585  1.00  0.00     0.000 C 
BRANCH  16  17
ATOM     17  C   UNL     1     178.132 185.133 193.889  1.00  0.00     0.000 C 
BRANCH  17  18
ATOM     18  C   UNL     1     178.953 185.752 195.034  1.00  0.00     0.000 C 
BRANCH  18  19
ATOM     19  C   UNL     1     179.534 184.694 195.984  1.00  0.00     0.000 C 
BRANCH  19  20
ATOM     20  C   UNL     1     180.901 185.101 196.559  1.00  0.00     0.006 C 
BRANCH  20  21
ATOM     21  C   UNL     1     181.921 183.957 196.494  1.00  0.00     0.053 C 
BRANCH  21  22
ATOM     22  C   UNL     1     183.313 184.438 196.768  1.00  0.00     0.041 C 
ATOM     23  O   UNL     1     183.548 185.154 197.776  1.00  0.00    -0.550 OA
ATOM     24  O   UNL     1     184.339 184.137 195.881  1.00  0.00    -0.550 OA
ENDBRANCH  21  22
ENDBRANCH  20  21
ENDBRANCH  19  20
ENDBRANCH  18  19
ENDBRANCH  17  18
ENDBRANCH  16  17
ENDBRANCH  15  16
ENDBRANCH  14  15
ENDBRANCH  13  14
ENDBRANCH   1  13
TORSDOF 20
ENDMDL
MODEL 6
REMARK VINA RESULT:     0.058      4.730      7.532
REMARK INTER + INTRA:          -4.896
REMARK INTER:                   0.000
REMARK INTRA:                  -4.896
REMARK UNBOUND:                -5.022
REMARK SMILES CCCCCCCCCCCCCCCCCCCCCC(=O)[O-]
REMARK SMILES IDX 12 1 11 2 10 3 9 4 8 5 7 6 6 7 5 8 4 9 3 10 2 11 1 12 13 13
REMARK SMILES IDX 14 14 15 15 16 16 17 17 18 18 19 19 20 20 21 21 22 22 23 23
REMARK SMILES IDX 24 24
REMARK H PARENT
REMARK Flexibility Score: inf
ROOT
ATOM      1  C   UNL     1     181.686 187.448 193.030  1.00  0.00     0.000 C 
ENDROOT
BRANCH   1   2
ATOM      2  C   UNL     1     181.992 186.045 193.577  1.00  0.00     0.000 C 
BRANCH   2   3
ATOM      3  C   UNL     1     181.155 184.945 192.902  1.00  0.00     0.000 C 
BRANCH   3   4
ATOM      4  C   UNL     1     181.748 183.530 193.078  1.00  0.00    -0.000 C 
BRANCH   4   5
ATOM      5  C   UNL     1     180.666 182.438 193.029  1.00  0.00    -0.000 C 
BRANCH   5   6
ATOM      6  C   UNL     1     179.243 183.016 192.982  1.00  0.00    -0.000 C 
BRANCH   6   7
ATOM      7  C   UNL     1     178.381 182.380 191.878  1.00  0.00    -0.000 C 
BRANCH   7   8
ATOM      8  C   UNL     1     177.986 183.383 190.780  1.00  0.00    -0.000 C 
BRANCH   8   9
ATOM      9  C   UNL     1     178.927 183.410 189.557  1.00  0.00    -0.000 C 
BRANCH   9  10
ATOM     10  C   UNL     1     179.811 184.669 189.438  1.00  0.00    -0.000 C 
BRANCH  10  11
ATOM     11  C   UNL     1     181.319 184.386 189.293  1.00  0.00    -0.003 C 
ATOM     12  C   UNL     1     181.659 182.902 189.417  1.00  0.00     0.004 C 
ENDBRANCH  10  11
ENDBRANCH   9  10
ENDBRANCH   8   9
ENDBRANCH   7   8
ENDBRANCH   6   7
ENDBRANCH   5   6
ENDBRANCH   4   5
ENDBRANCH   3   4
ENDBRANCH   2   3
ENDBRANCH   1   2
BRANCH   1  13
ATOM     13  C   UNL     1     181.134 187.408 191.593  1.00  0.00     0.000 C 
BRANCH  13  14
ATOM     14  C   UNL     1     180.071 188.484 191.305  1.00  0.00     0.000 C 
BRANCH  14  15
ATOM     15  C   UNL     1     178.797 188.292 192.149  1.00  0.00     0.000 C 
BRANCH  15  16
ATOM     16  C   UNL     1     178.107 186.940 191.870  1.00  0.00     0.000 C 
BRANCH  16  17
ATOM     17  C   UNL     1     177.532 186.268 193.129  1.00  0.00     0.000 C 
BRANCH  17  18
ATOM     18  C   UNL     1     178.254 186.697 194.419  1.00  0.00     0.000 C 
BRANCH  18  19
ATOM     19  C   UNL     1     178.297 185.579 195.472  1.00  0.00     0.000 C 
BRANCH  19  20
ATOM     20  C   UNL     1     179.587 185.606 196.310  1.00  0.00     0.006 C 
BRANCH  20  21
ATOM     21  C   UNL     1     180.220 184.216 196.443  1.00  0.00     0.053 C 
BRANCH  21  22
ATOM     22  C   UNL     1     179.282 183.236 197.079  1.00  0.00     0.041 C 
ATOM     23  O   UNL     1     178.885 183.416 198.259  1.00  0.00    -0.550 OA
ATOM     24  O   UNL     1     178.887 182.100 196.384  1.00  0.00    -0.550 OA
ENDBRANCH  21  22
ENDBRANCH  20  21
ENDBRANCH  19  20
ENDBRANCH  18  19
ENDBRANCH  17  18
ENDBRANCH  16  17
ENDBRANCH  15  16
ENDBRANCH  14  15
ENDBRANCH  13  14
ENDBRANCH   1  13
TORSDOF 20
ENDMDL
MODEL 7
REMARK VINA RESULT:     0.065      4.227      7.421
REMARK INTER + INTRA:          -4.880
REMARK INTER:                   0.000
REMARK INTRA:                  -4.880
REMARK UNBOUND:                -5.022
REMARK SMILES CCCCCCCCCCCCCCCCCCCCCC(=O)[O-]
REMARK SMILES IDX 12 1 11 2 10 3 9 4 8 5 7 6 6 7 5 8 4 9 3 10 2 11 1 12 13 13
REMARK SMILES IDX 14 14 15 15 16 16 17 17 18 18 19 19 20 20 21 21 22 22 23 23
REMARK SMILES IDX 24 24
REMARK H PARENT
REMARK Flexibility Score: inf
ROOT
ATOM      1  C   UNL     1     179.201 187.172 193.156  1.00  0.00     0.000 C 
ENDROOT
BRANCH   1   2
ATOM      2  C   UNL     1     178.581 186.464 191.941  1.00  0.00     0.000 C 
BRANCH   2   3
ATOM      3  C   UNL     1     179.532 186.406 190.734  1.00  0.00     0.000 C 
BRANCH   3   4
ATOM      4  C   UNL     1     179.083 185.403 189.649  1.00  0.00    -0.000 C 
BRANCH   4   5
ATOM      5  C   UNL     1     180.272 184.649 189.030  1.00  0.00    -0.000 C 
BRANCH   5   6
ATOM      6  C   UNL     1     181.629 185.182 189.513  1.00  0.00    -0.000 C 
BRANCH   6   7
ATOM      7  C   UNL     1     182.710 184.089 189.569  1.00  0.00    -0.000 C 
BRANCH   7   8
ATOM      8  C   UNL     1     182.170 182.699 189.188  1.00  0.00    -0.000 C 
BRANCH   8   9
ATOM      9  C   UNL     1     182.676 181.541 190.075  1.00  0.00    -0.000 C 
BRANCH   9  10
ATOM     10  C   UNL     1     183.617 181.959 191.225  1.00  0.00    -0.000 C 
BRANCH  10  11
ATOM     11  C   UNL     1     183.447 181.148 192.523  1.00  0.00    -0.003 C 
ATOM     12  C   UNL     1     184.112 181.810 193.729  1.00  0.00     0.004 C 
ENDBRANCH  10  11
ENDBRANCH   9  10
ENDBRANCH   8   9
ENDBRANCH   7   8
ENDBRANCH   6   7
ENDBRANCH   5   6
ENDBRANCH   4   5
ENDBRANCH   3   4
ENDBRANCH   2   3
ENDBRANCH   1   2
BRANCH   1  13
ATOM     13  C   UNL     1     180.502 187.914 192.799  1.00  0.00     0.000 C 
BRANCH  13  14
ATOM     14  C   UNL     1     181.718 187.472 193.635  1.00  0.00     0.000 C 
BRANCH  14  15
ATOM     15  C   UNL     1     182.751 186.690 192.801  1.00  0.00     0.000 C 
BRANCH  15  16
ATOM     16  C   UNL     1     182.694 185.171 193.073  1.00  0.00     0.000 C 
BRANCH  16  17
ATOM     17  C   UNL     1     181.917 184.801 194.348  1.00  0.00     0.000 C 
BRANCH  17  18
ATOM     18  C   UNL     1     180.745 183.841 194.077  1.00  0.00     0.000 C 
BRANCH  18  19
ATOM     19  C   UNL     1     180.610 183.477 192.591  1.00  0.00     0.000 C 
BRANCH  19  20
ATOM     20  C   UNL     1     179.629 182.316 192.353  1.00  0.00     0.006 C 
BRANCH  20  21
ATOM     21  C   UNL     1     178.172 182.793 192.288  1.00  0.00     0.053 C 
BRANCH  21  22
ATOM     22  C   UNL     1     177.501 182.356 191.022  1.00  0.00     0.041 C 
ATOM     23  O   UNL     1     178.187 181.929 190.057  1.00  0.00    -0.550 OA
ATOM     24  O   UNL     1     176.122 182.468 190.892  1.00  0.00    -0.550 OA
ENDBRANCH  21  22
ENDBRANCH  20  21
ENDBRANCH  19  20
ENDBRANCH  18  19
ENDBRANCH  17  18
ENDBRANCH  16  17
ENDBRANCH  15  16
ENDBRANCH  14  15
ENDBRANCH  13  14
ENDBRANCH   1  13
TORSDOF 20
ENDMDL
MODEL 8
REMARK VINA RESULT:     0.067      2.501      4.582
REMARK INTER + INTRA:          -4.876
REMARK INTER:                   0.000
REMARK INTRA:                  -4.876
REMARK UNBOUND:                -5.022
REMARK SMILES CCCCCCCCCCCCCCCCCCCCCC(=O)[O-]
REMARK SMILES IDX 12 1 11 2 10 3 9 4 8 5 7 6 6 7 5 8 4 9 3 10 2 11 1 12 13 13
REMARK SMILES IDX 14 14 15 15 16 16 17 17 18 18 19 19 20 20 21 21 22 22 23 23
REMARK SMILES IDX 24 24
REMARK H PARENT
REMARK Flexibility Score: inf
ROOT
ATOM      1  C   UNL     1     181.570 187.849 190.789  1.00  0.00     0.000 C 
ENDROOT
BRANCH   1   2
ATOM      2  C   UNL     1     181.567 188.397 189.353  1.00  0.00     0.000 C 
BRANCH   2   3
ATOM      3  C   UNL     1     180.229 189.048 188.965  1.00  0.00     0.000 C 
BRANCH   3   4
ATOM      4  C   UNL     1     180.208 189.590 187.519  1.00  0.00    -0.000 C 
BRANCH   4   5
ATOM      5  C   UNL     1     178.846 189.369 186.838  1.00  0.00    -0.000 C 
BRANCH   5   6
ATOM      6  C   UNL     1     177.678 189.365 187.835  1.00  0.00    -0.000 C 
BRANCH   6   7
ATOM      7  C   UNL     1     176.848 188.071 187.771  1.00  0.00    -0.000 C 
BRANCH   7   8
ATOM      8  C   UNL     1     176.833 187.307 189.107  1.00  0.00    -0.000 C 
BRANCH   8   9
ATOM      9  C   UNL     1     177.869 186.168 189.214  1.00  0.00    -0.000 C 
BRANCH   9  10
ATOM     10  C   UNL     1     178.446 185.677 187.869  1.00  0.00    -0.000 C 
BRANCH  10  11
ATOM     11  C   UNL     1     179.970 185.453 187.865  1.00  0.00    -0.003 C 
ATOM     12  C   UNL     1     180.645 185.986 186.602  1.00  0.00     0.004 C 
ENDBRANCH  10  11
ENDBRANCH   9  10
ENDBRANCH   8   9
ENDBRANCH   7   8
ENDBRANCH   6   7
ENDBRANCH   5   6
ENDBRANCH   4   5
ENDBRANCH   3   4
ENDBRANCH   2   3
ENDBRANCH   1   2
BRANCH   1  13
ATOM     13  C   UNL     1     180.174 187.896 191.435  1.00  0.00     0.000 C 
BRANCH  13  14
ATOM     14  C   UNL     1     180.162 188.515 192.846  1.00  0.00     0.000 C 
BRANCH  14  15
ATOM     15  C   UNL     1     178.932 189.411 193.085  1.00  0.00     0.000 C 
BRANCH  15  16
ATOM     16  C   UNL     1     177.966 189.412 191.882  1.00  0.00     0.000 C 
BRANCH  16  17
ATOM     17  C   UNL     1     177.788 190.796 191.234  1.00  0.00     0.000 C 
BRANCH  17  18
ATOM     18  C   UNL     1     178.777 191.842 191.775  1.00  0.00     0.000 C 
BRANCH  18  19
ATOM     19  C   UNL     1     179.905 192.160 190.781  1.00  0.00     0.000 C 
BRANCH  19  20
ATOM     20  C   UNL     1     181.292 191.766 191.315  1.00  0.00     0.006 C 
BRANCH  20  21
ATOM     21  C   UNL     1     182.387 191.922 190.253  1.00  0.00     0.053 C 
BRANCH  21  22
ATOM     22  C   UNL     1     183.634 191.179 190.627  1.00  0.00     0.041 C 
ATOM     23  O   UNL     1     183.694 190.555 191.718  1.00  0.00    -0.550 OA
ATOM     24  O   UNL     1     184.745 191.221 189.794  1.00  0.00    -0.550 OA
ENDBRANCH  21  22
ENDBRANCH  20  21
ENDBRANCH  19  20
ENDBRANCH  18  19
ENDBRANCH  17  18
ENDBRANCH  16  17
ENDBRANCH  15  16
ENDBRANCH  14  15
ENDBRANCH  13  14
ENDBRANCH   1  13
TORSDOF 20
ENDMDL
MODEL 9
REMARK VINA RESULT:     0.073      3.700      5.964
REMARK INTER + INTRA:          -4.862
REMARK INTER:                   0.000
REMARK INTRA:                  -4.862
REMARK UNBOUND:                -5.022
REMARK SMILES CCCCCCCCCCCCCCCCCCCCCC(=O)[O-]
REMARK SMILES IDX 12 1 11 2 10 3 9 4 8 5 7 6 6 7 5 8 4 9 3 10 2 11 1 12 13 13
REMARK SMILES IDX 14 14 15 15 16 16 17 17 18 18 19 19 20 20 21 21 22 22 23 23
REMARK SMILES IDX 24 24
REMARK H PARENT
REMARK Flexibility Score: inf
ROOT
ATOM      1  C   UNL     1     184.511 189.088 189.851  1.00  0.00     0.000 C 
ENDROOT
BRANCH   1   2
ATOM      2  C   UNL     1     185.267 189.952 190.872  1.00  0.00     0.000 C 
BRANCH   2   3
ATOM      3  C   UNL     1     184.594 191.313 191.117  1.00  0.00     0.000 C 
BRANCH   3   4
ATOM      4  C   UNL     1     183.149 191.386 190.579  1.00  0.00    -0.000 C 
BRANCH   4   5
ATOM      5  C   UNL     1     182.106 191.140 191.683  1.00  0.00    -0.000 C 
BRANCH   5   6
ATOM      6  C   UNL     1     180.780 191.870 191.419  1.00  0.00    -0.000 C 
BRANCH   6   7
ATOM      7  C   UNL     1     179.630 191.344 192.295  1.00  0.00    -0.000 C 
BRANCH   7   8
ATOM      8  C   UNL     1     179.989 190.040 193.029  1.00  0.00    -0.000 C 
BRANCH   8   9
ATOM      9  C   UNL     1     179.188 188.800 192.579  1.00  0.00    -0.000 C 
BRANCH   9  10
ATOM     10  C   UNL     1     179.058 188.623 191.051  1.00  0.00    -0.000 C 
BRANCH  10  11
ATOM     11  C   UNL     1     180.328 188.102 190.352  1.00  0.00    -0.003 C 
ATOM     12  C   UNL     1     180.675 188.888 189.089  1.00  0.00     0.004 C 
ENDBRANCH  10  11
ENDBRANCH   9  10
ENDBRANCH   8   9
ENDBRANCH   7   8
ENDBRANCH   6   7
ENDBRANCH   5   6
ENDBRANCH   4   5
ENDBRANCH   3   4
ENDBRANCH   2   3
ENDBRANCH   1   2
BRANCH   1  13
ATOM     13  C   UNL     1     184.060 187.741 190.445  1.00  0.00     0.000 C 
BRANCH  13  14
ATOM     14  C   UNL     1     184.298 187.619 191.962  1.00  0.00     0.000 C 
BRANCH  14  15
ATOM     15  C   UNL     1     182.989 187.692 192.771  1.00  0.00     0.000 C 
BRANCH  15  16
ATOM     16  C   UNL     1     183.156 188.484 194.085  1.00  0.00     0.000 C 
BRANCH  16  17
ATOM     17  C   UNL     1     184.620 188.814 194.426  1.00  0.00     0.000 C 
BRANCH  17  18
ATOM     18  C   UNL     1     184.852 190.313 194.681  1.00  0.00     0.000 C 
BRANCH  18  19
ATOM     19  C   UNL     1     183.557 191.062 195.029  1.00  0.00     0.000 C 
BRANCH  19  20
ATOM     20  C   UNL     1     183.659 192.574 194.768  1.00  0.00     0.006 C 
BRANCH  20  21
ATOM     21  C   UNL     1     182.283 193.248 194.714  1.00  0.00     0.053 C 
BRANCH  21  22
ATOM     22  C   UNL     1     182.231 194.325 193.674  1.00  0.00     0.041 C 
ATOM     23  O   UNL     1     181.266 195.131 193.646  1.00  0.00    -0.550 OA
ATOM     24  O   UNL     1     183.224 194.404 192.706  1.00  0.00    -0.550 OA
ENDBRANCH  21  22
ENDBRANCH  20  21
ENDBRANCH  19  20
ENDBRANCH  18  19
ENDBRANCH  17  18
ENDBRANCH  16  17
ENDBRANCH  15  16
ENDBRANCH  14  15
ENDBRANCH  13  14
ENDBRANCH   1  13
TORSDOF 20
ENDMDL
