MODEL 1
REMARK VINA RESULT:    -4.298      0.000      0.000
REMARK INTER + INTRA:          -7.156
REMARK INTER:                  -6.811
REMARK INTRA:                  -0.345
REMARK UNBOUND:                -0.345
REMARK SMILES CCCCCCCCCCCC(=O)[O-]
REMARK SMILES IDX 7 1 8 2 9 3 10 4 11 5 12 6 13 7 14 8 6 9 5 10 4 11 3 12 2 13
REMARK SMILES IDX 1 14
REMARK H PARENT
REMARK Flexibility Score: inf
ROOT
ATOM      1  C   UNL     1     -32.295 -23.580 -35.058  1.00  0.00     0.000 C 
ENDROOT
BRANCH   1   2
ATOM      2  C   UNL     1     -31.998 -22.152 -34.564  1.00  0.00     0.000 C 
BRANCH   2   3
ATOM      3  C   UNL     1     -30.976 -22.060 -33.415  1.00  0.00     0.000 C 
BRANCH   3   4
ATOM      4  C   UNL     1     -30.795 -20.625 -32.891  1.00  0.00     0.006 C 
BRANCH   4   5
ATOM      5  C   UNL     1     -29.810 -20.558 -31.717  1.00  0.00     0.053 C 
BRANCH   5   6
ATOM      6  C   UNL     1     -30.462 -20.922 -30.418  1.00  0.00     0.041 C 
ATOM      7  O   UNL     1     -30.382 -22.098 -29.977  1.00  0.00    -0.550 OA
ATOM      8  O   UNL     1     -31.183 -19.969 -29.710  1.00  0.00    -0.550 OA
ENDBRANCH   5   6
ENDBRANCH   4   5
ENDBRANCH   3   4
ENDBRANCH   2   3
ENDBRANCH   1   2
BRANCH   1   9
ATOM      9  C   UNL     1     -32.411 -23.732 -36.587  1.00  0.00     0.000 C 
BRANCH   9  10
ATOM     10  C   UNL     1     -31.102 -24.187 -37.269  1.00  0.00    -0.000 C 
BRANCH  10  11
ATOM     11  C   UNL     1     -31.334 -25.286 -38.315  1.00  0.00    -0.000 C 
BRANCH  11  12
ATOM     12  C   UNL     1     -32.461 -26.229 -37.881  1.00  0.00    -0.000 C 
BRANCH  12  13
ATOM     13  C   UNL     1     -32.499 -27.484 -38.762  1.00  0.00    -0.003 C 
ATOM     14  C   UNL     1     -33.894 -28.102 -38.784  1.00  0.00     0.004 C 
ENDBRANCH  12  13
ENDBRANCH  11  12
ENDBRANCH  10  11
ENDBRANCH   9  10
ENDBRANCH   1   9
TORSDOF 10
ENDMDL
MODEL 2
REMARK VINA RESULT:    -4.172      3.889      7.495
REMARK INTER + INTRA:          -6.956
REMARK INTER:                  -6.196
REMARK INTRA:                  -0.760
REMARK UNBOUND:                -0.345
REMARK SMILES CCCCCCCCCCCC(=O)[O-]
REMARK SMILES IDX 7 1 8 2 9 3 10 4 11 5 12 6 13 7 14 8 6 9 5 10 4 11 3 12 2 13
REMARK SMILES IDX 1 14
REMARK H PARENT
REMARK Flexibility Score: inf
ROOT
ATOM      1  C   UNL     1     -31.075 -22.070 -34.007  1.00  0.00     0.000 C 
ENDROOT
BRANCH   1   2
ATOM      2  C   UNL     1     -32.283 -22.812 -34.609  1.00  0.00     0.000 C 
BRANCH   2   3
ATOM      3  C   UNL     1     -33.020 -22.055 -35.729  1.00  0.00     0.000 C 
BRANCH   3   4
ATOM      4  C   UNL     1     -33.411 -22.964 -36.908  1.00  0.00     0.006 C 
BRANCH   4   5
ATOM      5  C   UNL     1     -32.690 -24.317 -36.859  1.00  0.00     0.053 C 
BRANCH   5   6
ATOM      6  C   UNL     1     -31.683 -24.454 -37.960  1.00  0.00     0.041 C 
ATOM      7  O   UNL     1     -30.916 -25.453 -37.995  1.00  0.00    -0.550 OA
ATOM      8  O   UNL     1     -31.571 -23.466 -38.928  1.00  0.00    -0.550 OA
ENDBRANCH   5   6
ENDBRANCH   4   5
ENDBRANCH   3   4
ENDBRANCH   2   3
ENDBRANCH   1   2
BRANCH   1   9
ATOM      9  C   UNL     1     -31.379 -20.663 -33.458  1.00  0.00     0.000 C 
BRANCH   9  10
ATOM     10  C   UNL     1     -30.123 -19.882 -33.015  1.00  0.00    -0.000 C 
BRANCH  10  11
ATOM     11  C   UNL     1     -29.282 -20.654 -31.989  1.00  0.00    -0.000 C 
BRANCH  11  12
ATOM     12  C   UNL     1     -29.673 -20.272 -30.557  1.00  0.00    -0.000 C 
BRANCH  12  13
ATOM     13  C   UNL     1     -30.566 -21.346 -29.925  1.00  0.00    -0.003 C 
ATOM     14  C   UNL     1     -30.282 -22.721 -30.521  1.00  0.00     0.004 C 
ENDBRANCH  12  13
ENDBRANCH  11  12
ENDBRANCH  10  11
ENDBRANCH   9  10
ENDBRANCH   1   9
TORSDOF 10
ENDMDL
MODEL 3
REMARK VINA RESULT:    -4.161      4.422      8.073
REMARK INTER + INTRA:          -6.939
REMARK INTER:                  -6.497
REMARK INTRA:                  -0.442
REMARK UNBOUND:                -0.345
REMARK SMILES CCCCCCCCCCCC(=O)[O-]
REMARK SMILES IDX 7 1 8 2 9 3 10 4 11 5 12 6 13 7 14 8 6 9 5 10 4 11 3 12 2 13
REMARK SMILES IDX 1 14
REMARK H PARENT
REMARK Flexibility Score: inf
ROOT
ATOM      1  C   UNL     1     -32.189 -23.221 -35.037  1.00  0.00     0.000 C 
ENDROOT
BRANCH   1   2
ATOM      2  C   UNL     1     -32.495 -23.899 -36.385  1.00  0.00     0.000 C 
BRANCH   2   3
ATOM      3  C   UNL     1     -31.258 -24.250 -37.234  1.00  0.00     0.000 C 
BRANCH   3   4
ATOM      4  C   UNL     1     -31.494 -25.453 -38.164  1.00  0.00     0.006 C 
BRANCH   4   5
ATOM      5  C   UNL     1     -32.730 -26.265 -37.758  1.00  0.00     0.053 C 
BRANCH   5   6
ATOM      6  C   UNL     1     -32.799 -27.578 -38.479  1.00  0.00     0.041 C 
ATOM      7  O   UNL     1     -33.914 -28.079 -38.776  1.00  0.00    -0.550 OA
ATOM      8  O   UNL     1     -31.631 -28.259 -38.796  1.00  0.00    -0.550 OA
ENDBRANCH   5   6
ENDBRANCH   4   5
ENDBRANCH   3   4
ENDBRANCH   2   3
ENDBRANCH   1   2
BRANCH   1   9
ATOM      9  C   UNL     1     -32.619 -21.745 -34.935  1.00  0.00     0.000 C 
BRANCH   9  10
ATOM     10  C   UNL     1     -31.814 -20.931 -33.899  1.00  0.00    -0.000 C 
BRANCH  10  11
ATOM     11  C   UNL     1     -30.805 -21.794 -33.128  1.00  0.00    -0.000 C 
BRANCH  11  12
ATOM     12  C   UNL     1     -29.488 -21.041 -32.913  1.00  0.00    -0.000 C 
BRANCH  12  13
ATOM     13  C   UNL     1     -29.303 -20.665 -31.438  1.00  0.00    -0.003 C 
ATOM     14  C   UNL     1     -30.340 -21.356 -30.558  1.00  0.00     0.004 C 
ENDBRANCH  12  13
ENDBRANCH  11  12
ENDBRANCH  10  11
ENDBRANCH   9  10
ENDBRANCH   1   9
TORSDOF 10
ENDMDL
MODEL 4
REMARK VINA RESULT:    -3.334      3.825      7.491
REMARK INTER + INTRA:          -5.629
REMARK INTER:                  -5.014
REMARK INTRA:                  -0.615
REMARK UNBOUND:                -0.345
REMARK SMILES CCCCCCCCCCCC(=O)[O-]
REMARK SMILES IDX 7 1 8 2 9 3 10 4 11 5 12 6 13 7 14 8 6 9 5 10 4 11 3 12 2 13
REMARK SMILES IDX 1 14
REMARK H PARENT
REMARK Flexibility Score: inf
ROOT
ATOM      1  C   UNL     1     -32.039 -22.980 -34.615  1.00  0.00     0.000 C 
ENDROOT
BRANCH   1   2
ATOM      2  C   UNL     1     -33.132 -22.245 -35.414  1.00  0.00     0.000 C 
BRANCH   2   3
ATOM      3  C   UNL     1     -32.879 -22.153 -36.930  1.00  0.00     0.000 C 
BRANCH   3   4
ATOM      4  C   UNL     1     -31.648 -22.960 -37.381  1.00  0.00     0.006 C 
BRANCH   4   5
ATOM      5  C   UNL     1     -31.996 -23.990 -38.464  1.00  0.00     0.053 C 
BRANCH   5   6
ATOM      6  C   UNL     1     -31.863 -25.395 -37.962  1.00  0.00     0.041 C 
ATOM      7  O   UNL     1     -32.882 -26.032 -37.585  1.00  0.00    -0.550 OA
ATOM      8  O   UNL     1     -30.611 -25.991 -37.883  1.00  0.00    -0.550 OA
ENDBRANCH   5   6
ENDBRANCH   4   5
ENDBRANCH   3   4
ENDBRANCH   2   3
ENDBRANCH   1   2
BRANCH   1   9
ATOM      9  C   UNL     1     -31.166 -22.079 -33.720  1.00  0.00     0.000 C 
BRANCH   9  10
ATOM     10  C   UNL     1     -31.583 -20.592 -33.738  1.00  0.00    -0.000 C 
BRANCH  10  11
ATOM     11  C   UNL     1     -31.321 -19.892 -32.397  1.00  0.00    -0.000 C 
BRANCH  11  12
ATOM     12  C   UNL     1     -29.934 -20.248 -31.851  1.00  0.00    -0.000 C 
BRANCH  12  13
ATOM     13  C   UNL     1     -30.031 -20.812 -30.428  1.00  0.00    -0.003 C 
ATOM     14  C   UNL     1     -30.313 -22.312 -30.447  1.00  0.00     0.004 C 
ENDBRANCH  12  13
ENDBRANCH  11  12
ENDBRANCH  10  11
ENDBRANCH   9  10
ENDBRANCH   1   9
TORSDOF 10
ENDMDL
MODEL 5
REMARK VINA RESULT:    -3.206      1.083      1.980
REMARK INTER + INTRA:          -5.426
REMARK INTER:                  -4.593
REMARK INTRA:                  -0.832
REMARK UNBOUND:                -0.345
REMARK SMILES CCCCCCCCCCCC(=O)[O-]
REMARK SMILES IDX 7 1 8 2 9 3 10 4 11 5 12 6 13 7 14 8 6 9 5 10 4 11 3 12 2 13
REMARK SMILES IDX 1 14
REMARK H PARENT
REMARK Flexibility Score: inf
ROOT
ATOM      1  C   UNL     1     -31.432 -22.294 -33.960  1.00  0.00     0.000 C 
ENDROOT
BRANCH   1   2
ATOM      2  C   UNL     1     -31.907 -20.830 -33.909  1.00  0.00     0.000 C 
BRANCH   2   3
ATOM      3  C   UNL     1     -30.991 -19.875 -33.121  1.00  0.00     0.000 C 
BRANCH   3   4
ATOM      4  C   UNL     1     -29.611 -20.485 -32.818  1.00  0.00     0.006 C 
BRANCH   4   5
ATOM      5  C   UNL     1     -29.272 -20.434 -31.322  1.00  0.00     0.053 C 
BRANCH   5   6
ATOM      6  C   UNL     1     -30.288 -21.160 -30.493  1.00  0.00     0.041 C 
ATOM      7  O   UNL     1     -30.395 -22.412 -30.576  1.00  0.00    -0.550 OA
ATOM      8  O   UNL     1     -31.136 -20.451 -29.653  1.00  0.00    -0.550 OA
ENDBRANCH   5   6
ENDBRANCH   4   5
ENDBRANCH   3   4
ENDBRANCH   2   3
ENDBRANCH   1   2
BRANCH   1   9
ATOM      9  C   UNL     1     -32.243 -23.213 -34.894  1.00  0.00     0.000 C 
BRANCH   9  10
ATOM     10  C   UNL     1     -32.863 -22.480 -36.104  1.00  0.00    -0.000 C 
BRANCH  10  11
ATOM     11  C   UNL     1     -32.245 -22.921 -37.438  1.00  0.00    -0.000 C 
BRANCH  11  12
ATOM     12  C   UNL     1     -31.060 -23.867 -37.210  1.00  0.00    -0.000 C 
BRANCH  12  13
ATOM     13  C   UNL     1     -31.161 -25.103 -38.111  1.00  0.00    -0.003 C 
ATOM     14  C   UNL     1     -32.435 -25.893 -37.825  1.00  0.00     0.004 C 
ENDBRANCH  12  13
ENDBRANCH  11  12
ENDBRANCH  10  11
ENDBRANCH   9  10
ENDBRANCH   1   9
TORSDOF 10
ENDMDL
MODEL 6
REMARK VINA RESULT:    -2.505      2.410      3.586
REMARK INTER + INTRA:          -4.315
REMARK INTER:                  -3.514
REMARK INTRA:                  -0.801
REMARK UNBOUND:                -0.345
REMARK SMILES CCCCCCCCCCCC(=O)[O-]
REMARK SMILES IDX 7 1 8 2 9 3 10 4 11 5 12 6 13 7 14 8 6 9 5 10 4 11 3 12 2 13
REMARK SMILES IDX 1 14
REMARK H PARENT
REMARK Flexibility Score: inf
ROOT
ATOM      1  C   UNL     1     -31.011 -19.923 -33.179  1.00  0.00     0.000 C 
ENDROOT
BRANCH   1   2
ATOM      2  C   UNL     1     -29.533 -19.926 -33.614  1.00  0.00     0.000 C 
BRANCH   2   3
ATOM      3  C   UNL     1     -28.514 -19.875 -32.461  1.00  0.00     0.000 C 
BRANCH   3   4
ATOM      4  C   UNL     1     -29.167 -20.051 -31.079  1.00  0.00     0.006 C 
BRANCH   4   5
ATOM      5  C   UNL     1     -29.066 -21.496 -30.571  1.00  0.00     0.053 C 
BRANCH   5   6
ATOM      6  C   UNL     1     -30.397 -22.030 -30.136  1.00  0.00     0.041 C 
ATOM      7  O   UNL     1     -30.797 -23.149 -30.552  1.00  0.00    -0.550 OA
ATOM      8  O   UNL     1     -31.207 -21.279 -29.294  1.00  0.00    -0.550 OA
ENDBRANCH   5   6
ENDBRANCH   4   5
ENDBRANCH   3   4
ENDBRANCH   2   3
ENDBRANCH   1   2
BRANCH   1   9
ATOM      9  C   UNL     1     -31.928 -20.873 -33.972  1.00  0.00     0.000 C 
BRANCH   9  10
ATOM     10  C   UNL     1     -31.249 -22.198 -34.381  1.00  0.00    -0.000 C 
BRANCH  10  11
ATOM     11  C   UNL     1     -32.262 -23.313 -34.676  1.00  0.00    -0.000 C 
BRANCH  11  12
ATOM     12  C   UNL     1     -32.350 -23.593 -36.180  1.00  0.00    -0.000 C 
BRANCH  12  13
ATOM     13  C   UNL     1     -33.656 -23.043 -36.767  1.00  0.00    -0.003 C 
ATOM     14  C   UNL     1     -33.444 -21.668 -37.394  1.00  0.00     0.004 C 
ENDBRANCH  12  13
ENDBRANCH  11  12
ENDBRANCH  10  11
ENDBRANCH   9  10
ENDBRANCH   1   9
TORSDOF 10
ENDMDL
MODEL 7
REMARK VINA RESULT:    -2.313      4.877      7.934
REMARK INTER + INTRA:          -4.010
REMARK INTER:                  -3.147
REMARK INTRA:                  -0.863
REMARK UNBOUND:                -0.345
REMARK SMILES CCCCCCCCCCCC(=O)[O-]
REMARK SMILES IDX 7 1 8 2 9 3 10 4 11 5 12 6 13 7 14 8 6 9 5 10 4 11 3 12 2 13
REMARK SMILES IDX 1 14
REMARK H PARENT
REMARK Flexibility Score: inf
ROOT
ATOM      1  C   UNL     1     -31.933 -23.199 -37.681  1.00  0.00     0.000 C 
ENDROOT
BRANCH   1   2
ATOM      2  C   UNL     1     -31.986 -24.257 -36.563  1.00  0.00     0.000 C 
BRANCH   2   3
ATOM      3  C   UNL     1     -32.609 -25.605 -36.971  1.00  0.00     0.000 C 
BRANCH   3   4
ATOM      4  C   UNL     1     -32.104 -26.108 -38.334  1.00  0.00     0.006 C 
BRANCH   4   5
ATOM      5  C   UNL     1     -33.151 -26.963 -39.059  1.00  0.00     0.053 C 
BRANCH   5   6
ATOM      6  C   UNL     1     -32.808 -28.422 -39.018  1.00  0.00     0.041 C 
ATOM      7  O   UNL     1     -33.716 -29.282 -38.873  1.00  0.00    -0.550 OA
ATOM      8  O   UNL     1     -31.483 -28.828 -39.109  1.00  0.00    -0.550 OA
ENDBRANCH   5   6
ENDBRANCH   4   5
ENDBRANCH   3   4
ENDBRANCH   2   3
ENDBRANCH   1   2
BRANCH   1   9
ATOM      9  C   UNL     1     -33.062 -22.151 -37.643  1.00  0.00     0.000 C 
BRANCH   9  10
ATOM     10  C   UNL     1     -34.025 -22.314 -36.447  1.00  0.00    -0.000 C 
BRANCH  10  11
ATOM     11  C   UNL     1     -34.124 -21.043 -35.593  1.00  0.00    -0.000 C 
BRANCH  11  12
ATOM     12  C   UNL     1     -32.737 -20.450 -35.324  1.00  0.00    -0.000 C 
BRANCH  12  13
ATOM     13  C   UNL     1     -32.266 -20.775 -33.901  1.00  0.00    -0.003 C 
ATOM     14  C   UNL     1     -31.394 -22.026 -33.880  1.00  0.00     0.004 C 
ENDBRANCH  12  13
ENDBRANCH  11  12
ENDBRANCH  10  11
ENDBRANCH   9  10
ENDBRANCH   1   9
TORSDOF 10
ENDMDL
MODEL 8
REMARK VINA RESULT:    -1.497      1.555      2.470
REMARK INTER + INTRA:          -2.717
REMARK INTER:                  -2.524
REMARK INTRA:                  -0.193
REMARK UNBOUND:                -0.345
REMARK SMILES CCCCCCCCCCCC(=O)[O-]
REMARK SMILES IDX 7 1 8 2 9 3 10 4 11 5 12 6 13 7 14 8 6 9 5 10 4 11 3 12 2 13
REMARK SMILES IDX 1 14
REMARK H PARENT
REMARK Flexibility Score: inf
ROOT
ATOM      1  C   UNL     1     -31.339 -24.134 -37.219  1.00  0.00     0.000 C 
ENDROOT
BRANCH   1   2
ATOM      2  C   UNL     1     -31.057 -22.832 -36.446  1.00  0.00     0.000 C 
BRANCH   2   3
ATOM      3  C   UNL     1     -31.714 -22.744 -35.056  1.00  0.00     0.000 C 
BRANCH   3   4
ATOM      4  C   UNL     1     -32.273 -21.343 -34.748  1.00  0.00     0.006 C 
BRANCH   4   5
ATOM      5  C   UNL     1     -31.944 -20.891 -33.319  1.00  0.00     0.053 C 
BRANCH   5   6
ATOM      6  C   UNL     1     -30.685 -21.523 -32.808  1.00  0.00     0.041 C 
ATOM      7  O   UNL     1     -30.741 -22.433 -31.941  1.00  0.00    -0.550 OA
ATOM      8  O   UNL     1     -29.450 -21.085 -33.269  1.00  0.00    -0.550 OA
ENDBRANCH   5   6
ENDBRANCH   4   5
ENDBRANCH   3   4
ENDBRANCH   2   3
ENDBRANCH   1   2
BRANCH   1   9
ATOM      9  C   UNL     1     -32.773 -24.681 -37.076  1.00  0.00     0.000 C 
BRANCH   9  10
ATOM     10  C   UNL     1     -32.860 -26.222 -37.129  1.00  0.00    -0.000 C 
BRANCH  10  11
ATOM     11  C   UNL     1     -33.398 -26.735 -38.472  1.00  0.00    -0.000 C 
BRANCH  11  12
ATOM     12  C   UNL     1     -33.872 -28.188 -38.356  1.00  0.00    -0.000 C 
BRANCH  12  13
ATOM     13  C   UNL     1     -32.941 -29.134 -39.125  1.00  0.00    -0.003 C 
ATOM     14  C   UNL     1     -31.476 -28.831 -38.824  1.00  0.00     0.004 C 
ENDBRANCH  12  13
ENDBRANCH  11  12
ENDBRANCH  10  11
ENDBRANCH   9  10
ENDBRANCH   1   9
TORSDOF 10
ENDMDL
MODEL 9
REMARK VINA RESULT:    -1.484      4.231      7.696
REMARK INTER + INTRA:          -2.696
REMARK INTER:                  -2.290
REMARK INTRA:                  -0.406
REMARK UNBOUND:                -0.345
REMARK SMILES CCCCCCCCCCCC(=O)[O-]
REMARK SMILES IDX 7 1 8 2 9 3 10 4 11 5 12 6 13 7 14 8 6 9 5 10 4 11 3 12 2 13
REMARK SMILES IDX 1 14
REMARK H PARENT
REMARK Flexibility Score: inf
ROOT
ATOM      1  C   UNL     1     -31.201 -19.875 -33.116  1.00  0.00     0.000 C 
ENDROOT
BRANCH   1   2
ATOM      2  C   UNL     1     -31.990 -20.806 -34.056  1.00  0.00     0.000 C 
BRANCH   2   3
ATOM      3  C   UNL     1     -33.190 -20.151 -34.764  1.00  0.00     0.000 C 
BRANCH   3   4
ATOM      4  C   UNL     1     -33.647 -20.930 -36.010  1.00  0.00     0.006 C 
BRANCH   4   5
ATOM      5  C   UNL     1     -32.837 -22.217 -36.216  1.00  0.00     0.053 C 
BRANCH   5   6
ATOM      6  C   UNL     1     -32.913 -22.704 -37.632  1.00  0.00     0.041 C 
ATOM      7  O   UNL     1     -32.187 -23.660 -38.012  1.00  0.00    -0.550 OA
ATOM      8  O   UNL     1     -33.764 -22.084 -38.536  1.00  0.00    -0.550 OA
ENDBRANCH   5   6
ENDBRANCH   4   5
ENDBRANCH   3   4
ENDBRANCH   2   3
ENDBRANCH   1   2
BRANCH   1   9
ATOM      9  C   UNL     1     -29.846 -20.428 -32.635  1.00  0.00     0.000 C 
BRANCH   9  10
ATOM     10  C   UNL     1     -29.871 -20.969 -31.189  1.00  0.00    -0.000 C 
BRANCH  10  11
ATOM     11  C   UNL     1     -30.688 -22.262 -31.058  1.00  0.00    -0.000 C 
BRANCH  11  12
ATOM     12  C   UNL     1     -30.118 -23.164 -29.958  1.00  0.00    -0.000 C 
BRANCH  12  13
ATOM     13  C   UNL     1     -29.683 -22.339 -28.740  1.00  0.00    -0.003 C 
ATOM     14  C   UNL     1     -28.920 -23.197 -27.736  1.00  0.00     0.004 C 
ENDBRANCH  12  13
ENDBRANCH  11  12
ENDBRANCH  10  11
ENDBRANCH   9  10
ENDBRANCH   1   9
TORSDOF 10
ENDMDL
