MODEL 1
REMARK VINA RESULT:     4.233      0.000      0.000
REMARK INTER + INTRA:           5.950
REMARK INTER:                   5.842
REMARK INTRA:                   0.109
REMARK UNBOUND:                 0.109
REMARK SMILES CC[C@@H](CC[C@@H](C)[C@@H]1CC[C@@H]2C3=CC[C@@H]4C[C@@H](O)CC[C@]4(C)[C@@H]3CC[C@@]21C)C(C)C
REMARK SMILES IDX 5 1 4 2 3 3 2 4 1 5 28 6 29 7 30 8 6 9 7 10 8 11 9 12 26 13
REMARK SMILES IDX 10 14 11 15 25 16 27 17 12 18 24 19 23 20 13 21 21 22 14 23
REMARK SMILES IDX 15 24 20 25 22 26 16 27 19 28 17 29 18 30
REMARK H PARENT 18 31
REMARK Flexibility Score: inf
ROOT
ATOM      1  C   UNL     1     130.923 130.517 138.505  1.00  0.00     0.004 C 
ENDROOT
BRANCH   1   2
ATOM      2  C   UNL     1     132.008 131.265 137.699  1.00  0.00     0.004 C 
BRANCH   2   3
ATOM      3  C   UNL     1     132.275 132.723 138.182  1.00  0.00    -0.009 C 
BRANCH   3   4
ATOM      4  C   UNL     1     132.410 133.714 136.989  1.00  0.00     0.000 C 
ATOM      5  C   UNL     1     131.570 134.986 137.139  1.00  0.00     0.004 C 
ENDBRANCH   3   4
BRANCH   3   6
ATOM      6  C   UNL     1     133.495 132.845 139.163  1.00  0.00    -0.014 C 
ATOM      7  C   UNL     1     134.800 132.328 138.524  1.00  0.00     0.007 C 
ATOM      8  C   UNL     1     133.723 134.294 139.640  1.00  0.00     0.007 C 
ENDBRANCH   3   6
ENDBRANCH   2   3
ENDBRANCH   1   2
BRANCH   1   9
ATOM      9  C   UNL     1     130.510 129.166 137.861  1.00  0.00    -0.011 C 
ATOM     10  C   UNL     1     131.244 128.974 136.514  1.00  0.00     0.008 C 
BRANCH   9  11
ATOM     11  C   UNL     1     130.709 127.987 138.885  1.00  0.00    -0.002 C 
ATOM     12  C   UNL     1     131.275 128.361 140.256  1.00  0.00     0.005 C 
ATOM     13  C   UNL     1     131.540 126.760 138.414  1.00  0.00    -0.023 C 
ATOM     14  C   UNL     1     131.826 127.061 140.840  1.00  0.00     0.009 C 
ATOM     15  C   UNL     1     131.756 125.990 139.731  1.00  0.00     0.021 C 
ATOM     16  C   UNL     1     132.913 127.167 137.833  1.00  0.00     0.008 C 
ATOM     17  C   UNL     1     130.734 125.911 137.396  1.00  0.00     0.012 C 
ATOM     18  C   UNL     1     132.972 125.067 139.765  1.00  0.00    -0.067 C 
ATOM     19  C   UNL     1     133.780 125.964 137.463  1.00  0.00     0.009 C 
ATOM     20  C   UNL     1     133.867 124.842 138.547  1.00  0.00     0.021 C 
ATOM     21  C   UNL     1     133.132 124.309 140.865  1.00  0.00    -0.027 C 
ATOM     22  C   UNL     1     135.338 124.428 138.928  1.00  0.00    -0.023 C 
ATOM     23  C   UNL     1     134.349 123.482 141.148  1.00  0.00     0.031 C 
ATOM     24  C   UNL     1     135.281 123.231 139.936  1.00  0.00     0.002 C 
ATOM     25  C   UNL     1     136.113 125.609 139.584  1.00  0.00     0.010 C 
ATOM     26  C   UNL     1     136.061 123.959 137.626  1.00  0.00     0.012 C 
ATOM     27  C   UNL     1     136.687 122.816 140.445  1.00  0.00     0.036 C 
ATOM     28  C   UNL     1     137.527 125.209 140.040  1.00  0.00     0.032 C 
ATOM     29  C   UNL     1     137.510 124.004 140.997  1.00  0.00     0.114 C 
BRANCH  29  30
ATOM     30  O   UNL     1     138.819 123.591 141.297  1.00  0.00    -0.393 OA
ATOM     31  H   UNL     1     138.864 123.417 142.274  1.00  0.00     0.210 HD
ENDBRANCH  29  30
ENDBRANCH   9  11
ENDBRANCH   1   9
TORSDOF 7
ENDMDL
MODEL 2
REMARK VINA RESULT:     5.293      1.431      3.164
REMARK INTER + INTRA:           7.413
REMARK INTER:                   7.113
REMARK INTRA:                   0.300
REMARK UNBOUND:                 0.109
REMARK SMILES CC[C@@H](CC[C@@H](C)[C@@H]1CC[C@@H]2C3=CC[C@@H]4C[C@@H](O)CC[C@]4(C)[C@@H]3CC[C@@]21C)C(C)C
REMARK SMILES IDX 5 1 4 2 3 3 2 4 1 5 28 6 29 7 30 8 6 9 7 10 8 11 9 12 26 13
REMARK SMILES IDX 10 14 11 15 25 16 27 17 12 18 24 19 23 20 13 21 21 22 14 23
REMARK SMILES IDX 15 24 20 25 22 26 16 27 19 28 17 29 18 30
REMARK H PARENT 18 31
REMARK Flexibility Score: inf
ROOT
ATOM      1  C   UNL     1     132.826 127.678 137.602  1.00  0.00     0.004 C 
ENDROOT
BRANCH   1   2
ATOM      2  C   UNL     1     132.271 128.985 136.995  1.00  0.00     0.004 C 
BRANCH   2   3
ATOM      3  C   UNL     1     131.629 129.954 138.034  1.00  0.00    -0.009 C 
BRANCH   3   4
ATOM      4  C   UNL     1     130.287 129.397 138.594  1.00  0.00     0.000 C 
ATOM      5  C   UNL     1     130.376 128.901 140.041  1.00  0.00     0.004 C 
ENDBRANCH   3   4
BRANCH   3   6
ATOM      6  C   UNL     1     131.458 131.421 137.501  1.00  0.00    -0.014 C 
ATOM      7  C   UNL     1     132.695 132.290 137.804  1.00  0.00     0.007 C 
ATOM      8  C   UNL     1     131.187 131.467 135.984  1.00  0.00     0.007 C 
ENDBRANCH   3   6
ENDBRANCH   2   3
ENDBRANCH   1   2
BRANCH   1   9
ATOM      9  C   UNL     1     131.712 126.676 138.013  1.00  0.00    -0.011 C 
ATOM     10  C   UNL     1     131.115 126.003 136.756  1.00  0.00     0.008 C 
BRANCH   9  11
ATOM     11  C   UNL     1     132.252 125.670 139.097  1.00  0.00    -0.002 C 
ATOM     12  C   UNL     1     132.571 126.255 140.474  1.00  0.00     0.005 C 
ATOM     13  C   UNL     1     133.485 124.801 138.720  1.00  0.00    -0.023 C 
ATOM     14  C   UNL     1     133.507 125.247 141.140  1.00  0.00     0.009 C 
ATOM     15  C   UNL     1     133.880 124.191 140.078  1.00  0.00     0.021 C 
ATOM     16  C   UNL     1     134.660 125.649 138.182  1.00  0.00     0.008 C 
ATOM     17  C   UNL     1     133.087 123.697 137.705  1.00  0.00     0.012 C 
ATOM     18  C   UNL     1     135.338 123.755 140.207  1.00  0.00    -0.067 C 
ATOM     19  C   UNL     1     135.913 124.819 137.906  1.00  0.00     0.009 C 
ATOM     20  C   UNL     1     136.323 123.828 139.043  1.00  0.00     0.021 C 
ATOM     21  C   UNL     1     135.689 123.132 141.347  1.00  0.00    -0.027 C 
ATOM     22  C   UNL     1     137.822 123.968 139.507  1.00  0.00    -0.023 C 
ATOM     23  C   UNL     1     137.100 122.793 141.721  1.00  0.00     0.031 C 
ATOM     24  C   UNL     1     138.129 122.854 140.565  1.00  0.00     0.002 C 
ATOM     25  C   UNL     1     138.096 125.363 140.144  1.00  0.00     0.010 C 
ATOM     26  C   UNL     1     138.737 123.748 138.261  1.00  0.00     0.012 C 
ATOM     27  C   UNL     1     139.559 122.973 141.154  1.00  0.00     0.036 C 
ATOM     28  C   UNL     1     139.532 125.497 140.680  1.00  0.00     0.032 C 
ATOM     29  C   UNL     1     139.881 124.389 141.689  1.00  0.00     0.114 C 
BRANCH  29  30
ATOM     30  O   UNL     1     141.233 124.470 142.065  1.00  0.00    -0.393 OA
ATOM     31  H   UNL     1     141.277 124.973 142.922  1.00  0.00     0.210 HD
ENDBRANCH  29  30
ENDBRANCH   9  11
ENDBRANCH   1   9
TORSDOF 7
ENDMDL
MODEL 3
REMARK VINA RESULT:     6.392      1.564      1.946
REMARK INTER + INTRA:           8.930
REMARK INTER:                   8.300
REMARK INTRA:                   0.630
REMARK UNBOUND:                 0.109
REMARK SMILES CC[C@@H](CC[C@@H](C)[C@@H]1CC[C@@H]2C3=CC[C@@H]4C[C@@H](O)CC[C@]4(C)[C@@H]3CC[C@@]21C)C(C)C
REMARK SMILES IDX 5 1 4 2 3 3 2 4 1 5 28 6 29 7 30 8 6 9 7 10 8 11 9 12 26 13
REMARK SMILES IDX 10 14 11 15 25 16 27 17 12 18 24 19 23 20 13 21 21 22 14 23
REMARK SMILES IDX 15 24 20 25 22 26 16 27 19 28 17 29 18 30
REMARK H PARENT 18 31
REMARK Flexibility Score: inf
ROOT
ATOM      1  C   UNL     1     132.205 130.165 137.467  1.00  0.00     0.004 C 
ENDROOT
BRANCH   1   2
ATOM      2  C   UNL     1     131.489 131.439 136.966  1.00  0.00     0.004 C 
BRANCH   2   3
ATOM      3  C   UNL     1     131.888 132.741 137.726  1.00  0.00    -0.009 C 
BRANCH   3   4
ATOM      4  C   UNL     1     132.257 133.894 136.746  1.00  0.00     0.000 C 
ATOM      5  C   UNL     1     131.531 135.211 137.036  1.00  0.00     0.004 C 
ENDBRANCH   3   4
BRANCH   3   6
ATOM      6  C   UNL     1     133.015 132.521 138.796  1.00  0.00    -0.014 C 
ATOM      7  C   UNL     1     134.324 132.015 138.157  1.00  0.00     0.007 C 
ATOM      8  C   UNL     1     133.324 133.803 139.596  1.00  0.00     0.007 C 
ENDBRANCH   3   6
ENDBRANCH   2   3
ENDBRANCH   1   2
BRANCH   1   9
ATOM      9  C   UNL     1     131.510 128.856 137.008  1.00  0.00    -0.011 C 
ATOM     10  C   UNL     1     132.413 128.097 136.008  1.00  0.00     0.008 C 
BRANCH   9  11
ATOM     11  C   UNL     1     131.062 128.005 138.255  1.00  0.00    -0.002 C 
ATOM     12  C   UNL     1     131.049 128.726 139.604  1.00  0.00     0.005 C 
ATOM     13  C   UNL     1     131.799 126.661 138.509  1.00  0.00    -0.023 C 
ATOM     14  C   UNL     1     131.081 127.621 140.659  1.00  0.00     0.009 C 
ATOM     15  C   UNL     1     131.310 126.285 139.921  1.00  0.00     0.021 C 
ATOM     16  C   UNL     1     133.336 126.827 138.532  1.00  0.00     0.008 C 
ATOM     17  C   UNL     1     131.371 125.595 137.467  1.00  0.00     0.012 C 
ATOM     18  C   UNL     1     132.228 125.356 140.713  1.00  0.00    -0.067 C 
ATOM     19  C   UNL     1     134.068 125.533 138.884  1.00  0.00     0.009 C 
ATOM     20  C   UNL     1     133.503 124.759 140.120  1.00  0.00     0.021 C 
ATOM     21  C   UNL     1     131.783 124.934 141.911  1.00  0.00    -0.027 C 
ATOM     22  C   UNL     1     134.586 124.406 141.207  1.00  0.00    -0.023 C 
ATOM     23  C   UNL     1     132.613 124.168 142.895  1.00  0.00     0.031 C 
ATOM     24  C   UNL     1     133.913 123.545 142.329  1.00  0.00     0.002 C 
ATOM     25  C   UNL     1     135.195 125.689 141.846  1.00  0.00     0.010 C 
ATOM     26  C   UNL     1     135.703 123.558 140.520  1.00  0.00     0.012 C 
ATOM     27  C   UNL     1     134.884 123.230 143.498  1.00  0.00     0.036 C 
ATOM     28  C   UNL     1     136.197 125.373 142.970  1.00  0.00     0.032 C 
ATOM     29  C   UNL     1     135.580 124.489 144.068  1.00  0.00     0.114 C 
BRANCH  29  30
ATOM     30  O   UNL     1     136.553 124.121 145.012  1.00  0.00    -0.393 OA
ATOM     31  H   UNL     1     136.329 123.208 145.336  1.00  0.00     0.210 HD
ENDBRANCH  29  30
ENDBRANCH   9  11
ENDBRANCH   1   9
TORSDOF 7
ENDMDL
MODEL 4
REMARK VINA RESULT:     6.546      3.179      8.080
REMARK INTER + INTRA:           9.143
REMARK INTER:                   9.297
REMARK INTRA:                  -0.154
REMARK UNBOUND:                 0.109
REMARK SMILES CC[C@@H](CC[C@@H](C)[C@@H]1CC[C@@H]2C3=CC[C@@H]4C[C@@H](O)CC[C@]4(C)[C@@H]3CC[C@@]21C)C(C)C
REMARK SMILES IDX 5 1 4 2 3 3 2 4 1 5 28 6 29 7 30 8 6 9 7 10 8 11 9 12 26 13
REMARK SMILES IDX 10 14 11 15 25 16 27 17 12 18 24 19 23 20 13 21 21 22 14 23
REMARK SMILES IDX 15 24 20 25 22 26 16 27 19 28 17 29 18 30
REMARK H PARENT 18 31
REMARK Flexibility Score: inf
ROOT
ATOM      1  C   UNL     1     137.351 123.131 141.992  1.00  0.00     0.004 C 
ENDROOT
BRANCH   1   2
ATOM      2  C   UNL     1     137.359 124.158 143.146  1.00  0.00     0.004 C 
BRANCH   2   3
ATOM      3  C   UNL     1     136.148 124.038 144.121  1.00  0.00    -0.009 C 
BRANCH   3   4
ATOM      4  C   UNL     1     134.852 124.651 143.513  1.00  0.00     0.000 C 
ATOM      5  C   UNL     1     133.681 123.668 143.427  1.00  0.00     0.004 C 
ENDBRANCH   3   4
BRANCH   3   6
ATOM      6  C   UNL     1     136.435 124.619 145.551  1.00  0.00    -0.014 C 
ATOM      7  C   UNL     1     137.848 124.251 146.048  1.00  0.00     0.007 C 
ATOM      8  C   UNL     1     136.280 126.152 145.606  1.00  0.00     0.007 C 
ENDBRANCH   3   6
ENDBRANCH   2   3
ENDBRANCH   1   2
BRANCH   1   9
ATOM      9  C   UNL     1     138.023 123.665 140.698  1.00  0.00    -0.011 C 
ATOM     10  C   UNL     1     139.397 122.986 140.495  1.00  0.00     0.008 C 
BRANCH   9  11
ATOM     11  C   UNL     1     137.042 123.528 139.474  1.00  0.00    -0.002 C 
ATOM     12  C   UNL     1     137.429 124.282 138.201  1.00  0.00     0.005 C 
ATOM     13  C   UNL     1     135.543 123.864 139.714  1.00  0.00    -0.023 C 
ATOM     14  C   UNL     1     136.140 124.405 137.389  1.00  0.00     0.009 C 
ATOM     15  C   UNL     1     134.984 123.901 138.279  1.00  0.00     0.021 C 
ATOM     16  C   UNL     1     135.348 125.249 140.372  1.00  0.00     0.008 C 
ATOM     17  C   UNL     1     134.860 122.750 140.551  1.00  0.00     0.012 C 
ATOM     18  C   UNL     1     133.721 124.736 138.083  1.00  0.00    -0.067 C 
ATOM     19  C   UNL     1     133.876 125.634 140.518  1.00  0.00     0.009 C 
ATOM     20  C   UNL     1     132.997 125.415 139.244  1.00  0.00     0.021 C 
ATOM     21  C   UNL     1     133.156 124.710 136.862  1.00  0.00    -0.027 C 
ATOM     22  C   UNL     1     132.176 126.685 138.804  1.00  0.00    -0.023 C 
ATOM     23  C   UNL     1     132.023 125.596 136.440  1.00  0.00     0.031 C 
ATOM     24  C   UNL     1     131.263 126.301 137.590  1.00  0.00     0.002 C 
ATOM     25  C   UNL     1     133.114 127.856 138.385  1.00  0.00     0.010 C 
ATOM     26  C   UNL     1     131.270 127.115 140.001  1.00  0.00     0.012 C 
ATOM     27  C   UNL     1     130.486 127.518 137.023  1.00  0.00     0.036 C 
ATOM     28  C   UNL     1     132.338 129.082 137.872  1.00  0.00     0.032 C 
ATOM     29  C   UNL     1     131.396 128.729 136.708  1.00  0.00     0.114 C 
BRANCH  29  30
ATOM     30  O   UNL     1     130.617 129.841 136.346  1.00  0.00    -0.393 OA
ATOM     31  H   UNL     1     129.688 129.523 136.195  1.00  0.00     0.210 HD
ENDBRANCH  29  30
ENDBRANCH   9  11
ENDBRANCH   1   9
TORSDOF 7
ENDMDL
MODEL 5
REMARK VINA RESULT:     6.791      3.748      8.218
REMARK INTER + INTRA:           9.480
REMARK INTER:                  10.918
REMARK INTRA:                  -1.438
REMARK UNBOUND:                 0.109
REMARK SMILES CC[C@@H](CC[C@@H](C)[C@@H]1CC[C@@H]2C3=CC[C@@H]4C[C@@H](O)CC[C@]4(C)[C@@H]3CC[C@@]21C)C(C)C
REMARK SMILES IDX 5 1 4 2 3 3 2 4 1 5 28 6 29 7 30 8 6 9 7 10 8 11 9 12 26 13
REMARK SMILES IDX 10 14 11 15 25 16 27 17 12 18 24 19 23 20 13 21 21 22 14 23
REMARK SMILES IDX 15 24 20 25 22 26 16 27 19 28 17 29 18 30
REMARK H PARENT 18 31
REMARK Flexibility Score: inf
ROOT
ATOM      1  C   UNL     1     138.179 122.452 140.372  1.00  0.00     0.004 C 
ENDROOT
BRANCH   1   2
ATOM      2  C   UNL     1     138.109 122.452 141.915  1.00  0.00     0.004 C 
BRANCH   2   3
ATOM      3  C   UNL     1     138.015 123.871 142.554  1.00  0.00    -0.009 C 
BRANCH   3   4
ATOM      4  C   UNL     1     139.409 124.396 143.006  1.00  0.00     0.000 C 
ATOM      5  C   UNL     1     140.414 124.555 141.862  1.00  0.00     0.004 C 
ENDBRANCH   3   4
BRANCH   3   6
ATOM      6  C   UNL     1     136.966 123.966 143.718  1.00  0.00    -0.014 C 
ATOM      7  C   UNL     1     137.646 124.105 145.095  1.00  0.00     0.007 C 
ATOM      8  C   UNL     1     135.988 125.144 143.534  1.00  0.00     0.007 C 
ENDBRANCH   3   6
ENDBRANCH   2   3
ENDBRANCH   1   2
BRANCH   1   9
ATOM      9  C   UNL     1     136.783 122.361 139.699  1.00  0.00    -0.011 C 
ATOM     10  C   UNL     1     136.376 120.881 139.517  1.00  0.00     0.008 C 
BRANCH   9  11
ATOM     11  C   UNL     1     135.735 123.231 140.489  1.00  0.00    -0.002 C 
ATOM     12  C   UNL     1     134.433 122.535 140.890  1.00  0.00     0.005 C 
ATOM     13  C   UNL     1     135.304 124.585 139.858  1.00  0.00    -0.023 C 
ATOM     14  C   UNL     1     133.435 123.660 141.165  1.00  0.00     0.009 C 
ATOM     15  C   UNL     1     134.102 124.984 140.735  1.00  0.00     0.021 C 
ATOM     16  C   UNL     1     134.836 124.429 138.393  1.00  0.00     0.008 C 
ATOM     17  C   UNL     1     136.447 125.629 139.969  1.00  0.00     0.012 C 
ATOM     18  C   UNL     1     133.097 125.933 140.085  1.00  0.00    -0.067 C 
ATOM     19  C   UNL     1     134.313 125.735 137.796  1.00  0.00     0.009 C 
ATOM     20  C   UNL     1     133.309 126.527 138.694  1.00  0.00     0.021 C 
ATOM     21  C   UNL     1     132.087 126.374 140.858  1.00  0.00    -0.027 C 
ATOM     22  C   UNL     1     131.962 126.908 137.971  1.00  0.00    -0.023 C 
ATOM     23  C   UNL     1     130.920 127.164 140.348  1.00  0.00     0.031 C 
ATOM     24  C   UNL     1     131.099 127.785 138.941  1.00  0.00     0.002 C 
ATOM     25  C   UNL     1     131.149 125.641 137.572  1.00  0.00     0.010 C 
ATOM     26  C   UNL     1     132.314 127.751 136.705  1.00  0.00     0.012 C 
ATOM     27  C   UNL     1     129.706 128.128 138.349  1.00  0.00     0.036 C 
ATOM     28  C   UNL     1     129.790 125.985 136.936  1.00  0.00     0.032 C 
ATOM     29  C   UNL     1     128.935 126.884 137.846  1.00  0.00     0.114 C 
BRANCH  29  30
ATOM     30  O   UNL     1     127.757 127.276 137.186  1.00  0.00    -0.393 OA
ATOM     31  H   UNL     1     127.706 128.268 137.226  1.00  0.00     0.210 HD
ENDBRANCH  29  30
ENDBRANCH   9  11
ENDBRANCH   1   9
TORSDOF 7
ENDMDL
MODEL 6
REMARK VINA RESULT:     7.033      3.313      5.639
REMARK INTER + INTRA:           9.815
REMARK INTER:                   9.587
REMARK INTRA:                   0.227
REMARK UNBOUND:                 0.109
REMARK SMILES CC[C@@H](CC[C@@H](C)[C@@H]1CC[C@@H]2C3=CC[C@@H]4C[C@@H](O)CC[C@]4(C)[C@@H]3CC[C@@]21C)C(C)C
REMARK SMILES IDX 5 1 4 2 3 3 2 4 1 5 28 6 29 7 30 8 6 9 7 10 8 11 9 12 26 13
REMARK SMILES IDX 10 14 11 15 25 16 27 17 12 18 24 19 23 20 13 21 21 22 14 23
REMARK SMILES IDX 15 24 20 25 22 26 16 27 19 28 17 29 18 30
REMARK H PARENT 18 31
REMARK Flexibility Score: inf
ROOT
ATOM      1  C   UNL     1     133.643 126.257 137.736  1.00  0.00     0.004 C 
ENDROOT
BRANCH   1   2
ATOM      2  C   UNL     1     132.194 126.153 137.209  1.00  0.00     0.004 C 
BRANCH   2   3
ATOM      3  C   UNL     1     131.484 127.526 137.010  1.00  0.00    -0.009 C 
BRANCH   3   4
ATOM      4  C   UNL     1     132.445 128.721 137.278  1.00  0.00     0.000 C 
ATOM      5  C   UNL     1     131.771 130.093 137.190  1.00  0.00     0.004 C 
ENDBRANCH   3   4
BRANCH   3   6
ATOM      6  C   UNL     1     130.155 127.670 137.834  1.00  0.00    -0.014 C 
ATOM      7  C   UNL     1     129.303 126.385 137.780  1.00  0.00     0.007 C 
ATOM      8  C   UNL     1     130.415 128.023 139.312  1.00  0.00     0.007 C 
ENDBRANCH   3   6
ENDBRANCH   2   3
ENDBRANCH   1   2
BRANCH   1   9
ATOM      9  C   UNL     1     134.217 124.894 138.209  1.00  0.00    -0.011 C 
ATOM     10  C   UNL     1     135.760 124.908 138.120  1.00  0.00     0.008 C 
BRANCH   9  11
ATOM     11  C   UNL     1     133.651 124.524 139.631  1.00  0.00    -0.002 C 
ATOM     12  C   UNL     1     132.802 125.590 140.327  1.00  0.00     0.005 C 
ATOM     13  C   UNL     1     134.666 124.038 140.704  1.00  0.00    -0.023 C 
ATOM     14  C   UNL     1     132.809 125.217 141.809  1.00  0.00     0.009 C 
ATOM     15  C   UNL     1     133.817 124.061 141.989  1.00  0.00     0.021 C 
ATOM     16  C   UNL     1     135.860 125.006 140.866  1.00  0.00     0.008 C 
ATOM     17  C   UNL     1     135.155 122.601 140.383  1.00  0.00     0.012 C 
ATOM     18  C   UNL     1     134.597 124.195 143.294  1.00  0.00    -0.067 C 
ATOM     19  C   UNL     1     136.810 124.592 141.989  1.00  0.00     0.009 C 
ATOM     20  C   UNL     1     136.124 124.211 143.341  1.00  0.00     0.021 C 
ATOM     21  C   UNL     1     133.891 124.122 144.438  1.00  0.00    -0.027 C 
ATOM     22  C   UNL     1     136.698 124.977 144.592  1.00  0.00    -0.023 C 
ATOM     23  C   UNL     1     134.457 124.405 145.796  1.00  0.00     0.031 C 
ATOM     24  C   UNL     1     136.003 124.427 145.883  1.00  0.00     0.002 C 
ATOM     25  C   UNL     1     136.443 126.510 144.490  1.00  0.00     0.010 C 
ATOM     26  C   UNL     1     138.229 124.684 144.678  1.00  0.00     0.012 C 
ATOM     27  C   UNL     1     136.435 125.192 147.162  1.00  0.00     0.036 C 
ATOM     28  C   UNL     1     136.921 127.274 145.738  1.00  0.00     0.032 C 
ATOM     29  C   UNL     1     136.291 126.727 147.031  1.00  0.00     0.114 C 
BRANCH  29  30
ATOM     30  O   UNL     1     136.839 127.365 148.156  1.00  0.00    -0.393 OA
ATOM     31  H   UNL     1     137.230 126.662 148.740  1.00  0.00     0.210 HD
ENDBRANCH  29  30
ENDBRANCH   9  11
ENDBRANCH   1   9
TORSDOF 7
ENDMDL
