MODEL 1
REMARK VINA RESULT:    -5.571      0.000      0.000
REMARK INTER + INTRA:          -6.844
REMARK INTER:                  -6.548
REMARK INTRA:                  -0.296
REMARK UNBOUND:                -0.296
REMARK SMILES O=c1c(O)c(-c2ccc(O)cc2)oc2cc(O)cc(O)c12
REMARK SMILES IDX 5 1 3 2 2 3 1 4 21 5 19 6 18 7 16 8 15 9 14 10 13 11 6 12
REMARK SMILES IDX 7 13 8 14 9 15 12 16 11 17 10 18 4 20 20 22 17 24
REMARK H PARENT 10 19 4 21 20 23 17 25
REMARK Flexibility Score: inf
ROOT
ATOM      1  C   UNL     1     -24.234  12.179 -27.325  1.00  0.00     0.180 A 
ATOM      2  C   UNL     1     -23.700  11.515 -26.207  1.00  0.00     0.208 A 
ATOM      3  C   UNL     1     -22.306  11.422 -26.072  1.00  0.00     0.238 A 
ATOM      4  O   UNL     1     -21.833  10.875 -25.042  1.00  0.00    -0.285 OA
ATOM      5  C   UNL     1     -21.463  11.980 -27.064  1.00  0.00     0.111 A 
ATOM      6  C   UNL     1     -20.038  11.909 -27.050  1.00  0.00     0.134 A 
ATOM      7  C   UNL     1     -19.301  12.609 -28.014  1.00  0.00     0.093 A 
ATOM      8  C   UNL     1     -19.939  13.321 -29.029  1.00  0.00     0.123 A 
ATOM      9  C   UNL     1     -21.332  13.348 -29.087  1.00  0.00     0.094 A 
ATOM     10  C   UNL     1     -22.094  12.690 -28.118  1.00  0.00     0.146 A 
ATOM     11  O   UNL     1     -23.417  12.748 -28.204  1.00  0.00    -0.452 OA
ENDROOT
BRANCH   1  12
ATOM     12  C   UNL     1     -25.693  12.296 -27.549  1.00  0.00     0.021 A 
ATOM     13  C   UNL     1     -26.400  11.332 -28.292  1.00  0.00     0.016 A 
ATOM     14  C   UNL     1     -27.773  11.477 -28.512  1.00  0.00     0.047 A 
ATOM     15  C   UNL     1     -28.454  12.592 -28.006  1.00  0.00     0.115 A 
ATOM     16  C   UNL     1     -26.380  13.422 -27.064  1.00  0.00     0.016 A 
ATOM     17  C   UNL     1     -27.753  13.564 -27.285  1.00  0.00     0.047 A 
BRANCH  15  18
ATOM     18  O   UNL     1     -29.823  12.746 -28.217  1.00  0.00    -0.508 OA
ATOM     19  H   UNL     1     -30.342  13.504 -27.788  1.00  0.00     0.293 HD
ENDBRANCH  15  18
ENDBRANCH   1  12
BRANCH   2  20
ATOM     20  O   UNL     1     -24.549  10.991 -25.228  1.00  0.00    -0.502 OA
ATOM     21  H   UNL     1     -24.811  11.513 -24.400  1.00  0.00     0.293 HD
ENDBRANCH   2  20
BRANCH   6  22
ATOM     22  O   UNL     1     -19.304  11.150 -26.134  1.00  0.00    -0.507 OA
ATOM     23  H   UNL     1     -19.264  11.327 -25.141  1.00  0.00     0.293 HD
ENDBRANCH   6  22
BRANCH   8  24
ATOM     24  O   UNL     1     -19.174  13.992 -29.982  1.00  0.00    -0.508 OA
ATOM     25  H   UNL     1     -18.187  13.797 -30.103  1.00  0.00     0.293 HD
ENDBRANCH   8  24
TORSDOF 5
ENDMDL
MODEL 2
REMARK VINA RESULT:    -5.440      1.812      2.274
REMARK INTER + INTRA:          -6.690
REMARK INTER:                  -6.433
REMARK INTRA:                  -0.257
REMARK UNBOUND:                -0.296
REMARK SMILES O=c1c(O)c(-c2ccc(O)cc2)oc2cc(O)cc(O)c12
REMARK SMILES IDX 5 1 3 2 2 3 1 4 21 5 19 6 18 7 16 8 15 9 14 10 13 11 6 12
REMARK SMILES IDX 7 13 8 14 9 15 12 16 11 17 10 18 4 20 20 22 17 24
REMARK H PARENT 10 19 4 21 20 23 17 25
REMARK Flexibility Score: inf
ROOT
ATOM      1  C   UNL     1     -25.535  13.158 -26.894  1.00  0.00     0.180 A 
ATOM      2  C   UNL     1     -24.992  13.065 -25.601  1.00  0.00     0.208 A 
ATOM      3  C   UNL     1     -23.723  12.489 -25.434  1.00  0.00     0.238 A 
ATOM      4  O   UNL     1     -23.219  12.459 -24.281  1.00  0.00    -0.285 OA
ATOM      5  C   UNL     1     -23.019  11.999 -26.560  1.00  0.00     0.111 A 
ATOM      6  C   UNL     1     -21.744  11.359 -26.502  1.00  0.00     0.134 A 
ATOM      7  C   UNL     1     -21.082  11.031 -27.692  1.00  0.00     0.093 A 
ATOM      8  C   UNL     1     -21.675  11.258 -28.933  1.00  0.00     0.123 A 
ATOM      9  C   UNL     1     -22.947  11.828 -28.998  1.00  0.00     0.094 A 
ATOM     10  C   UNL     1     -23.617  12.200 -27.830  1.00  0.00     0.146 A 
ATOM     11  O   UNL     1     -24.821  12.748 -27.937  1.00  0.00    -0.452 OA
ENDROOT
BRANCH   1  12
ATOM     12  C   UNL     1     -26.877  13.731 -27.147  1.00  0.00     0.021 A 
ATOM     13  C   UNL     1     -27.991  12.906 -27.390  1.00  0.00     0.016 A 
ATOM     14  C   UNL     1     -29.244  13.469 -27.651  1.00  0.00     0.047 A 
ATOM     15  C   UNL     1     -29.396  14.861 -27.687  1.00  0.00     0.115 A 
ATOM     16  C   UNL     1     -27.035  15.125 -27.207  1.00  0.00     0.016 A 
ATOM     17  C   UNL     1     -28.289  15.686 -27.467  1.00  0.00     0.047 A 
BRANCH  15  18
ATOM     18  O   UNL     1     -30.640  15.434 -27.945  1.00  0.00    -0.508 OA
ATOM     19  H   UNL     1     -31.240  15.087 -28.685  1.00  0.00     0.293 HD
ENDBRANCH  15  18
ENDBRANCH   1  12
BRANCH   2  20
ATOM     20  O   UNL     1     -25.695  13.577 -24.506  1.00  0.00    -0.502 OA
ATOM     21  H   UNL     1     -26.690  13.432 -24.382  1.00  0.00     0.293 HD
ENDBRANCH   2  20
BRANCH   6  22
ATOM     22  O   UNL     1     -21.102  11.003 -25.313  1.00  0.00    -0.507 OA
ATOM     23  H   UNL     1     -20.414  10.271 -25.227  1.00  0.00     0.293 HD
ENDBRANCH   6  22
BRANCH   8  24
ATOM     24  O   UNL     1     -20.994  10.904 -30.096  1.00  0.00    -0.508 OA
ATOM     25  H   UNL     1     -19.989  11.005 -30.173  1.00  0.00     0.293 HD
ENDBRANCH   8  24
TORSDOF 5
ENDMDL
MODEL 3
REMARK VINA RESULT:    -5.388      2.402      4.028
REMARK INTER + INTRA:          -6.629
REMARK INTER:                  -6.556
REMARK INTRA:                  -0.073
REMARK UNBOUND:                -0.296
REMARK SMILES O=c1c(O)c(-c2ccc(O)cc2)oc2cc(O)cc(O)c12
REMARK SMILES IDX 5 1 3 2 2 3 1 4 21 5 19 6 18 7 16 8 15 9 14 10 13 11 6 12
REMARK SMILES IDX 7 13 8 14 9 15 12 16 11 17 10 18 4 20 20 22 17 24
REMARK H PARENT 10 19 4 21 20 23 17 25
REMARK Flexibility Score: inf
ROOT
ATOM      1  C   UNL     1     -22.122  13.204 -28.868  1.00  0.00     0.180 A 
ATOM      2  C   UNL     1     -21.651  14.457 -29.297  1.00  0.00     0.208 A 
ATOM      3  C   UNL     1     -20.362  14.866 -28.920  1.00  0.00     0.238 A 
ATOM      4  O   UNL     1     -19.925  15.964 -29.353  1.00  0.00    -0.285 OA
ATOM      5  C   UNL     1     -19.567  14.025 -28.105  1.00  0.00     0.111 A 
ATOM      6  C   UNL     1     -18.262  14.356 -27.629  1.00  0.00     0.134 A 
ATOM      7  C   UNL     1     -17.514  13.395 -26.937  1.00  0.00     0.093 A 
ATOM      8  C   UNL     1     -18.048  12.140 -26.648  1.00  0.00     0.123 A 
ATOM      9  C   UNL     1     -19.344  11.827 -27.057  1.00  0.00     0.094 A 
ATOM     10  C   UNL     1     -20.101  12.752 -27.780  1.00  0.00     0.146 A 
ATOM     11  O   UNL     1     -21.327  12.411 -28.158  1.00  0.00    -0.452 OA
ENDROOT
BRANCH   1  12
ATOM     12  C   UNL     1     -23.478  12.714 -29.205  1.00  0.00     0.021 A 
ATOM     13  C   UNL     1     -24.628  13.452 -28.869  1.00  0.00     0.016 A 
ATOM     14  C   UNL     1     -25.899  12.958 -29.174  1.00  0.00     0.047 A 
ATOM     15  C   UNL     1     -26.038  11.715 -29.806  1.00  0.00     0.115 A 
ATOM     16  C   UNL     1     -23.628  11.459 -29.819  1.00  0.00     0.016 A 
ATOM     17  C   UNL     1     -24.900  10.968 -30.125  1.00  0.00     0.047 A 
BRANCH  15  18
ATOM     18  O   UNL     1     -27.300  11.212 -30.118  1.00  0.00    -0.508 OA
ATOM     19  H   UNL     1     -27.428  10.520 -30.848  1.00  0.00     0.293 HD
ENDBRANCH  15  18
ENDBRANCH   1  12
BRANCH   2  20
ATOM     20  O   UNL     1     -22.444  15.261 -30.121  1.00  0.00    -0.502 OA
ATOM     21  H   UNL     1     -22.679  15.001 -31.071  1.00  0.00     0.293 HD
ENDBRANCH   2  20
BRANCH   6  22
ATOM     22  O   UNL     1     -17.671  15.613 -27.784  1.00  0.00    -0.507 OA
ATOM     23  H   UNL     1     -16.902  15.960 -27.231  1.00  0.00     0.293 HD
ENDBRANCH   6  22
BRANCH   8  24
ATOM     24  O   UNL     1     -17.281  11.213 -25.944  1.00  0.00    -0.508 OA
ATOM     25  H   UNL     1     -17.588  10.255 -25.821  1.00  0.00     0.293 HD
ENDBRANCH   8  24
TORSDOF 5
ENDMDL
MODEL 4
REMARK VINA RESULT:    -5.197      1.955      3.655
REMARK INTER + INTRA:          -6.404
REMARK INTER:                  -6.115
REMARK INTRA:                  -0.289
REMARK UNBOUND:                -0.296
REMARK SMILES O=c1c(O)c(-c2ccc(O)cc2)oc2cc(O)cc(O)c12
REMARK SMILES IDX 5 1 3 2 2 3 1 4 21 5 19 6 18 7 16 8 15 9 14 10 13 11 6 12
REMARK SMILES IDX 7 13 8 14 9 15 12 16 11 17 10 18 4 20 20 22 17 24
REMARK H PARENT 10 19 4 21 20 23 17 25
REMARK Flexibility Score: inf
ROOT
ATOM      1  C   UNL     1     -25.871  13.397 -27.562  1.00  0.00     0.180 A 
ATOM      2  C   UNL     1     -25.195  13.327 -28.792  1.00  0.00     0.208 A 
ATOM      3  C   UNL     1     -23.892  12.806 -28.826  1.00  0.00     0.238 A 
ATOM      4  O   UNL     1     -23.314  12.695 -29.938  1.00  0.00    -0.285 OA
ATOM      5  C   UNL     1     -23.275  12.376 -27.626  1.00  0.00     0.111 A 
ATOM      6  C   UNL     1     -21.943  11.870 -27.538  1.00  0.00     0.134 A 
ATOM      7  C   UNL     1     -21.481  11.352 -26.321  1.00  0.00     0.093 A 
ATOM      8  C   UNL     1     -22.277  11.384 -25.176  1.00  0.00     0.123 A 
ATOM      9  C   UNL     1     -23.558  11.932 -25.239  1.00  0.00     0.094 A 
ATOM     10  C   UNL     1     -24.060  12.422 -26.446  1.00  0.00     0.146 A 
ATOM     11  O   UNL     1     -25.288  12.926 -26.465  1.00  0.00    -0.452 OA
ENDROOT
BRANCH   1  12
ATOM     12  C   UNL     1     -27.237  13.957 -27.442  1.00  0.00     0.021 A 
ATOM     13  C   UNL     1     -28.376  13.146 -27.601  1.00  0.00     0.016 A 
ATOM     14  C   UNL     1     -29.656  13.701 -27.509  1.00  0.00     0.047 A 
ATOM     15  C   UNL     1     -29.814  15.073 -27.271  1.00  0.00     0.115 A 
ATOM     16  C   UNL     1     -27.404  15.335 -27.225  1.00  0.00     0.016 A 
ATOM     17  C   UNL     1     -28.685  15.887 -27.132  1.00  0.00     0.047 A 
BRANCH  15  18
ATOM     18  O   UNL     1     -31.084  15.637 -27.175  1.00  0.00    -0.508 OA
ATOM     19  H   UNL     1     -31.424  16.297 -27.866  1.00  0.00     0.293 HD
ENDBRANCH  15  18
ENDBRANCH   1  12
BRANCH   2  20
ATOM     20  O   UNL     1     -25.832  13.736 -29.968  1.00  0.00    -0.502 OA
ATOM     21  H   UNL     1     -25.733  13.235 -30.843  1.00  0.00     0.293 HD
ENDBRANCH   2  20
BRANCH   6  22
ATOM     22  O   UNL     1     -21.033  11.876 -28.599  1.00  0.00    -0.507 OA
ATOM     23  H   UNL     1     -21.272  12.066 -29.560  1.00  0.00     0.293 HD
ENDBRANCH   6  22
BRANCH   8  24
ATOM     24  O   UNL     1     -21.778  10.875 -23.978  1.00  0.00    -0.508 OA
ATOM     25  H   UNL     1     -21.711   9.877 -23.814  1.00  0.00     0.293 HD
ENDBRANCH   8  24
TORSDOF 5
ENDMDL
MODEL 5
REMARK VINA RESULT:    -4.925      2.191      7.408
REMARK INTER + INTRA:          -6.085
REMARK INTER:                  -5.830
REMARK INTRA:                  -0.256
REMARK UNBOUND:                -0.296
REMARK SMILES O=c1c(O)c(-c2ccc(O)cc2)oc2cc(O)cc(O)c12
REMARK SMILES IDX 5 1 3 2 2 3 1 4 21 5 19 6 18 7 16 8 15 9 14 10 13 11 6 12
REMARK SMILES IDX 7 13 8 14 9 15 12 16 11 17 10 18 4 20 20 22 17 24
REMARK H PARENT 10 19 4 21 20 23 17 25
REMARK Flexibility Score: inf
ROOT
ATOM      1  C   UNL     1     -25.858  13.073 -28.492  1.00  0.00     0.180 A 
ATOM      2  C   UNL     1     -26.717  12.062 -28.956  1.00  0.00     0.208 A 
ATOM      3  C   UNL     1     -28.103  12.281 -28.927  1.00  0.00     0.238 A 
ATOM      4  O   UNL     1     -28.865  11.394 -29.395  1.00  0.00    -0.285 OA
ATOM      5  C   UNL     1     -28.614  13.500 -28.421  1.00  0.00     0.111 A 
ATOM      6  C   UNL     1     -30.002  13.812 -28.307  1.00  0.00     0.134 A 
ATOM      7  C   UNL     1     -30.391  15.099 -27.914  1.00  0.00     0.093 A 
ATOM      8  C   UNL     1     -29.445  16.062 -27.567  1.00  0.00     0.123 A 
ATOM      9  C   UNL     1     -28.086  15.749 -27.617  1.00  0.00     0.094 A 
ATOM     10  C   UNL     1     -27.667  14.486 -28.041  1.00  0.00     0.146 A 
ATOM     11  O   UNL     1     -26.365  14.231 -28.084  1.00  0.00    -0.452 OA
ENDROOT
BRANCH   1  12
ATOM     12  C   UNL     1     -24.386  12.908 -28.468  1.00  0.00     0.021 A 
ATOM     13  C   UNL     1     -23.572  13.448 -29.481  1.00  0.00     0.016 A 
ATOM     14  C   UNL     1     -22.187  13.258 -29.450  1.00  0.00     0.047 A 
ATOM     15  C   UNL     1     -21.600  12.515 -28.418  1.00  0.00     0.115 A 
ATOM     16  C   UNL     1     -23.792  12.146 -27.448  1.00  0.00     0.016 A 
ATOM     17  C   UNL     1     -22.406  11.958 -27.420  1.00  0.00     0.047 A 
BRANCH  15  18
ATOM     18  O   UNL     1     -20.221  12.320 -28.376  1.00  0.00    -0.508 OA
ATOM     19  H   UNL     1     -19.819  11.391 -28.326  1.00  0.00     0.293 HD
ENDBRANCH  15  18
ENDBRANCH   1  12
BRANCH   2  20
ATOM     20  O   UNL     1     -26.191  10.875 -29.473  1.00  0.00    -0.502 OA
ATOM     21  H   UNL     1     -25.707  10.837 -30.362  1.00  0.00     0.293 HD
ENDBRANCH   2  20
BRANCH   6  22
ATOM     22  O   UNL     1     -31.030  12.894 -28.541  1.00  0.00    -0.507 OA
ATOM     23  H   UNL     1     -31.906  12.871 -28.041  1.00  0.00     0.293 HD
ENDBRANCH   6  22
BRANCH   8  24
ATOM     24  O   UNL     1     -29.868  17.328 -27.164  1.00  0.00    -0.508 OA
ATOM     25  H   UNL     1     -29.422  17.816 -26.396  1.00  0.00     0.293 HD
ENDBRANCH   8  24
TORSDOF 5
ENDMDL
MODEL 6
REMARK VINA RESULT:    -4.384      1.891      6.896
REMARK INTER + INTRA:          -5.448
REMARK INTER:                  -5.495
REMARK INTRA:                   0.047
REMARK UNBOUND:                -0.296
REMARK SMILES O=c1c(O)c(-c2ccc(O)cc2)oc2cc(O)cc(O)c12
REMARK SMILES IDX 5 1 3 2 2 3 1 4 21 5 19 6 18 7 16 8 15 9 14 10 13 11 6 12
REMARK SMILES IDX 7 13 8 14 9 15 12 16 11 17 10 18 4 20 20 22 17 24
REMARK H PARENT 10 19 4 21 20 23 17 25
REMARK Flexibility Score: inf
ROOT
ATOM      1  C   UNL     1     -24.744  12.626 -26.509  1.00  0.00     0.180 A 
ATOM      2  C   UNL     1     -25.303  13.477 -25.540  1.00  0.00     0.208 A 
ATOM      3  C   UNL     1     -26.628  13.914 -25.700  1.00  0.00     0.238 A 
ATOM      4  O   UNL     1     -27.141  14.631 -24.802  1.00  0.00    -0.285 OA
ATOM      5  C   UNL     1     -27.371  13.508 -26.835  1.00  0.00     0.111 A 
ATOM      6  C   UNL     1     -28.707  13.922 -27.119  1.00  0.00     0.134 A 
ATOM      7  C   UNL     1     -29.391  13.355 -28.202  1.00  0.00     0.093 A 
ATOM      8  C   UNL     1     -28.767  12.439 -29.047  1.00  0.00     0.123 A 
ATOM      9  C   UNL     1     -27.441  12.072 -28.813  1.00  0.00     0.094 A 
ATOM     10  C   UNL     1     -26.745  12.593 -27.720  1.00  0.00     0.146 A 
ATOM     11  O   UNL     1     -25.489  12.211 -27.527  1.00  0.00    -0.452 OA
ENDROOT
BRANCH   1  12
ATOM     12  C   UNL     1     -23.347  12.143 -26.422  1.00  0.00     0.021 A 
ATOM     13  C   UNL     1     -22.845  11.560 -25.243  1.00  0.00     0.016 A 
ATOM     14  C   UNL     1     -21.515  11.134 -25.176  1.00  0.00     0.047 A 
ATOM     15  C   UNL     1     -20.667  11.298 -26.278  1.00  0.00     0.115 A 
ATOM     16  C   UNL     1     -22.483  12.322 -27.515  1.00  0.00     0.016 A 
ATOM     17  C   UNL     1     -21.154  11.894 -27.446  1.00  0.00     0.047 A 
BRANCH  15  18
ATOM     18  O   UNL     1     -19.340  10.875 -26.224  1.00  0.00    -0.508 OA
ATOM     19  H   UNL     1     -19.097   9.891 -26.246  1.00  0.00     0.293 HD
ENDBRANCH  15  18
ENDBRANCH   1  12
BRANCH   2  20
ATOM     20  O   UNL     1     -24.559  13.848 -24.416  1.00  0.00    -0.502 OA
ATOM     21  H   UNL     1     -24.915  13.752 -23.473  1.00  0.00     0.293 HD
ENDBRANCH   2  20
BRANCH   6  22
ATOM     22  O   UNL     1     -29.392  14.899 -26.391  1.00  0.00    -0.507 OA
ATOM     23  H   UNL     1     -29.027  15.813 -26.169  1.00  0.00     0.293 HD
ENDBRANCH   6  22
BRANCH   8  24
ATOM     24  O   UNL     1     -29.472  11.907 -30.125  1.00  0.00    -0.508 OA
ATOM     25  H   UNL     1     -29.123  11.110 -30.645  1.00  0.00     0.293 HD
ENDBRANCH   8  24
TORSDOF 5
ENDMDL
MODEL 7
REMARK VINA RESULT:    -4.289      1.794      7.059
REMARK INTER + INTRA:          -5.337
REMARK INTER:                  -5.065
REMARK INTRA:                  -0.272
REMARK UNBOUND:                -0.296
REMARK SMILES O=c1c(O)c(-c2ccc(O)cc2)oc2cc(O)cc(O)c12
REMARK SMILES IDX 5 1 3 2 2 3 1 4 21 5 19 6 18 7 16 8 15 9 14 10 13 11 6 12
REMARK SMILES IDX 7 13 8 14 9 15 12 16 11 17 10 18 4 20 20 22 17 24
REMARK H PARENT 10 19 4 21 20 23 17 25
REMARK Flexibility Score: inf
ROOT
ATOM      1  C   UNL     1     -24.507  12.641 -28.357  1.00  0.00     0.180 A 
ATOM      2  C   UNL     1     -25.167  11.755 -29.226  1.00  0.00     0.208 A 
ATOM      3  C   UNL     1     -26.568  11.797 -29.306  1.00  0.00     0.238 A 
ATOM      4  O   UNL     1     -27.150  11.039 -30.125  1.00  0.00    -0.285 OA
ATOM      5  C   UNL     1     -27.292  12.712 -28.504  1.00  0.00     0.111 A 
ATOM      6  C   UNL     1     -28.716  12.813 -28.474  1.00  0.00     0.134 A 
ATOM      7  C   UNL     1     -29.321  13.842 -27.742  1.00  0.00     0.093 A 
ATOM      8  C   UNL     1     -28.558  14.733 -26.988  1.00  0.00     0.123 A 
ATOM      9  C   UNL     1     -27.169  14.607 -26.963  1.00  0.00     0.094 A 
ATOM     10  C   UNL     1     -26.535  13.612 -27.712  1.00  0.00     0.146 A 
ATOM     11  O   UNL     1     -25.211  13.532 -27.668  1.00  0.00    -0.452 OA
ENDROOT
BRANCH   1  12
ATOM     12  C   UNL     1     -23.034  12.641 -28.201  1.00  0.00     0.021 A 
ATOM     13  C   UNL     1     -22.412  11.978 -27.126  1.00  0.00     0.016 A 
ATOM     14  C   UNL     1     -21.022  12.012 -26.984  1.00  0.00     0.047 A 
ATOM     15  C   UNL     1     -20.237  12.720 -27.904  1.00  0.00     0.115 A 
ATOM     16  C   UNL     1     -22.241  13.366 -29.106  1.00  0.00     0.016 A 
ATOM     17  C   UNL     1     -20.851  13.397 -28.963  1.00  0.00     0.047 A 
BRANCH  15  18
ATOM     18  O   UNL     1     -18.851  12.759 -27.775  1.00  0.00    -0.508 OA
ATOM     19  H   UNL     1     -18.405  12.805 -26.865  1.00  0.00     0.293 HD
ENDBRANCH  15  18
ENDBRANCH   1  12
BRANCH   2  20
ATOM     20  O   UNL     1     -24.432  10.875 -30.025  1.00  0.00    -0.502 OA
ATOM     21  H   UNL     1     -23.646  11.179 -30.588  1.00  0.00     0.293 HD
ENDBRANCH   2  20
BRANCH   6  22
ATOM     22  O   UNL     1     -29.575  11.918 -29.119  1.00  0.00    -0.507 OA
ATOM     23  H   UNL     1     -29.697  10.950 -28.862  1.00  0.00     0.293 HD
ENDBRANCH   6  22
BRANCH   8  24
ATOM     24  O   UNL     1     -29.194  15.736 -26.259  1.00  0.00    -0.508 OA
ATOM     25  H   UNL     1     -30.058  16.157 -26.579  1.00  0.00     0.293 HD
ENDBRANCH   8  24
TORSDOF 5
ENDMDL
MODEL 8
REMARK VINA RESULT:    -4.126      1.915      6.986
REMARK INTER + INTRA:          -5.145
REMARK INTER:                  -4.857
REMARK INTRA:                  -0.289
REMARK UNBOUND:                -0.296
REMARK SMILES O=c1c(O)c(-c2ccc(O)cc2)oc2cc(O)cc(O)c12
REMARK SMILES IDX 5 1 3 2 2 3 1 4 21 5 19 6 18 7 16 8 15 9 14 10 13 11 6 12
REMARK SMILES IDX 7 13 8 14 9 15 12 16 11 17 10 18 4 20 20 22 17 24
REMARK H PARENT 10 19 4 21 20 23 17 25
REMARK Flexibility Score: inf
ROOT
ATOM      1  C   UNL     1     -22.140  12.070 -27.611  1.00  0.00     0.180 A 
ATOM      2  C   UNL     1     -22.648  11.514 -28.798  1.00  0.00     0.208 A 
ATOM      3  C   UNL     1     -24.031  11.561 -29.035  1.00  0.00     0.238 A 
ATOM      4  O   UNL     1     -24.474  11.111 -30.124  1.00  0.00    -0.285 OA
ATOM      5  C   UNL     1     -24.890  12.147 -28.075  1.00  0.00     0.111 A 
ATOM      6  C   UNL     1     -26.311  12.212 -28.192  1.00  0.00     0.134 A 
ATOM      7  C   UNL     1     -27.051  12.931 -27.244  1.00  0.00     0.093 A 
ATOM      8  C   UNL     1     -26.429  13.530 -26.150  1.00  0.00     0.123 A 
ATOM      9  C   UNL     1     -25.046  13.422 -25.994  1.00  0.00     0.094 A 
ATOM     10  C   UNL     1     -24.278  12.742 -26.942  1.00  0.00     0.146 A 
ATOM     11  O   UNL     1     -22.965  12.671 -26.761  1.00  0.00    -0.452 OA
ENDROOT
BRANCH   1  12
ATOM     12  C   UNL     1     -20.697  12.038 -27.280  1.00  0.00     0.021 A 
ATOM     13  C   UNL     1     -19.826  13.061 -27.699  1.00  0.00     0.016 A 
ATOM     14  C   UNL     1     -18.463  12.997 -27.396  1.00  0.00     0.047 A 
ATOM     15  C   UNL     1     -17.951  11.905 -26.683  1.00  0.00     0.115 A 
ATOM     16  C   UNL     1     -20.171  10.937 -26.584  1.00  0.00     0.016 A 
ATOM     17  C   UNL     1     -18.807  10.876 -26.281  1.00  0.00     0.047 A 
BRANCH  15  18
ATOM     18  O   UNL     1     -16.594  11.832 -26.373  1.00  0.00    -0.508 OA
ATOM     19  H   UNL     1     -16.277  11.640 -25.430  1.00  0.00     0.293 HD
ENDBRANCH  15  18
ENDBRANCH   1  12
BRANCH   2  20
ATOM     20  O   UNL     1     -21.779  10.961 -29.743  1.00  0.00    -0.502 OA
ATOM     21  H   UNL     1     -20.781  11.133 -29.731  1.00  0.00     0.293 HD
ENDBRANCH   2  20
BRANCH   6  22
ATOM     22  O   UNL     1     -27.042  11.572 -29.197  1.00  0.00    -0.507 OA
ATOM     23  H   UNL     1     -28.006  11.767 -29.422  1.00  0.00     0.293 HD
ENDBRANCH   6  22
BRANCH   8  24
ATOM     24  O   UNL     1     -27.197  14.224 -25.217  1.00  0.00    -0.508 OA
ATOM     25  H   UNL     1     -26.772  14.704 -24.432  1.00  0.00     0.293 HD
ENDBRANCH   8  24
TORSDOF 5
ENDMDL
MODEL 9
REMARK VINA RESULT:    -3.652      2.841      7.688
REMARK INTER + INTRA:          -4.588
REMARK INTER:                  -5.153
REMARK INTRA:                   0.564
REMARK UNBOUND:                -0.296
REMARK SMILES O=c1c(O)c(-c2ccc(O)cc2)oc2cc(O)cc(O)c12
REMARK SMILES IDX 5 1 3 2 2 3 1 4 21 5 19 6 18 7 16 8 15 9 14 10 13 11 6 12
REMARK SMILES IDX 7 13 8 14 9 15 12 16 11 17 10 18 4 20 20 22 17 24
REMARK H PARENT 10 19 4 21 20 23 17 25
REMARK Flexibility Score: inf
ROOT
ATOM      1  C   UNL     1     -26.708  12.662 -27.209  1.00  0.00     0.180 A 
ATOM      2  C   UNL     1     -27.161  11.921 -28.314  1.00  0.00     0.208 A 
ATOM      3  C   UNL     1     -28.380  12.272 -28.916  1.00  0.00     0.238 A 
ATOM      4  O   UNL     1     -28.754  11.641 -29.939  1.00  0.00    -0.285 OA
ATOM      5  C   UNL     1     -29.138  13.349 -28.396  1.00  0.00     0.111 A 
ATOM      6  C   UNL     1     -30.406  13.766 -28.901  1.00  0.00     0.134 A 
ATOM      7  C   UNL     1     -31.005  14.925 -28.393  1.00  0.00     0.093 A 
ATOM      8  C   UNL     1     -30.415  15.644 -27.353  1.00  0.00     0.123 A 
ATOM      9  C   UNL     1     -29.205  15.211 -26.812  1.00  0.00     0.094 A 
ATOM     10  C   UNL     1     -28.565  14.079 -27.323  1.00  0.00     0.146 A 
ATOM     11  O   UNL     1     -27.410  13.707 -26.785  1.00  0.00    -0.452 OA
ENDROOT
BRANCH   1  12
ATOM     12  C   UNL     1     -25.445  12.337 -26.506  1.00  0.00     0.021 A 
ATOM     13  C   UNL     1     -25.076  12.998 -25.320  1.00  0.00     0.016 A 
ATOM     14  C   UNL     1     -23.867  12.693 -24.687  1.00  0.00     0.047 A 
ATOM     15  C   UNL     1     -23.007  11.734 -25.238  1.00  0.00     0.115 A 
ATOM     16  C   UNL     1     -24.567  11.392 -27.062  1.00  0.00     0.016 A 
ATOM     17  C   UNL     1     -23.359  11.087 -26.427  1.00  0.00     0.047 A 
BRANCH  15  18
ATOM     18  O   UNL     1     -21.801  11.419 -24.615  1.00  0.00    -0.508 OA
ATOM     19  H   UNL     1     -20.954  11.262 -25.151  1.00  0.00     0.293 HD
ENDBRANCH  15  18
ENDBRANCH   1  12
BRANCH   2  20
ATOM     20  O   UNL     1     -26.386  10.877 -28.826  1.00  0.00    -0.502 OA
ATOM     21  H   UNL     1     -25.455  11.022 -29.197  1.00  0.00     0.293 HD
ENDBRANCH   2  20
BRANCH   6  22
ATOM     22  O   UNL     1     -31.125  13.068 -29.876  1.00  0.00    -0.507 OA
ATOM     23  H   UNL     1     -31.589  13.494 -30.664  1.00  0.00     0.293 HD
ENDBRANCH   6  22
BRANCH   8  24
ATOM     24  O   UNL     1     -31.048  16.784 -26.861  1.00  0.00    -0.508 OA
ATOM     25  H   UNL     1     -31.321  16.860 -25.888  1.00  0.00     0.293 HD
ENDBRANCH   8  24
TORSDOF 5
ENDMDL
