MODEL 1
REMARK VINA RESULT:    -4.764      0.000      0.000
REMARK INTER + INTRA:         -15.375
REMARK INTER:                 -12.005
REMARK INTRA:                  -3.370
REMARK UNBOUND:                -3.370
REMARK SMILES CCCCCCCCCCCCCCCCCCCCCCCCCCCC(=O)[O-]
REMARK SMILES IDX 15 1 16 2 17 3 18 4 19 5 20 6 21 7 22 8 23 9 24 10 25 11
REMARK SMILES IDX 26 12 27 13 28 14 29 15 30 16 14 17 13 18 12 19 11 20 10 21
REMARK SMILES IDX 9 22 8 23 7 24 6 25 5 26 4 27 3 28 2 29 1 30
REMARK H PARENT
REMARK Flexibility Score: inf
ROOT
ATOM      1  C   UNL     1      12.369   7.627  21.144  1.00  0.00     0.000 C 
ENDROOT
BRANCH   1   2
ATOM      2  C   UNL     1      11.188   6.745  21.599  1.00  0.00     0.000 C 
BRANCH   2   3
ATOM      3  C   UNL     1       9.843   7.490  21.672  1.00  0.00     0.000 C 
BRANCH   3   4
ATOM      4  C   UNL     1       8.698   6.728  20.982  1.00  0.00     0.000 C 
BRANCH   4   5
ATOM      5  C   UNL     1       7.377   7.518  20.948  1.00  0.00     0.000 C 
BRANCH   5   6
ATOM      6  C   UNL     1       6.098   6.685  21.161  1.00  0.00     0.000 C 
BRANCH   6   7
ATOM      7  C   UNL     1       5.048   7.402  22.027  1.00  0.00     0.000 C 
BRANCH   7   8
ATOM      8  C   UNL     1       5.018   8.924  21.790  1.00  0.00     0.000 C 
BRANCH   8   9
ATOM      9  C   UNL     1       3.783   9.440  21.025  1.00  0.00     0.000 C 
BRANCH   9  10
ATOM     10  C   UNL     1       3.402   8.623  19.775  1.00  0.00     0.000 C 
BRANCH  10  11
ATOM     11  C   UNL     1       4.252   8.959  18.531  1.00  0.00     0.000 C 
BRANCH  11  12
ATOM     12  C   UNL     1       4.804   7.698  17.845  1.00  0.00     0.006 C 
BRANCH  12  13
ATOM     13  C   UNL     1       6.271   7.863  17.425  1.00  0.00     0.053 C 
BRANCH  13  14
ATOM     14  C   UNL     1       6.515   7.307  16.056  1.00  0.00     0.041 C 
ATOM     15  O   UNL     1       5.861   6.312  15.650  1.00  0.00    -0.550 OA
ATOM     16  O   UNL     1       7.488   7.871  15.241  1.00  0.00    -0.550 OA
ENDBRANCH  13  14
ENDBRANCH  12  13
ENDBRANCH  11  12
ENDBRANCH  10  11
ENDBRANCH   9  10
ENDBRANCH   8   9
ENDBRANCH   7   8
ENDBRANCH   6   7
ENDBRANCH   5   6
ENDBRANCH   4   5
ENDBRANCH   3   4
ENDBRANCH   2   3
ENDBRANCH   1   2
BRANCH   1  17
ATOM     17  C   UNL     1      11.933   9.072  20.846  1.00  0.00     0.000 C 
BRANCH  17  18
ATOM     18  C   UNL     1      12.756  10.114  21.618  1.00  0.00     0.000 C 
BRANCH  18  19
ATOM     19  C   UNL     1      14.246   9.739  21.720  1.00  0.00     0.000 C 
BRANCH  19  20
ATOM     20  C   UNL     1      14.741   9.689  23.175  1.00  0.00     0.000 C 
BRANCH  20  21
ATOM     21  C   UNL     1      15.170   8.275  23.605  1.00  0.00     0.000 C 
BRANCH  21  22
ATOM     22  C   UNL     1      14.105   7.559  24.456  1.00  0.00    -0.000 C 
BRANCH  22  23
ATOM     23  C   UNL     1      13.191   8.493  25.271  1.00  0.00    -0.000 C 
BRANCH  23  24
ATOM     24  C   UNL     1      11.724   8.445  24.819  1.00  0.00    -0.000 C 
BRANCH  24  25
ATOM     25  C   UNL     1      11.023   7.193  25.361  1.00  0.00    -0.000 C 
BRANCH  25  26
ATOM     26  C   UNL     1      11.358   6.972  26.843  1.00  0.00    -0.000 C 
BRANCH  26  27
ATOM     27  C   UNL     1      10.168   6.423  27.651  1.00  0.00    -0.000 C 
BRANCH  27  28
ATOM     28  C   UNL     1       9.729   4.997  27.268  1.00  0.00    -0.000 C 
BRANCH  28  29
ATOM     29  C   UNL     1       9.615   4.061  28.481  1.00  0.00    -0.003 C 
ATOM     30  C   UNL     1      10.557   4.496  29.600  1.00  0.00     0.004 C 
ENDBRANCH  28  29
ENDBRANCH  27  28
ENDBRANCH  26  27
ENDBRANCH  25  26
ENDBRANCH  24  25
ENDBRANCH  23  24
ENDBRANCH  22  23
ENDBRANCH  21  22
ENDBRANCH  20  21
ENDBRANCH  19  20
ENDBRANCH  18  19
ENDBRANCH  17  18
ENDBRANCH   1  17
TORSDOF 26
ENDMDL
MODEL 2
REMARK VINA RESULT:    -4.744      4.302     11.279
REMARK INTER + INTRA:         -15.325
REMARK INTER:                 -13.099
REMARK INTRA:                  -2.226
REMARK UNBOUND:                -3.370
REMARK SMILES CCCCCCCCCCCCCCCCCCCCCCCCCCCC(=O)[O-]
REMARK SMILES IDX 15 1 16 2 17 3 18 4 19 5 20 6 21 7 22 8 23 9 24 10 25 11
REMARK SMILES IDX 26 12 27 13 28 14 29 15 30 16 14 17 13 18 12 19 11 20 10 21
REMARK SMILES IDX 9 22 8 23 7 24 6 25 5 26 4 27 3 28 2 29 1 30
REMARK H PARENT
REMARK Flexibility Score: inf
ROOT
ATOM      1  C   UNL     1       9.201   6.760  21.371  1.00  0.00     0.000 C 
ENDROOT
BRANCH   1   2
ATOM      2  C   UNL     1      10.238   7.631  22.112  1.00  0.00     0.000 C 
BRANCH   2   3
ATOM      3  C   UNL     1      11.617   6.965  22.267  1.00  0.00     0.000 C 
BRANCH   3   4
ATOM      4  C   UNL     1      12.760   7.813  21.683  1.00  0.00     0.000 C 
BRANCH   4   5
ATOM      5  C   UNL     1      13.118   9.032  22.554  1.00  0.00     0.000 C 
BRANCH   5   6
ATOM      6  C   UNL     1      14.568   9.074  23.073  1.00  0.00     0.000 C 
BRANCH   6   7
ATOM      7  C   UNL     1      14.944   7.841  23.913  1.00  0.00     0.000 C 
BRANCH   7   8
ATOM      8  C   UNL     1      14.372   7.894  25.342  1.00  0.00     0.000 C 
BRANCH   8   9
ATOM      9  C   UNL     1      13.266   6.862  25.640  1.00  0.00     0.000 C 
BRANCH   9  10
ATOM     10  C   UNL     1      12.173   7.340  26.616  1.00  0.00     0.000 C 
BRANCH  10  11
ATOM     11  C   UNL     1      10.757   6.843  26.254  1.00  0.00     0.000 C 
BRANCH  11  12
ATOM     12  C   UNL     1      10.380   5.557  27.008  1.00  0.00     0.006 C 
BRANCH  12  13
ATOM     13  C   UNL     1       9.068   5.708  27.789  1.00  0.00     0.053 C 
BRANCH  13  14
ATOM     14  C   UNL     1       9.321   6.075  29.219  1.00  0.00     0.041 C 
ATOM     15  O   UNL     1      10.074   5.365  29.934  1.00  0.00    -0.550 OA
ATOM     16  O   UNL     1       8.699   7.188  29.770  1.00  0.00    -0.550 OA
ENDBRANCH  13  14
ENDBRANCH  12  13
ENDBRANCH  11  12
ENDBRANCH  10  11
ENDBRANCH   9  10
ENDBRANCH   8   9
ENDBRANCH   7   8
ENDBRANCH   6   7
ENDBRANCH   5   6
ENDBRANCH   4   5
ENDBRANCH   3   4
ENDBRANCH   2   3
ENDBRANCH   1   2
BRANCH   1  17
ATOM     17  C   UNL     1       8.079   7.604  20.742  1.00  0.00     0.000 C 
BRANCH  17  18
ATOM     18  C   UNL     1       6.676   7.118  21.134  1.00  0.00     0.000 C 
BRANCH  18  19
ATOM     19  C   UNL     1       5.668   7.210  19.974  1.00  0.00     0.000 C 
BRANCH  19  20
ATOM     20  C   UNL     1       6.315   7.709  18.672  1.00  0.00     0.000 C 
BRANCH  20  21
ATOM     21  C   UNL     1       5.363   7.615  17.466  1.00  0.00     0.000 C 
BRANCH  21  22
ATOM     22  C   UNL     1       5.689   8.640  16.365  1.00  0.00    -0.000 C 
BRANCH  22  23
ATOM     23  C   UNL     1       6.321   8.046  15.092  1.00  0.00    -0.000 C 
BRANCH  23  24
ATOM     24  C   UNL     1       5.804   6.638  14.764  1.00  0.00    -0.000 C 
BRANCH  24  25
ATOM     25  C   UNL     1       6.884   5.581  15.026  1.00  0.00    -0.000 C 
BRANCH  25  26
ATOM     26  C   UNL     1       7.778   5.390  13.792  1.00  0.00    -0.000 C 
BRANCH  26  27
ATOM     27  C   UNL     1       6.989   5.423  12.470  1.00  0.00    -0.000 C 
BRANCH  27  28
ATOM     28  C   UNL     1       7.609   6.303  11.369  1.00  0.00    -0.000 C 
BRANCH  28  29
ATOM     29  C   UNL     1       7.249   7.790  11.518  1.00  0.00    -0.003 C 
ATOM     30  C   UNL     1       8.428   8.587  12.068  1.00  0.00     0.004 C 
ENDBRANCH  28  29
ENDBRANCH  27  28
ENDBRANCH  26  27
ENDBRANCH  25  26
ENDBRANCH  24  25
ENDBRANCH  23  24
ENDBRANCH  22  23
ENDBRANCH  21  22
ENDBRANCH  20  21
ENDBRANCH  19  20
ENDBRANCH  18  19
ENDBRANCH  17  18
ENDBRANCH   1  17
TORSDOF 26
ENDMDL
MODEL 3
REMARK VINA RESULT:    -4.732      1.179      2.131
REMARK INTER + INTRA:         -15.295
REMARK INTER:                 -12.591
REMARK INTRA:                  -2.704
REMARK UNBOUND:                -3.370
REMARK SMILES CCCCCCCCCCCCCCCCCCCCCCCCCCCC(=O)[O-]
REMARK SMILES IDX 15 1 16 2 17 3 18 4 19 5 20 6 21 7 22 8 23 9 24 10 25 11
REMARK SMILES IDX 26 12 27 13 28 14 29 15 30 16 14 17 13 18 12 19 11 20 10 21
REMARK SMILES IDX 9 22 8 23 7 24 6 25 5 26 4 27 3 28 2 29 1 30
REMARK H PARENT
REMARK Flexibility Score: inf
ROOT
ATOM      1  C   UNL     1      12.264   8.282  21.910  1.00  0.00     0.000 C 
ENDROOT
BRANCH   1   2
ATOM      2  C   UNL     1      11.635   6.882  21.752  1.00  0.00     0.000 C 
BRANCH   2   3
ATOM      3  C   UNL     1      10.096   6.887  21.724  1.00  0.00     0.000 C 
BRANCH   3   4
ATOM      4  C   UNL     1       9.505   8.302  21.602  1.00  0.00     0.000 C 
BRANCH   4   5
ATOM      5  C   UNL     1       7.977   8.307  21.408  1.00  0.00     0.000 C 
BRANCH   5   6
ATOM      6  C   UNL     1       7.407   7.126  20.597  1.00  0.00     0.000 C 
BRANCH   6   7
ATOM      7  C   UNL     1       5.983   6.731  21.027  1.00  0.00     0.000 C 
BRANCH   7   8
ATOM      8  C   UNL     1       5.313   7.791  21.921  1.00  0.00     0.000 C 
BRANCH   8   9
ATOM      9  C   UNL     1       3.997   8.372  21.368  1.00  0.00     0.000 C 
BRANCH   9  10
ATOM     10  C   UNL     1       4.078   8.920  19.929  1.00  0.00     0.000 C 
BRANCH  10  11
ATOM     11  C   UNL     1       2.821   8.629  19.082  1.00  0.00     0.000 C 
BRANCH  11  12
ATOM     12  C   UNL     1       3.173   8.115  17.676  1.00  0.00     0.006 C 
BRANCH  12  13
ATOM     13  C   UNL     1       4.350   7.132  17.697  1.00  0.00     0.053 C 
BRANCH  13  14
ATOM     14  C   UNL     1       5.436   7.557  16.757  1.00  0.00     0.041 C 
ATOM     15  O   UNL     1       6.576   7.856  17.197  1.00  0.00    -0.550 OA
ATOM     16  O   UNL     1       5.178   7.650  15.395  1.00  0.00    -0.550 OA
ENDBRANCH  13  14
ENDBRANCH  12  13
ENDBRANCH  11  12
ENDBRANCH  10  11
ENDBRANCH   9  10
ENDBRANCH   8   9
ENDBRANCH   7   8
ENDBRANCH   6   7
ENDBRANCH   5   6
ENDBRANCH   4   5
ENDBRANCH   3   4
ENDBRANCH   2   3
ENDBRANCH   1   2
BRANCH   1  17
ATOM     17  C   UNL     1      13.794   8.252  21.755  1.00  0.00     0.000 C 
BRANCH  17  18
ATOM     18  C   UNL     1      14.525   8.939  22.918  1.00  0.00     0.000 C 
BRANCH  18  19
ATOM     19  C   UNL     1      15.319   7.949  23.790  1.00  0.00     0.000 C 
BRANCH  19  20
ATOM     20  C   UNL     1      14.807   7.900  25.238  1.00  0.00     0.000 C 
BRANCH  20  21
ATOM     21  C   UNL     1      13.399   8.505  25.387  1.00  0.00     0.000 C 
BRANCH  21  22
ATOM     22  C   UNL     1      12.344   7.468  25.812  1.00  0.00    -0.000 C 
BRANCH  22  23
ATOM     23  C   UNL     1      12.889   6.046  26.044  1.00  0.00    -0.000 C 
BRANCH  23  24
ATOM     24  C   UNL     1      12.140   5.288  27.149  1.00  0.00    -0.000 C 
BRANCH  24  25
ATOM     25  C   UNL     1      10.623   5.466  27.008  1.00  0.00    -0.000 C 
BRANCH  25  26
ATOM     26  C   UNL     1       9.881   4.171  27.369  1.00  0.00    -0.000 C 
BRANCH  26  27
ATOM     27  C   UNL     1       9.382   4.153  28.825  1.00  0.00    -0.000 C 
BRANCH  27  28
ATOM     28  C   UNL     1       9.396   5.523  29.531  1.00  0.00    -0.000 C 
BRANCH  28  29
ATOM     29  C   UNL     1      10.079   5.480  30.906  1.00  0.00    -0.003 C 
ATOM     30  C   UNL     1      11.272   4.529  30.896  1.00  0.00     0.004 C 
ENDBRANCH  28  29
ENDBRANCH  27  28
ENDBRANCH  26  27
ENDBRANCH  25  26
ENDBRANCH  24  25
ENDBRANCH  23  24
ENDBRANCH  22  23
ENDBRANCH  21  22
ENDBRANCH  20  21
ENDBRANCH  19  20
ENDBRANCH  18  19
ENDBRANCH  17  18
ENDBRANCH   1  17
TORSDOF 26
ENDMDL
MODEL 4
REMARK VINA RESULT:    -4.676      1.193      2.334
REMARK INTER + INTRA:         -15.153
REMARK INTER:                 -11.946
REMARK INTRA:                  -3.206
REMARK UNBOUND:                -3.370
REMARK SMILES CCCCCCCCCCCCCCCCCCCCCCCCCCCC(=O)[O-]
REMARK SMILES IDX 15 1 16 2 17 3 18 4 19 5 20 6 21 7 22 8 23 9 24 10 25 11
REMARK SMILES IDX 26 12 27 13 28 14 29 15 30 16 14 17 13 18 12 19 11 20 10 21
REMARK SMILES IDX 9 22 8 23 7 24 6 25 5 26 4 27 3 28 2 29 1 30
REMARK H PARENT
REMARK Flexibility Score: inf
ROOT
ATOM      1  C   UNL     1       8.954   7.045  21.041  1.00  0.00     0.000 C 
ENDROOT
BRANCH   1   2
ATOM      2  C   UNL     1       8.309   8.416  20.747  1.00  0.00     0.000 C 
BRANCH   2   3
ATOM      3  C   UNL     1       7.087   8.344  19.814  1.00  0.00     0.000 C 
BRANCH   3   4
ATOM      4  C   UNL     1       6.198   7.118  20.085  1.00  0.00     0.000 C 
BRANCH   4   5
ATOM      5  C   UNL     1       5.344   7.257  21.359  1.00  0.00     0.000 C 
BRANCH   5   6
ATOM      6  C   UNL     1       4.538   8.566  21.478  1.00  0.00     0.000 C 
BRANCH   6   7
ATOM      7  C   UNL     1       3.364   8.643  20.486  1.00  0.00     0.000 C 
BRANCH   7   8
ATOM      8  C   UNL     1       3.539   9.759  19.439  1.00  0.00     0.000 C 
BRANCH   8   9
ATOM      9  C   UNL     1       3.608   9.275  17.977  1.00  0.00     0.000 C 
BRANCH   9  10
ATOM     10  C   UNL     1       3.220   7.800  17.758  1.00  0.00     0.000 C 
BRANCH  10  11
ATOM     11  C   UNL     1       4.168   7.044  16.803  1.00  0.00     0.000 C 
BRANCH  11  12
ATOM     12  C   UNL     1       5.303   7.939  16.278  1.00  0.00     0.006 C 
BRANCH  12  13
ATOM     13  C   UNL     1       6.660   7.225  16.301  1.00  0.00     0.053 C 
BRANCH  13  14
ATOM     14  C   UNL     1       7.232   7.090  14.923  1.00  0.00     0.041 C 
ATOM     15  O   UNL     1       6.551   6.570  14.002  1.00  0.00    -0.550 OA
ATOM     16  O   UNL     1       8.529   7.513  14.666  1.00  0.00    -0.550 OA
ENDBRANCH  13  14
ENDBRANCH  12  13
ENDBRANCH  11  12
ENDBRANCH  10  11
ENDBRANCH   9  10
ENDBRANCH   8   9
ENDBRANCH   7   8
ENDBRANCH   6   7
ENDBRANCH   5   6
ENDBRANCH   4   5
ENDBRANCH   3   4
ENDBRANCH   2   3
ENDBRANCH   1   2
BRANCH   1  17
ATOM     17  C   UNL     1      10.109   7.153  22.052  1.00  0.00     0.000 C 
BRANCH  17  18
ATOM     18  C   UNL     1      11.461   6.729  21.460  1.00  0.00     0.000 C 
BRANCH  18  19
ATOM     19  C   UNL     1      12.139   7.854  20.658  1.00  0.00     0.000 C 
BRANCH  19  20
ATOM     20  C   UNL     1      12.834   8.884  21.563  1.00  0.00     0.000 C 
BRANCH  20  21
ATOM     21  C   UNL     1      13.789   8.230  22.577  1.00  0.00     0.000 C 
BRANCH  21  22
ATOM     22  C   UNL     1      13.777   8.929  23.948  1.00  0.00    -0.000 C 
BRANCH  22  23
ATOM     23  C   UNL     1      12.588   8.560  24.855  1.00  0.00    -0.000 C 
BRANCH  23  24
ATOM     24  C   UNL     1      12.471   7.051  25.109  1.00  0.00    -0.000 C 
BRANCH  24  25
ATOM     25  C   UNL     1      11.165   6.716  25.840  1.00  0.00    -0.000 C 
BRANCH  25  26
ATOM     26  C   UNL     1      11.404   5.678  26.948  1.00  0.00    -0.000 C 
BRANCH  26  27
ATOM     27  C   UNL     1      10.104   5.014  27.436  1.00  0.00    -0.000 C 
BRANCH  27  28
ATOM     28  C   UNL     1       8.944   5.989  27.715  1.00  0.00    -0.000 C 
BRANCH  28  29
ATOM     29  C   UNL     1       9.086   6.717  29.060  1.00  0.00    -0.003 C 
ATOM     30  C   UNL     1       9.341   5.729  30.194  1.00  0.00     0.004 C 
ENDBRANCH  28  29
ENDBRANCH  27  28
ENDBRANCH  26  27
ENDBRANCH  25  26
ENDBRANCH  24  25
ENDBRANCH  23  24
ENDBRANCH  22  23
ENDBRANCH  21  22
ENDBRANCH  20  21
ENDBRANCH  19  20
ENDBRANCH  18  19
ENDBRANCH  17  18
ENDBRANCH   1  17
TORSDOF 26
ENDMDL
MODEL 5
REMARK VINA RESULT:    -4.667      2.168      4.580
REMARK INTER + INTRA:         -15.132
REMARK INTER:                 -11.812
REMARK INTRA:                  -3.320
REMARK UNBOUND:                -3.370
REMARK SMILES CCCCCCCCCCCCCCCCCCCCCCCCCCCC(=O)[O-]
REMARK SMILES IDX 15 1 16 2 17 3 18 4 19 5 20 6 21 7 22 8 23 9 24 10 25 11
REMARK SMILES IDX 26 12 27 13 28 14 29 15 30 16 14 17 13 18 12 19 11 20 10 21
REMARK SMILES IDX 9 22 8 23 7 24 6 25 5 26 4 27 3 28 2 29 1 30
REMARK H PARENT
REMARK Flexibility Score: inf
ROOT
ATOM      1  C   UNL     1       7.509   7.967  20.175  1.00  0.00     0.000 C 
ENDROOT
BRANCH   1   2
ATOM      2  C   UNL     1       6.631   7.688  21.413  1.00  0.00     0.000 C 
BRANCH   2   3
ATOM      3  C   UNL     1       5.139   7.493  21.090  1.00  0.00     0.000 C 
BRANCH   3   4
ATOM      4  C   UNL     1       4.416   8.816  20.777  1.00  0.00     0.000 C 
BRANCH   4   5
ATOM      5  C   UNL     1       3.234   8.646  19.806  1.00  0.00     0.000 C 
BRANCH   5   6
ATOM      6  C   UNL     1       3.611   8.270  18.360  1.00  0.00     0.000 C 
BRANCH   6   7
ATOM      7  C   UNL     1       4.291   9.420  17.596  1.00  0.00     0.000 C 
BRANCH   7   8
ATOM      8  C   UNL     1       5.329   8.925  16.572  1.00  0.00     0.000 C 
BRANCH   8   9
ATOM      9  C   UNL     1       6.056   7.622  16.959  1.00  0.00     0.000 C 
BRANCH   9  10
ATOM     10  C   UNL     1       6.551   6.772  15.772  1.00  0.00     0.000 C 
BRANCH  10  11
ATOM     11  C   UNL     1       7.040   7.610  14.571  1.00  0.00     0.000 C 
BRANCH  11  12
ATOM     12  C   UNL     1       8.190   6.925  13.812  1.00  0.00     0.006 C 
BRANCH  12  13
ATOM     13  C   UNL     1       7.679   5.905  12.786  1.00  0.00     0.053 C 
BRANCH  13  14
ATOM     14  C   UNL     1       6.489   6.426  12.041  1.00  0.00     0.041 C 
ATOM     15  O   UNL     1       5.334   6.018  12.324  1.00  0.00    -0.550 OA
ATOM     16  O   UNL     1       6.663   7.342  11.011  1.00  0.00    -0.550 OA
ENDBRANCH  13  14
ENDBRANCH  12  13
ENDBRANCH  11  12
ENDBRANCH  10  11
ENDBRANCH   9  10
ENDBRANCH   8   9
ENDBRANCH   7   8
ENDBRANCH   6   7
ENDBRANCH   5   6
ENDBRANCH   4   5
ENDBRANCH   3   4
ENDBRANCH   2   3
ENDBRANCH   1   2
BRANCH   1  17
ATOM     17  C   UNL     1       8.782   8.753  20.533  1.00  0.00     0.000 C 
BRANCH  17  18
ATOM     18  C   UNL     1       9.542   8.149  21.723  1.00  0.00     0.000 C 
BRANCH  18  19
ATOM     19  C   UNL     1      10.125   6.758  21.412  1.00  0.00     0.000 C 
BRANCH  19  20
ATOM     20  C   UNL     1      11.656   6.779  21.280  1.00  0.00     0.000 C 
BRANCH  20  21
ATOM     21  C   UNL     1      12.238   8.201  21.383  1.00  0.00     0.000 C 
BRANCH  21  22
ATOM     22  C   UNL     1      13.726   8.211  21.779  1.00  0.00    -0.000 C 
BRANCH  22  23
ATOM     23  C   UNL     1      14.184   9.464  22.548  1.00  0.00    -0.000 C 
BRANCH  23  24
ATOM     24  C   UNL     1      15.264   9.165  23.597  1.00  0.00    -0.000 C 
BRANCH  24  25
ATOM     25  C   UNL     1      15.242   7.685  24.002  1.00  0.00    -0.000 C 
BRANCH  25  26
ATOM     26  C   UNL     1      14.534   7.495  25.351  1.00  0.00    -0.000 C 
BRANCH  26  27
ATOM     27  C   UNL     1      13.296   6.585  25.254  1.00  0.00    -0.000 C 
BRANCH  27  28
ATOM     28  C   UNL     1      11.968   7.324  25.001  1.00  0.00    -0.000 C 
BRANCH  28  29
ATOM     29  C   UNL     1      11.939   8.729  25.621  1.00  0.00    -0.003 C 
ATOM     30  C   UNL     1      11.186   9.708  24.726  1.00  0.00     0.004 C 
ENDBRANCH  28  29
ENDBRANCH  27  28
ENDBRANCH  26  27
ENDBRANCH  25  26
ENDBRANCH  24  25
ENDBRANCH  23  24
ENDBRANCH  22  23
ENDBRANCH  21  22
ENDBRANCH  20  21
ENDBRANCH  19  20
ENDBRANCH  18  19
ENDBRANCH  17  18
ENDBRANCH   1  17
TORSDOF 26
ENDMDL
MODEL 6
REMARK VINA RESULT:    -4.647      2.114      6.630
REMARK INTER + INTRA:         -15.079
REMARK INTER:                 -10.718
REMARK INTRA:                  -4.361
REMARK UNBOUND:                -3.370
REMARK SMILES CCCCCCCCCCCCCCCCCCCCCCCCCCCC(=O)[O-]
REMARK SMILES IDX 15 1 16 2 17 3 18 4 19 5 20 6 21 7 22 8 23 9 24 10 25 11
REMARK SMILES IDX 26 12 27 13 28 14 29 15 30 16 14 17 13 18 12 19 11 20 10 21
REMARK SMILES IDX 9 22 8 23 7 24 6 25 5 26 4 27 3 28 2 29 1 30
REMARK H PARENT
REMARK Flexibility Score: inf
ROOT
ATOM      1  C   UNL     1       9.915   5.080  29.642  1.00  0.00     0.000 C 
ENDROOT
BRANCH   1   2
ATOM      2  C   UNL     1       9.377   6.433  30.153  1.00  0.00     0.000 C 
BRANCH   2   3
ATOM      3  C   UNL     1       8.718   7.296  29.062  1.00  0.00     0.000 C 
BRANCH   3   4
ATOM      4  C   UNL     1       9.463   8.620  28.815  1.00  0.00     0.000 C 
BRANCH   4   5
ATOM      5  C   UNL     1      10.819   8.430  28.109  1.00  0.00     0.000 C 
BRANCH   5   6
ATOM      6  C   UNL     1      10.891   8.947  26.659  1.00  0.00     0.000 C 
BRANCH   6   7
ATOM      7  C   UNL     1      10.499   7.882  25.619  1.00  0.00     0.000 C 
BRANCH   7   8
ATOM      8  C   UNL     1      10.807   8.317  24.175  1.00  0.00     0.000 C 
BRANCH   8   9
ATOM      9  C   UNL     1      10.241   9.693  23.773  1.00  0.00     0.000 C 
BRANCH   9  10
ATOM     10  C   UNL     1       9.329   9.687  22.530  1.00  0.00     0.000 C 
BRANCH  10  11
ATOM     11  C   UNL     1       7.968   8.997  22.762  1.00  0.00     0.000 C 
BRANCH  11  12
ATOM     12  C   UNL     1       6.947   9.340  21.665  1.00  0.00     0.006 C 
BRANCH  12  13
ATOM     13  C   UNL     1       7.121   8.464  20.417  1.00  0.00     0.053 C 
BRANCH  13  14
ATOM     14  C   UNL     1       6.033   7.442  20.309  1.00  0.00     0.041 C 
ATOM     15  O   UNL     1       5.709   6.750  21.309  1.00  0.00    -0.550 OA
ATOM     16  O   UNL     1       5.396   7.233  19.092  1.00  0.00    -0.550 OA
ENDBRANCH  13  14
ENDBRANCH  12  13
ENDBRANCH  11  12
ENDBRANCH  10  11
ENDBRANCH   9  10
ENDBRANCH   8   9
ENDBRANCH   7   8
ENDBRANCH   6   7
ENDBRANCH   5   6
ENDBRANCH   4   5
ENDBRANCH   3   4
ENDBRANCH   2   3
ENDBRANCH   1   2
BRANCH   1  17
ATOM     17  C   UNL     1       9.445   4.774  28.209  1.00  0.00     0.000 C 
BRANCH  17  18
ATOM     18  C   UNL     1      10.610   4.615  27.221  1.00  0.00     0.000 C 
BRANCH  18  19
ATOM     19  C   UNL     1      11.916   5.248  27.733  1.00  0.00     0.000 C 
BRANCH  19  20
ATOM     20  C   UNL     1      13.014   5.283  26.657  1.00  0.00     0.000 C 
BRANCH  20  21
ATOM     21  C   UNL     1      13.836   6.585  26.695  1.00  0.00     0.000 C 
BRANCH  21  22
ATOM     22  C   UNL     1      14.068   7.187  25.298  1.00  0.00    -0.000 C 
BRANCH  22  23
ATOM     23  C   UNL     1      15.447   7.842  25.094  1.00  0.00    -0.000 C 
BRANCH  23  24
ATOM     24  C   UNL     1      15.394   9.376  25.125  1.00  0.00    -0.000 C 
BRANCH  24  25
ATOM     25  C   UNL     1      14.244   9.904  24.259  1.00  0.00    -0.000 C 
BRANCH  25  26
ATOM     26  C   UNL     1      14.630   9.905  22.772  1.00  0.00    -0.000 C 
BRANCH  26  27
ATOM     27  C   UNL     1      13.431   9.640  21.843  1.00  0.00    -0.000 C 
BRANCH  27  28
ATOM     28  C   UNL     1      13.246   8.167  21.430  1.00  0.00    -0.000 C 
BRANCH  28  29
ATOM     29  C   UNL     1      11.976   7.936  20.597  1.00  0.00    -0.003 C 
ATOM     30  C   UNL     1      11.284   6.638  21.000  1.00  0.00     0.004 C 
ENDBRANCH  28  29
ENDBRANCH  27  28
ENDBRANCH  26  27
ENDBRANCH  25  26
ENDBRANCH  24  25
ENDBRANCH  23  24
ENDBRANCH  22  23
ENDBRANCH  21  22
ENDBRANCH  20  21
ENDBRANCH  19  20
ENDBRANCH  18  19
ENDBRANCH  17  18
ENDBRANCH   1  17
TORSDOF 26
ENDMDL
MODEL 7
REMARK VINA RESULT:    -4.628      1.470      2.268
REMARK INTER + INTRA:         -15.032
REMARK INTER:                 -11.587
REMARK INTRA:                  -3.445
REMARK UNBOUND:                -3.370
REMARK SMILES CCCCCCCCCCCCCCCCCCCCCCCCCCCC(=O)[O-]
REMARK SMILES IDX 15 1 16 2 17 3 18 4 19 5 20 6 21 7 22 8 23 9 24 10 25 11
REMARK SMILES IDX 26 12 27 13 28 14 29 15 30 16 14 17 13 18 12 19 11 20 10 21
REMARK SMILES IDX 9 22 8 23 7 24 6 25 5 26 4 27 3 28 2 29 1 30
REMARK H PARENT
REMARK Flexibility Score: inf
ROOT
ATOM      1  C   UNL     1      10.572   7.054  21.426  1.00  0.00     0.000 C 
ENDROOT
BRANCH   1   2
ATOM      2  C   UNL     1       9.120   7.527  21.201  1.00  0.00     0.000 C 
BRANCH   2   3
ATOM      3  C   UNL     1       9.009   8.959  20.646  1.00  0.00     0.000 C 
BRANCH   3   4
ATOM      4  C   UNL     1       8.047   9.842  21.460  1.00  0.00     0.000 C 
BRANCH   4   5
ATOM      5  C   UNL     1       7.783   9.305  22.879  1.00  0.00     0.000 C 
BRANCH   5   6
ATOM      6  C   UNL     1       6.325   8.902  23.175  1.00  0.00     0.000 C 
BRANCH   6   7
ATOM      7  C   UNL     1       5.338   9.367  22.089  1.00  0.00     0.000 C 
BRANCH   7   8
ATOM      8  C   UNL     1       4.617   8.196  21.397  1.00  0.00     0.000 C 
BRANCH   8   9
ATOM      9  C   UNL     1       5.525   7.278  20.554  1.00  0.00     0.000 C 
BRANCH   9  10
ATOM     10  C   UNL     1       5.321   7.379  19.030  1.00  0.00     0.000 C 
BRANCH  10  11
ATOM     11  C   UNL     1       6.355   8.282  18.324  1.00  0.00     0.000 C 
BRANCH  11  12
ATOM     12  C   UNL     1       6.120   8.360  16.806  1.00  0.00     0.006 C 
BRANCH  12  13
ATOM     13  C   UNL     1       6.306   6.999  16.122  1.00  0.00     0.053 C 
BRANCH  13  14
ATOM     14  C   UNL     1       5.092   6.611  15.335  1.00  0.00     0.041 C 
ATOM     15  O   UNL     1       5.045   6.820  14.096  1.00  0.00    -0.550 OA
ATOM     16  O   UNL     1       4.000   6.043  15.979  1.00  0.00    -0.550 OA
ENDBRANCH  13  14
ENDBRANCH  12  13
ENDBRANCH  11  12
ENDBRANCH  10  11
ENDBRANCH   9  10
ENDBRANCH   8   9
ENDBRANCH   7   8
ENDBRANCH   6   7
ENDBRANCH   5   6
ENDBRANCH   4   5
ENDBRANCH   3   4
ENDBRANCH   2   3
ENDBRANCH   1   2
BRANCH   1  17
ATOM     17  C   UNL     1      10.927   6.968  22.921  1.00  0.00     0.000 C 
BRANCH  17  18
ATOM     18  C   UNL     1      11.234   8.340  23.540  1.00  0.00     0.000 C 
BRANCH  18  19
ATOM     19  C   UNL     1      12.473   9.010  22.919  1.00  0.00     0.000 C 
BRANCH  19  20
ATOM     20  C   UNL     1      13.782   8.555  23.583  1.00  0.00     0.000 C 
BRANCH  20  21
ATOM     21  C   UNL     1      13.739   8.676  25.117  1.00  0.00     0.000 C 
BRANCH  21  22
ATOM     22  C   UNL     1      14.286   7.427  25.831  1.00  0.00    -0.000 C 
BRANCH  22  23
ATOM     23  C   UNL     1      13.216   6.533  26.486  1.00  0.00    -0.000 C 
BRANCH  23  24
ATOM     24  C   UNL     1      11.933   7.296  26.847  1.00  0.00    -0.000 C 
BRANCH  24  25
ATOM     25  C   UNL     1      10.710   6.371  26.791  1.00  0.00    -0.000 C 
BRANCH  25  26
ATOM     26  C   UNL     1       9.662   6.781  27.837  1.00  0.00    -0.000 C 
BRANCH  26  27
ATOM     27  C   UNL     1       9.048   5.577  28.573  1.00  0.00    -0.000 C 
BRANCH  27  28
ATOM     28  C   UNL     1      10.044   4.455  28.922  1.00  0.00    -0.000 C 
BRANCH  28  29
ATOM     29  C   UNL     1      10.403   4.419  30.415  1.00  0.00    -0.003 C 
ATOM     30  C   UNL     1      11.914   4.476  30.618  1.00  0.00     0.004 C 
ENDBRANCH  28  29
ENDBRANCH  27  28
ENDBRANCH  26  27
ENDBRANCH  25  26
ENDBRANCH  24  25
ENDBRANCH  23  24
ENDBRANCH  22  23
ENDBRANCH  21  22
ENDBRANCH  20  21
ENDBRANCH  19  20
ENDBRANCH  18  19
ENDBRANCH  17  18
ENDBRANCH   1  17
TORSDOF 26
ENDMDL
MODEL 8
REMARK VINA RESULT:    -4.628      3.829     10.528
REMARK INTER + INTRA:         -15.031
REMARK INTER:                 -12.012
REMARK INTRA:                  -3.019
REMARK UNBOUND:                -3.370
REMARK SMILES CCCCCCCCCCCCCCCCCCCCCCCCCCCC(=O)[O-]
REMARK SMILES IDX 15 1 16 2 17 3 18 4 19 5 20 6 21 7 22 8 23 9 24 10 25 11
REMARK SMILES IDX 26 12 27 13 28 14 29 15 30 16 14 17 13 18 12 19 11 20 10 21
REMARK SMILES IDX 9 22 8 23 7 24 6 25 5 26 4 27 3 28 2 29 1 30
REMARK H PARENT
REMARK Flexibility Score: inf
ROOT
ATOM      1  C   UNL     1       7.552   7.084  20.746  1.00  0.00     0.000 C 
ENDROOT
BRANCH   1   2
ATOM      2  C   UNL     1       7.956   8.529  21.107  1.00  0.00     0.000 C 
BRANCH   2   3
ATOM      3  C   UNL     1       8.633   9.294  19.956  1.00  0.00     0.000 C 
BRANCH   3   4
ATOM      4  C   UNL     1      10.054   9.768  20.307  1.00  0.00     0.000 C 
BRANCH   4   5
ATOM      5  C   UNL     1      11.155   8.987  19.566  1.00  0.00     0.000 C 
BRANCH   5   6
ATOM      6  C   UNL     1      12.021   8.064  20.445  1.00  0.00     0.000 C 
BRANCH   6   7
ATOM      7  C   UNL     1      11.245   6.856  20.999  1.00  0.00     0.000 C 
BRANCH   7   8
ATOM      8  C   UNL     1      11.213   6.821  22.538  1.00  0.00     0.000 C 
BRANCH   8   9
ATOM      9  C   UNL     1      12.337   7.616  23.231  1.00  0.00     0.000 C 
BRANCH   9  10
ATOM     10  C   UNL     1      12.476   7.365  24.745  1.00  0.00     0.000 C 
BRANCH  10  11
ATOM     11  C   UNL     1      11.127   7.328  25.495  1.00  0.00     0.000 C 
BRANCH  11  12
ATOM     12  C   UNL     1      11.269   6.777  26.923  1.00  0.00     0.006 C 
BRANCH  12  13
ATOM     13  C   UNL     1      10.842   5.307  27.021  1.00  0.00     0.053 C 
BRANCH  13  14
ATOM     14  C   UNL     1       9.699   5.130  27.972  1.00  0.00     0.041 C 
ATOM     15  O   UNL     1       8.611   5.732  27.777  1.00  0.00    -0.550 OA
ATOM     16  O   UNL     1       9.846   4.322  29.092  1.00  0.00    -0.550 OA
ENDBRANCH  13  14
ENDBRANCH  12  13
ENDBRANCH  11  12
ENDBRANCH  10  11
ENDBRANCH   9  10
ENDBRANCH   8   9
ENDBRANCH   7   8
ENDBRANCH   6   7
ENDBRANCH   5   6
ENDBRANCH   4   5
ENDBRANCH   3   4
ENDBRANCH   2   3
ENDBRANCH   1   2
BRANCH   1  17
ATOM     17  C   UNL     1       6.026   6.916  20.647  1.00  0.00     0.000 C 
BRANCH  17  18
ATOM     18  C   UNL     1       5.267   7.716  21.716  1.00  0.00     0.000 C 
BRANCH  18  19
ATOM     19  C   UNL     1       3.935   8.287  21.197  1.00  0.00     0.000 C 
BRANCH  19  20
ATOM     20  C   UNL     1       4.115   9.628  20.467  1.00  0.00     0.000 C 
BRANCH  20  21
ATOM     21  C   UNL     1       3.500   9.618  19.055  1.00  0.00     0.000 C 
BRANCH  21  22
ATOM     22  C   UNL     1       4.232   8.668  18.090  1.00  0.00    -0.000 C 
BRANCH  22  23
ATOM     23  C   UNL     1       5.640   9.130  17.668  1.00  0.00    -0.000 C 
BRANCH  23  24
ATOM     24  C   UNL     1       6.496   7.996  17.087  1.00  0.00    -0.000 C 
BRANCH  24  25
ATOM     25  C   UNL     1       6.101   7.697  15.635  1.00  0.00    -0.000 C 
BRANCH  25  26
ATOM     26  C   UNL     1       7.089   8.343  14.652  1.00  0.00    -0.000 C 
BRANCH  26  27
ATOM     27  C   UNL     1       8.165   7.362  14.154  1.00  0.00    -0.000 C 
BRANCH  27  28
ATOM     28  C   UNL     1       7.722   5.888  14.102  1.00  0.00    -0.000 C 
BRANCH  28  29
ATOM     29  C   UNL     1       7.503   5.380  12.668  1.00  0.00    -0.003 C 
ATOM     30  C   UNL     1       7.591   6.524  11.662  1.00  0.00     0.004 C 
ENDBRANCH  28  29
ENDBRANCH  27  28
ENDBRANCH  26  27
ENDBRANCH  25  26
ENDBRANCH  24  25
ENDBRANCH  23  24
ENDBRANCH  22  23
ENDBRANCH  21  22
ENDBRANCH  20  21
ENDBRANCH  19  20
ENDBRANCH  18  19
ENDBRANCH  17  18
ENDBRANCH   1  17
TORSDOF 26
ENDMDL
MODEL 9
REMARK VINA RESULT:    -4.600      3.759     10.531
REMARK INTER + INTRA:         -14.961
REMARK INTER:                 -11.310
REMARK INTRA:                  -3.651
REMARK UNBOUND:                -3.370
REMARK SMILES CCCCCCCCCCCCCCCCCCCCCCCCCCCC(=O)[O-]
REMARK SMILES IDX 15 1 16 2 17 3 18 4 19 5 20 6 21 7 22 8 23 9 24 10 25 11
REMARK SMILES IDX 26 12 27 13 28 14 29 15 30 16 14 17 13 18 12 19 11 20 10 21
REMARK SMILES IDX 9 22 8 23 7 24 6 25 5 26 4 27 3 28 2 29 1 30
REMARK H PARENT
REMARK Flexibility Score: inf
ROOT
ATOM      1  C   UNL     1       7.075   7.114  20.263  1.00  0.00     0.000 C 
ENDROOT
BRANCH   1   2
ATOM      2  C   UNL     1       7.002   8.196  19.165  1.00  0.00     0.000 C 
BRANCH   2   3
ATOM      3  C   UNL     1       7.775   9.484  19.504  1.00  0.00     0.000 C 
BRANCH   3   4
ATOM      4  C   UNL     1       9.200   9.209  20.014  1.00  0.00     0.000 C 
BRANCH   4   5
ATOM      5  C   UNL     1       9.378   9.515  21.513  1.00  0.00     0.000 C 
BRANCH   5   6
ATOM      6  C   UNL     1      10.109   8.431  22.329  1.00  0.00     0.000 C 
BRANCH   6   7
ATOM      7  C   UNL     1      10.466   7.187  21.497  1.00  0.00     0.000 C 
BRANCH   7   8
ATOM      8  C   UNL     1      11.981   7.038  21.264  1.00  0.00     0.000 C 
BRANCH   8   9
ATOM      9  C   UNL     1      12.792   8.341  21.406  1.00  0.00     0.000 C 
BRANCH   9  10
ATOM     10  C   UNL     1      13.943   8.285  22.430  1.00  0.00     0.000 C 
BRANCH  10  11
ATOM     11  C   UNL     1      13.485   8.480  23.890  1.00  0.00     0.000 C 
BRANCH  11  12
ATOM     12  C   UNL     1      13.544   7.173  24.699  1.00  0.00     0.006 C 
BRANCH  12  13
ATOM     13  C   UNL     1      12.185   6.809  25.311  1.00  0.00     0.053 C 
BRANCH  13  14
ATOM     14  C   UNL     1      12.346   6.010  26.567  1.00  0.00     0.041 C 
ATOM     15  O   UNL     1      11.342   5.722  27.269  1.00  0.00    -0.550 OA
ATOM     16  O   UNL     1      13.611   5.608  26.977  1.00  0.00    -0.550 OA
ENDBRANCH  13  14
ENDBRANCH  12  13
ENDBRANCH  11  12
ENDBRANCH  10  11
ENDBRANCH   9  10
ENDBRANCH   8   9
ENDBRANCH   7   8
ENDBRANCH   6   7
ENDBRANCH   5   6
ENDBRANCH   4   5
ENDBRANCH   3   4
ENDBRANCH   2   3
ENDBRANCH   1   2
BRANCH   1  17
ATOM     17  C   UNL     1       5.760   7.000  21.053  1.00  0.00     0.000 C 
BRANCH  17  18
ATOM     18  C   UNL     1       5.605   8.100  22.115  1.00  0.00     0.000 C 
BRANCH  18  19
ATOM     19  C   UNL     1       4.532   9.139  21.743  1.00  0.00     0.000 C 
BRANCH  19  20
ATOM     20  C   UNL     1       3.517   8.597  20.724  1.00  0.00     0.000 C 
BRANCH  20  21
ATOM     21  C   UNL     1       3.462   9.442  19.438  1.00  0.00     0.000 C 
BRANCH  21  22
ATOM     22  C   UNL     1       2.902   8.664  18.234  1.00  0.00    -0.000 C 
BRANCH  22  23
ATOM     23  C   UNL     1       3.922   8.374  17.117  1.00  0.00    -0.000 C 
BRANCH  23  24
ATOM     24  C   UNL     1       4.327   6.895  17.040  1.00  0.00    -0.000 C 
BRANCH  24  25
ATOM     25  C   UNL     1       5.025   6.585  15.710  1.00  0.00    -0.000 C 
BRANCH  25  26
ATOM     26  C   UNL     1       5.576   7.865  15.066  1.00  0.00    -0.000 C 
BRANCH  26  27
ATOM     27  C   UNL     1       7.090   8.040  15.284  1.00  0.00    -0.000 C 
BRANCH  27  28
ATOM     28  C   UNL     1       7.971   6.993  14.577  1.00  0.00    -0.000 C 
BRANCH  28  29
ATOM     29  C   UNL     1       7.959   7.136  13.048  1.00  0.00    -0.003 C 
ATOM     30  C   UNL     1       8.359   8.547  12.626  1.00  0.00     0.004 C 
ENDBRANCH  28  29
ENDBRANCH  27  28
ENDBRANCH  26  27
ENDBRANCH  25  26
ENDBRANCH  24  25
ENDBRANCH  23  24
ENDBRANCH  22  23
ENDBRANCH  21  22
ENDBRANCH  20  21
ENDBRANCH  19  20
ENDBRANCH  18  19
ENDBRANCH  17  18
ENDBRANCH   1  17
TORSDOF 26
ENDMDL
