MODEL 1
REMARK VINA RESULT:    -5.173      0.000      0.000
REMARK INTER + INTRA:         -12.391
REMARK INTER:                 -11.222
REMARK INTRA:                  -1.169
REMARK UNBOUND:                -1.169
REMARK SMILES CCCCCCCCCCCCCCCCCCCCCC(=O)[O-]
REMARK SMILES IDX 12 1 11 2 10 3 9 4 8 5 7 6 6 7 5 8 4 9 3 10 2 11 1 12 13 13
REMARK SMILES IDX 14 14 15 15 16 16 17 17 18 18 19 19 20 20 21 21 22 22 23 23
REMARK SMILES IDX 24 24
REMARK H PARENT
REMARK Flexibility Score: inf
ROOT
ATOM      1  C   UNL     1      56.390 144.286 -27.671  1.00  0.00     0.000 C 
ENDROOT
BRANCH   1   2
ATOM      2  C   UNL     1      55.725 143.523 -28.829  1.00  0.00     0.000 C 
BRANCH   2   3
ATOM      3  C   UNL     1      56.439 143.755 -30.173  1.00  0.00     0.000 C 
BRANCH   3   4
ATOM      4  C   UNL     1      57.953 143.987 -30.013  1.00  0.00    -0.000 C 
BRANCH   4   5
ATOM      5  C   UNL     1      58.723 144.163 -31.333  1.00  0.00    -0.000 C 
BRANCH   5   6
ATOM      6  C   UNL     1      59.618 142.959 -31.666  1.00  0.00    -0.000 C 
BRANCH   6   7
ATOM      7  C   UNL     1      60.172 143.064 -33.094  1.00  0.00    -0.000 C 
BRANCH   7   8
ATOM      8  C   UNL     1      60.004 144.467 -33.698  1.00  0.00    -0.000 C 
BRANCH   8   9
ATOM      9  C   UNL     1      61.305 145.005 -34.318  1.00  0.00    -0.000 C 
BRANCH   9  10
ATOM     10  C   UNL     1      61.527 146.498 -34.026  1.00  0.00    -0.000 C 
BRANCH  10  11
ATOM     11  C   UNL     1      60.221 147.307 -34.047  1.00  0.00    -0.003 C 
ATOM     12  C   UNL     1      59.949 147.944 -32.686  1.00  0.00     0.004 C 
ENDBRANCH  10  11
ENDBRANCH   9  10
ENDBRANCH   8   9
ENDBRANCH   7   8
ENDBRANCH   6   7
ENDBRANCH   5   6
ENDBRANCH   4   5
ENDBRANCH   3   4
ENDBRANCH   2   3
ENDBRANCH   1   2
BRANCH   1  13
ATOM     13  C   UNL     1      55.677 144.051 -26.327  1.00  0.00     0.000 C 
BRANCH  13  14
ATOM     14  C   UNL     1      56.573 143.349 -25.289  1.00  0.00     0.000 C 
BRANCH  14  15
ATOM     15  C   UNL     1      55.936 143.152 -23.901  1.00  0.00     0.000 C 
BRANCH  15  16
ATOM     16  C   UNL     1      56.397 141.894 -23.139  1.00  0.00     0.000 C 
BRANCH  16  17
ATOM     17  C   UNL     1      57.914 141.852 -22.856  1.00  0.00     0.000 C 
BRANCH  17  18
ATOM     18  C   UNL     1      58.394 143.048 -22.020  1.00  0.00     0.000 C 
BRANCH  18  19
ATOM     19  C   UNL     1      59.800 142.792 -21.453  1.00  0.00     0.000 C 
BRANCH  19  20
ATOM     20  C   UNL     1      59.782 142.438 -19.958  1.00  0.00     0.006 C 
BRANCH  20  21
ATOM     21  C   UNL     1      58.739 143.246 -19.171  1.00  0.00     0.053 C 
BRANCH  21  22
ATOM     22  C   UNL     1      59.261 144.604 -18.813  1.00  0.00     0.041 C 
ATOM     23  O   UNL     1      58.967 145.606 -19.517  1.00  0.00    -0.550 OA
ATOM     24  O   UNL     1      60.013 144.776 -17.656  1.00  0.00    -0.550 OA
ENDBRANCH  21  22
ENDBRANCH  20  21
ENDBRANCH  19  20
ENDBRANCH  18  19
ENDBRANCH  17  18
ENDBRANCH  16  17
ENDBRANCH  15  16
ENDBRANCH  14  15
ENDBRANCH  13  14
ENDBRANCH   1  13
TORSDOF 20
ENDMDL
MODEL 2
REMARK VINA RESULT:    -5.088      1.215      2.174
REMARK INTER + INTRA:         -12.205
REMARK INTER:                 -11.096
REMARK INTRA:                  -1.109
REMARK UNBOUND:                -1.169
REMARK SMILES CCCCCCCCCCCCCCCCCCCCCC(=O)[O-]
REMARK SMILES IDX 12 1 11 2 10 3 9 4 8 5 7 6 6 7 5 8 4 9 3 10 2 11 1 12 13 13
REMARK SMILES IDX 14 14 15 15 16 16 17 17 18 18 19 19 20 20 21 21 22 22 23 23
REMARK SMILES IDX 24 24
REMARK H PARENT
REMARK Flexibility Score: inf
ROOT
ATOM      1  C   UNL     1      56.668 144.022 -28.790  1.00  0.00     0.000 C 
ENDROOT
BRANCH   1   2
ATOM      2  C   UNL     1      56.993 143.750 -30.268  1.00  0.00     0.000 C 
BRANCH   2   3
ATOM      3  C   UNL     1      58.506 143.764 -30.550  1.00  0.00     0.000 C 
BRANCH   3   4
ATOM      4  C   UNL     1      58.845 144.240 -31.974  1.00  0.00    -0.000 C 
BRANCH   4   5
ATOM      5  C   UNL     1      60.279 143.929 -32.437  1.00  0.00    -0.000 C 
BRANCH   5   6
ATOM      6  C   UNL     1      60.340 143.411 -33.881  1.00  0.00    -0.000 C 
BRANCH   6   7
ATOM      7  C   UNL     1      61.137 144.371 -34.777  1.00  0.00    -0.000 C 
BRANCH   7   8
ATOM      8  C   UNL     1      60.356 145.649 -35.125  1.00  0.00    -0.000 C 
BRANCH   8   9
ATOM      9  C   UNL     1      61.198 146.924 -34.947  1.00  0.00    -0.000 C 
BRANCH   9  10
ATOM     10  C   UNL     1      60.334 148.185 -34.783  1.00  0.00    -0.000 C 
BRANCH  10  11
ATOM     11  C   UNL     1      59.603 148.233 -33.433  1.00  0.00    -0.003 C 
ATOM     12  C   UNL     1      60.447 147.601 -32.328  1.00  0.00     0.004 C 
ENDBRANCH  10  11
ENDBRANCH   9  10
ENDBRANCH   8   9
ENDBRANCH   7   8
ENDBRANCH   6   7
ENDBRANCH   5   6
ENDBRANCH   4   5
ENDBRANCH   3   4
ENDBRANCH   2   3
ENDBRANCH   1   2
BRANCH   1  13
ATOM     13  C   UNL     1      55.261 143.536 -28.399  1.00  0.00     0.000 C 
BRANCH  13  14
ATOM     14  C   UNL     1      55.203 142.950 -26.976  1.00  0.00     0.000 C 
BRANCH  14  15
ATOM     15  C   UNL     1      55.733 143.874 -25.865  1.00  0.00     0.000 C 
BRANCH  15  16
ATOM     16  C   UNL     1      54.969 143.800 -24.528  1.00  0.00     0.000 C 
BRANCH  16  17
ATOM     17  C   UNL     1      55.256 142.521 -23.712  1.00  0.00     0.000 C 
BRANCH  17  18
ATOM     18  C   UNL     1      56.736 142.112 -23.751  1.00  0.00     0.000 C 
BRANCH  18  19
ATOM     19  C   UNL     1      57.252 141.781 -22.341  1.00  0.00     0.000 C 
BRANCH  19  20
ATOM     20  C   UNL     1      58.641 142.376 -22.062  1.00  0.00     0.006 C 
BRANCH  20  21
ATOM     21  C   UNL     1      58.670 143.242 -20.793  1.00  0.00     0.053 C 
BRANCH  21  22
ATOM     22  C   UNL     1      59.646 144.369 -20.929  1.00  0.00     0.041 C 
ATOM     23  O   UNL     1      59.640 145.099 -21.955  1.00  0.00    -0.550 OA
ATOM     24  O   UNL     1      60.516 144.664 -19.884  1.00  0.00    -0.550 OA
ENDBRANCH  21  22
ENDBRANCH  20  21
ENDBRANCH  19  20
ENDBRANCH  18  19
ENDBRANCH  17  18
ENDBRANCH  16  17
ENDBRANCH  15  16
ENDBRANCH  14  15
ENDBRANCH  13  14
ENDBRANCH   1  13
TORSDOF 20
ENDMDL
MODEL 3
REMARK VINA RESULT:    -4.785     12.349     14.066
REMARK INTER + INTRA:         -11.549
REMARK INTER:                  -8.722
REMARK INTRA:                  -2.827
REMARK UNBOUND:                -1.169
REMARK SMILES CCCCCCCCCCCCCCCCCCCCCC(=O)[O-]
REMARK SMILES IDX 12 1 11 2 10 3 9 4 8 5 7 6 6 7 5 8 4 9 3 10 2 11 1 12 13 13
REMARK SMILES IDX 14 14 15 15 16 16 17 17 18 18 19 19 20 20 21 21 22 22 23 23
REMARK SMILES IDX 24 24
REMARK H PARENT
REMARK Flexibility Score: inf
ROOT
ATOM      1  C   UNL     1      48.602 155.807 -26.171  1.00  0.00     0.000 C 
ENDROOT
BRANCH   1   2
ATOM      2  C   UNL     1      48.279 155.651 -27.667  1.00  0.00     0.000 C 
BRANCH   2   3
ATOM      3  C   UNL     1      49.539 155.414 -28.518  1.00  0.00     0.000 C 
BRANCH   3   4
ATOM      4  C   UNL     1      50.073 153.974 -28.408  1.00  0.00    -0.000 C 
BRANCH   4   5
ATOM      5  C   UNL     1      50.210 153.230 -29.748  1.00  0.00    -0.000 C 
BRANCH   5   6
ATOM      6  C   UNL     1      48.875 152.659 -30.250  1.00  0.00    -0.000 C 
BRANCH   6   7
ATOM      7  C   UNL     1      48.277 153.547 -31.352  1.00  0.00    -0.000 C 
BRANCH   7   8
ATOM      8  C   UNL     1      48.931 153.318 -32.724  1.00  0.00    -0.000 C 
BRANCH   8   9
ATOM      9  C   UNL     1      49.423 154.624 -33.370  1.00  0.00    -0.000 C 
BRANCH   9  10
ATOM     10  C   UNL     1      50.833 155.020 -32.903  1.00  0.00    -0.000 C 
BRANCH  10  11
ATOM     11  C   UNL     1      51.938 154.203 -33.591  1.00  0.00    -0.003 C 
ATOM     12  C   UNL     1      53.313 154.814 -33.331  1.00  0.00     0.004 C 
ENDBRANCH  10  11
ENDBRANCH   9  10
ENDBRANCH   8   9
ENDBRANCH   7   8
ENDBRANCH   6   7
ENDBRANCH   5   6
ENDBRANCH   4   5
ENDBRANCH   3   4
ENDBRANCH   2   3
ENDBRANCH   1   2
BRANCH   1  13
ATOM     13  C   UNL     1      48.733 157.282 -25.749  1.00  0.00     0.000 C 
BRANCH  13  14
ATOM     14  C   UNL     1      50.093 157.600 -25.099  1.00  0.00     0.000 C 
BRANCH  14  15
ATOM     15  C   UNL     1      51.184 158.088 -26.070  1.00  0.00     0.000 C 
BRANCH  15  16
ATOM     16  C   UNL     1      52.227 157.026 -26.473  1.00  0.00     0.000 C 
BRANCH  16  17
ATOM     17  C   UNL     1      52.500 155.969 -25.382  1.00  0.00     0.000 C 
BRANCH  17  18
ATOM     18  C   UNL     1      52.697 154.559 -25.959  1.00  0.00     0.000 C 
BRANCH  18  19
ATOM     19  C   UNL     1      51.982 153.508 -25.095  1.00  0.00     0.000 C 
BRANCH  19  20
ATOM     20  C   UNL     1      51.044 154.134 -24.052  1.00  0.00     0.006 C 
BRANCH  20  21
ATOM     21  C   UNL     1      50.813 153.220 -22.839  1.00  0.00     0.053 C 
BRANCH  21  22
ATOM     22  C   UNL     1      49.368 152.848 -22.707  1.00  0.00     0.041 C 
ATOM     23  O   UNL     1      48.606 152.886 -23.709  1.00  0.00    -0.550 OA
ATOM     24  O   UNL     1      48.879 152.384 -21.491  1.00  0.00    -0.550 OA
ENDBRANCH  21  22
ENDBRANCH  20  21
ENDBRANCH  19  20
ENDBRANCH  18  19
ENDBRANCH  17  18
ENDBRANCH  16  17
ENDBRANCH  15  16
ENDBRANCH  14  15
ENDBRANCH  13  14
ENDBRANCH   1  13
TORSDOF 20
ENDMDL
MODEL 4
REMARK VINA RESULT:    -4.761      1.725      2.235
REMARK INTER + INTRA:         -11.496
REMARK INTER:                 -10.468
REMARK INTRA:                  -1.028
REMARK UNBOUND:                -1.169
REMARK SMILES CCCCCCCCCCCCCCCCCCCCCC(=O)[O-]
REMARK SMILES IDX 12 1 11 2 10 3 9 4 8 5 7 6 6 7 5 8 4 9 3 10 2 11 1 12 13 13
REMARK SMILES IDX 14 14 15 15 16 16 17 17 18 18 19 19 20 20 21 21 22 22 23 23
REMARK SMILES IDX 24 24
REMARK H PARENT
REMARK Flexibility Score: inf
ROOT
ATOM      1  C   UNL     1      56.068 143.216 -26.373  1.00  0.00     0.000 C 
ENDROOT
BRANCH   1   2
ATOM      2  C   UNL     1      55.083 144.113 -27.142  1.00  0.00     0.000 C 
BRANCH   2   3
ATOM      3  C   UNL     1      55.581 144.455 -28.557  1.00  0.00     0.000 C 
BRANCH   3   4
ATOM      4  C   UNL     1      57.035 144.013 -28.802  1.00  0.00    -0.000 C 
BRANCH   4   5
ATOM      5  C   UNL     1      57.380 143.706 -30.270  1.00  0.00    -0.000 C 
BRANCH   5   6
ATOM      6  C   UNL     1      58.783 144.190 -30.666  1.00  0.00    -0.000 C 
BRANCH   6   7
ATOM      7  C   UNL     1      59.525 143.119 -31.478  1.00  0.00    -0.000 C 
BRANCH   7   8
ATOM      8  C   UNL     1      59.859 143.577 -32.907  1.00  0.00    -0.000 C 
BRANCH   8   9
ATOM      9  C   UNL     1      59.542 145.065 -33.140  1.00  0.00    -0.000 C 
BRANCH   9  10
ATOM     10  C   UNL     1      60.513 145.728 -34.130  1.00  0.00    -0.000 C 
BRANCH  10  11
ATOM     11  C   UNL     1      60.957 147.128 -33.680  1.00  0.00    -0.003 C 
ATOM     12  C   UNL     1      59.819 147.864 -32.976  1.00  0.00     0.004 C 
ENDBRANCH  10  11
ENDBRANCH   9  10
ENDBRANCH   8   9
ENDBRANCH   7   8
ENDBRANCH   6   7
ENDBRANCH   5   6
ENDBRANCH   4   5
ENDBRANCH   3   4
ENDBRANCH   2   3
ENDBRANCH   1   2
BRANCH   1  13
ATOM     13  C   UNL     1      55.410 141.919 -25.868  1.00  0.00     0.000 C 
BRANCH  13  14
ATOM     14  C   UNL     1      55.109 141.948 -24.358  1.00  0.00     0.000 C 
BRANCH  14  15
ATOM     15  C   UNL     1      56.309 142.296 -23.458  1.00  0.00     0.000 C 
BRANCH  15  16
ATOM     16  C   UNL     1      56.927 141.107 -22.697  1.00  0.00     0.000 C 
BRANCH  16  17
ATOM     17  C   UNL     1      57.872 141.520 -21.548  1.00  0.00     0.000 C 
BRANCH  17  18
ATOM     18  C   UNL     1      58.402 142.953 -21.703  1.00  0.00     0.000 C 
BRANCH  18  19
ATOM     19  C   UNL     1      59.549 143.224 -20.715  1.00  0.00     0.000 C 
BRANCH  19  20
ATOM     20  C   UNL     1      59.651 144.704 -20.316  1.00  0.00     0.006 C 
BRANCH  20  21
ATOM     21  C   UNL     1      61.104 145.199 -20.246  1.00  0.00     0.053 C 
BRANCH  21  22
ATOM     22  C   UNL     1      61.603 145.609 -21.598  1.00  0.00     0.041 C 
ATOM     23  O   UNL     1      62.149 144.768 -22.359  1.00  0.00    -0.550 OA
ATOM     24  O   UNL     1      61.395 146.908 -22.049  1.00  0.00    -0.550 OA
ENDBRANCH  21  22
ENDBRANCH  20  21
ENDBRANCH  19  20
ENDBRANCH  18  19
ENDBRANCH  17  18
ENDBRANCH  16  17
ENDBRANCH  15  16
ENDBRANCH  14  15
ENDBRANCH  13  14
ENDBRANCH   1  13
TORSDOF 20
ENDMDL
MODEL 5
REMARK VINA RESULT:    -4.695      6.583     11.870
REMARK INTER + INTRA:         -11.354
REMARK INTER:                  -8.579
REMARK INTRA:                  -2.774
REMARK UNBOUND:                -1.169
REMARK SMILES CCCCCCCCCCCCCCCCCCCCCC(=O)[O-]
REMARK SMILES IDX 12 1 11 2 10 3 9 4 8 5 7 6 6 7 5 8 4 9 3 10 2 11 1 12 13 13
REMARK SMILES IDX 14 14 15 15 16 16 17 17 18 18 19 19 20 20 21 21 22 22 23 23
REMARK SMILES IDX 24 24
REMARK H PARENT
REMARK Flexibility Score: inf
ROOT
ATOM      1  C   UNL     1      58.509 142.894 -18.245  1.00  0.00     0.000 C 
ENDROOT
BRANCH   1   2
ATOM      2  C   UNL     1      58.078 142.576 -16.804  1.00  0.00     0.000 C 
BRANCH   2   3
ATOM      3  C   UNL     1      59.143 142.979 -15.768  1.00  0.00     0.000 C 
BRANCH   3   4
ATOM      4  C   UNL     1      60.466 142.210 -15.942  1.00  0.00    -0.000 C 
BRANCH   4   5
ATOM      5  C   UNL     1      61.730 143.087 -15.934  1.00  0.00    -0.000 C 
BRANCH   5   6
ATOM      6  C   UNL     1      61.413 144.588 -15.849  1.00  0.00    -0.000 C 
BRANCH   6   7
ATOM      7  C   UNL     1      62.235 145.383 -16.875  1.00  0.00    -0.000 C 
BRANCH   7   8
ATOM      8  C   UNL     1      61.890 146.881 -16.884  1.00  0.00    -0.000 C 
BRANCH   8   9
ATOM      9  C   UNL     1      60.575 147.190 -16.149  1.00  0.00    -0.000 C 
BRANCH   9  10
ATOM     10  C   UNL     1      59.610 148.036 -16.994  1.00  0.00    -0.000 C 
BRANCH  10  11
ATOM     11  C   UNL     1      59.342 149.420 -16.383  1.00  0.00    -0.003 C 
ATOM     12  C   UNL     1      57.863 149.788 -16.485  1.00  0.00     0.004 C 
ENDBRANCH  10  11
ENDBRANCH   9  10
ENDBRANCH   8   9
ENDBRANCH   7   8
ENDBRANCH   6   7
ENDBRANCH   5   6
ENDBRANCH   4   5
ENDBRANCH   3   4
ENDBRANCH   2   3
ENDBRANCH   1   2
BRANCH   1  13
ATOM     13  C   UNL     1      58.835 144.386 -18.445  1.00  0.00     0.000 C 
BRANCH  13  14
ATOM     14  C   UNL     1      59.839 144.632 -19.587  1.00  0.00     0.000 C 
BRANCH  14  15
ATOM     15  C   UNL     1      60.761 143.443 -19.915  1.00  0.00     0.000 C 
BRANCH  15  16
ATOM     16  C   UNL     1      60.865 143.087 -21.412  1.00  0.00     0.000 C 
BRANCH  16  17
ATOM     17  C   UNL     1      60.244 141.722 -21.777  1.00  0.00     0.000 C 
BRANCH  17  18
ATOM     18  C   UNL     1      58.708 141.754 -21.785  1.00  0.00     0.000 C 
BRANCH  18  19
ATOM     19  C   UNL     1      58.187 142.920 -22.640  1.00  0.00     0.000 C 
BRANCH  19  20
ATOM     20  C   UNL     1      56.722 142.737 -23.066  1.00  0.00     0.006 C 
BRANCH  20  21
ATOM     21  C   UNL     1      56.345 143.605 -24.276  1.00  0.00     0.053 C 
BRANCH  21  22
ATOM     22  C   UNL     1      54.878 143.910 -24.289  1.00  0.00     0.041 C 
ATOM     23  O   UNL     1      54.067 143.170 -23.672  1.00  0.00    -0.550 OA
ATOM     24  O   UNL     1      54.414 145.059 -24.920  1.00  0.00    -0.550 OA
ENDBRANCH  21  22
ENDBRANCH  20  21
ENDBRANCH  19  20
ENDBRANCH  18  19
ENDBRANCH  17  18
ENDBRANCH  16  17
ENDBRANCH  15  16
ENDBRANCH  14  15
ENDBRANCH  13  14
ENDBRANCH   1  13
TORSDOF 20
ENDMDL
MODEL 6
REMARK VINA RESULT:    -4.647      5.596     11.461
REMARK INTER + INTRA:         -11.250
REMARK INTER:                  -8.050
REMARK INTRA:                  -3.200
REMARK UNBOUND:                -1.169
REMARK SMILES CCCCCCCCCCCCCCCCCCCCCC(=O)[O-]
REMARK SMILES IDX 12 1 11 2 10 3 9 4 8 5 7 6 6 7 5 8 4 9 3 10 2 11 1 12 13 13
REMARK SMILES IDX 14 14 15 15 16 16 17 17 18 18 19 19 20 20 21 21 22 22 23 23
REMARK SMILES IDX 24 24
REMARK H PARENT
REMARK Flexibility Score: inf
ROOT
ATOM      1  C   UNL     1      58.831 143.287 -20.138  1.00  0.00     0.000 C 
ENDROOT
BRANCH   1   2
ATOM      2  C   UNL     1      60.300 142.886 -19.924  1.00  0.00     0.000 C 
BRANCH   2   3
ATOM      3  C   UNL     1      60.442 141.535 -19.202  1.00  0.00     0.000 C 
BRANCH   3   4
ATOM      4  C   UNL     1      59.084 140.881 -18.885  1.00  0.00    -0.000 C 
BRANCH   4   5
ATOM      5  C   UNL     1      58.784 140.705 -17.386  1.00  0.00    -0.000 C 
BRANCH   5   6
ATOM      6  C   UNL     1      57.856 141.798 -16.834  1.00  0.00    -0.000 C 
BRANCH   6   7
ATOM      7  C   UNL     1      58.655 142.859 -16.061  1.00  0.00    -0.000 C 
BRANCH   7   8
ATOM      8  C   UNL     1      60.039 142.357 -15.617  1.00  0.00    -0.000 C 
BRANCH   8   9
ATOM      9  C   UNL     1      61.158 143.371 -15.910  1.00  0.00    -0.000 C 
BRANCH   9  10
ATOM     10  C   UNL     1      60.618 144.784 -16.184  1.00  0.00    -0.000 C 
BRANCH  10  11
ATOM     11  C   UNL     1      61.180 145.395 -17.477  1.00  0.00    -0.003 C 
ATOM     12  C   UNL     1      60.114 146.209 -18.207  1.00  0.00     0.004 C 
ENDBRANCH  10  11
ENDBRANCH   9  10
ENDBRANCH   8   9
ENDBRANCH   7   8
ENDBRANCH   6   7
ENDBRANCH   5   6
ENDBRANCH   4   5
ENDBRANCH   3   4
ENDBRANCH   2   3
ENDBRANCH   1   2
BRANCH   1  13
ATOM     13  C   UNL     1      58.479 143.458 -21.627  1.00  0.00     0.000 C 
BRANCH  13  14
ATOM     14  C   UNL     1      59.202 142.445 -22.533  1.00  0.00     0.000 C 
BRANCH  14  15
ATOM     15  C   UNL     1      58.503 141.080 -22.677  1.00  0.00     0.000 C 
BRANCH  15  16
ATOM     16  C   UNL     1      56.973 141.102 -22.484  1.00  0.00     0.000 C 
BRANCH  16  17
ATOM     17  C   UNL     1      56.181 140.541 -23.684  1.00  0.00     0.000 C 
BRANCH  17  18
ATOM     18  C   UNL     1      55.175 141.553 -24.255  1.00  0.00     0.000 C 
BRANCH  18  19
ATOM     19  C   UNL     1      55.405 142.951 -23.660  1.00  0.00     0.000 C 
BRANCH  19  20
ATOM     20  C   UNL     1      55.287 144.069 -24.708  1.00  0.00     0.006 C 
BRANCH  20  21
ATOM     21  C   UNL     1      56.242 143.870 -25.895  1.00  0.00     0.053 C 
BRANCH  21  22
ATOM     22  C   UNL     1      55.530 144.054 -27.200  1.00  0.00     0.041 C 
ATOM     23  O   UNL     1      54.389 143.554 -27.381  1.00  0.00    -0.550 OA
ATOM     24  O   UNL     1      56.096 144.847 -28.194  1.00  0.00    -0.550 OA
ENDBRANCH  21  22
ENDBRANCH  20  21
ENDBRANCH  19  20
ENDBRANCH  18  19
ENDBRANCH  17  18
ENDBRANCH  16  17
ENDBRANCH  15  16
ENDBRANCH  14  15
ENDBRANCH  13  14
ENDBRANCH   1  13
TORSDOF 20
ENDMDL
MODEL 7
REMARK VINA RESULT:    -4.623     13.112     16.878
REMARK INTER + INTRA:         -11.197
REMARK INTER:                  -9.167
REMARK INTRA:                  -2.031
REMARK UNBOUND:                -1.169
REMARK SMILES CCCCCCCCCCCCCCCCCCCCCC(=O)[O-]
REMARK SMILES IDX 12 1 11 2 10 3 9 4 8 5 7 6 6 7 5 8 4 9 3 10 2 11 1 12 13 13
REMARK SMILES IDX 14 14 15 15 16 16 17 17 18 18 19 19 20 20 21 21 22 22 23 23
REMARK SMILES IDX 24 24
REMARK H PARENT
REMARK Flexibility Score: inf
ROOT
ATOM      1  C   UNL     1      47.669 155.959 -26.670  1.00  0.00     0.000 C 
ENDROOT
BRANCH   1   2
ATOM      2  C   UNL     1      47.889 157.170 -25.748  1.00  0.00     0.000 C 
BRANCH   2   3
ATOM      3  C   UNL     1      49.249 157.122 -25.029  1.00  0.00     0.000 C 
BRANCH   3   4
ATOM      4  C   UNL     1      50.319 157.989 -25.715  1.00  0.00    -0.000 C 
BRANCH   4   5
ATOM      5  C   UNL     1      51.425 157.201 -26.439  1.00  0.00    -0.000 C 
BRANCH   5   6
ATOM      6  C   UNL     1      51.990 156.052 -25.590  1.00  0.00    -0.000 C 
BRANCH   6   7
ATOM      7  C   UNL     1      51.760 154.697 -26.276  1.00  0.00    -0.000 C 
BRANCH   7   8
ATOM      8  C   UNL     1      52.012 153.504 -25.340  1.00  0.00    -0.000 C 
BRANCH   8   9
ATOM      9  C   UNL     1      51.764 153.850 -23.861  1.00  0.00    -0.000 C 
BRANCH   9  10
ATOM     10  C   UNL     1      50.741 152.913 -23.199  1.00  0.00    -0.000 C 
BRANCH  10  11
ATOM     11  C   UNL     1      50.617 153.145 -21.685  1.00  0.00    -0.003 C 
ATOM     12  C   UNL     1      49.173 152.969 -21.220  1.00  0.00     0.004 C 
ENDBRANCH  10  11
ENDBRANCH   9  10
ENDBRANCH   8   9
ENDBRANCH   7   8
ENDBRANCH   6   7
ENDBRANCH   5   6
ENDBRANCH   4   5
ENDBRANCH   3   4
ENDBRANCH   2   3
ENDBRANCH   1   2
BRANCH   1  13
ATOM     13  C   UNL     1      47.782 156.329 -28.161  1.00  0.00     0.000 C 
BRANCH  13  14
ATOM     14  C   UNL     1      49.124 155.902 -28.784  1.00  0.00     0.000 C 
BRANCH  14  15
ATOM     15  C   UNL     1      49.371 154.383 -28.830  1.00  0.00     0.000 C 
BRANCH  15  16
ATOM     16  C   UNL     1      48.329 153.572 -29.626  1.00  0.00     0.000 C 
BRANCH  16  17
ATOM     17  C   UNL     1      48.868 152.984 -30.948  1.00  0.00     0.000 C 
BRANCH  17  18
ATOM     18  C   UNL     1      49.199 154.067 -31.986  1.00  0.00     0.000 C 
BRANCH  18  19
ATOM     19  C   UNL     1      49.522 153.438 -33.351  1.00  0.00     0.000 C 
BRANCH  19  20
ATOM     20  C   UNL     1      50.526 154.269 -34.165  1.00  0.00     0.006 C 
BRANCH  20  21
ATOM     21  C   UNL     1      51.290 155.286 -33.302  1.00  0.00     0.053 C 
BRANCH  21  22
ATOM     22  C   UNL     1      52.761 155.236 -33.580  1.00  0.00     0.041 C 
ATOM     23  O   UNL     1      53.484 156.247 -33.374  1.00  0.00    -0.550 OA
ATOM     24  O   UNL     1      53.349 154.046 -33.996  1.00  0.00    -0.550 OA
ENDBRANCH  21  22
ENDBRANCH  20  21
ENDBRANCH  19  20
ENDBRANCH  18  19
ENDBRANCH  17  18
ENDBRANCH  16  17
ENDBRANCH  15  16
ENDBRANCH  14  15
ENDBRANCH  13  14
ENDBRANCH   1  13
TORSDOF 20
ENDMDL
MODEL 8
REMARK VINA RESULT:    -4.593     11.387     13.822
REMARK INTER + INTRA:         -11.132
REMARK INTER:                  -9.057
REMARK INTRA:                  -2.075
REMARK UNBOUND:                -1.169
REMARK SMILES CCCCCCCCCCCCCCCCCCCCCC(=O)[O-]
REMARK SMILES IDX 12 1 11 2 10 3 9 4 8 5 7 6 6 7 5 8 4 9 3 10 2 11 1 12 13 13
REMARK SMILES IDX 14 14 15 15 16 16 17 17 18 18 19 19 20 20 21 21 22 22 23 23
REMARK SMILES IDX 24 24
REMARK H PARENT
REMARK Flexibility Score: inf
ROOT
ATOM      1  C   UNL     1      56.838 156.540 -25.780  1.00  0.00     0.000 C 
ENDROOT
BRANCH   1   2
ATOM      2  C   UNL     1      56.942 157.846 -26.584  1.00  0.00     0.000 C 
BRANCH   2   3
ATOM      3  C   UNL     1      56.915 157.604 -28.104  1.00  0.00     0.000 C 
BRANCH   3   4
ATOM      4  C   UNL     1      58.017 158.376 -28.852  1.00  0.00    -0.000 C 
BRANCH   4   5
ATOM      5  C   UNL     1      59.107 158.983 -27.952  1.00  0.00    -0.000 C 
BRANCH   5   6
ATOM      6  C   UNL     1      60.509 158.439 -28.264  1.00  0.00    -0.000 C 
BRANCH   6   7
ATOM      7  C   UNL     1      61.050 157.607 -27.091  1.00  0.00    -0.000 C 
BRANCH   7   8
ATOM      8  C   UNL     1      60.364 156.237 -26.965  1.00  0.00    -0.000 C 
BRANCH   8   9
ATOM      9  C   UNL     1      60.993 155.359 -25.869  1.00  0.00    -0.000 C 
BRANCH   9  10
ATOM     10  C   UNL     1      61.227 153.912 -26.332  1.00  0.00    -0.000 C 
BRANCH  10  11
ATOM     11  C   UNL     1      62.198 153.817 -27.519  1.00  0.00    -0.003 C 
ATOM     12  C   UNL     1      62.086 152.461 -28.212  1.00  0.00     0.004 C 
ENDBRANCH  10  11
ENDBRANCH   9  10
ENDBRANCH   8   9
ENDBRANCH   7   8
ENDBRANCH   6   7
ENDBRANCH   5   6
ENDBRANCH   4   5
ENDBRANCH   3   4
ENDBRANCH   2   3
ENDBRANCH   1   2
BRANCH   1  13
ATOM     13  C   UNL     1      55.396 156.239 -25.332  1.00  0.00     0.000 C 
BRANCH  13  14
ATOM     14  C   UNL     1      54.741 157.417 -24.589  1.00  0.00     0.000 C 
BRANCH  14  15
ATOM     15  C   UNL     1      53.477 157.991 -25.256  1.00  0.00     0.000 C 
BRANCH  15  16
ATOM     16  C   UNL     1      52.962 157.201 -26.476  1.00  0.00     0.000 C 
BRANCH  16  17
ATOM     17  C   UNL     1      51.428 157.037 -26.515  1.00  0.00     0.000 C 
BRANCH  17  18
ATOM     18  C   UNL     1      50.984 155.572 -26.388  1.00  0.00     0.000 C 
BRANCH  18  19
ATOM     19  C   UNL     1      52.170 154.670 -26.010  1.00  0.00     0.000 C 
BRANCH  19  20
ATOM     20  C   UNL     1      51.767 153.522 -25.071  1.00  0.00     0.006 C 
BRANCH  20  21
ATOM     21  C   UNL     1      50.996 154.011 -23.835  1.00  0.00     0.053 C 
BRANCH  21  22
ATOM     22  C   UNL     1      50.264 152.885 -23.172  1.00  0.00     0.041 C 
ATOM     23  O   UNL     1      49.267 152.356 -23.729  1.00  0.00    -0.550 OA
ATOM     24  O   UNL     1      50.732 152.366 -21.969  1.00  0.00    -0.550 OA
ENDBRANCH  21  22
ENDBRANCH  20  21
ENDBRANCH  19  20
ENDBRANCH  18  19
ENDBRANCH  17  18
ENDBRANCH  16  17
ENDBRANCH  15  16
ENDBRANCH  14  15
ENDBRANCH  13  14
ENDBRANCH   1  13
TORSDOF 20
ENDMDL
MODEL 9
REMARK VINA RESULT:    -4.513     13.201     16.967
REMARK INTER + INTRA:         -10.959
REMARK INTER:                  -7.754
REMARK INTRA:                  -3.205
REMARK UNBOUND:                -1.169
REMARK SMILES CCCCCCCCCCCCCCCCCCCCCC(=O)[O-]
REMARK SMILES IDX 12 1 11 2 10 3 9 4 8 5 7 6 6 7 5 8 4 9 3 10 2 11 1 12 13 13
REMARK SMILES IDX 14 14 15 15 16 16 17 17 18 18 19 19 20 20 21 21 22 22 23 23
REMARK SMILES IDX 24 24
REMARK H PARENT
REMARK Flexibility Score: inf
ROOT
ATOM      1  C   UNL     1      48.709 152.796 -30.250  1.00  0.00     0.000 C 
ENDROOT
BRANCH   1   2
ATOM      2  C   UNL     1      47.235 153.142 -30.516  1.00  0.00     0.000 C 
BRANCH   2   3
ATOM      3  C   UNL     1      46.287 152.518 -29.476  1.00  0.00     0.000 C 
BRANCH   3   4
ATOM      4  C   UNL     1      46.091 153.410 -28.236  1.00  0.00    -0.000 C 
BRANCH   4   5
ATOM      5  C   UNL     1      45.964 154.914 -28.533  1.00  0.00    -0.000 C 
BRANCH   5   6
ATOM      6  C   UNL     1      46.717 155.787 -27.518  1.00  0.00    -0.000 C 
BRANCH   6   7
ATOM      7  C   UNL     1      47.852 154.997 -26.849  1.00  0.00    -0.000 C 
BRANCH   7   8
ATOM      8  C   UNL     1      49.152 155.809 -26.725  1.00  0.00    -0.000 C 
BRANCH   8   9
ATOM      9  C   UNL     1      50.396 154.998 -27.125  1.00  0.00    -0.000 C 
BRANCH   9  10
ATOM     10  C   UNL     1      51.538 155.125 -26.104  1.00  0.00    -0.000 C 
BRANCH  10  11
ATOM     11  C   UNL     1      52.087 153.763 -25.653  1.00  0.00    -0.003 C 
ATOM     12  C   UNL     1      51.750 153.494 -24.188  1.00  0.00     0.004 C 
ENDBRANCH  10  11
ENDBRANCH   9  10
ENDBRANCH   8   9
ENDBRANCH   7   8
ENDBRANCH   6   7
ENDBRANCH   5   6
ENDBRANCH   4   5
ENDBRANCH   3   4
ENDBRANCH   2   3
ENDBRANCH   1   2
BRANCH   1  13
ATOM     13  C   UNL     1      49.656 153.961 -30.588  1.00  0.00     0.000 C 
BRANCH  13  14
ATOM     14  C   UNL     1      48.995 155.341 -30.413  1.00  0.00     0.000 C 
BRANCH  14  15
ATOM     15  C   UNL     1      49.020 156.241 -31.662  1.00  0.00     0.000 C 
BRANCH  15  16
ATOM     16  C   UNL     1      47.846 156.040 -32.641  1.00  0.00     0.000 C 
BRANCH  16  17
ATOM     17  C   UNL     1      48.273 155.543 -34.039  1.00  0.00     0.000 C 
BRANCH  17  18
ATOM     18  C   UNL     1      48.133 154.021 -34.195  1.00  0.00     0.000 C 
BRANCH  18  19
ATOM     19  C   UNL     1      49.505 153.332 -34.120  1.00  0.00     0.000 C 
BRANCH  19  20
ATOM     20  C   UNL     1      50.671 154.304 -34.359  1.00  0.00     0.006 C 
BRANCH  20  21
ATOM     21  C   UNL     1      51.725 154.250 -33.242  1.00  0.00     0.053 C 
BRANCH  21  22
ATOM     22  C   UNL     1      53.052 154.749 -33.725  1.00  0.00     0.041 C 
ATOM     23  O   UNL     1      53.225 155.974 -33.961  1.00  0.00    -0.550 OA
ATOM     24  O   UNL     1      54.124 153.871 -33.840  1.00  0.00    -0.550 OA
ENDBRANCH  21  22
ENDBRANCH  20  21
ENDBRANCH  19  20
ENDBRANCH  18  19
ENDBRANCH  17  18
ENDBRANCH  16  17
ENDBRANCH  15  16
ENDBRANCH  14  15
ENDBRANCH  13  14
ENDBRANCH   1  13
TORSDOF 20
ENDMDL
