MODEL 1
REMARK VINA RESULT:    -6.258      0.000      0.000
REMARK INTER + INTRA:          -7.681
REMARK INTER:                  -7.722
REMARK INTRA:                   0.041
REMARK UNBOUND:                 0.041
REMARK SMILES Oc1cc(O)c2cc(O)c(-c3cc(O)c(O)c(O)c3)[o+]c2c1
REMARK SMILES IDX 10 1 20 2 21 3 22 4 2 5 3 6 4 7 6 8 7 9 8 10 11 11 12 12
REMARK SMILES IDX 13 13 19 14 15 15 17 16 14 17 16 19 18 21 9 23 1 25 5 27
REMARK H PARENT 14 18 16 20 18 22 9 24 1 26 5 28
REMARK Flexibility Score: inf
ROOT
ATOM      1  C   UNL     1      10.881 -17.456 -31.168  1.00  0.00     0.402 A 
ATOM      2  O   UNL     1      10.557 -16.419 -31.935  1.00  0.00    -0.202 OA
ATOM      3  C   UNL     1      10.035 -16.545 -33.151  1.00  0.00     0.368 A 
ATOM      4  C   UNL     1       9.730 -15.395 -33.883  1.00  0.00     0.162 A 
ATOM      5  C   UNL     1       9.183 -15.499 -35.166  1.00  0.00     0.128 A 
ATOM      6  C   UNL     1       8.940 -16.758 -35.718  1.00  0.00     0.093 A 
ATOM      7  C   UNL     1       9.237 -17.927 -35.005  1.00  0.00     0.136 A 
ATOM      8  C   UNL     1       9.790 -17.826 -33.702  1.00  0.00     0.125 A 
ATOM      9  C   UNL     1      10.107 -18.942 -32.909  1.00  0.00     0.078 A 
ATOM     10  C   UNL     1      10.646 -18.764 -31.631  1.00  0.00     0.223 A 
ENDROOT
BRANCH   1  11
ATOM     11  C   UNL     1      11.466 -17.185 -29.835  1.00  0.00     0.091 A 
ATOM     12  C   UNL     1      12.464 -16.214 -29.657  1.00  0.00     0.068 A 
ATOM     13  C   UNL     1      12.988 -15.956 -28.388  1.00  0.00     0.162 A 
ATOM     14  C   UNL     1      10.977 -17.871 -28.715  1.00  0.00     0.068 A 
ATOM     15  C   UNL     1      12.514 -16.662 -27.267  1.00  0.00     0.200 A 
ATOM     16  C   UNL     1      11.491 -17.627 -27.437  1.00  0.00     0.162 A 
BRANCH  13  17
ATOM     17  O   UNL     1      13.984 -14.987 -28.260  1.00  0.00    -0.504 OA
ATOM     18  H   UNL     1      14.910 -15.205 -27.911  1.00  0.00     0.293 HD
ENDBRANCH  13  17
BRANCH  15  19
ATOM     19  O   UNL     1      13.072 -16.380 -26.018  1.00  0.00    -0.502 OA
ATOM     20  H   UNL     1      13.784 -16.942 -25.575  1.00  0.00     0.293 HD
ENDBRANCH  15  19
BRANCH  16  21
ATOM     21  O   UNL     1      10.959 -18.359 -26.373  1.00  0.00    -0.504 OA
ATOM     22  H   UNL     1      11.475 -19.049 -25.846  1.00  0.00     0.293 HD
ENDBRANCH  16  21
ENDBRANCH   1  11
BRANCH  10  23
ATOM     23  O   UNL     1      10.913 -19.870 -30.825  1.00  0.00    -0.500 OA
ATOM     24  H   UNL     1      11.060 -19.778 -29.826  1.00  0.00     0.294 HD
ENDBRANCH  10  23
BRANCH   5  25
ATOM     25  O   UNL     1       8.877 -14.356 -35.901  1.00  0.00    -0.507 OA
ATOM     26  H   UNL     1       8.075 -14.322 -36.520  1.00  0.00     0.293 HD
ENDBRANCH   5  25
BRANCH   7  27
ATOM     27  O   UNL     1       8.967 -19.148 -35.629  1.00  0.00    -0.507 OA
ATOM     28  H   UNL     1       8.273 -19.280 -36.350  1.00  0.00     0.293 HD
ENDBRANCH   7  27
TORSDOF 7
ENDMDL
MODEL 2
REMARK VINA RESULT:    -6.243      1.625      7.226
REMARK INTER + INTRA:          -7.663
REMARK INTER:                  -7.558
REMARK INTRA:                  -0.105
REMARK UNBOUND:                 0.041
REMARK SMILES Oc1cc(O)c2cc(O)c(-c3cc(O)c(O)c(O)c3)[o+]c2c1
REMARK SMILES IDX 10 1 20 2 21 3 22 4 2 5 3 6 4 7 6 8 7 9 8 10 11 11 12 12
REMARK SMILES IDX 13 13 19 14 15 15 17 16 14 17 16 19 18 21 9 23 1 25 5 27
REMARK H PARENT 14 18 16 20 18 22 9 24 1 26 5 28
REMARK Flexibility Score: inf
ROOT
ATOM      1  C   UNL     1      10.380 -16.966 -31.730  1.00  0.00     0.402 A 
ATOM      2  O   UNL     1      11.260 -17.892 -31.361  1.00  0.00    -0.202 OA
ATOM      3  C   UNL     1      11.698 -18.027 -30.113  1.00  0.00     0.368 A 
ATOM      4  C   UNL     1      12.627 -19.029 -29.823  1.00  0.00     0.162 A 
ATOM      5  C   UNL     1      13.108 -19.191 -28.520  1.00  0.00     0.128 A 
ATOM      6  C   UNL     1      12.657 -18.347 -27.503  1.00  0.00     0.093 A 
ATOM      7  C   UNL     1      11.726 -17.334 -27.768  1.00  0.00     0.136 A 
ATOM      8  C   UNL     1      11.234 -17.168 -29.089  1.00  0.00     0.125 A 
ATOM      9  C   UNL     1      10.291 -16.189 -29.443  1.00  0.00     0.078 A 
ATOM     10  C   UNL     1       9.848 -16.088 -30.766  1.00  0.00     0.223 A 
ENDROOT
BRANCH   1  11
ATOM     11  C   UNL     1       9.977 -16.910 -33.153  1.00  0.00     0.091 A 
ATOM     12  C   UNL     1      10.011 -15.707 -33.876  1.00  0.00     0.068 A 
ATOM     13  C   UNL     1       9.648 -15.677 -35.225  1.00  0.00     0.162 A 
ATOM     14  C   UNL     1       9.608 -18.090 -33.813  1.00  0.00     0.068 A 
ATOM     15  C   UNL     1       9.255 -16.858 -35.881  1.00  0.00     0.200 A 
ATOM     16  C   UNL     1       9.241 -18.079 -35.164  1.00  0.00     0.162 A 
BRANCH  13  17
ATOM     17  O   UNL     1       9.690 -14.457 -35.902  1.00  0.00    -0.504 OA
ATOM     18  H   UNL     1       8.909 -14.114 -36.448  1.00  0.00     0.293 HD
ENDBRANCH  13  17
BRANCH  15  19
ATOM     19  O   UNL     1       8.892 -16.782 -37.228  1.00  0.00    -0.502 OA
ATOM     20  H   UNL     1       9.544 -16.843 -37.996  1.00  0.00     0.293 HD
ENDBRANCH  15  19
BRANCH  16  21
ATOM     21  O   UNL     1       8.875 -19.294 -35.747  1.00  0.00    -0.504 OA
ATOM     22  H   UNL     1       7.966 -19.481 -36.144  1.00  0.00     0.293 HD
ENDBRANCH  16  21
ENDBRANCH   1  11
BRANCH  10  23
ATOM     23  O   UNL     1       8.875 -15.150 -31.109  1.00  0.00    -0.500 OA
ATOM     24  H   UNL     1       8.436 -14.560 -30.412  1.00  0.00     0.294 HD
ENDBRANCH  10  23
BRANCH   5  25
ATOM     25  O   UNL     1      14.034 -20.189 -28.224  1.00  0.00    -0.507 OA
ATOM     26  H   UNL     1      14.349 -20.846 -28.928  1.00  0.00     0.293 HD
ENDBRANCH   5  25
BRANCH   7  27
ATOM     27  O   UNL     1      11.327 -16.530 -26.696  1.00  0.00    -0.507 OA
ATOM     28  H   UNL     1      10.547 -15.890 -26.722  1.00  0.00     0.293 HD
ENDBRANCH   7  27
TORSDOF 7
ENDMDL
MODEL 3
REMARK VINA RESULT:    -6.240      0.072      1.807
REMARK INTER + INTRA:          -7.658
REMARK INTER:                  -7.702
REMARK INTRA:                   0.044
REMARK UNBOUND:                 0.041
REMARK SMILES Oc1cc(O)c2cc(O)c(-c3cc(O)c(O)c(O)c3)[o+]c2c1
REMARK SMILES IDX 10 1 20 2 21 3 22 4 2 5 3 6 4 7 6 8 7 9 8 10 11 11 12 12
REMARK SMILES IDX 13 13 19 14 15 15 17 16 14 17 16 19 18 21 9 23 1 25 5 27
REMARK H PARENT 14 18 16 20 18 22 9 24 1 26 5 28
REMARK Flexibility Score: inf
ROOT
ATOM      1  C   UNL     1      10.823 -17.440 -31.196  1.00  0.00     0.402 A 
ATOM      2  O   UNL     1      10.510 -16.406 -31.970  1.00  0.00    -0.202 OA
ATOM      3  C   UNL     1      10.003 -16.535 -33.192  1.00  0.00     0.368 A 
ATOM      4  C   UNL     1       9.709 -15.387 -33.932  1.00  0.00     0.162 A 
ATOM      5  C   UNL     1       9.178 -15.495 -35.222  1.00  0.00     0.128 A 
ATOM      6  C   UNL     1       8.942 -16.756 -35.773  1.00  0.00     0.093 A 
ATOM      7  C   UNL     1       9.229 -17.922 -35.052  1.00  0.00     0.136 A 
ATOM      8  C   UNL     1       9.765 -17.818 -33.742  1.00  0.00     0.125 A 
ATOM      9  C   UNL     1      10.070 -18.931 -32.942  1.00  0.00     0.078 A 
ATOM     10  C   UNL     1      10.592 -18.750 -31.658  1.00  0.00     0.223 A 
ENDROOT
BRANCH   1  11
ATOM     11  C   UNL     1      11.390 -17.166 -29.856  1.00  0.00     0.091 A 
ATOM     12  C   UNL     1      10.969 -17.879 -28.723  1.00  0.00     0.068 A 
ATOM     13  C   UNL     1      11.532 -17.623 -27.470  1.00  0.00     0.162 A 
ATOM     14  C   UNL     1      12.412 -16.216 -29.721  1.00  0.00     0.068 A 
ATOM     15  C   UNL     1      12.540 -16.652 -27.331  1.00  0.00     0.200 A 
ATOM     16  C   UNL     1      12.987 -15.945 -28.474  1.00  0.00     0.162 A 
BRANCH  13  17
ATOM     17  O   UNL     1      11.076 -18.351 -26.370  1.00  0.00    -0.504 OA
ATOM     18  H   UNL     1      10.956 -19.356 -26.399  1.00  0.00     0.293 HD
ENDBRANCH  13  17
BRANCH  15  19
ATOM     19  O   UNL     1      13.070 -16.420 -26.059  1.00  0.00    -0.502 OA
ATOM     20  H   UNL     1      12.843 -16.968 -25.241  1.00  0.00     0.293 HD
ENDBRANCH  15  19
BRANCH  16  21
ATOM     21  O   UNL     1      13.991 -14.976 -28.420  1.00  0.00    -0.504 OA
ATOM     22  H   UNL     1      14.378 -14.609 -27.563  1.00  0.00     0.293 HD
ENDBRANCH  16  21
ENDBRANCH   1  11
BRANCH  10  23
ATOM     23  O   UNL     1      10.849 -19.854 -30.844  1.00  0.00    -0.500 OA
ATOM     24  H   UNL     1      11.776 -20.256 -30.770  1.00  0.00     0.294 HD
ENDBRANCH  10  23
BRANCH   5  25
ATOM     25  O   UNL     1       8.882 -14.354 -35.964  1.00  0.00    -0.507 OA
ATOM     26  H   UNL     1       9.249 -13.445 -35.708  1.00  0.00     0.293 HD
ENDBRANCH   5  25
BRANCH   7  27
ATOM     27  O   UNL     1       8.966 -19.146 -35.676  1.00  0.00    -0.507 OA
ATOM     28  H   UNL     1       8.323 -19.839 -35.323  1.00  0.00     0.293 HD
ENDBRANCH   7  27
TORSDOF 7
ENDMDL
MODEL 4
REMARK VINA RESULT:    -6.123      1.083      7.085
REMARK INTER + INTRA:          -7.514
REMARK INTER:                  -7.649
REMARK INTRA:                   0.135
REMARK UNBOUND:                 0.041
REMARK SMILES Oc1cc(O)c2cc(O)c(-c3cc(O)c(O)c(O)c3)[o+]c2c1
REMARK SMILES IDX 10 1 20 2 21 3 22 4 2 5 3 6 4 7 6 8 7 9 8 10 11 11 12 12
REMARK SMILES IDX 13 13 19 14 15 15 17 16 14 17 16 19 18 21 9 23 1 25 5 27
REMARK H PARENT 14 18 16 20 18 22 9 24 1 26 5 28
REMARK Flexibility Score: inf
ROOT
ATOM      1  C   UNL     1      10.577 -17.454 -31.027  1.00  0.00     0.402 A 
ATOM      2  O   UNL     1      11.528 -16.649 -30.562  1.00  0.00    -0.202 OA
ATOM      3  C   UNL     1      11.973 -16.692 -29.310  1.00  0.00     0.368 A 
ATOM      4  C   UNL     1      12.973 -15.802 -28.913  1.00  0.00     0.162 A 
ATOM      5  C   UNL     1      13.457 -15.823 -27.601  1.00  0.00     0.128 A 
ATOM      6  C   UNL     1      12.937 -16.738 -26.683  1.00  0.00     0.093 A 
ATOM      7  C   UNL     1      11.933 -17.640 -27.056  1.00  0.00     0.136 A 
ATOM      8  C   UNL     1      11.441 -17.624 -28.387  1.00  0.00     0.125 A 
ATOM      9  C   UNL     1      10.446 -18.500 -28.853  1.00  0.00     0.078 A 
ATOM     10  C   UNL     1      10.014 -18.428 -30.181  1.00  0.00     0.223 A 
ENDROOT
BRANCH   1  11
ATOM     11  C   UNL     1      10.159 -17.302 -32.440  1.00  0.00     0.091 A 
ATOM     12  C   UNL     1       9.812 -18.413 -33.224  1.00  0.00     0.068 A 
ATOM     13  C   UNL     1       9.399 -18.248 -34.548  1.00  0.00     0.162 A 
ATOM     14  C   UNL     1      10.051 -16.018 -32.992  1.00  0.00     0.068 A 
ATOM     15  C   UNL     1       9.313 -16.961 -35.110  1.00  0.00     0.200 A 
ATOM     16  C   UNL     1       9.639 -15.834 -34.317  1.00  0.00     0.162 A 
BRANCH  13  17
ATOM     17  O   UNL     1       9.071 -19.383 -35.292  1.00  0.00    -0.504 OA
ATOM     18  H   UNL     1       9.411 -20.305 -35.050  1.00  0.00     0.293 HD
ENDBRANCH  13  17
BRANCH  15  19
ATOM     19  O   UNL     1       8.904 -16.842 -36.441  1.00  0.00    -0.502 OA
ATOM     20  H   UNL     1       9.193 -16.099 -37.060  1.00  0.00     0.293 HD
ENDBRANCH  15  19
BRANCH  16  21
ATOM     21  O   UNL     1       9.568 -14.525 -34.799  1.00  0.00    -0.504 OA
ATOM     22  H   UNL     1       8.763 -13.926 -34.692  1.00  0.00     0.293 HD
ENDBRANCH  16  21
ENDBRANCH   1  11
BRANCH  10  23
ATOM     23  O   UNL     1       9.062 -19.329 -30.657  1.00  0.00    -0.500 OA
ATOM     24  H   UNL     1       9.233 -20.328 -30.668  1.00  0.00     0.294 HD
ENDBRANCH  10  23
BRANCH   5  25
ATOM     25  O   UNL     1      14.455 -14.938 -27.199  1.00  0.00    -0.507 OA
ATOM     26  H   UNL     1      14.309 -14.282 -26.441  1.00  0.00     0.293 HD
ENDBRANCH   5  25
BRANCH   7  27
ATOM     27  O   UNL     1      11.464 -18.522 -26.078  1.00  0.00    -0.507 OA
ATOM     28  H   UNL     1      10.506 -18.566 -25.761  1.00  0.00     0.293 HD
ENDBRANCH   7  27
TORSDOF 7
ENDMDL
MODEL 5
REMARK VINA RESULT:    -6.023      1.114      6.920
REMARK INTER + INTRA:          -7.391
REMARK INTER:                  -7.592
REMARK INTRA:                   0.200
REMARK UNBOUND:                 0.041
REMARK SMILES Oc1cc(O)c2cc(O)c(-c3cc(O)c(O)c(O)c3)[o+]c2c1
REMARK SMILES IDX 10 1 20 2 21 3 22 4 2 5 3 6 4 7 6 8 7 9 8 10 11 11 12 12
REMARK SMILES IDX 13 13 19 14 15 15 17 16 14 17 16 19 18 21 9 23 1 25 5 27
REMARK H PARENT 14 18 16 20 18 22 9 24 1 26 5 28
REMARK Flexibility Score: inf
ROOT
ATOM      1  C   UNL     1      10.540 -17.414 -30.966  1.00  0.00     0.402 A 
ATOM      2  O   UNL     1      11.526 -16.635 -30.530  1.00  0.00    -0.202 OA
ATOM      3  C   UNL     1      11.982 -16.664 -29.283  1.00  0.00     0.368 A 
ATOM      4  C   UNL     1      13.021 -15.804 -28.918  1.00  0.00     0.162 A 
ATOM      5  C   UNL     1      13.518 -15.812 -27.611  1.00  0.00     0.128 A 
ATOM      6  C   UNL     1      12.974 -16.683 -26.665  1.00  0.00     0.093 A 
ATOM      7  C   UNL     1      11.932 -17.555 -27.005  1.00  0.00     0.136 A 
ATOM      8  C   UNL     1      11.426 -17.553 -28.331  1.00  0.00     0.125 A 
ATOM      9  C   UNL     1      10.393 -18.400 -28.765  1.00  0.00     0.078 A 
ATOM     10  C   UNL     1       9.949 -18.344 -30.090  1.00  0.00     0.223 A 
ENDROOT
BRANCH   1  11
ATOM     11  C   UNL     1      10.112 -17.281 -32.377  1.00  0.00     0.091 A 
ATOM     12  C   UNL     1      10.163 -16.046 -33.043  1.00  0.00     0.068 A 
ATOM     13  C   UNL     1       9.776 -15.943 -34.382  1.00  0.00     0.162 A 
ATOM     14  C   UNL     1       9.703 -18.419 -33.085  1.00  0.00     0.068 A 
ATOM     15  C   UNL     1       9.342 -17.082 -35.085  1.00  0.00     0.200 A 
ATOM     16  C   UNL     1       9.311 -18.335 -34.425  1.00  0.00     0.162 A 
BRANCH  13  17
ATOM     17  O   UNL     1       9.836 -14.694 -35.001  1.00  0.00    -0.504 OA
ATOM     18  H   UNL     1      10.200 -13.874 -34.531  1.00  0.00     0.293 HD
ENDBRANCH  13  17
BRANCH  15  19
ATOM     19  O   UNL     1       8.957 -16.933 -36.420  1.00  0.00    -0.502 OA
ATOM     20  H   UNL     1       8.342 -17.568 -36.907  1.00  0.00     0.293 HD
ENDBRANCH  15  19
BRANCH  16  21
ATOM     21  O   UNL     1       8.905 -19.512 -35.058  1.00  0.00    -0.504 OA
ATOM     22  H   UNL     1       8.203 -19.553 -35.783  1.00  0.00     0.293 HD
ENDBRANCH  16  21
ENDBRANCH   1  11
BRANCH  10  23
ATOM     23  O   UNL     1       8.959 -19.220 -30.533  1.00  0.00    -0.500 OA
ATOM     24  H   UNL     1       8.204 -18.910 -31.135  1.00  0.00     0.294 HD
ENDBRANCH  10  23
BRANCH   5  25
ATOM     25  O   UNL     1      14.554 -14.957 -27.241  1.00  0.00    -0.507 OA
ATOM     26  H   UNL     1      14.414 -14.216 -26.564  1.00  0.00     0.293 HD
ENDBRANCH   5  25
BRANCH   7  27
ATOM     27  O   UNL     1      11.440 -18.394 -26.000  1.00  0.00    -0.507 OA
ATOM     28  H   UNL     1      11.216 -18.092 -25.063  1.00  0.00     0.293 HD
ENDBRANCH   7  27
TORSDOF 7
ENDMDL
MODEL 6
REMARK VINA RESULT:    -5.391      2.045      3.260
REMARK INTER + INTRA:          -6.611
REMARK INTER:                  -6.233
REMARK INTRA:                  -0.378
REMARK UNBOUND:                 0.041
REMARK SMILES Oc1cc(O)c2cc(O)c(-c3cc(O)c(O)c(O)c3)[o+]c2c1
REMARK SMILES IDX 10 1 20 2 21 3 22 4 2 5 3 6 4 7 6 8 7 9 8 10 11 11 12 12
REMARK SMILES IDX 13 13 19 14 15 15 17 16 14 17 16 19 18 21 9 23 1 25 5 27
REMARK H PARENT 14 18 16 20 18 22 9 24 1 26 5 28
REMARK Flexibility Score: inf
ROOT
ATOM      1  C   UNL     1      10.217 -16.840 -33.379  1.00  0.00     0.402 A 
ATOM      2  O   UNL     1      10.510 -15.609 -33.789  1.00  0.00    -0.202 OA
ATOM      3  C   UNL     1      10.278 -15.176 -35.023  1.00  0.00     0.368 A 
ATOM      4  C   UNL     1      10.625 -13.866 -35.361  1.00  0.00     0.162 A 
ATOM      5  C   UNL     1      10.395 -13.386 -36.655  1.00  0.00     0.128 A 
ATOM      6  C   UNL     1       9.816 -14.220 -37.613  1.00  0.00     0.093 A 
ATOM      7  C   UNL     1       9.459 -15.537 -37.300  1.00  0.00     0.136 A 
ATOM      8  C   UNL     1       9.689 -16.029 -35.988  1.00  0.00     0.125 A 
ATOM      9  C   UNL     1       9.352 -17.330 -35.581  1.00  0.00     0.078 A 
ATOM     10  C   UNL     1       9.604 -17.743 -34.269  1.00  0.00     0.223 A 
ENDROOT
BRANCH   1  11
ATOM     11  C   UNL     1      10.534 -17.207 -31.980  1.00  0.00     0.091 A 
ATOM     12  C   UNL     1       9.589 -17.058 -30.952  1.00  0.00     0.068 A 
ATOM     13  C   UNL     1       9.899 -17.431 -29.642  1.00  0.00     0.162 A 
ATOM     14  C   UNL     1      11.782 -17.770 -31.680  1.00  0.00     0.068 A 
ATOM     15  C   UNL     1      11.161 -17.973 -29.337  1.00  0.00     0.200 A 
ATOM     16  C   UNL     1      12.110 -18.147 -30.373  1.00  0.00     0.162 A 
BRANCH  13  17
ATOM     17  O   UNL     1       8.931 -17.258 -28.651  1.00  0.00    -0.504 OA
ATOM     18  H   UNL     1       7.939 -17.327 -28.846  1.00  0.00     0.293 HD
ENDBRANCH  13  17
BRANCH  15  19
ATOM     19  O   UNL     1      11.432 -18.324 -28.012  1.00  0.00    -0.502 OA
ATOM     20  H   UNL     1      11.301 -17.707 -27.223  1.00  0.00     0.293 HD
ENDBRANCH  15  19
BRANCH  16  21
ATOM     21  O   UNL     1      13.378 -18.689 -30.153  1.00  0.00    -0.504 OA
ATOM     22  H   UNL     1      13.658 -19.147 -29.298  1.00  0.00     0.293 HD
ENDBRANCH  16  21
ENDBRANCH   1  11
BRANCH  10  23
ATOM     23  O   UNL     1       9.225 -19.017 -33.851  1.00  0.00    -0.500 OA
ATOM     24  H   UNL     1       8.776 -19.673 -34.480  1.00  0.00     0.294 HD
ENDBRANCH  10  23
BRANCH   5  25
ATOM     25  O   UNL     1      10.738 -12.080 -36.997  1.00  0.00    -0.507 OA
ATOM     26  H   UNL     1      11.682 -11.833 -37.270  1.00  0.00     0.293 HD
ENDBRANCH   5  25
BRANCH   7  27
ATOM     27  O   UNL     1       8.887 -16.309 -38.316  1.00  0.00    -0.507 OA
ATOM     28  H   UNL     1       9.002 -16.129 -39.303  1.00  0.00     0.293 HD
ENDBRANCH   7  27
TORSDOF 7
ENDMDL
MODEL 7
REMARK VINA RESULT:    -5.154      2.199      7.366
REMARK INTER + INTRA:          -6.318
REMARK INTER:                  -6.658
REMARK INTRA:                   0.339
REMARK UNBOUND:                 0.041
REMARK SMILES Oc1cc(O)c2cc(O)c(-c3cc(O)c(O)c(O)c3)[o+]c2c1
REMARK SMILES IDX 10 1 20 2 21 3 22 4 2 5 3 6 4 7 6 8 7 9 8 10 11 11 12 12
REMARK SMILES IDX 13 13 19 14 15 15 17 16 14 17 16 19 18 21 9 23 1 25 5 27
REMARK H PARENT 14 18 16 20 18 22 9 24 1 26 5 28
REMARK Flexibility Score: inf
ROOT
ATOM      1  C   UNL     1       9.697 -16.219 -34.353  1.00  0.00     0.402 A 
ATOM      2  O   UNL     1       9.996 -15.771 -33.137  1.00  0.00    -0.202 OA
ATOM      3  C   UNL     1       9.885 -16.511 -32.039  1.00  0.00     0.368 A 
ATOM      4  C   UNL     1      10.221 -15.950 -30.804  1.00  0.00     0.162 A 
ATOM      5  C   UNL     1      10.110 -16.705 -29.632  1.00  0.00     0.128 A 
ATOM      6  C   UNL     1       9.661 -18.026 -29.696  1.00  0.00     0.093 A 
ATOM      7  C   UNL     1       9.318 -18.611 -30.921  1.00  0.00     0.136 A 
ATOM      8  C   UNL     1       9.431 -17.850 -32.113  1.00  0.00     0.125 A 
ATOM      9  C   UNL     1       9.122 -18.358 -33.386  1.00  0.00     0.078 A 
ATOM     10  C   UNL     1       9.263 -17.548 -34.518  1.00  0.00     0.223 A 
ENDROOT
BRANCH   1  11
ATOM     11  C   UNL     1       9.852 -15.294 -35.499  1.00  0.00     0.091 A 
ATOM     12  C   UNL     1       9.322 -15.599 -36.762  1.00  0.00     0.068 A 
ATOM     13  C   UNL     1       9.459 -14.703 -37.826  1.00  0.00     0.162 A 
ATOM     14  C   UNL     1      10.491 -14.061 -35.308  1.00  0.00     0.068 A 
ATOM     15  C   UNL     1      10.122 -13.476 -37.640  1.00  0.00     0.200 A 
ATOM     16  C   UNL     1      10.638 -13.152 -36.362  1.00  0.00     0.162 A 
BRANCH  13  17
ATOM     17  O   UNL     1       8.923 -15.052 -39.067  1.00  0.00    -0.504 OA
ATOM     18  H   UNL     1       8.891 -16.011 -39.391  1.00  0.00     0.293 HD
ENDBRANCH  13  17
BRANCH  15  19
ATOM     19  O   UNL     1      10.244 -12.614 -38.733  1.00  0.00    -0.502 OA
ATOM     20  H   UNL     1       9.469 -12.298 -39.296  1.00  0.00     0.293 HD
ENDBRANCH  15  19
BRANCH  16  21
ATOM     21  O   UNL     1      11.297 -11.950 -36.095  1.00  0.00    -0.504 OA
ATOM     22  H   UNL     1      11.534 -11.628 -35.168  1.00  0.00     0.293 HD
ENDBRANCH  16  21
ENDBRANCH   1  11
BRANCH  10  23
ATOM     23  O   UNL     1       9.004 -18.067 -35.786  1.00  0.00    -0.500 OA
ATOM     24  H   UNL     1       9.166 -19.043 -36.005  1.00  0.00     0.294 HD
ENDBRANCH  10  23
BRANCH   5  25
ATOM     25  O   UNL     1      10.444 -16.152 -28.398  1.00  0.00    -0.507 OA
ATOM     26  H   UNL     1      10.868 -16.708 -27.665  1.00  0.00     0.293 HD
ENDBRANCH   5  25
BRANCH   7  27
ATOM     27  O   UNL     1       8.875 -19.937 -30.900  1.00  0.00    -0.507 OA
ATOM     28  H   UNL     1       8.610 -20.464 -31.719  1.00  0.00     0.293 HD
ENDBRANCH   7  27
TORSDOF 7
ENDMDL
