MODEL 1
REMARK VINA RESULT:    -5.814      0.000      0.000
REMARK INTER + INTRA:         -21.744
REMARK INTER:                 -15.330
REMARK INTRA:                  -6.414
REMARK UNBOUND:                -6.414
REMARK SMILES CCCCCCCCCCCCCCCCCCCCCCCCCCCCCC(=O)[O-]
REMARK SMILES IDX 16 1 17 2 18 3 19 4 20 5 21 6 22 7 23 8 24 9 25 10 26 11
REMARK SMILES IDX 27 12 28 13 29 14 30 15 31 16 32 17 15 18 14 19 13 20 12 21
REMARK SMILES IDX 11 22 10 23 9 24 8 25 7 26 6 27 5 28 4 29 3 30 2 31 1 32
REMARK H PARENT
REMARK Flexibility Score: inf
ROOT
ATOM      1  C   UNL     1      33.521   3.334   3.405  1.00  0.00     0.000 C 
ENDROOT
BRANCH   1   2
ATOM      2  C   UNL     1      32.753   3.768   4.663  1.00  0.00     0.000 C 
BRANCH   2   3
ATOM      3  C   UNL     1      33.548   3.430   5.933  1.00  0.00     0.000 C 
BRANCH   3   4
ATOM      4  C   UNL     1      33.738   4.642   6.862  1.00  0.00     0.000 C 
BRANCH   4   5
ATOM      5  C   UNL     1      34.565   5.799   6.265  1.00  0.00     0.000 C 
BRANCH   5   6
ATOM      6  C   UNL     1      36.085   5.711   6.508  1.00  0.00     0.000 C 
BRANCH   6   7
ATOM      7  C   UNL     1      36.494   5.041   7.835  1.00  0.00     0.000 C 
BRANCH   7   8
ATOM      8  C   UNL     1      37.343   3.763   7.685  1.00  0.00     0.000 C 
BRANCH   8   9
ATOM      9  C   UNL     1      37.650   3.355   6.234  1.00  0.00     0.000 C 
BRANCH   9  10
ATOM     10  C   UNL     1      38.470   2.061   6.140  1.00  0.00     0.000 C 
BRANCH  10  11
ATOM     11  C   UNL     1      37.827   0.941   6.972  1.00  0.00     0.000 C 
BRANCH  11  12
ATOM     12  C   UNL     1      37.380  -0.254   6.117  1.00  0.00     0.000 C 
BRANCH  12  13
ATOM     13  C   UNL     1      35.882  -0.562   6.267  1.00  0.00     0.006 C 
BRANCH  13  14
ATOM     14  C   UNL     1      35.179   0.519   7.096  1.00  0.00     0.053 C 
BRANCH  14  15
ATOM     15  C   UNL     1      33.766   0.122   7.395  1.00  0.00     0.041 C 
ATOM     16  O   UNL     1      33.173   0.592   8.403  1.00  0.00    -0.550 OA
ATOM     17  O   UNL     1      33.094  -0.749   6.545  1.00  0.00    -0.550 OA
ENDBRANCH  14  15
ENDBRANCH  13  14
ENDBRANCH  12  13
ENDBRANCH  11  12
ENDBRANCH  10  11
ENDBRANCH   9  10
ENDBRANCH   8   9
ENDBRANCH   7   8
ENDBRANCH   6   7
ENDBRANCH   5   6
ENDBRANCH   4   5
ENDBRANCH   3   4
ENDBRANCH   2   3
ENDBRANCH   1   2
BRANCH   1  18
ATOM     18  C   UNL     1      34.821   2.580   3.730  1.00  0.00     0.000 C 
BRANCH  18  19
ATOM     19  C   UNL     1      34.812   1.131   3.211  1.00  0.00     0.000 C 
BRANCH  19  20
ATOM     20  C   UNL     1      36.217   0.640   2.819  1.00  0.00     0.000 C 
BRANCH  20  21
ATOM     21  C   UNL     1      37.245   1.783   2.749  1.00  0.00     0.000 C 
BRANCH  21  22
ATOM     22  C   UNL     1      38.684   1.273   2.561  1.00  0.00     0.000 C 
BRANCH  22  23
ATOM     23  C   UNL     1      39.408   1.817   1.314  1.00  0.00     0.000 C 
BRANCH  23  24
ATOM     24  C   UNL     1      40.369   2.988   1.611  1.00  0.00    -0.000 C 
BRANCH  24  25
ATOM     25  C   UNL     1      40.857   2.992   3.069  1.00  0.00    -0.000 C 
BRANCH  25  26
ATOM     26  C   UNL     1      40.608   4.335   3.778  1.00  0.00    -0.000 C 
BRANCH  26  27
ATOM     27  C   UNL     1      39.836   5.357   2.917  1.00  0.00    -0.000 C 
BRANCH  27  28
ATOM     28  C   UNL     1      38.623   5.942   3.660  1.00  0.00    -0.000 C 
BRANCH  28  29
ATOM     29  C   UNL     1      37.313   5.315   3.158  1.00  0.00    -0.000 C 
BRANCH  29  30
ATOM     30  C   UNL     1      37.191   5.332   1.623  1.00  0.00    -0.000 C 
BRANCH  30  31
ATOM     31  C   UNL     1      35.837   4.846   1.076  1.00  0.00    -0.003 C 
ATOM     32  C   UNL     1      35.134   5.891   0.210  1.00  0.00     0.004 C 
ENDBRANCH  30  31
ENDBRANCH  29  30
ENDBRANCH  28  29
ENDBRANCH  27  28
ENDBRANCH  26  27
ENDBRANCH  25  26
ENDBRANCH  24  25
ENDBRANCH  23  24
ENDBRANCH  22  23
ENDBRANCH  21  22
ENDBRANCH  20  21
ENDBRANCH  19  20
ENDBRANCH  18  19
ENDBRANCH   1  18
TORSDOF 28
ENDMDL
MODEL 2
REMARK VINA RESULT:    -5.747      3.023      6.444
REMARK INTER + INTRA:         -21.569
REMARK INTER:                 -15.528
REMARK INTRA:                  -6.041
REMARK UNBOUND:                -6.414
REMARK SMILES CCCCCCCCCCCCCCCCCCCCCCCCCCCCCC(=O)[O-]
REMARK SMILES IDX 16 1 17 2 18 3 19 4 20 5 21 6 22 7 23 8 24 9 25 10 26 11
REMARK SMILES IDX 27 12 28 13 29 14 30 15 31 16 32 17 15 18 14 19 13 20 12 21
REMARK SMILES IDX 11 22 10 23 9 24 8 25 7 26 6 27 5 28 4 29 3 30 2 31 1 32
REMARK H PARENT
REMARK Flexibility Score: inf
ROOT
ATOM      1  C   UNL     1      35.466  -1.092   3.705  1.00  0.00     0.000 C 
ENDROOT
BRANCH   1   2
ATOM      2  C   UNL     1      35.513   0.286   3.025  1.00  0.00     0.000 C 
BRANCH   2   3
ATOM      3  C   UNL     1      34.281   1.123   3.399  1.00  0.00     0.000 C 
BRANCH   3   4
ATOM      4  C   UNL     1      34.510   2.636   3.232  1.00  0.00     0.000 C 
BRANCH   4   5
ATOM      5  C   UNL     1      35.987   3.065   3.129  1.00  0.00     0.000 C 
BRANCH   5   6
ATOM      6  C   UNL     1      36.239   4.359   2.329  1.00  0.00     0.000 C 
BRANCH   6   7
ATOM      7  C   UNL     1      36.410   5.630   3.184  1.00  0.00     0.000 C 
BRANCH   7   8
ATOM      8  C   UNL     1      37.729   5.707   3.978  1.00  0.00     0.000 C 
BRANCH   8   9
ATOM      9  C   UNL     1      38.962   6.112   3.151  1.00  0.00     0.000 C 
BRANCH   9  10
ATOM     10  C   UNL     1      40.161   5.179   3.375  1.00  0.00     0.000 C 
BRANCH  10  11
ATOM     11  C   UNL     1      39.693   3.761   3.734  1.00  0.00     0.000 C 
BRANCH  11  12
ATOM     12  C   UNL     1      40.393   2.675   2.901  1.00  0.00     0.000 C 
BRANCH  12  13
ATOM     13  C   UNL     1      39.419   1.899   2.002  1.00  0.00     0.006 C 
BRANCH  13  14
ATOM     14  C   UNL     1      38.940   2.767   0.832  1.00  0.00     0.053 C 
BRANCH  14  15
ATOM     15  C   UNL     1      39.601   2.348  -0.444  1.00  0.00     0.041 C 
ATOM     16  O   UNL     1      39.047   2.579  -1.553  1.00  0.00    -0.550 OA
ATOM     17  O   UNL     1      40.843   1.723  -0.412  1.00  0.00    -0.550 OA
ENDBRANCH  14  15
ENDBRANCH  13  14
ENDBRANCH  12  13
ENDBRANCH  11  12
ENDBRANCH  10  11
ENDBRANCH   9  10
ENDBRANCH   8   9
ENDBRANCH   7   8
ENDBRANCH   6   7
ENDBRANCH   5   6
ENDBRANCH   4   5
ENDBRANCH   3   4
ENDBRANCH   2   3
ENDBRANCH   1   2
BRANCH   1  18
ATOM     18  C   UNL     1      36.406  -1.190   4.917  1.00  0.00     0.000 C 
BRANCH  18  19
ATOM     19  C   UNL     1      37.248   0.083   5.119  1.00  0.00     0.000 C 
BRANCH  19  20
ATOM     20  C   UNL     1      37.286   0.535   6.590  1.00  0.00     0.000 C 
BRANCH  20  21
ATOM     21  C   UNL     1      38.263   1.700   6.827  1.00  0.00     0.000 C 
BRANCH  21  22
ATOM     22  C   UNL     1      37.620   3.073   6.568  1.00  0.00     0.000 C 
BRANCH  22  23
ATOM     23  C   UNL     1      37.221   3.852   7.836  1.00  0.00     0.000 C 
BRANCH  23  24
ATOM     24  C   UNL     1      36.890   5.338   7.577  1.00  0.00    -0.000 C 
BRANCH  24  25
ATOM     25  C   UNL     1      35.404   5.658   7.807  1.00  0.00    -0.000 C 
BRANCH  25  26
ATOM     26  C   UNL     1      34.655   5.984   6.504  1.00  0.00    -0.000 C 
BRANCH  26  27
ATOM     27  C   UNL     1      34.000   4.753   5.841  1.00  0.00    -0.000 C 
BRANCH  27  28
ATOM     28  C   UNL     1      33.380   3.799   6.876  1.00  0.00    -0.000 C 
BRANCH  28  29
ATOM     29  C   UNL     1      34.064   2.424   6.839  1.00  0.00    -0.000 C 
BRANCH  29  30
ATOM     30  C   UNL     1      34.053   1.712   8.204  1.00  0.00    -0.000 C 
BRANCH  30  31
ATOM     31  C   UNL     1      33.441   0.300   8.194  1.00  0.00    -0.003 C 
ATOM     32  C   UNL     1      33.361  -0.306   6.793  1.00  0.00     0.004 C 
ENDBRANCH  30  31
ENDBRANCH  29  30
ENDBRANCH  28  29
ENDBRANCH  27  28
ENDBRANCH  26  27
ENDBRANCH  25  26
ENDBRANCH  24  25
ENDBRANCH  23  24
ENDBRANCH  22  23
ENDBRANCH  21  22
ENDBRANCH  20  21
ENDBRANCH  19  20
ENDBRANCH  18  19
ENDBRANCH   1  18
TORSDOF 28
ENDMDL
MODEL 3
REMARK VINA RESULT:    -5.682      3.283      6.341
REMARK INTER + INTRA:         -21.396
REMARK INTER:                 -15.691
REMARK INTRA:                  -5.705
REMARK UNBOUND:                -6.414
REMARK SMILES CCCCCCCCCCCCCCCCCCCCCCCCCCCCCC(=O)[O-]
REMARK SMILES IDX 16 1 17 2 18 3 19 4 20 5 21 6 22 7 23 8 24 9 25 10 26 11
REMARK SMILES IDX 27 12 28 13 29 14 30 15 31 16 32 17 15 18 14 19 13 20 12 21
REMARK SMILES IDX 11 22 10 23 9 24 8 25 7 26 6 27 5 28 4 29 3 30 2 31 1 32
REMARK H PARENT
REMARK Flexibility Score: inf
ROOT
ATOM      1  C   UNL     1      34.298   0.642   2.811  1.00  0.00     0.000 C 
ENDROOT
BRANCH   1   2
ATOM      2  C   UNL     1      35.135  -0.608   3.133  1.00  0.00     0.000 C 
BRANCH   2   3
ATOM      3  C   UNL     1      35.025  -0.971   4.621  1.00  0.00     0.000 C 
BRANCH   3   4
ATOM      4  C   UNL     1      36.387  -0.988   5.337  1.00  0.00     0.000 C 
BRANCH   4   5
ATOM      5  C   UNL     1      36.506  -0.024   6.535  1.00  0.00     0.000 C 
BRANCH   5   6
ATOM      6  C   UNL     1      37.768   0.863   6.539  1.00  0.00     0.000 C 
BRANCH   6   7
ATOM      7  C   UNL     1      37.655   2.157   5.710  1.00  0.00     0.000 C 
BRANCH   7   8
ATOM      8  C   UNL     1      38.604   2.240   4.498  1.00  0.00     0.000 C 
BRANCH   8   9
ATOM      9  C   UNL     1      38.339   1.201   3.395  1.00  0.00     0.000 C 
BRANCH   9  10
ATOM     10  C   UNL     1      38.685   1.719   1.992  1.00  0.00     0.000 C 
BRANCH  10  11
ATOM     11  C   UNL     1      39.961   2.575   2.023  1.00  0.00     0.000 C 
BRANCH  11  12
ATOM     12  C   UNL     1      40.603   2.736   0.637  1.00  0.00     0.000 C 
BRANCH  12  13
ATOM     13  C   UNL     1      41.122   1.407   0.067  1.00  0.00     0.006 C 
BRANCH  13  14
ATOM     14  C   UNL     1      40.634   1.195  -1.370  1.00  0.00     0.053 C 
BRANCH  14  15
ATOM     15  C   UNL     1      40.958  -0.189  -1.842  1.00  0.00     0.041 C 
ATOM     16  O   UNL     1      41.570  -0.992  -1.086  1.00  0.00    -0.550 OA
ATOM     17  O   UNL     1      40.563  -0.602  -3.109  1.00  0.00    -0.550 OA
ENDBRANCH  14  15
ENDBRANCH  13  14
ENDBRANCH  12  13
ENDBRANCH  11  12
ENDBRANCH  10  11
ENDBRANCH   9  10
ENDBRANCH   8   9
ENDBRANCH   7   8
ENDBRANCH   6   7
ENDBRANCH   5   6
ENDBRANCH   4   5
ENDBRANCH   3   4
ENDBRANCH   2   3
ENDBRANCH   1   2
BRANCH   1  18
ATOM     18  C   UNL     1      34.875   1.921   3.437  1.00  0.00     0.000 C 
BRANCH  18  19
ATOM     19  C   UNL     1      33.840   3.058   3.522  1.00  0.00     0.000 C 
BRANCH  19  20
ATOM     20  C   UNL     1      33.175   3.143   4.907  1.00  0.00     0.000 C 
BRANCH  20  21
ATOM     21  C   UNL     1      33.882   2.269   5.958  1.00  0.00     0.000 C 
BRANCH  21  22
ATOM     22  C   UNL     1      33.686   2.792   7.391  1.00  0.00     0.000 C 
BRANCH  22  23
ATOM     23  C   UNL     1      34.986   2.987   8.194  1.00  0.00     0.000 C 
BRANCH  23  24
ATOM     24  C   UNL     1      35.654   4.361   7.977  1.00  0.00    -0.000 C 
BRANCH  24  25
ATOM     25  C   UNL     1      34.652   5.437   7.525  1.00  0.00    -0.000 C 
BRANCH  25  26
ATOM     26  C   UNL     1      35.017   6.060   6.167  1.00  0.00    -0.000 C 
BRANCH  26  27
ATOM     27  C   UNL     1      36.289   5.461   5.531  1.00  0.00    -0.000 C 
BRANCH  27  28
ATOM     28  C   UNL     1      36.289   5.592   3.998  1.00  0.00    -0.000 C 
BRANCH  28  29
ATOM     29  C   UNL     1      37.723   5.647   3.449  1.00  0.00    -0.000 C 
BRANCH  29  30
ATOM     30  C   UNL     1      37.781   5.518   1.916  1.00  0.00    -0.000 C 
BRANCH  30  31
ATOM     31  C   UNL     1      36.706   4.604   1.301  1.00  0.00    -0.003 C 
ATOM     32  C   UNL     1      35.493   5.375   0.783  1.00  0.00     0.004 C 
ENDBRANCH  30  31
ENDBRANCH  29  30
ENDBRANCH  28  29
ENDBRANCH  27  28
ENDBRANCH  26  27
ENDBRANCH  25  26
ENDBRANCH  24  25
ENDBRANCH  23  24
ENDBRANCH  22  23
ENDBRANCH  21  22
ENDBRANCH  20  21
ENDBRANCH  19  20
ENDBRANCH  18  19
ENDBRANCH   1  18
TORSDOF 28
ENDMDL
MODEL 4
REMARK VINA RESULT:    -5.675      3.139      6.276
REMARK INTER + INTRA:         -21.378
REMARK INTER:                 -15.531
REMARK INTRA:                  -5.846
REMARK UNBOUND:                -6.414
REMARK SMILES CCCCCCCCCCCCCCCCCCCCCCCCCCCCCC(=O)[O-]
REMARK SMILES IDX 16 1 17 2 18 3 19 4 20 5 21 6 22 7 23 8 24 9 25 10 26 11
REMARK SMILES IDX 27 12 28 13 29 14 30 15 31 16 32 17 15 18 14 19 13 20 12 21
REMARK SMILES IDX 11 22 10 23 9 24 8 25 7 26 6 27 5 28 4 29 3 30 2 31 1 32
REMARK H PARENT
REMARK Flexibility Score: inf
ROOT
ATOM      1  C   UNL     1      34.395   2.398   3.430  1.00  0.00     0.000 C 
ENDROOT
BRANCH   1   2
ATOM      2  C   UNL     1      35.800   2.931   3.108  1.00  0.00     0.000 C 
BRANCH   2   3
ATOM      3  C   UNL     1      35.803   4.465   3.045  1.00  0.00     0.000 C 
BRANCH   3   4
ATOM      4  C   UNL     1      36.105   5.007   1.637  1.00  0.00     0.000 C 
BRANCH   4   5
ATOM      5  C   UNL     1      37.008   6.257   1.599  1.00  0.00     0.000 C 
BRANCH   5   6
ATOM      6  C   UNL     1      37.564   6.704   2.966  1.00  0.00     0.000 C 
BRANCH   6   7
ATOM      7  C   UNL     1      39.019   7.214   2.942  1.00  0.00     0.000 C 
BRANCH   7   8
ATOM      8  C   UNL     1      40.088   6.149   3.258  1.00  0.00     0.000 C 
BRANCH   8   9
ATOM      9  C   UNL     1      39.537   4.741   3.540  1.00  0.00     0.000 C 
BRANCH   9  10
ATOM     10  C   UNL     1      40.267   3.646   2.748  1.00  0.00     0.000 C 
BRANCH  10  11
ATOM     11  C   UNL     1      39.506   2.314   2.823  1.00  0.00     0.000 C 
BRANCH  11  12
ATOM     12  C   UNL     1      38.838   1.935   1.492  1.00  0.00     0.000 C 
BRANCH  12  13
ATOM     13  C   UNL     1      39.191   2.907   0.355  1.00  0.00     0.006 C 
BRANCH  13  14
ATOM     14  C   UNL     1      39.755   2.155  -0.856  1.00  0.00     0.053 C 
BRANCH  14  15
ATOM     15  C   UNL     1      40.996   1.405  -0.484  1.00  0.00     0.041 C 
ATOM     16  O   UNL     1      41.927   1.983   0.139  1.00  0.00    -0.550 OA
ATOM     17  O   UNL     1      41.115   0.057  -0.802  1.00  0.00    -0.550 OA
ENDBRANCH  14  15
ENDBRANCH  13  14
ENDBRANCH  12  13
ENDBRANCH  11  12
ENDBRANCH  10  11
ENDBRANCH   9  10
ENDBRANCH   8   9
ENDBRANCH   7   8
ENDBRANCH   6   7
ENDBRANCH   5   6
ENDBRANCH   4   5
ENDBRANCH   3   4
ENDBRANCH   2   3
ENDBRANCH   1   2
BRANCH   1  18
ATOM     18  C   UNL     1      34.413   0.961   3.974  1.00  0.00     0.000 C 
BRANCH  18  19
ATOM     19  C   UNL     1      35.283   0.016   3.125  1.00  0.00     0.000 C 
BRANCH  19  20
ATOM     20  C   UNL     1      36.231  -0.838   3.984  1.00  0.00     0.000 C 
BRANCH  20  21
ATOM     21  C   UNL     1      37.228   0.013   4.790  1.00  0.00     0.000 C 
BRANCH  21  22
ATOM     22  C   UNL     1      36.997  -0.085   6.307  1.00  0.00     0.000 C 
BRANCH  22  23
ATOM     23  C   UNL     1      37.718   0.989   7.144  1.00  0.00     0.000 C 
BRANCH  23  24
ATOM     24  C   UNL     1      38.407   2.082   6.298  1.00  0.00    -0.000 C 
BRANCH  24  25
ATOM     25  C   UNL     1      37.637   3.413   6.316  1.00  0.00    -0.000 C 
BRANCH  25  26
ATOM     26  C   UNL     1      37.326   3.903   7.741  1.00  0.00    -0.000 C 
BRANCH  26  27
ATOM     27  C   UNL     1      35.839   4.246   7.968  1.00  0.00    -0.000 C 
BRANCH  27  28
ATOM     28  C   UNL     1      34.960   3.832   6.775  1.00  0.00    -0.000 C 
BRANCH  28  29
ATOM     29  C   UNL     1      33.834   2.887   7.220  1.00  0.00    -0.000 C 
BRANCH  29  30
ATOM     30  C   UNL     1      34.270   1.921   8.338  1.00  0.00    -0.000 C 
BRANCH  30  31
ATOM     31  C   UNL     1      33.440   0.629   8.438  1.00  0.00    -0.003 C 
ATOM     32  C   UNL     1      33.343  -0.122   7.111  1.00  0.00     0.004 C 
ENDBRANCH  30  31
ENDBRANCH  29  30
ENDBRANCH  28  29
ENDBRANCH  27  28
ENDBRANCH  26  27
ENDBRANCH  25  26
ENDBRANCH  24  25
ENDBRANCH  23  24
ENDBRANCH  22  23
ENDBRANCH  21  22
ENDBRANCH  20  21
ENDBRANCH  19  20
ENDBRANCH  18  19
ENDBRANCH   1  18
TORSDOF 28
ENDMDL
MODEL 5
REMARK VINA RESULT:    -5.670      3.230      6.993
REMARK INTER + INTRA:         -21.365
REMARK INTER:                 -15.288
REMARK INTRA:                  -6.076
REMARK UNBOUND:                -6.414
REMARK SMILES CCCCCCCCCCCCCCCCCCCCCCCCCCCCCC(=O)[O-]
REMARK SMILES IDX 16 1 17 2 18 3 19 4 20 5 21 6 22 7 23 8 24 9 25 10 26 11
REMARK SMILES IDX 27 12 28 13 29 14 30 15 31 16 32 17 15 18 14 19 13 20 12 21
REMARK SMILES IDX 11 22 10 23 9 24 8 25 7 26 6 27 5 28 4 29 3 30 2 31 1 32
REMARK H PARENT
REMARK Flexibility Score: inf
ROOT
ATOM      1  C   UNL     1      38.961   3.325   4.755  1.00  0.00     0.000 C 
ENDROOT
BRANCH   1   2
ATOM      2  C   UNL     1      40.379   3.008   4.253  1.00  0.00     0.000 C 
BRANCH   2   3
ATOM      3  C   UNL     1      40.890   4.119   3.323  1.00  0.00     0.000 C 
BRANCH   3   4
ATOM      4  C   UNL     1      40.133   5.446   3.501  1.00  0.00     0.000 C 
BRANCH   4   5
ATOM      5  C   UNL     1      39.875   6.230   2.198  1.00  0.00     0.000 C 
BRANCH   5   6
ATOM      6  C   UNL     1      38.469   6.851   2.075  1.00  0.00     0.000 C 
BRANCH   6   7
ATOM      7  C   UNL     1      37.574   6.688   3.319  1.00  0.00     0.000 C 
BRANCH   7   8
ATOM      8  C   UNL     1      36.484   5.604   3.200  1.00  0.00     0.000 C 
BRANCH   8   9
ATOM      9  C   UNL     1      36.424   4.891   1.839  1.00  0.00     0.000 C 
BRANCH   9  10
ATOM     10  C   UNL     1      37.145   3.536   1.844  1.00  0.00     0.000 C 
BRANCH  10  11
ATOM     11  C   UNL     1      38.016   3.373   0.589  1.00  0.00     0.000 C 
BRANCH  11  12
ATOM     12  C   UNL     1      39.156   2.362   0.785  1.00  0.00     0.000 C 
BRANCH  12  13
ATOM     13  C   UNL     1      40.264   2.509  -0.270  1.00  0.00     0.006 C 
BRANCH  13  14
ATOM     14  C   UNL     1      41.264   1.351  -0.184  1.00  0.00     0.053 C 
BRANCH  14  15
ATOM     15  C   UNL     1      40.992   0.335  -1.250  1.00  0.00     0.041 C 
ATOM     16  O   UNL     1      40.465   0.684  -2.341  1.00  0.00    -0.550 OA
ATOM     17  O   UNL     1      41.343  -0.995  -1.050  1.00  0.00    -0.550 OA
ENDBRANCH  14  15
ENDBRANCH  13  14
ENDBRANCH  12  13
ENDBRANCH  11  12
ENDBRANCH  10  11
ENDBRANCH   9  10
ENDBRANCH   8   9
ENDBRANCH   7   8
ENDBRANCH   6   7
ENDBRANCH   5   6
ENDBRANCH   4   5
ENDBRANCH   3   4
ENDBRANCH   2   3
ENDBRANCH   1   2
BRANCH   1  18
ATOM     18  C   UNL     1      38.189   2.068   5.189  1.00  0.00     0.000 C 
BRANCH  18  19
ATOM     19  C   UNL     1      38.398   1.729   6.676  1.00  0.00     0.000 C 
BRANCH  19  20
ATOM     20  C   UNL     1      37.636   0.461   7.101  1.00  0.00     0.000 C 
BRANCH  20  21
ATOM     21  C   UNL     1      36.751  -0.103   5.976  1.00  0.00     0.000 C 
BRANCH  21  22
ATOM     22  C   UNL     1      35.311  -0.379   6.438  1.00  0.00     0.000 C 
BRANCH  22  23
ATOM     23  C   UNL     1      34.298  -0.617   5.301  1.00  0.00     0.000 C 
BRANCH  23  24
ATOM     24  C   UNL     1      34.907  -0.497   3.888  1.00  0.00    -0.000 C 
BRANCH  24  25
ATOM     25  C   UNL     1      34.319   0.681   3.093  1.00  0.00    -0.000 C 
BRANCH  25  26
ATOM     26  C   UNL     1      34.742   2.050   3.655  1.00  0.00    -0.000 C 
BRANCH  26  27
ATOM     27  C   UNL     1      33.562   3.020   3.876  1.00  0.00    -0.000 C 
BRANCH  27  28
ATOM     28  C   UNL     1      33.732   3.857   5.156  1.00  0.00    -0.000 C 
BRANCH  28  29
ATOM     29  C   UNL     1      33.828   2.955   6.396  1.00  0.00    -0.000 C 
BRANCH  29  30
ATOM     30  C   UNL     1      35.045   3.282   7.281  1.00  0.00    -0.000 C 
BRANCH  30  31
ATOM     31  C   UNL     1      35.885   4.484   6.811  1.00  0.00    -0.003 C 
ATOM     32  C   UNL     1      36.913   4.936   7.847  1.00  0.00     0.004 C 
ENDBRANCH  30  31
ENDBRANCH  29  30
ENDBRANCH  28  29
ENDBRANCH  27  28
ENDBRANCH  26  27
ENDBRANCH  25  26
ENDBRANCH  24  25
ENDBRANCH  23  24
ENDBRANCH  22  23
ENDBRANCH  21  22
ENDBRANCH  20  21
ENDBRANCH  19  20
ENDBRANCH  18  19
ENDBRANCH   1  18
TORSDOF 28
ENDMDL
MODEL 6
REMARK VINA RESULT:    -5.595     12.322     15.879
REMARK INTER + INTRA:         -21.167
REMARK INTER:                 -14.892
REMARK INTRA:                  -6.275
REMARK UNBOUND:                -6.414
REMARK SMILES CCCCCCCCCCCCCCCCCCCCCCCCCCCCCC(=O)[O-]
REMARK SMILES IDX 16 1 17 2 18 3 19 4 20 5 21 6 22 7 23 8 24 9 25 10 26 11
REMARK SMILES IDX 27 12 28 13 29 14 30 15 31 16 32 17 15 18 14 19 13 20 12 21
REMARK SMILES IDX 11 22 10 23 9 24 8 25 7 26 6 27 5 28 4 29 3 30 2 31 1 32
REMARK H PARENT
REMARK Flexibility Score: inf
ROOT
ATOM      1  C   UNL     1      46.948  11.432  -5.316  1.00  0.00     0.000 C 
ENDROOT
BRANCH   1   2
ATOM      2  C   UNL     1      45.587  12.142  -5.219  1.00  0.00     0.000 C 
BRANCH   2   3
ATOM      3  C   UNL     1      44.481  11.152  -4.824  1.00  0.00     0.000 C 
BRANCH   3   4
ATOM      4  C   UNL     1      43.677  11.611  -3.594  1.00  0.00     0.000 C 
BRANCH   4   5
ATOM      5  C   UNL     1      42.257  11.019  -3.486  1.00  0.00     0.000 C 
BRANCH   5   6
ATOM      6  C   UNL     1      42.175   9.485  -3.620  1.00  0.00     0.000 C 
BRANCH   6   7
ATOM      7  C   UNL     1      41.517   8.980  -4.919  1.00  0.00     0.000 C 
BRANCH   7   8
ATOM      8  C   UNL     1      42.125   7.686  -5.497  1.00  0.00     0.000 C 
BRANCH   8   9
ATOM      9  C   UNL     1      43.658   7.598  -5.417  1.00  0.00     0.000 C 
BRANCH   9  10
ATOM     10  C   UNL     1      44.146   6.318  -4.723  1.00  0.00     0.000 C 
BRANCH  10  11
ATOM     11  C   UNL     1      45.639   6.416  -4.378  1.00  0.00     0.000 C 
BRANCH  11  12
ATOM     12  C   UNL     1      46.188   7.845  -4.510  1.00  0.00     0.000 C 
BRANCH  12  13
ATOM     13  C   UNL     1      46.595   8.450  -3.157  1.00  0.00     0.006 C 
BRANCH  13  14
ATOM     14  C   UNL     1      45.409   8.480  -2.188  1.00  0.00     0.053 C 
BRANCH  14  15
ATOM     15  C   UNL     1      45.777   7.851  -0.879  1.00  0.00     0.041 C 
ATOM     16  O   UNL     1      45.183   8.193   0.180  1.00  0.00    -0.550 OA
ATOM     17  O   UNL     1      46.759   6.869  -0.831  1.00  0.00    -0.550 OA
ENDBRANCH  14  15
ENDBRANCH  13  14
ENDBRANCH  12  13
ENDBRANCH  11  12
ENDBRANCH  10  11
ENDBRANCH   9  10
ENDBRANCH   8   9
ENDBRANCH   7   8
ENDBRANCH   6   7
ENDBRANCH   5   6
ENDBRANCH   4   5
ENDBRANCH   3   4
ENDBRANCH   2   3
ENDBRANCH   1   2
BRANCH   1  18
ATOM     18  C   UNL     1      48.123  12.340  -4.920  1.00  0.00     0.000 C 
BRANCH  18  19
ATOM     19  C   UNL     1      49.478  11.612  -4.972  1.00  0.00     0.000 C 
BRANCH  19  20
ATOM     20  C   UNL     1      49.320  10.087  -5.105  1.00  0.00     0.000 C 
BRANCH  20  21
ATOM     21  C   UNL     1      49.647   9.580  -6.521  1.00  0.00     0.000 C 
BRANCH  21  22
ATOM     22  C   UNL     1      48.765   8.393  -6.942  1.00  0.00     0.000 C 
BRANCH  22  23
ATOM     23  C   UNL     1      48.046   8.566  -8.294  1.00  0.00     0.000 C 
BRANCH  23  24
ATOM     24  C   UNL     1      46.507   8.621  -8.180  1.00  0.00    -0.000 C 
BRANCH  24  25
ATOM     25  C   UNL     1      45.813   8.530  -9.550  1.00  0.00    -0.000 C 
BRANCH  25  26
ATOM     26  C   UNL     1      44.427   9.198  -9.562  1.00  0.00    -0.000 C 
BRANCH  26  27
ATOM     27  C   UNL     1      44.076   9.922  -8.245  1.00  0.00    -0.000 C 
BRANCH  27  28
ATOM     28  C   UNL     1      43.911  11.439  -8.445  1.00  0.00    -0.000 C 
BRANCH  28  29
ATOM     29  C   UNL     1      44.884  11.965  -9.510  1.00  0.00    -0.000 C 
BRANCH  29  30
ATOM     30  C   UNL     1      46.230  12.421  -8.919  1.00  0.00    -0.000 C 
BRANCH  30  31
ATOM     31  C   UNL     1      47.473  11.946  -9.693  1.00  0.00    -0.003 C 
ATOM     32  C   UNL     1      48.770  12.121  -8.904  1.00  0.00     0.004 C 
ENDBRANCH  30  31
ENDBRANCH  29  30
ENDBRANCH  28  29
ENDBRANCH  27  28
ENDBRANCH  26  27
ENDBRANCH  25  26
ENDBRANCH  24  25
ENDBRANCH  23  24
ENDBRANCH  22  23
ENDBRANCH  21  22
ENDBRANCH  20  21
ENDBRANCH  19  20
ENDBRANCH  18  19
ENDBRANCH   1  18
TORSDOF 28
ENDMDL
MODEL 7
REMARK VINA RESULT:    -5.590     12.816     16.461
REMARK INTER + INTRA:         -21.155
REMARK INTER:                 -14.529
REMARK INTRA:                  -6.626
REMARK UNBOUND:                -6.414
REMARK SMILES CCCCCCCCCCCCCCCCCCCCCCCCCCCCCC(=O)[O-]
REMARK SMILES IDX 16 1 17 2 18 3 19 4 20 5 21 6 22 7 23 8 24 9 25 10 26 11
REMARK SMILES IDX 27 12 28 13 29 14 30 15 31 16 32 17 15 18 14 19 13 20 12 21
REMARK SMILES IDX 11 22 10 23 9 24 8 25 7 26 6 27 5 28 4 29 3 30 2 31 1 32
REMARK H PARENT
REMARK Flexibility Score: inf
ROOT
ATOM      1  C   UNL     1      45.507   8.492  -9.612  1.00  0.00     0.000 C 
ENDROOT
BRANCH   1   2
ATOM      2  C   UNL     1      46.646   8.639  -8.590  1.00  0.00     0.000 C 
BRANCH   2   3
ATOM      3  C   UNL     1      46.087   8.870  -7.178  1.00  0.00     0.000 C 
BRANCH   3   4
ATOM      4  C   UNL     1      46.043   7.585  -6.333  1.00  0.00     0.000 C 
BRANCH   4   5
ATOM      5  C   UNL     1      46.528   7.743  -4.878  1.00  0.00     0.000 C 
BRANCH   5   6
ATOM      6  C   UNL     1      45.728   6.942  -3.830  1.00  0.00     0.000 C 
BRANCH   6   7
ATOM      7  C   UNL     1      44.971   7.798  -2.796  1.00  0.00     0.000 C 
BRANCH   7   8
ATOM      8  C   UNL     1      45.110   9.322  -2.983  1.00  0.00     0.000 C 
BRANCH   8   9
ATOM      9  C   UNL     1      43.875  10.141  -2.572  1.00  0.00     0.000 C 
BRANCH   9  10
ATOM     10  C   UNL     1      43.333  11.016  -3.711  1.00  0.00     0.000 C 
BRANCH  10  11
ATOM     11  C   UNL     1      43.800  10.489  -5.077  1.00  0.00     0.000 C 
BRANCH  11  12
ATOM     12  C   UNL     1      42.663   9.847  -5.887  1.00  0.00     0.000 C 
BRANCH  12  13
ATOM     13  C   UNL     1      42.545   8.334  -5.644  1.00  0.00     0.006 C 
BRANCH  13  14
ATOM     14  C   UNL     1      41.511   8.030  -4.555  1.00  0.00     0.053 C 
BRANCH  14  15
ATOM     15  C   UNL     1      40.252   8.807  -4.787  1.00  0.00     0.041 C 
ATOM     16  O   UNL     1      39.544   8.581  -5.806  1.00  0.00    -0.550 OA
ATOM     17  O   UNL     1      39.846   9.766  -3.866  1.00  0.00    -0.550 OA
ENDBRANCH  14  15
ENDBRANCH  13  14
ENDBRANCH  12  13
ENDBRANCH  11  12
ENDBRANCH  10  11
ENDBRANCH   9  10
ENDBRANCH   8   9
ENDBRANCH   7   8
ENDBRANCH   6   7
ENDBRANCH   5   6
ENDBRANCH   4   5
ENDBRANCH   3   4
ENDBRANCH   2   3
ENDBRANCH   1   2
BRANCH   1  18
ATOM     18  C   UNL     1      44.437   9.587  -9.474  1.00  0.00     0.000 C 
BRANCH  18  19
ATOM     19  C   UNL     1      44.685  10.780 -10.415  1.00  0.00     0.000 C 
BRANCH  19  20
ATOM     20  C   UNL     1      45.294  11.988  -9.682  1.00  0.00     0.000 C 
BRANCH  20  21
ATOM     21  C   UNL     1      44.740  12.157  -8.256  1.00  0.00     0.000 C 
BRANCH  21  22
ATOM     22  C   UNL     1      45.607  13.085  -7.390  1.00  0.00     0.000 C 
BRANCH  22  23
ATOM     23  C   UNL     1      46.878  12.433  -6.812  1.00  0.00     0.000 C 
BRANCH  23  24
ATOM     24  C   UNL     1      46.894  12.357  -5.270  1.00  0.00    -0.000 C 
BRANCH  24  25
ATOM     25  C   UNL     1      47.757  11.197  -4.747  1.00  0.00    -0.000 C 
BRANCH  25  26
ATOM     26  C   UNL     1      49.229  11.594  -4.539  1.00  0.00    -0.000 C 
BRANCH  26  27
ATOM     27  C   UNL     1      50.225  10.720  -5.330  1.00  0.00    -0.000 C 
BRANCH  27  28
ATOM     28  C   UNL     1      49.517   9.815  -6.353  1.00  0.00    -0.000 C 
BRANCH  28  29
ATOM     29  C   UNL     1      49.925  10.179  -7.788  1.00  0.00    -0.000 C 
BRANCH  29  30
ATOM     30  C   UNL     1      50.329  11.657  -7.939  1.00  0.00    -0.000 C 
BRANCH  30  31
ATOM     31  C   UNL     1      49.687  12.386  -9.133  1.00  0.00    -0.003 C 
ATOM     32  C   UNL     1      48.725  11.501  -9.925  1.00  0.00     0.004 C 
ENDBRANCH  30  31
ENDBRANCH  29  30
ENDBRANCH  28  29
ENDBRANCH  27  28
ENDBRANCH  26  27
ENDBRANCH  25  26
ENDBRANCH  24  25
ENDBRANCH  23  24
ENDBRANCH  22  23
ENDBRANCH  21  22
ENDBRANCH  20  21
ENDBRANCH  19  20
ENDBRANCH  18  19
ENDBRANCH   1  18
TORSDOF 28
ENDMDL
MODEL 8
REMARK VINA RESULT:    -5.564      3.459      5.790
REMARK INTER + INTRA:         -21.085
REMARK INTER:                 -15.708
REMARK INTRA:                  -5.376
REMARK UNBOUND:                -6.414
REMARK SMILES CCCCCCCCCCCCCCCCCCCCCCCCCCCCCC(=O)[O-]
REMARK SMILES IDX 16 1 17 2 18 3 19 4 20 5 21 6 22 7 23 8 24 9 25 10 26 11
REMARK SMILES IDX 27 12 28 13 29 14 30 15 31 16 32 17 15 18 14 19 13 20 12 21
REMARK SMILES IDX 11 22 10 23 9 24 8 25 7 26 6 27 5 28 4 29 3 30 2 31 1 32
REMARK H PARENT
REMARK Flexibility Score: inf
ROOT
ATOM      1  C   UNL     1      34.679   2.383   3.502  1.00  0.00     0.000 C 
ENDROOT
BRANCH   1   2
ATOM      2  C   UNL     1      33.484   3.350   3.496  1.00  0.00     0.000 C 
BRANCH   2   3
ATOM      3  C   UNL     1      33.031   3.669   4.928  1.00  0.00     0.000 C 
BRANCH   3   4
ATOM      4  C   UNL     1      33.778   2.845   5.992  1.00  0.00     0.000 C 
BRANCH   4   5
ATOM      5  C   UNL     1      33.842   3.489   7.391  1.00  0.00     0.000 C 
BRANCH   5   6
ATOM      6  C   UNL     1      35.244   3.520   8.034  1.00  0.00     0.000 C 
BRANCH   6   7
ATOM      7  C   UNL     1      35.883   4.919   8.135  1.00  0.00     0.000 C 
BRANCH   7   8
ATOM      8  C   UNL     1      36.859   5.273   6.995  1.00  0.00     0.000 C 
BRANCH   8   9
ATOM      9  C   UNL     1      36.199   5.511   5.626  1.00  0.00     0.000 C 
BRANCH   9  10
ATOM     10  C   UNL     1      37.221   5.734   4.502  1.00  0.00     0.000 C 
BRANCH  10  11
ATOM     11  C   UNL     1      36.582   5.500   3.125  1.00  0.00     0.000 C 
BRANCH  11  12
ATOM     12  C   UNL     1      37.309   6.249   1.998  1.00  0.00     0.000 C 
BRANCH  12  13
ATOM     13  C   UNL     1      38.307   7.291   2.527  1.00  0.00     0.006 C 
BRANCH  13  14
ATOM     14  C   UNL     1      38.030   8.673   1.927  1.00  0.00     0.053 C 
BRANCH  14  15
ATOM     15  C   UNL     1      38.643   9.749   2.770  1.00  0.00     0.041 C 
ATOM     16  O   UNL     1      39.791   9.591   3.268  1.00  0.00    -0.550 OA
ATOM     17  O   UNL     1      37.956  10.938   2.987  1.00  0.00    -0.550 OA
ENDBRANCH  14  15
ENDBRANCH  13  14
ENDBRANCH  12  13
ENDBRANCH  11  12
ENDBRANCH  10  11
ENDBRANCH   9  10
ENDBRANCH   8   9
ENDBRANCH   7   8
ENDBRANCH   6   7
ENDBRANCH   5   6
ENDBRANCH   4   5
ENDBRANCH   3   4
ENDBRANCH   2   3
ENDBRANCH   1   2
BRANCH   1  18
ATOM     18  C   UNL     1      34.291   0.955   3.087  1.00  0.00     0.000 C 
BRANCH  18  19
ATOM     19  C   UNL     1      35.503   0.007   3.024  1.00  0.00     0.000 C 
BRANCH  19  20
ATOM     20  C   UNL     1      35.410  -1.131   4.056  1.00  0.00     0.000 C 
BRANCH  20  21
ATOM     21  C   UNL     1      34.460  -0.800   5.220  1.00  0.00     0.000 C 
BRANCH  21  22
ATOM     22  C   UNL     1      35.203  -0.273   6.458  1.00  0.00     0.000 C 
BRANCH  22  23
ATOM     23  C   UNL     1      36.733  -0.453   6.423  1.00  0.00     0.000 C 
BRANCH  23  24
ATOM     24  C   UNL     1      37.520   0.834   6.753  1.00  0.00    -0.000 C 
BRANCH  24  25
ATOM     25  C   UNL     1      37.553   1.821   5.574  1.00  0.00    -0.000 C 
BRANCH  25  26
ATOM     26  C   UNL     1      38.884   2.586   5.473  1.00  0.00    -0.000 C 
BRANCH  26  27
ATOM     27  C   UNL     1      39.373   2.790   4.024  1.00  0.00    -0.000 C 
BRANCH  27  28
ATOM     28  C   UNL     1      38.401   2.189   2.994  1.00  0.00    -0.000 C 
BRANCH  28  29
ATOM     29  C   UNL     1      39.097   1.964   1.643  1.00  0.00    -0.000 C 
BRANCH  29  30
ATOM     30  C   UNL     1      38.875   3.124   0.654  1.00  0.00    -0.000 C 
BRANCH  30  31
ATOM     31  C   UNL     1      39.287   2.825  -0.798  1.00  0.00    -0.003 C 
ATOM     32  C   UNL     1      40.239   1.635  -0.916  1.00  0.00     0.004 C 
ENDBRANCH  30  31
ENDBRANCH  29  30
ENDBRANCH  28  29
ENDBRANCH  27  28
ENDBRANCH  26  27
ENDBRANCH  25  26
ENDBRANCH  24  25
ENDBRANCH  23  24
ENDBRANCH  22  23
ENDBRANCH  21  22
ENDBRANCH  20  21
ENDBRANCH  19  20
ENDBRANCH  18  19
ENDBRANCH   1  18
TORSDOF 28
ENDMDL
MODEL 9
REMARK VINA RESULT:    -5.522      3.152      6.596
REMARK INTER + INTRA:         -20.975
REMARK INTER:                 -14.843
REMARK INTRA:                  -6.132
REMARK UNBOUND:                -6.414
REMARK SMILES CCCCCCCCCCCCCCCCCCCCCCCCCCCCCC(=O)[O-]
REMARK SMILES IDX 16 1 17 2 18 3 19 4 20 5 21 6 22 7 23 8 24 9 25 10 26 11
REMARK SMILES IDX 27 12 28 13 29 14 30 15 31 16 32 17 15 18 14 19 13 20 12 21
REMARK SMILES IDX 11 22 10 23 9 24 8 25 7 26 6 27 5 28 4 29 3 30 2 31 1 32
REMARK H PARENT
REMARK Flexibility Score: inf
ROOT
ATOM      1  C   UNL     1      35.545   3.396   3.582  1.00  0.00     0.000 C 
ENDROOT
BRANCH   1   2
ATOM      2  C   UNL     1      36.151   4.795   3.384  1.00  0.00     0.000 C 
BRANCH   2   3
ATOM      3  C   UNL     1      36.053   5.231   1.915  1.00  0.00     0.000 C 
BRANCH   3   4
ATOM      4  C   UNL     1      36.963   6.426   1.582  1.00  0.00     0.000 C 
BRANCH   4   5
ATOM      5  C   UNL     1      37.649   7.083   2.797  1.00  0.00     0.000 C 
BRANCH   5   6
ATOM      6  C   UNL     1      39.183   7.206   2.695  1.00  0.00     0.000 C 
BRANCH   6   7
ATOM      7  C   UNL     1      39.916   5.906   2.309  1.00  0.00     0.000 C 
BRANCH   7   8
ATOM      8  C   UNL     1      40.312   5.005   3.496  1.00  0.00     0.000 C 
BRANCH   8   9
ATOM      9  C   UNL     1      39.414   3.773   3.702  1.00  0.00     0.000 C 
BRANCH   9  10
ATOM     10  C   UNL     1      39.913   2.538   2.938  1.00  0.00     0.000 C 
BRANCH  10  11
ATOM     11  C   UNL     1      38.787   1.924   2.092  1.00  0.00     0.000 C 
BRANCH  11  12
ATOM     12  C   UNL     1      38.465   2.754   0.839  1.00  0.00     0.000 C 
BRANCH  12  13
ATOM     13  C   UNL     1      39.706   3.024  -0.026  1.00  0.00     0.006 C 
BRANCH  13  14
ATOM     14  C   UNL     1      39.931   1.892  -1.034  1.00  0.00     0.053 C 
BRANCH  14  15
ATOM     15  C   UNL     1      41.096   1.043  -0.627  1.00  0.00     0.041 C 
ATOM     16  O   UNL     1      41.178  -0.154  -1.016  1.00  0.00    -0.550 OA
ATOM     17  O   UNL     1      42.106   1.582   0.161  1.00  0.00    -0.550 OA
ENDBRANCH  14  15
ENDBRANCH  13  14
ENDBRANCH  12  13
ENDBRANCH  11  12
ENDBRANCH  10  11
ENDBRANCH   9  10
ENDBRANCH   8   9
ENDBRANCH   7   8
ENDBRANCH   6   7
ENDBRANCH   5   6
ENDBRANCH   4   5
ENDBRANCH   3   4
ENDBRANCH   2   3
ENDBRANCH   1   2
BRANCH   1  18
ATOM     18  C   UNL     1      34.064   3.327   3.178  1.00  0.00     0.000 C 
BRANCH  18  19
ATOM     19  C   UNL     1      33.117   3.338   4.392  1.00  0.00     0.000 C 
BRANCH  19  20
ATOM     20  C   UNL     1      33.773   2.749   5.653  1.00  0.00     0.000 C 
BRANCH  20  21
ATOM     21  C   UNL     1      33.718   3.710   6.854  1.00  0.00     0.000 C 
BRANCH  21  22
ATOM     22  C   UNL     1      34.110   5.149   6.479  1.00  0.00     0.000 C 
BRANCH  22  23
ATOM     23  C   UNL     1      35.361   5.689   7.197  1.00  0.00     0.000 C 
BRANCH  23  24
ATOM     24  C   UNL     1      35.876   4.773   8.328  1.00  0.00    -0.000 C 
BRANCH  24  25
ATOM     25  C   UNL     1      37.287   4.229   8.046  1.00  0.00    -0.000 C 
BRANCH  25  26
ATOM     26  C   UNL     1      37.396   3.530   6.680  1.00  0.00    -0.000 C 
BRANCH  26  27
ATOM     27  C   UNL     1      37.821   2.049   6.774  1.00  0.00    -0.000 C 
BRANCH  27  28
ATOM     28  C   UNL     1      36.658   1.139   7.208  1.00  0.00    -0.000 C 
BRANCH  28  29
ATOM     29  C   UNL     1      36.483  -0.035   6.233  1.00  0.00    -0.000 C 
BRANCH  29  30
ATOM     30  C   UNL     1      37.047   0.261   4.831  1.00  0.00    -0.000 C 
BRANCH  30  31
ATOM     31  C   UNL     1      36.168  -0.221   3.663  1.00  0.00    -0.003 C 
ATOM     32  C   UNL     1      34.820  -0.777   4.122  1.00  0.00     0.004 C 
ENDBRANCH  30  31
ENDBRANCH  29  30
ENDBRANCH  28  29
ENDBRANCH  27  28
ENDBRANCH  26  27
ENDBRANCH  25  26
ENDBRANCH  24  25
ENDBRANCH  23  24
ENDBRANCH  22  23
ENDBRANCH  21  22
ENDBRANCH  20  21
ENDBRANCH  19  20
ENDBRANCH  18  19
ENDBRANCH   1  18
TORSDOF 28
ENDMDL
