MODEL 1
REMARK VINA RESULT:     0.286      0.000      0.000
REMARK INTER + INTRA:           0.303
REMARK INTER:                   0.303
REMARK INTRA:                   0.000
REMARK UNBOUND:                 0.000
REMARK SMILES O=c1ccc2cc(O)c(O)cc2o1
REMARK SMILES IDX 4 1 3 2 2 3 1 4 13 5 12 6 11 7 9 8 7 9 6 10 5 11 8 12 10 14
REMARK H PARENT 8 13 10 15
REMARK Flexibility Score: inf
ROOT
ATOM      1  C   UNL     1      -5.461  -2.164   2.338  1.00  0.00     0.019 A 
ATOM      2  C   UNL     1      -5.839  -2.739   1.125  1.00  0.00     0.094 A 
ATOM      3  C   UNL     1      -5.082  -2.464  -0.020  1.00  0.00     0.336 A 
ATOM      4  O   UNL     1      -5.407  -2.974  -1.125  1.00  0.00    -0.246 OA
ATOM      5  O   UNL     1      -4.020  -1.666   0.050  1.00  0.00    -0.423 OA
ATOM      6  C   UNL     1      -3.625  -1.098   1.187  1.00  0.00     0.142 A 
ATOM      7  C   UNL     1      -2.500  -0.268   1.200  1.00  0.00     0.098 A 
ATOM      8  C   UNL     1      -2.079   0.334   2.392  1.00  0.00     0.161 A 
ATOM      9  C   UNL     1      -2.788   0.105   3.584  1.00  0.00     0.158 A 
ATOM     10  C   UNL     1      -3.919  -0.728   3.576  1.00  0.00     0.062 A 
ATOM     11  C   UNL     1      -4.339  -1.329   2.382  1.00  0.00     0.022 A 
ENDROOT
BRANCH   9  12
ATOM     12  O   UNL     1      -2.370   0.703   4.772  1.00  0.00    -0.504 OA
ATOM     13  H   UNL     1      -1.405   0.655   5.079  1.00  0.00     0.293 HD
ENDBRANCH   9  12
BRANCH   8  14
ATOM     14  O   UNL     1      -0.953   1.156   2.372  1.00  0.00    -0.504 OA
ATOM     15  H   UNL     1      -0.944   2.045   1.887  1.00  0.00     0.293 HD
ENDBRANCH   8  14
TORSDOF 2
ENDMDL
MODEL 2
REMARK VINA RESULT:     0.461      1.045      4.505
REMARK INTER + INTRA:           0.488
REMARK INTER:                   0.488
REMARK INTRA:                   0.000
REMARK UNBOUND:                 0.000
REMARK SMILES O=c1ccc2cc(O)c(O)cc2o1
REMARK SMILES IDX 4 1 3 2 2 3 1 4 13 5 12 6 11 7 9 8 7 9 6 10 5 11 8 12 10 14
REMARK H PARENT 8 13 10 15
REMARK Flexibility Score: inf
ROOT
ATOM      1  C   UNL     1      -3.844  -0.693   3.999  1.00  0.00     0.019 A 
ATOM      2  C   UNL     1      -2.677   0.058   4.138  1.00  0.00     0.094 A 
ATOM      3  C   UNL     1      -1.905   0.328   3.002  1.00  0.00     0.336 A 
ATOM      4  O   UNL     1      -0.848   1.004   3.107  1.00  0.00    -0.246 OA
ATOM      5  O   UNL     1      -2.280  -0.127   1.810  1.00  0.00    -0.423 OA
ATOM      6  C   UNL     1      -3.385  -0.847   1.633  1.00  0.00     0.142 A 
ATOM      7  C   UNL     1      -3.729  -1.299   0.355  1.00  0.00     0.098 A 
ATOM      8  C   UNL     1      -4.890  -2.057   0.162  1.00  0.00     0.161 A 
ATOM      9  C   UNL     1      -5.717  -2.368   1.256  1.00  0.00     0.158 A 
ATOM     10  C   UNL     1      -5.376  -1.917   2.541  1.00  0.00     0.062 A 
ATOM     11  C   UNL     1      -4.214  -1.159   2.733  1.00  0.00     0.022 A 
ENDROOT
BRANCH   9  12
ATOM     12  O   UNL     1      -6.873  -3.123   1.064  1.00  0.00    -0.504 OA
ATOM     13  H   UNL     1      -6.996  -3.707   0.244  1.00  0.00     0.293 HD
ENDBRANCH   9  12
BRANCH   8  14
ATOM     14  O   UNL     1      -5.205  -2.493  -1.125  1.00  0.00    -0.504 OA
ATOM     15  H   UNL     1      -5.394  -3.466  -1.333  1.00  0.00     0.293 HD
ENDBRANCH   8  14
TORSDOF 2
ENDMDL
