MODEL 1
REMARK VINA RESULT:    31.317      0.000      0.000
REMARK INTER + INTRA:          37.270
REMARK INTER:                  37.724
REMARK INTRA:                  -0.455
REMARK UNBOUND:                -0.455
REMARK SMILES O=c1c(O)c(-c2ccc(O)cc2O)oc2cc(O)cc(O)c12
REMARK SMILES IDX 5 1 3 2 2 3 1 4 22 5 20 6 19 7 17 8 16 9 15 10 14 11 6 12
REMARK SMILES IDX 8 13 7 14 9 15 11 16 12 17 10 18 13 20 4 22 21 24 18 26
REMARK H PARENT 10 19 13 21 4 23 21 25 18 27
REMARK Flexibility Score: inf
ROOT
ATOM      1  C   UNL     1      12.776   5.017  18.543  1.00  0.00     0.184 A 
ATOM      2  C   UNL     1      13.735   5.902  19.063  1.00  0.00     0.208 A 
ATOM      3  C   UNL     1      13.716   7.244  18.653  1.00  0.00     0.238 A 
ATOM      4  O   UNL     1      14.613   8.019  19.079  1.00  0.00    -0.285 OA
ATOM      5  C   UNL     1      12.726   7.688  17.743  1.00  0.00     0.111 A 
ATOM      6  C   UNL     1      12.589   9.035  17.289  1.00  0.00     0.134 A 
ATOM      7  C   UNL     1      11.653   9.335  16.290  1.00  0.00     0.093 A 
ATOM      8  C   UNL     1      10.807   8.349  15.777  1.00  0.00     0.123 A 
ATOM      9  C   UNL     1      10.894   7.044  16.256  1.00  0.00     0.094 A 
ATOM     10  C   UNL     1      11.842   6.707  17.225  1.00  0.00     0.146 A 
ATOM     11  O   UNL     1      11.899   5.449  17.646  1.00  0.00    -0.451 OA
ENDROOT
BRANCH   1  12
ATOM     12  C   UNL     1      12.724   3.594  18.951  1.00  0.00     0.063 A 
ATOM     13  C   UNL     1      11.944   1.864  20.477  1.00  0.00     0.047 A 
ATOM     14  C   UNL     1      12.018   3.209  20.106  1.00  0.00     0.020 A 
ATOM     15  C   UNL     1      12.565   0.883  19.695  1.00  0.00     0.119 A 
ATOM     16  C   UNL     1      13.257   1.254  18.539  1.00  0.00     0.093 A 
ATOM     17  C   UNL     1      13.338   2.602  18.159  1.00  0.00     0.130 A 
BRANCH  15  18
ATOM     18  O   UNL     1      12.496  -0.460  20.055  1.00  0.00    -0.508 OA
ATOM     19  H   UNL     1      13.001  -1.173  19.542  1.00  0.00     0.293 HD
ENDBRANCH  15  18
BRANCH  17  20
ATOM     20  O   UNL     1      14.038   2.957  17.006  1.00  0.00    -0.507 OA
ATOM     21  H   UNL     1      13.595   3.469  16.253  1.00  0.00     0.293 HD
ENDBRANCH  17  20
ENDBRANCH   1  12
BRANCH   2  22
ATOM     22  O   UNL     1      14.710   5.437  19.950  1.00  0.00    -0.502 OA
ATOM     23  H   UNL     1      15.592   5.917  20.089  1.00  0.00     0.293 HD
ENDBRANCH   2  22
BRANCH   6  24
ATOM     24  O   UNL     1      13.320  10.111  17.802  1.00  0.00    -0.507 OA
ATOM     25  H   UNL     1      13.898  10.071  18.628  1.00  0.00     0.293 HD
ENDBRANCH   6  24
BRANCH   8  26
ATOM     26  O   UNL     1       9.869   8.659  14.795  1.00  0.00    -0.508 OA
ATOM     27  H   UNL     1       9.276   9.479  14.868  1.00  0.00     0.293 HD
ENDBRANCH   8  26
TORSDOF 6
ENDMDL
MODEL 2
REMARK VINA RESULT:    32.276      4.881      7.732
REMARK INTER + INTRA:          38.425
REMARK INTER:                  38.886
REMARK INTRA:                  -0.460
REMARK UNBOUND:                -0.455
REMARK SMILES O=c1c(O)c(-c2ccc(O)cc2O)oc2cc(O)cc(O)c12
REMARK SMILES IDX 5 1 3 2 2 3 1 4 22 5 20 6 19 7 17 8 16 9 15 10 14 11 6 12
REMARK SMILES IDX 8 13 7 14 9 15 11 16 12 17 10 18 13 20 4 22 21 24 18 26
REMARK H PARENT 10 19 13 21 4 23 21 25 18 27
REMARK Flexibility Score: inf
ROOT
ATOM      1  C   UNL     1       9.184   9.836  19.536  1.00  0.00     0.184 A 
ATOM      2  C   UNL     1       8.702   9.454  18.273  1.00  0.00     0.208 A 
ATOM      3  C   UNL     1       9.620   9.083  17.278  1.00  0.00     0.238 A 
ATOM      4  O   UNL     1       9.185   8.796  16.132  1.00  0.00    -0.285 OA
ATOM      5  C   UNL     1      11.006   9.082  17.564  1.00  0.00     0.111 A 
ATOM      6  C   UNL     1      12.023   8.688  16.643  1.00  0.00     0.134 A 
ATOM      7  C   UNL     1      13.371   8.848  16.992  1.00  0.00     0.093 A 
ATOM      8  C   UNL     1      13.736   9.326  18.252  1.00  0.00     0.123 A 
ATOM      9  C   UNL     1      12.751   9.658  19.178  1.00  0.00     0.094 A 
ATOM     10  C   UNL     1      11.399   9.545  18.847  1.00  0.00     0.146 A 
ATOM     11  O   UNL     1      10.492   9.883  19.756  1.00  0.00    -0.451 OA
ENDROOT
BRANCH   1  12
ATOM     12  C   UNL     1       8.270  10.216  20.639  1.00  0.00     0.063 A 
ATOM     13  C   UNL     1       6.872   9.587  22.531  1.00  0.00     0.047 A 
ATOM     14  C   UNL     1       7.711   9.230  21.473  1.00  0.00     0.020 A 
ATOM     15  C   UNL     1       6.587  10.935  22.778  1.00  0.00     0.119 A 
ATOM     16  C   UNL     1       7.148  11.923  21.964  1.00  0.00     0.093 A 
ATOM     17  C   UNL     1       7.991  11.573  20.898  1.00  0.00     0.130 A 
BRANCH  15  18
ATOM     18  O   UNL     1       5.752  11.303  23.830  1.00  0.00    -0.508 OA
ATOM     19  H   UNL     1       5.750  10.794  24.707  1.00  0.00     0.293 HD
ENDBRANCH  15  18
BRANCH  17  20
ATOM     20  O   UNL     1       8.538  12.570  20.090  1.00  0.00    -0.507 OA
ATOM     21  H   UNL     1       9.174  13.265  20.462  1.00  0.00     0.293 HD
ENDBRANCH  17  20
ENDBRANCH   1  12
BRANCH   2  22
ATOM     22  O   UNL     1       7.330   9.476  18.011  1.00  0.00    -0.502 OA
ATOM     23  H   UNL     1       6.650   9.058  18.635  1.00  0.00     0.293 HD
ENDBRANCH   2  22
BRANCH   6  24
ATOM     24  O   UNL     1      11.767   8.111  15.395  1.00  0.00    -0.507 OA
ATOM     25  H   UNL     1      12.380   7.464  14.924  1.00  0.00     0.293 HD
ENDBRANCH   6  24
BRANCH   8  26
ATOM     26  O   UNL     1      15.079   9.468  18.597  1.00  0.00    -0.508 OA
ATOM     27  H   UNL     1      15.632   8.677  18.908  1.00  0.00     0.293 HD
ENDBRANCH   8  26
TORSDOF 6
ENDMDL
MODEL 3
REMARK VINA RESULT:    32.479      1.183      2.795
REMARK INTER + INTRA:          38.670
REMARK INTER:                  38.956
REMARK INTRA:                  -0.286
REMARK UNBOUND:                -0.455
REMARK SMILES O=c1c(O)c(-c2ccc(O)cc2O)oc2cc(O)cc(O)c12
REMARK SMILES IDX 5 1 3 2 2 3 1 4 22 5 20 6 19 7 17 8 16 9 15 10 14 11 6 12
REMARK SMILES IDX 8 13 7 14 9 15 11 16 12 17 10 18 13 20 4 22 21 24 18 26
REMARK H PARENT 10 19 13 21 4 23 21 25 18 27
REMARK Flexibility Score: inf
ROOT
ATOM      1  C   UNL     1      12.289   4.949  18.050  1.00  0.00     0.184 A 
ATOM      2  C   UNL     1      11.474   5.089  16.913  1.00  0.00     0.208 A 
ATOM      3  C   UNL     1      11.329   6.357  16.332  1.00  0.00     0.238 A 
ATOM      4  O   UNL     1      10.553   6.486  15.348  1.00  0.00    -0.285 OA
ATOM      5  C   UNL     1      12.015   7.467  16.881  1.00  0.00     0.111 A 
ATOM      6  C   UNL     1      11.971   8.792  16.351  1.00  0.00     0.134 A 
ATOM      7  C   UNL     1      12.586   9.837  17.050  1.00  0.00     0.093 A 
ATOM      8  C   UNL     1      13.298   9.594  18.227  1.00  0.00     0.123 A 
ATOM      9  C   UNL     1      13.396   8.297  18.722  1.00  0.00     0.094 A 
ATOM     10  C   UNL     1      12.762   7.238  18.066  1.00  0.00     0.146 A 
ATOM     11  O   UNL     1      12.871   6.018  18.578  1.00  0.00    -0.451 OA
ENDROOT
BRANCH   1  12
ATOM     12  C   UNL     1      12.506   3.635  18.699  1.00  0.00     0.063 A 
ATOM     13  C   UNL     1      12.102   2.104  20.548  1.00  0.00     0.047 A 
ATOM     14  C   UNL     1      11.922   3.352  19.947  1.00  0.00     0.020 A 
ATOM     15  C   UNL     1      12.859   1.117  19.907  1.00  0.00     0.119 A 
ATOM     16  C   UNL     1      13.433   1.384  18.660  1.00  0.00     0.093 A 
ATOM     17  C   UNL     1      13.259   2.635  18.050  1.00  0.00     0.130 A 
BRANCH  15  18
ATOM     18  O   UNL     1      13.044  -0.131  20.497  1.00  0.00    -0.508 OA
ATOM     19  H   UNL     1      13.500  -0.889  20.002  1.00  0.00     0.293 HD
ENDBRANCH  15  18
BRANCH  17  20
ATOM     20  O   UNL     1      13.843   2.889  16.809  1.00  0.00    -0.507 OA
ATOM     21  H   UNL     1      13.286   2.964  15.966  1.00  0.00     0.293 HD
ENDBRANCH  17  20
ENDBRANCH   1  12
BRANCH   2  22
ATOM     22  O   UNL     1      10.797   3.981  16.397  1.00  0.00    -0.502 OA
ATOM     23  H   UNL     1      11.279   3.201  15.965  1.00  0.00     0.293 HD
ENDBRANCH   2  22
BRANCH   6  24
ATOM     24  O   UNL     1      11.366   9.126  15.135  1.00  0.00    -0.507 OA
ATOM     25  H   UNL     1      11.480   8.610  14.275  1.00  0.00     0.293 HD
ENDBRANCH   6  24
BRANCH   8  26
ATOM     26  O   UNL     1      13.921  10.638  18.909  1.00  0.00    -0.508 OA
ATOM     27  H   UNL     1      13.516  11.567  18.940  1.00  0.00     0.293 HD
ENDBRANCH   8  26
TORSDOF 6
ENDMDL
MODEL 4
REMARK VINA RESULT:    33.119      4.900      7.158
REMARK INTER + INTRA:          39.441
REMARK INTER:                  39.727
REMARK INTRA:                  -0.286
REMARK UNBOUND:                -0.455
REMARK SMILES O=c1c(O)c(-c2ccc(O)cc2O)oc2cc(O)cc(O)c12
REMARK SMILES IDX 5 1 3 2 2 3 1 4 22 5 20 6 19 7 17 8 16 9 15 10 14 11 6 12
REMARK SMILES IDX 8 13 7 14 9 15 11 16 12 17 10 18 13 20 4 22 21 24 18 26
REMARK H PARENT 10 19 13 21 4 23 21 25 18 27
REMARK Flexibility Score: inf
ROOT
ATOM      1  C   UNL     1       9.736   9.999  19.913  1.00  0.00     0.184 A 
ATOM      2  C   UNL     1      11.032  10.389  20.291  1.00  0.00     0.208 A 
ATOM      3  C   UNL     1      12.102  10.135  19.419  1.00  0.00     0.238 A 
ATOM      4  O   UNL     1      13.267  10.435  19.788  1.00  0.00    -0.285 OA
ATOM      5  C   UNL     1      11.859   9.511  18.171  1.00  0.00     0.111 A 
ATOM      6  C   UNL     1      12.863   9.240  17.192  1.00  0.00     0.134 A 
ATOM      7  C   UNL     1      12.530   8.504  16.048  1.00  0.00     0.093 A 
ATOM      8  C   UNL     1      11.217   8.086  15.817  1.00  0.00     0.123 A 
ATOM      9  C   UNL     1      10.220   8.397  16.738  1.00  0.00     0.094 A 
ATOM     10  C   UNL     1      10.528   9.097  17.907  1.00  0.00     0.146 A 
ATOM     11  O   UNL     1       9.549   9.363  18.764  1.00  0.00    -0.451 OA
ENDROOT
BRANCH   1  12
ATOM     12  C   UNL     1       8.559  10.259  20.774  1.00  0.00     0.063 A 
ATOM     13  C   UNL     1       6.831   9.447  22.284  1.00  0.00     0.047 A 
ATOM     14  C   UNL     1       7.923   9.201  21.450  1.00  0.00     0.020 A 
ATOM     15  C   UNL     1       6.364  10.754  22.466  1.00  0.00     0.119 A 
ATOM     16  C   UNL     1       6.998  11.814  21.810  1.00  0.00     0.093 A 
ATOM     17  C   UNL     1       8.094  11.576  20.968  1.00  0.00     0.130 A 
BRANCH  15  18
ATOM     18  O   UNL     1       5.277  11.011  23.297  1.00  0.00    -0.508 OA
ATOM     19  H   UNL     1       5.066  11.948  23.620  1.00  0.00     0.293 HD
ENDBRANCH  15  18
BRANCH  17  20
ATOM     20  O   UNL     1       8.712  12.642  20.316  1.00  0.00    -0.507 OA
ATOM     21  H   UNL     1       9.645  12.948  20.564  1.00  0.00     0.293 HD
ENDBRANCH  17  20
ENDBRANCH   1  12
BRANCH   2  22
ATOM     22  O   UNL     1      11.248  10.990  21.534  1.00  0.00    -0.502 OA
ATOM     23  H   UNL     1      11.156  11.989  21.678  1.00  0.00     0.293 HD
ENDBRANCH   2  22
BRANCH   6  24
ATOM     24  O   UNL     1      14.183   9.692  17.281  1.00  0.00    -0.507 OA
ATOM     25  H   UNL     1      14.505  10.404  17.920  1.00  0.00     0.293 HD
ENDBRANCH   6  24
BRANCH   8  26
ATOM     26  O   UNL     1      10.892   7.368  14.668  1.00  0.00    -0.508 OA
ATOM     27  H   UNL     1      11.544   6.714  14.250  1.00  0.00     0.293 HD
ENDBRANCH   8  26
TORSDOF 6
ENDMDL
