MODEL 1
REMARK VINA RESULT:    -7.102      0.000      0.000
REMARK INTER + INTRA:          -8.585
REMARK INTER:                  -8.555
REMARK INTRA:                  -0.029
REMARK UNBOUND:                -0.029
REMARK SMILES O=c1c(O)c(-c2ccc(O)c(O)c2)oc2cc(O)cc(O)c12
REMARK SMILES IDX 5 1 3 2 2 3 1 4 22 5 20 6 19 7 17 8 16 9 15 10 14 11 6 12
REMARK SMILES IDX 7 13 8 14 9 15 13 16 11 17 10 18 12 20 4 22 21 24 18 26
REMARK H PARENT 10 19 12 21 4 23 21 25 18 27
REMARK Flexibility Score: inf
ROOT
ATOM      1  C   UNL     1      29.162 -36.389  13.504  1.00  0.00     0.180 A 
ATOM      2  C   UNL     1      29.316 -37.145  12.328  1.00  0.00     0.208 A 
ATOM      3  C   UNL     1      28.875 -38.478  12.314  1.00  0.00     0.238 A 
ATOM      4  O   UNL     1      29.065 -39.166  11.277  1.00  0.00    -0.285 OA
ATOM      5  C   UNL     1      28.271 -39.033  13.468  1.00  0.00     0.111 A 
ATOM      6  C   UNL     1      27.752 -40.360  13.552  1.00  0.00     0.134 A 
ATOM      7  C   UNL     1      27.295 -40.845  14.783  1.00  0.00     0.093 A 
ATOM      8  C   UNL     1      27.278 -40.034  15.917  1.00  0.00     0.123 A 
ATOM      9  C   UNL     1      27.728 -38.715  15.832  1.00  0.00     0.094 A 
ATOM     10  C   UNL     1      28.224 -38.213  14.625  1.00  0.00     0.146 A 
ATOM     11  O   UNL     1      28.652 -36.958  14.589  1.00  0.00    -0.452 OA
ENDROOT
BRANCH   1  12
ATOM     12  C   UNL     1      29.579 -34.970  13.588  1.00  0.00     0.025 A 
ATOM     13  C   UNL     1      29.110 -34.055  12.631  1.00  0.00     0.016 A 
ATOM     14  C   UNL     1      29.508 -32.716  12.679  1.00  0.00     0.051 A 
ATOM     15  C   UNL     1      30.390 -32.276  13.675  1.00  0.00     0.157 A 
ATOM     16  C   UNL     1      30.481 -34.529  14.573  1.00  0.00     0.062 A 
ATOM     17  C   UNL     1      30.881 -33.186  14.621  1.00  0.00     0.158 A 
BRANCH  15  18
ATOM     18  O   UNL     1      30.787 -30.942  13.726  1.00  0.00    -0.504 OA
ATOM     19  H   UNL     1      31.562 -30.598  13.171  1.00  0.00     0.293 HD
ENDBRANCH  15  18
BRANCH  17  20
ATOM     20  O   UNL     1      31.769 -32.748  15.601  1.00  0.00    -0.504 OA
ATOM     21  H   UNL     1      31.569 -31.937  16.174  1.00  0.00     0.293 HD
ENDBRANCH  17  20
ENDBRANCH   1  12
BRANCH   2  22
ATOM     22  O   UNL     1      29.935 -36.585  11.208  1.00  0.00    -0.502 OA
ATOM     23  H   UNL     1      29.715 -36.876  10.263  1.00  0.00     0.293 HD
ENDBRANCH   2  22
BRANCH   6  24
ATOM     24  O   UNL     1      27.638 -41.224  12.460  1.00  0.00    -0.507 OA
ATOM     25  H   UNL     1      27.726 -40.945  11.494  1.00  0.00     0.293 HD
ENDBRANCH   6  24
BRANCH   8  26
ATOM     26  O   UNL     1      26.801 -40.545  17.122  1.00  0.00    -0.508 OA
ATOM     27  H   UNL     1      27.073 -41.464  17.452  1.00  0.00     0.293 HD
ENDBRANCH   8  26
TORSDOF 6
ENDMDL
MODEL 2
REMARK VINA RESULT:    -6.583      2.376      2.729
REMARK INTER + INTRA:          -7.959
REMARK INTER:                  -7.788
REMARK INTRA:                  -0.171
REMARK UNBOUND:                -0.029
REMARK SMILES O=c1c(O)c(-c2ccc(O)c(O)c2)oc2cc(O)cc(O)c12
REMARK SMILES IDX 5 1 3 2 2 3 1 4 22 5 20 6 19 7 17 8 16 9 15 10 14 11 6 12
REMARK SMILES IDX 7 13 8 14 9 15 13 16 11 17 10 18 12 20 4 22 21 24 18 26
REMARK H PARENT 10 19 12 21 4 23 21 25 18 27
REMARK Flexibility Score: inf
ROOT
ATOM      1  C   UNL     1      30.830 -36.519  13.889  1.00  0.00     0.180 A 
ATOM      2  C   UNL     1      31.964 -37.243  14.295  1.00  0.00     0.208 A 
ATOM      3  C   UNL     1      31.872 -38.639  14.420  1.00  0.00     0.238 A 
ATOM      4  O   UNL     1      32.874 -39.276  14.836  1.00  0.00    -0.285 OA
ATOM      5  C   UNL     1      30.653 -39.293  14.121  1.00  0.00     0.111 A 
ATOM      6  C   UNL     1      30.457 -40.706  14.176  1.00  0.00     0.134 A 
ATOM      7  C   UNL     1      29.174 -41.234  13.986  1.00  0.00     0.093 A 
ATOM      8  C   UNL     1      28.093 -40.408  13.683  1.00  0.00     0.123 A 
ATOM      9  C   UNL     1      28.284 -39.029  13.569  1.00  0.00     0.094 A 
ATOM     10  C   UNL     1      29.546 -38.470  13.788  1.00  0.00     0.146 A 
ATOM     11  O   UNL     1      29.683 -37.155  13.681  1.00  0.00    -0.452 OA
ENDROOT
BRANCH   1  12
ATOM     12  C   UNL     1      30.856 -35.049  13.711  1.00  0.00     0.025 A 
ATOM     13  C   UNL     1      31.670 -34.489  12.713  1.00  0.00     0.016 A 
ATOM     14  C   UNL     1      31.727 -33.104  12.540  1.00  0.00     0.051 A 
ATOM     15  C   UNL     1      30.982 -32.257  13.372  1.00  0.00     0.157 A 
ATOM     16  C   UNL     1      30.126 -34.194  14.557  1.00  0.00     0.062 A 
ATOM     17  C   UNL     1      30.184 -32.804  14.385  1.00  0.00     0.158 A 
BRANCH  15  18
ATOM     18  O   UNL     1      31.035 -30.875  13.203  1.00  0.00    -0.504 OA
ATOM     19  H   UNL     1      31.448 -30.271  13.903  1.00  0.00     0.293 HD
ENDBRANCH  15  18
BRANCH  17  20
ATOM     20  O   UNL     1      29.455 -31.959  15.220  1.00  0.00    -0.504 OA
ATOM     21  H   UNL     1      29.876 -31.141  15.645  1.00  0.00     0.293 HD
ENDBRANCH  17  20
ENDBRANCH   1  12
BRANCH   2  22
ATOM     22  O   UNL     1      33.151 -36.575  14.606  1.00  0.00    -0.502 OA
ATOM     23  H   UNL     1      33.256 -36.013  15.442  1.00  0.00     0.293 HD
ENDBRANCH   2  22
BRANCH   6  24
ATOM     24  O   UNL     1      31.487 -41.629  14.381  1.00  0.00    -0.507 OA
ATOM     25  H   UNL     1      32.471 -41.406  14.362  1.00  0.00     0.293 HD
ENDBRANCH   6  24
BRANCH   8  26
ATOM     26  O   UNL     1      26.833 -40.969  13.485  1.00  0.00    -0.508 OA
ATOM     27  H   UNL     1      26.687 -41.723  12.825  1.00  0.00     0.293 HD
ENDBRANCH   8  26
TORSDOF 6
ENDMDL
MODEL 3
REMARK VINA RESULT:    -6.580      2.717      7.077
REMARK INTER + INTRA:          -7.955
REMARK INTER:                  -7.662
REMARK INTRA:                  -0.293
REMARK UNBOUND:                -0.029
REMARK SMILES O=c1c(O)c(-c2ccc(O)c(O)c2)oc2cc(O)cc(O)c12
REMARK SMILES IDX 5 1 3 2 2 3 1 4 22 5 20 6 19 7 17 8 16 9 15 10 14 11 6 12
REMARK SMILES IDX 7 13 8 14 9 15 13 16 11 17 10 18 12 20 4 22 21 24 18 26
REMARK H PARENT 10 19 12 21 4 23 21 25 18 27
REMARK Flexibility Score: inf
ROOT
ATOM      1  C   UNL     1      30.664 -36.658  13.336  1.00  0.00     0.180 A 
ATOM      2  C   UNL     1      30.390 -35.589  12.464  1.00  0.00     0.208 A 
ATOM      3  C   UNL     1      31.375 -34.610  12.258  1.00  0.00     0.238 A 
ATOM      4  O   UNL     1      31.105 -33.627  11.519  1.00  0.00    -0.285 OA
ATOM      5  C   UNL     1      32.626 -34.720  12.912  1.00  0.00     0.111 A 
ATOM      6  C   UNL     1      33.710 -33.807  12.746  1.00  0.00     0.134 A 
ATOM      7  C   UNL     1      34.854 -33.941  13.542  1.00  0.00     0.093 A 
ATOM      8  C   UNL     1      34.980 -34.990  14.452  1.00  0.00     0.123 A 
ATOM      9  C   UNL     1      33.950 -35.923  14.580  1.00  0.00     0.094 A 
ATOM     10  C   UNL     1      32.781 -35.795  13.825  1.00  0.00     0.146 A 
ATOM     11  O   UNL     1      31.821 -36.697  13.985  1.00  0.00    -0.452 OA
ENDROOT
BRANCH   1  12
ATOM     12  C   UNL     1      29.685 -37.741  13.584  1.00  0.00     0.025 A 
ATOM     13  C   UNL     1      28.988 -37.776  14.803  1.00  0.00     0.016 A 
ATOM     14  C   UNL     1      28.076 -38.801  15.067  1.00  0.00     0.051 A 
ATOM     15  C   UNL     1      27.858 -39.814  14.123  1.00  0.00     0.157 A 
ATOM     16  C   UNL     1      29.480 -38.771  12.648  1.00  0.00     0.062 A 
ATOM     17  C   UNL     1      28.565 -39.801  12.913  1.00  0.00     0.158 A 
BRANCH  15  18
ATOM     18  O   UNL     1      26.948 -40.837  14.382  1.00  0.00    -0.504 OA
ATOM     19  H   UNL     1      26.162 -40.701  15.005  1.00  0.00     0.293 HD
ENDBRANCH  15  18
BRANCH  17  20
ATOM     20  O   UNL     1      28.357 -40.817  11.983  1.00  0.00    -0.504 OA
ATOM     21  H   UNL     1      28.514 -40.670  10.993  1.00  0.00     0.293 HD
ENDBRANCH  17  20
ENDBRANCH   1  12
BRANCH   2  22
ATOM     22  O   UNL     1      29.141 -35.488  11.846  1.00  0.00    -0.502 OA
ATOM     23  H   UNL     1      28.557 -34.665  11.931  1.00  0.00     0.293 HD
ENDBRANCH   2  22
BRANCH   6  24
ATOM     24  O   UNL     1      33.726 -32.778  11.800  1.00  0.00    -0.507 OA
ATOM     25  H   UNL     1      34.523 -32.192  11.600  1.00  0.00     0.293 HD
ENDBRANCH   6  24
BRANCH   8  26
ATOM     26  O   UNL     1      36.139 -35.102  15.217  1.00  0.00    -0.508 OA
ATOM     27  H   UNL     1      36.944 -35.619  14.885  1.00  0.00     0.293 HD
ENDBRANCH   8  26
TORSDOF 6
ENDMDL
MODEL 4
REMARK VINA RESULT:    -6.562      1.790      6.923
REMARK INTER + INTRA:          -7.935
REMARK INTER:                  -7.663
REMARK INTRA:                  -0.272
REMARK UNBOUND:                -0.029
REMARK SMILES O=c1c(O)c(-c2ccc(O)c(O)c2)oc2cc(O)cc(O)c12
REMARK SMILES IDX 5 1 3 2 2 3 1 4 22 5 20 6 19 7 17 8 16 9 15 10 14 11 6 12
REMARK SMILES IDX 7 13 8 14 9 15 13 16 11 17 10 18 12 20 4 22 21 24 18 26
REMARK H PARENT 10 19 12 21 4 23 21 25 18 27
REMARK Flexibility Score: inf
ROOT
ATOM      1  C   UNL     1      28.640 -38.974  13.913  1.00  0.00     0.180 A 
ATOM      2  C   UNL     1      28.749 -38.863  12.516  1.00  0.00     0.208 A 
ATOM      3  C   UNL     1      28.932 -37.592  11.946  1.00  0.00     0.238 A 
ATOM      4  O   UNL     1      28.974 -37.493  10.692  1.00  0.00    -0.285 OA
ATOM      5  C   UNL     1      29.021 -36.453  12.780  1.00  0.00     0.111 A 
ATOM      6  C   UNL     1      29.245 -35.122  12.313  1.00  0.00     0.134 A 
ATOM      7  C   UNL     1      29.185 -34.054  13.217  1.00  0.00     0.093 A 
ATOM      8  C   UNL     1      28.973 -34.272  14.577  1.00  0.00     0.123 A 
ATOM      9  C   UNL     1      28.811 -35.574  15.054  1.00  0.00     0.094 A 
ATOM     10  C   UNL     1      28.830 -36.658  14.171  1.00  0.00     0.146 A 
ATOM     11  O   UNL     1      28.661 -37.879  14.663  1.00  0.00    -0.452 OA
ENDROOT
BRANCH   1  12
ATOM     12  C   UNL     1      28.471 -40.281  14.589  1.00  0.00     0.025 A 
ATOM     13  C   UNL     1      29.580 -40.894  15.193  1.00  0.00     0.016 A 
ATOM     14  C   UNL     1      29.448 -42.137  15.818  1.00  0.00     0.051 A 
ATOM     15  C   UNL     1      28.209 -42.791  15.835  1.00  0.00     0.157 A 
ATOM     16  C   UNL     1      27.234 -40.950  14.589  1.00  0.00     0.062 A 
ATOM     17  C   UNL     1      27.101 -42.199  15.215  1.00  0.00     0.158 A 
BRANCH  15  18
ATOM     18  O   UNL     1      28.073 -44.030  16.457  1.00  0.00    -0.504 OA
ATOM     19  H   UNL     1      27.734 -44.110  17.408  1.00  0.00     0.293 HD
ENDBRANCH  15  18
BRANCH  17  20
ATOM     20  O   UNL     1      25.874 -42.858  15.221  1.00  0.00    -0.504 OA
ATOM     21  H   UNL     1      25.554 -43.391  14.421  1.00  0.00     0.293 HD
ENDBRANCH  17  20
ENDBRANCH   1  12
BRANCH   2  22
ATOM     22  O   UNL     1      28.636 -39.999  11.709  1.00  0.00    -0.502 OA
ATOM     23  H   UNL     1      29.442 -40.522  11.391  1.00  0.00     0.293 HD
ENDBRANCH   2  22
BRANCH   6  24
ATOM     24  O   UNL     1      29.558 -34.803  10.989  1.00  0.00    -0.507 OA
ATOM     25  H   UNL     1      28.973 -35.011  10.194  1.00  0.00     0.293 HD
ENDBRANCH   6  24
BRANCH   8  26
ATOM     26  O   UNL     1      28.934 -33.186  15.450  1.00  0.00    -0.508 OA
ATOM     27  H   UNL     1      28.150 -32.546  15.463  1.00  0.00     0.293 HD
ENDBRANCH   8  26
TORSDOF 6
ENDMDL
MODEL 5
REMARK VINA RESULT:    -6.531      3.117      4.793
REMARK INTER + INTRA:          -7.897
REMARK INTER:                  -7.672
REMARK INTRA:                  -0.226
REMARK UNBOUND:                -0.029
REMARK SMILES O=c1c(O)c(-c2ccc(O)c(O)c2)oc2cc(O)cc(O)c12
REMARK SMILES IDX 5 1 3 2 2 3 1 4 22 5 20 6 19 7 17 8 16 9 15 10 14 11 6 12
REMARK SMILES IDX 7 13 8 14 9 15 13 16 11 17 10 18 12 20 4 22 21 24 18 26
REMARK H PARENT 10 19 12 21 4 23 21 25 18 27
REMARK Flexibility Score: inf
ROOT
ATOM      1  C   UNL     1      32.144 -35.597  13.862  1.00  0.00     0.180 A 
ATOM      2  C   UNL     1      31.247 -35.386  14.924  1.00  0.00     0.208 A 
ATOM      3  C   UNL     1      29.982 -35.994  14.876  1.00  0.00     0.238 A 
ATOM      4  O   UNL     1      29.163 -35.758  15.803  1.00  0.00    -0.285 OA
ATOM      5  C   UNL     1      29.636 -36.816  13.777  1.00  0.00     0.111 A 
ATOM      6  C   UNL     1      28.397 -37.512  13.644  1.00  0.00     0.134 A 
ATOM      7  C   UNL     1      28.111 -38.192  12.454  1.00  0.00     0.093 A 
ATOM      8  C   UNL     1      29.042 -38.254  11.418  1.00  0.00     0.123 A 
ATOM      9  C   UNL     1      30.281 -37.627  11.561  1.00  0.00     0.094 A 
ATOM     10  C   UNL     1      30.581 -36.910  12.723  1.00  0.00     0.146 A 
ATOM     11  O   UNL     1      31.765 -36.319  12.814  1.00  0.00    -0.452 OA
ENDROOT
BRANCH   1  12
ATOM     12  C   UNL     1      33.504 -35.011  13.852  1.00  0.00     0.025 A 
ATOM     13  C   UNL     1      33.837 -34.054  12.880  1.00  0.00     0.016 A 
ATOM     14  C   UNL     1      35.121 -33.504  12.840  1.00  0.00     0.051 A 
ATOM     15  C   UNL     1      36.095 -33.913  13.761  1.00  0.00     0.157 A 
ATOM     16  C   UNL     1      34.491 -35.435  14.762  1.00  0.00     0.062 A 
ATOM     17  C   UNL     1      35.780 -34.884  14.721  1.00  0.00     0.158 A 
BRANCH  15  18
ATOM     18  O   UNL     1      37.375 -33.366  13.725  1.00  0.00    -0.504 OA
ATOM     19  H   UNL     1      37.942 -33.398  12.886  1.00  0.00     0.293 HD
ENDBRANCH  15  18
BRANCH  17  20
ATOM     20  O   UNL     1      36.754 -35.299  15.626  1.00  0.00    -0.504 OA
ATOM     21  H   UNL     1      37.718 -35.433  15.345  1.00  0.00     0.293 HD
ENDBRANCH  17  20
ENDBRANCH   1  12
BRANCH   2  22
ATOM     22  O   UNL     1      31.601 -34.553  15.988  1.00  0.00    -0.502 OA
ATOM     23  H   UNL     1      32.428 -33.969  15.970  1.00  0.00     0.293 HD
ENDBRANCH   2  22
BRANCH   6  24
ATOM     24  O   UNL     1      27.434 -37.590  14.654  1.00  0.00    -0.507 OA
ATOM     25  H   UNL     1      26.449 -37.413  14.525  1.00  0.00     0.293 HD
ENDBRANCH   6  24
BRANCH   8  26
ATOM     26  O   UNL     1      28.730 -38.953  10.254  1.00  0.00    -0.508 OA
ATOM     27  H   UNL     1      28.711 -39.966  10.233  1.00  0.00     0.293 HD
ENDBRANCH   8  26
TORSDOF 6
ENDMDL
MODEL 6
REMARK VINA RESULT:    -6.427      1.940      6.801
REMARK INTER + INTRA:          -7.771
REMARK INTER:                  -7.449
REMARK INTRA:                  -0.322
REMARK UNBOUND:                -0.029
REMARK SMILES O=c1c(O)c(-c2ccc(O)c(O)c2)oc2cc(O)cc(O)c12
REMARK SMILES IDX 5 1 3 2 2 3 1 4 22 5 20 6 19 7 17 8 16 9 15 10 14 11 6 12
REMARK SMILES IDX 7 13 8 14 9 15 13 16 11 17 10 18 12 20 4 22 21 24 18 26
REMARK H PARENT 10 19 12 21 4 23 21 25 18 27
REMARK Flexibility Score: inf
ROOT
ATOM      1  C   UNL     1      29.907 -37.362  13.526  1.00  0.00     0.180 A 
ATOM      2  C   UNL     1      30.826 -36.928  12.554  1.00  0.00     0.208 A 
ATOM      3  C   UNL     1      31.061 -35.552  12.407  1.00  0.00     0.238 A 
ATOM      4  O   UNL     1      31.844 -35.167  11.499  1.00  0.00    -0.285 OA
ATOM      5  C   UNL     1      30.389 -34.629  13.243  1.00  0.00     0.111 A 
ATOM      6  C   UNL     1      30.581 -33.215  13.207  1.00  0.00     0.134 A 
ATOM      7  C   UNL     1      29.766 -32.388  13.990  1.00  0.00     0.093 A 
ATOM      8  C   UNL     1      28.812 -32.924  14.854  1.00  0.00     0.123 A 
ATOM      9  C   UNL     1      28.657 -34.309  14.940  1.00  0.00     0.094 A 
ATOM     10  C   UNL     1      29.430 -35.159  14.145  1.00  0.00     0.146 A 
ATOM     11  O   UNL     1      29.244 -36.468  14.249  1.00  0.00    -0.452 OA
ENDROOT
BRANCH   1  12
ATOM     12  C   UNL     1      29.625 -38.798  13.757  1.00  0.00     0.025 A 
ATOM     13  C   UNL     1      30.444 -39.530  14.632  1.00  0.00     0.016 A 
ATOM     14  C   UNL     1      30.209 -40.890  14.849  1.00  0.00     0.051 A 
ATOM     15  C   UNL     1      29.162 -41.541  14.185  1.00  0.00     0.157 A 
ATOM     16  C   UNL     1      28.587 -39.460  13.076  1.00  0.00     0.062 A 
ATOM     17  C   UNL     1      28.352 -40.825  13.293  1.00  0.00     0.158 A 
BRANCH  15  18
ATOM     18  O   UNL     1      28.923 -42.897  14.400  1.00  0.00    -0.504 OA
ATOM     19  H   UNL     1      28.304 -43.216  15.135  1.00  0.00     0.293 HD
ENDBRANCH  15  18
BRANCH  17  20
ATOM     20  O   UNL     1      27.320 -41.478  12.623  1.00  0.00    -0.504 OA
ATOM     21  H   UNL     1      26.762 -42.193  13.075  1.00  0.00     0.293 HD
ENDBRANCH  17  20
ENDBRANCH   1  12
BRANCH   2  22
ATOM     22  O   UNL     1      31.462 -37.855  11.724  1.00  0.00    -0.502 OA
ATOM     23  H   UNL     1      31.243 -37.945  10.740  1.00  0.00     0.293 HD
ENDBRANCH   2  22
BRANCH   6  24
ATOM     24  O   UNL     1      31.568 -32.580  12.449  1.00  0.00    -0.507 OA
ATOM     25  H   UNL     1      32.281 -33.058  11.917  1.00  0.00     0.293 HD
ENDBRANCH   6  24
BRANCH   8  26
ATOM     26  O   UNL     1      28.030 -32.072  15.630  1.00  0.00    -0.508 OA
ATOM     27  H   UNL     1      27.173 -31.667  15.272  1.00  0.00     0.293 HD
ENDBRANCH   8  26
TORSDOF 6
ENDMDL
MODEL 7
REMARK VINA RESULT:    -6.415      4.826      6.573
REMARK INTER + INTRA:          -7.757
REMARK INTER:                  -7.432
REMARK INTRA:                  -0.325
REMARK UNBOUND:                -0.029
REMARK SMILES O=c1c(O)c(-c2ccc(O)c(O)c2)oc2cc(O)cc(O)c12
REMARK SMILES IDX 5 1 3 2 2 3 1 4 22 5 20 6 19 7 17 8 16 9 15 10 14 11 6 12
REMARK SMILES IDX 7 13 8 14 9 15 13 16 11 17 10 18 12 20 4 22 21 24 18 26
REMARK H PARENT 10 19 12 21 4 23 21 25 18 27
REMARK Flexibility Score: inf
ROOT
ATOM      1  C   UNL     1      33.428 -34.283  14.494  1.00  0.00     0.180 A 
ATOM      2  C   UNL     1      33.089 -34.579  13.162  1.00  0.00     0.208 A 
ATOM      3  C   UNL     1      31.779 -34.329  12.721  1.00  0.00     0.238 A 
ATOM      4  O   UNL     1      31.467 -34.647  11.544  1.00  0.00    -0.285 OA
ATOM      5  C   UNL     1      30.832 -33.770  13.611  1.00  0.00     0.111 A 
ATOM      6  C   UNL     1      29.488 -33.438  13.261  1.00  0.00     0.134 A 
ATOM      7  C   UNL     1      28.600 -33.012  14.256  1.00  0.00     0.093 A 
ATOM      8  C   UNL     1      29.021 -32.845  15.575  1.00  0.00     0.123 A 
ATOM      9  C   UNL     1      30.349 -33.109  15.917  1.00  0.00     0.094 A 
ATOM     10  C   UNL     1      31.250 -33.570  14.953  1.00  0.00     0.146 A 
ATOM     11  O   UNL     1      32.499 -33.821  15.322  1.00  0.00    -0.452 OA
ENDROOT
BRANCH   1  12
ATOM     12  C   UNL     1      34.794 -34.495  15.024  1.00  0.00     0.025 A 
ATOM     13  C   UNL     1      35.074 -35.652  15.769  1.00  0.00     0.016 A 
ATOM     14  C   UNL     1      36.350 -35.863  16.297  1.00  0.00     0.051 A 
ATOM     15  C   UNL     1      37.362 -34.914  16.100  1.00  0.00     0.157 A 
ATOM     16  C   UNL     1      35.807 -33.535  14.846  1.00  0.00     0.062 A 
ATOM     17  C   UNL     1      37.088 -33.746  15.377  1.00  0.00     0.158 A 
BRANCH  15  18
ATOM     18  O   UNL     1      38.636 -35.121  16.623  1.00  0.00    -0.504 OA
ATOM     19  H   UNL     1      39.414 -35.390  16.033  1.00  0.00     0.293 HD
ENDBRANCH  15  18
BRANCH  17  20
ATOM     20  O   UNL     1      38.092 -32.797  15.194  1.00  0.00    -0.504 OA
ATOM     21  H   UNL     1      37.945 -31.972  14.625  1.00  0.00     0.293 HD
ENDBRANCH  17  20
ENDBRANCH   1  12
BRANCH   2  22
ATOM     22  O   UNL     1      34.034 -35.151  12.306  1.00  0.00    -0.502 OA
ATOM     23  H   UNL     1      34.798 -35.723  12.644  1.00  0.00     0.293 HD
ENDBRANCH   2  22
BRANCH   6  24
ATOM     24  O   UNL     1      28.988 -33.482  11.956  1.00  0.00    -0.507 OA
ATOM     25  H   UNL     1      28.336 -32.817  11.568  1.00  0.00     0.293 HD
ENDBRANCH   6  24
BRANCH   8  26
ATOM     26  O   UNL     1      28.114 -32.404  16.536  1.00  0.00    -0.508 OA
ATOM     27  H   UNL     1      28.045 -32.851  17.443  1.00  0.00     0.293 HD
ENDBRANCH   8  26
TORSDOF 6
ENDMDL
MODEL 8
REMARK VINA RESULT:    -6.357      2.329      2.764
REMARK INTER + INTRA:          -7.687
REMARK INTER:                  -7.366
REMARK INTRA:                  -0.321
REMARK UNBOUND:                -0.029
REMARK SMILES O=c1c(O)c(-c2ccc(O)c(O)c2)oc2cc(O)cc(O)c12
REMARK SMILES IDX 5 1 3 2 2 3 1 4 22 5 20 6 19 7 17 8 16 9 15 10 14 11 6 12
REMARK SMILES IDX 7 13 8 14 9 15 13 16 11 17 10 18 12 20 4 22 21 24 18 26
REMARK H PARENT 10 19 12 21 4 23 21 25 18 27
REMARK Flexibility Score: inf
ROOT
ATOM      1  C   UNL     1      29.416 -38.257  13.692  1.00  0.00     0.180 A 
ATOM      2  C   UNL     1      30.662 -38.893  13.822  1.00  0.00     0.208 A 
ATOM      3  C   UNL     1      30.698 -40.267  14.111  1.00  0.00     0.238 A 
ATOM      4  O   UNL     1      31.817 -40.820  14.281  1.00  0.00    -0.285 OA
ATOM      5  C   UNL     1      29.490 -40.990  14.249  1.00  0.00     0.111 A 
ATOM      6  C   UNL     1      29.408 -42.392  14.503  1.00  0.00     0.134 A 
ATOM      7  C   UNL     1      28.161 -42.978  14.750  1.00  0.00     0.093 A 
ATOM      8  C   UNL     1      26.988 -42.228  14.691  1.00  0.00     0.123 A 
ATOM      9  C   UNL     1      27.050 -40.866  14.385  1.00  0.00     0.094 A 
ATOM     10  C   UNL     1      28.284 -40.246  14.169  1.00  0.00     0.146 A 
ATOM     11  O   UNL     1      28.300 -38.949  13.892  1.00  0.00    -0.452 OA
ENDROOT
BRANCH   1  12
ATOM     12  C   UNL     1      29.297 -36.818  13.364  1.00  0.00     0.025 A 
ATOM     13  C   UNL     1      29.315 -36.413  12.019  1.00  0.00     0.016 A 
ATOM     14  C   UNL     1      29.225 -35.059  11.687  1.00  0.00     0.051 A 
ATOM     15  C   UNL     1      29.130 -34.089  12.694  1.00  0.00     0.157 A 
ATOM     16  C   UNL     1      29.223 -35.840  14.372  1.00  0.00     0.062 A 
ATOM     17  C   UNL     1      29.134 -34.480  14.039  1.00  0.00     0.158 A 
BRANCH  15  18
ATOM     18  O   UNL     1      29.039 -32.738  12.367  1.00  0.00    -0.504 OA
ATOM     19  H   UNL     1      29.665 -32.312  11.694  1.00  0.00     0.293 HD
ENDBRANCH  15  18
BRANCH  17  20
ATOM     20  O   UNL     1      29.054 -33.513  15.039  1.00  0.00    -0.504 OA
ATOM     21  H   UNL     1      28.162 -33.190  15.394  1.00  0.00     0.293 HD
ENDBRANCH  17  20
ENDBRANCH   1  12
BRANCH   2  22
ATOM     22  O   UNL     1      31.844 -38.156  13.704  1.00  0.00    -0.502 OA
ATOM     23  H   UNL     1      32.118 -37.702  12.842  1.00  0.00     0.293 HD
ENDBRANCH   2  22
BRANCH   6  24
ATOM     24  O   UNL     1      30.510 -43.252  14.493  1.00  0.00    -0.507 OA
ATOM     25  H   UNL     1      30.871 -43.733  15.304  1.00  0.00     0.293 HD
ENDBRANCH   6  24
BRANCH   8  26
ATOM     26  O   UNL     1      25.762 -42.847  14.927  1.00  0.00    -0.508 OA
ATOM     27  H   UNL     1      24.892 -42.328  14.894  1.00  0.00     0.293 HD
ENDBRANCH   8  26
TORSDOF 6
ENDMDL
MODEL 9
REMARK VINA RESULT:    -6.254      1.871      7.132
REMARK INTER + INTRA:          -7.563
REMARK INTER:                  -7.253
REMARK INTRA:                  -0.310
REMARK UNBOUND:                -0.029
REMARK SMILES O=c1c(O)c(-c2ccc(O)c(O)c2)oc2cc(O)cc(O)c12
REMARK SMILES IDX 5 1 3 2 2 3 1 4 22 5 20 6 19 7 17 8 16 9 15 10 14 11 6 12
REMARK SMILES IDX 7 13 8 14 9 15 13 16 11 17 10 18 12 20 4 22 21 24 18 26
REMARK H PARENT 10 19 12 21 4 23 21 25 18 27
REMARK Flexibility Score: inf
ROOT
ATOM      1  C   UNL     1      29.778 -37.736  14.242  1.00  0.00     0.180 A 
ATOM      2  C   UNL     1      31.119 -37.789  14.661  1.00  0.00     0.208 A 
ATOM      3  C   UNL     1      31.904 -36.627  14.582  1.00  0.00     0.238 A 
ATOM      4  O   UNL     1      33.118 -36.695  14.907  1.00  0.00    -0.285 OA
ATOM      5  C   UNL     1      31.333 -35.424  14.103  1.00  0.00     0.111 A 
ATOM      6  C   UNL     1      32.024 -34.177  14.018  1.00  0.00     0.134 A 
ATOM      7  C   UNL     1      31.401 -33.083  13.407  1.00  0.00     0.093 A 
ATOM      8  C   UNL     1      30.092 -33.170  12.935  1.00  0.00     0.123 A 
ATOM      9  C   UNL     1      29.385 -34.367  13.067  1.00  0.00     0.094 A 
ATOM     10  C   UNL     1      29.993 -35.487  13.640  1.00  0.00     0.146 A 
ATOM     11  O   UNL     1      29.292 -36.609  13.736  1.00  0.00    -0.452 OA
ENDROOT
BRANCH   1  12
ATOM     12  C   UNL     1      28.882 -38.912  14.319  1.00  0.00     0.025 A 
ATOM     13  C   UNL     1      28.253 -39.224  15.535  1.00  0.00     0.016 A 
ATOM     14  C   UNL     1      27.420 -40.341  15.635  1.00  0.00     0.051 A 
ATOM     15  C   UNL     1      27.215 -41.171  14.525  1.00  0.00     0.157 A 
ATOM     16  C   UNL     1      28.690 -39.760  13.212  1.00  0.00     0.062 A 
ATOM     17  C   UNL     1      27.855 -40.882  13.313  1.00  0.00     0.158 A 
BRANCH  15  18
ATOM     18  O   UNL     1      26.384 -42.285  14.621  1.00  0.00    -0.504 OA
ATOM     19  H   UNL     1      26.605 -43.153  14.147  1.00  0.00     0.293 HD
ENDBRANCH  15  18
BRANCH  17  20
ATOM     20  O   UNL     1      27.661 -41.718  12.215  1.00  0.00    -0.504 OA
ATOM     21  H   UNL     1      28.439 -42.156  11.737  1.00  0.00     0.293 HD
ENDBRANCH  17  20
ENDBRANCH   1  12
BRANCH   2  22
ATOM     22  O   UNL     1      31.668 -38.994  15.110  1.00  0.00    -0.502 OA
ATOM     23  H   UNL     1      31.741 -39.225  16.093  1.00  0.00     0.293 HD
ENDBRANCH   2  22
BRANCH   6  24
ATOM     24  O   UNL     1      33.302 -33.956  14.540  1.00  0.00    -0.507 OA
ATOM     25  H   UNL     1      33.731 -33.049  14.646  1.00  0.00     0.293 HD
ENDBRANCH   6  24
BRANCH   8  26
ATOM     26  O   UNL     1      29.497 -32.055  12.346  1.00  0.00    -0.508 OA
ATOM     27  H   UNL     1      28.515 -32.050  12.096  1.00  0.00     0.293 HD
ENDBRANCH   8  26
TORSDOF 6
ENDMDL
