MODEL 1
REMARK VINA RESULT:    -2.168      0.000      0.000
REMARK INTER + INTRA:          -7.234
REMARK INTER:                  -4.957
REMARK INTRA:                  -2.277
REMARK UNBOUND:                -2.277
REMARK SMILES CCCCCCCCCCCCCCCCCCCCCCCC(=O)[O-]
REMARK SMILES IDX 13 1 14 2 15 3 16 4 17 5 18 6 19 7 20 8 21 9 22 10 23 11
REMARK SMILES IDX 24 12 25 13 26 14 12 15 11 16 10 17 9 18 8 19 7 20 6 21 5 22
REMARK SMILES IDX 4 23 3 24 2 25 1 26
REMARK H PARENT
REMARK Flexibility Score: inf
ROOT
ATOM      1  C   UNL     1     -17.592  46.676 -11.125  1.00  0.00     0.000 C 
ENDROOT
BRANCH   1   2
ATOM      2  C   UNL     1     -18.910  46.192 -10.492  1.00  0.00     0.000 C 
BRANCH   2   3
ATOM      3  C   UNL     1     -19.394  44.847 -11.056  1.00  0.00     0.000 C 
BRANCH   3   4
ATOM      4  C   UNL     1     -18.275  43.793 -11.125  1.00  0.00     0.000 C 
BRANCH   4   5
ATOM      5  C   UNL     1     -18.347  42.734 -10.003  1.00  0.00     0.000 C 
BRANCH   5   6
ATOM      6  C   UNL     1     -19.200  43.207  -8.812  1.00  0.00     0.000 C 
BRANCH   6   7
ATOM      7  C   UNL     1     -18.431  44.152  -7.876  1.00  0.00     0.000 C 
BRANCH   7   8
ATOM      8  C   UNL     1     -19.338  44.776  -6.800  1.00  0.00     0.000 C 
BRANCH   8   9
ATOM      9  C   UNL     1     -18.865  44.457  -5.372  1.00  0.00     0.000 C 
BRANCH   9  10
ATOM     10  C   UNL     1     -17.463  43.822  -5.347  1.00  0.00     0.006 C 
BRANCH  10  11
ATOM     11  C   UNL     1     -17.463  42.446  -4.667  1.00  0.00     0.053 C 
BRANCH  11  12
ATOM     12  C   UNL     1     -18.649  42.266  -3.767  1.00  0.00     0.041 C 
ATOM     13  O   UNL     1     -19.533  41.414  -4.044  1.00  0.00    -0.550 OA
ATOM     14  O   UNL     1     -18.768  43.034  -2.614  1.00  0.00    -0.550 OA
ENDBRANCH  11  12
ENDBRANCH  10  11
ENDBRANCH   9  10
ENDBRANCH   8   9
ENDBRANCH   7   8
ENDBRANCH   6   7
ENDBRANCH   5   6
ENDBRANCH   4   5
ENDBRANCH   3   4
ENDBRANCH   2   3
ENDBRANCH   1   2
BRANCH   1  15
ATOM     15  C   UNL     1     -16.357  46.622 -10.205  1.00  0.00     0.000 C 
BRANCH  15  16
ATOM     16  C   UNL     1     -15.116  46.028 -10.889  1.00  0.00     0.000 C 
BRANCH  16  17
ATOM     17  C   UNL     1     -14.192  45.363  -9.857  1.00  0.00     0.000 C 
BRANCH  17  18
ATOM     18  C   UNL     1     -14.966  44.633  -8.748  1.00  0.00    -0.000 C 
BRANCH  18  19
ATOM     19  C   UNL     1     -14.638  45.172  -7.347  1.00  0.00    -0.000 C 
BRANCH  19  20
ATOM     20  C   UNL     1     -13.920  46.524  -7.429  1.00  0.00    -0.000 C 
BRANCH  20  21
ATOM     21  C   UNL     1     -14.368  47.449  -6.288  1.00  0.00    -0.000 C 
BRANCH  21  22
ATOM     22  C   UNL     1     -13.876  48.895  -6.472  1.00  0.00    -0.000 C 
BRANCH  22  23
ATOM     23  C   UNL     1     -13.936  49.356  -7.937  1.00  0.00    -0.000 C 
BRANCH  23  24
ATOM     24  C   UNL     1     -14.804  50.611  -8.084  1.00  0.00    -0.000 C 
BRANCH  24  25
ATOM     25  C   UNL     1     -14.128  51.825  -7.435  1.00  0.00    -0.003 C 
ATOM     26  C   UNL     1     -14.070  53.005  -8.401  1.00  0.00     0.004 C 
ENDBRANCH  24  25
ENDBRANCH  23  24
ENDBRANCH  22  23
ENDBRANCH  21  22
ENDBRANCH  20  21
ENDBRANCH  19  20
ENDBRANCH  18  19
ENDBRANCH  17  18
ENDBRANCH  16  17
ENDBRANCH  15  16
ENDBRANCH   1  15
TORSDOF 22
ENDMDL
MODEL 2
REMARK VINA RESULT:    -2.025      4.099      8.682
REMARK INTER + INTRA:          -6.906
REMARK INTER:                  -5.470
REMARK INTRA:                  -1.436
REMARK UNBOUND:                -2.277
REMARK SMILES CCCCCCCCCCCCCCCCCCCCCCCC(=O)[O-]
REMARK SMILES IDX 13 1 14 2 15 3 16 4 17 5 18 6 19 7 20 8 21 9 22 10 23 11
REMARK SMILES IDX 24 12 25 13 26 14 12 15 11 16 10 17 9 18 8 19 7 20 6 21 5 22
REMARK SMILES IDX 4 23 3 24 2 25 1 26
REMARK H PARENT
REMARK Flexibility Score: inf
ROOT
ATOM      1  C   UNL     1     -19.471  45.047  -7.014  1.00  0.00     0.000 C 
ENDROOT
BRANCH   1   2
ATOM      2  C   UNL     1     -19.440  44.553  -8.472  1.00  0.00     0.000 C 
BRANCH   2   3
ATOM      3  C   UNL     1     -18.298  45.172  -9.296  1.00  0.00     0.000 C 
BRANCH   3   4
ATOM      4  C   UNL     1     -17.978  44.367 -10.567  1.00  0.00     0.000 C 
BRANCH   4   5
ATOM      5  C   UNL     1     -16.595  43.679 -10.537  1.00  0.00     0.000 C 
BRANCH   5   6
ATOM      6  C   UNL     1     -15.440  44.695 -10.542  1.00  0.00     0.000 C 
BRANCH   6   7
ATOM      7  C   UNL     1     -14.471  44.491  -9.367  1.00  0.00     0.000 C 
BRANCH   7   8
ATOM      8  C   UNL     1     -15.110  44.847  -8.012  1.00  0.00     0.000 C 
BRANCH   8   9
ATOM      9  C   UNL     1     -14.538  46.143  -7.413  1.00  0.00     0.000 C 
BRANCH   9  10
ATOM     10  C   UNL     1     -15.081  47.401  -8.113  1.00  0.00     0.006 C 
BRANCH  10  11
ATOM     11  C   UNL     1     -14.599  48.693  -7.437  1.00  0.00     0.053 C 
BRANCH  11  12
ATOM     12  C   UNL     1     -14.797  49.892  -8.316  1.00  0.00     0.041 C 
ATOM     13  O   UNL     1     -14.851  51.045  -7.814  1.00  0.00    -0.550 OA
ATOM     14  O   UNL     1     -14.910  49.733  -9.693  1.00  0.00    -0.550 OA
ENDBRANCH  11  12
ENDBRANCH  10  11
ENDBRANCH   9  10
ENDBRANCH   8   9
ENDBRANCH   7   8
ENDBRANCH   6   7
ENDBRANCH   5   6
ENDBRANCH   4   5
ENDBRANCH   3   4
ENDBRANCH   2   3
ENDBRANCH   1   2
BRANCH   1  15
ATOM     15  C   UNL     1     -18.635  44.221  -6.018  1.00  0.00     0.000 C 
BRANCH  15  16
ATOM     16  C   UNL     1     -19.213  44.220  -4.595  1.00  0.00     0.000 C 
BRANCH  16  17
ATOM     17  C   UNL     1     -18.415  43.275  -3.684  1.00  0.00     0.000 C 
BRANCH  17  18
ATOM     18  C   UNL     1     -16.999  42.994  -4.211  1.00  0.00    -0.000 C 
BRANCH  18  19
ATOM     19  C   UNL     1     -16.941  41.748  -5.108  1.00  0.00    -0.000 C 
BRANCH  19  20
ATOM     20  C   UNL     1     -18.187  40.873  -4.923  1.00  0.00    -0.000 C 
BRANCH  20  21
ATOM     21  C   UNL     1     -18.309  39.849  -6.060  1.00  0.00    -0.000 C 
BRANCH  21  22
ATOM     22  C   UNL     1     -17.600  38.522  -5.739  1.00  0.00    -0.000 C 
BRANCH  22  23
ATOM     23  C   UNL     1     -17.663  37.523  -6.906  1.00  0.00    -0.000 C 
BRANCH  23  24
ATOM     24  C   UNL     1     -18.013  36.116  -6.407  1.00  0.00    -0.000 C 
BRANCH  24  25
ATOM     25  C   UNL     1     -19.463  35.757  -6.752  1.00  0.00    -0.003 C 
ATOM     26  C   UNL     1     -19.895  36.406  -8.064  1.00  0.00     0.004 C 
ENDBRANCH  24  25
ENDBRANCH  23  24
ENDBRANCH  22  23
ENDBRANCH  21  22
ENDBRANCH  20  21
ENDBRANCH  19  20
ENDBRANCH  18  19
ENDBRANCH  17  18
ENDBRANCH  16  17
ENDBRANCH  15  16
ENDBRANCH   1  15
TORSDOF 22
ENDMDL
MODEL 3
REMARK VINA RESULT:    -1.859      3.841      8.415
REMARK INTER + INTRA:          -6.527
REMARK INTER:                  -4.692
REMARK INTRA:                  -1.835
REMARK UNBOUND:                -2.277
REMARK SMILES CCCCCCCCCCCCCCCCCCCCCCCC(=O)[O-]
REMARK SMILES IDX 13 1 14 2 15 3 16 4 17 5 18 6 19 7 20 8 21 9 22 10 23 11
REMARK SMILES IDX 24 12 25 13 26 14 12 15 11 16 10 17 9 18 8 19 7 20 6 21 5 22
REMARK SMILES IDX 4 23 3 24 2 25 1 26
REMARK H PARENT
REMARK Flexibility Score: inf
ROOT
ATOM      1  C   UNL     1     -19.494  44.165  -8.701  1.00  0.00     0.000 C 
ENDROOT
BRANCH   1   2
ATOM      2  C   UNL     1     -18.801  43.310  -9.778  1.00  0.00     0.000 C 
BRANCH   2   3
ATOM      3  C   UNL     1     -18.588  44.060 -11.102  1.00  0.00     0.000 C 
BRANCH   3   4
ATOM      4  C   UNL     1     -18.497  45.584 -10.915  1.00  0.00     0.000 C 
BRANCH   4   5
ATOM      5  C   UNL     1     -17.181  46.053 -10.256  1.00  0.00     0.000 C 
BRANCH   5   6
ATOM      6  C   UNL     1     -15.945  45.395 -10.894  1.00  0.00     0.000 C 
BRANCH   6   7
ATOM      7  C   UNL     1     -15.280  44.366  -9.967  1.00  0.00     0.000 C 
BRANCH   7   8
ATOM      8  C   UNL     1     -14.191  44.995  -9.079  1.00  0.00     0.000 C 
BRANCH   8   9
ATOM      9  C   UNL     1     -14.761  45.604  -7.787  1.00  0.00     0.000 C 
BRANCH   9  10
ATOM     10  C   UNL     1     -14.001  46.869  -7.350  1.00  0.00     0.006 C 
BRANCH  10  11
ATOM     11  C   UNL     1     -14.927  48.087  -7.224  1.00  0.00     0.053 C 
BRANCH  11  12
ATOM     12  C   UNL     1     -14.709  49.073  -8.333  1.00  0.00     0.041 C 
ATOM     13  O   UNL     1     -14.977  50.291  -8.162  1.00  0.00    -0.550 OA
ATOM     14  O   UNL     1     -14.196  48.644  -9.553  1.00  0.00    -0.550 OA
ENDBRANCH  11  12
ENDBRANCH  10  11
ENDBRANCH   9  10
ENDBRANCH   8   9
ENDBRANCH   7   8
ENDBRANCH   6   7
ENDBRANCH   5   6
ENDBRANCH   4   5
ENDBRANCH   3   4
ENDBRANCH   2   3
ENDBRANCH   1   2
BRANCH   1  15
ATOM     15  C   UNL     1     -18.839  44.132  -7.307  1.00  0.00     0.000 C 
BRANCH  15  16
ATOM     16  C   UNL     1     -19.652  44.875  -6.236  1.00  0.00     0.000 C 
BRANCH  16  17
ATOM     17  C   UNL     1     -19.030  44.677  -4.846  1.00  0.00     0.000 C 
BRANCH  17  18
ATOM     18  C   UNL     1     -19.422  43.337  -4.204  1.00  0.00    -0.000 C 
BRANCH  18  19
ATOM     19  C   UNL     1     -18.205  42.549  -3.695  1.00  0.00    -0.000 C 
BRANCH  19  20
ATOM     20  C   UNL     1     -17.544  41.757  -4.829  1.00  0.00    -0.000 C 
BRANCH  20  21
ATOM     21  C   UNL     1     -18.363  40.505  -5.171  1.00  0.00    -0.000 C 
BRANCH  21  22
ATOM     22  C   UNL     1     -17.513  39.402  -5.826  1.00  0.00    -0.000 C 
BRANCH  22  23
ATOM     23  C   UNL     1     -18.364  38.398  -6.622  1.00  0.00    -0.000 C 
BRANCH  23  24
ATOM     24  C   UNL     1     -17.759  36.991  -6.554  1.00  0.00    -0.000 C 
BRANCH  24  25
ATOM     25  C   UNL     1     -18.851  35.933  -6.359  1.00  0.00    -0.003 C 
ATOM     26  C   UNL     1     -19.825  35.923  -7.533  1.00  0.00     0.004 C 
ENDBRANCH  24  25
ENDBRANCH  23  24
ENDBRANCH  22  23
ENDBRANCH  21  22
ENDBRANCH  20  21
ENDBRANCH  19  20
ENDBRANCH  18  19
ENDBRANCH  17  18
ENDBRANCH  16  17
ENDBRANCH  15  16
ENDBRANCH   1  15
TORSDOF 22
ENDMDL
MODEL 4
REMARK VINA RESULT:    -1.601      2.841      7.710
REMARK INTER + INTRA:          -5.937
REMARK INTER:                  -4.181
REMARK INTRA:                  -1.756
REMARK UNBOUND:                -2.277
REMARK SMILES CCCCCCCCCCCCCCCCCCCCCCCC(=O)[O-]
REMARK SMILES IDX 13 1 14 2 15 3 16 4 17 5 18 6 19 7 20 8 21 9 22 10 23 11
REMARK SMILES IDX 24 12 25 13 26 14 12 15 11 16 10 17 9 18 8 19 7 20 6 21 5 22
REMARK SMILES IDX 4 23 3 24 2 25 1 26
REMARK H PARENT
REMARK Flexibility Score: inf
ROOT
ATOM      1  C   UNL     1     -18.227  41.748  -4.429  1.00  0.00     0.000 C 
ENDROOT
BRANCH   1   2
ATOM      2  C   UNL     1     -16.896  42.030  -5.151  1.00  0.00     0.000 C 
BRANCH   2   3
ATOM      3  C   UNL     1     -16.286  43.393  -4.785  1.00  0.00     0.000 C 
BRANCH   3   4
ATOM      4  C   UNL     1     -15.367  43.949  -5.886  1.00  0.00     0.000 C 
BRANCH   4   5
ATOM      5  C   UNL     1     -16.067  44.121  -7.253  1.00  0.00     0.000 C 
BRANCH   5   6
ATOM      6  C   UNL     1     -15.060  44.285  -8.404  1.00  0.00     0.000 C 
BRANCH   6   7
ATOM      7  C   UNL     1     -15.731  44.234  -9.785  1.00  0.00     0.000 C 
BRANCH   7   8
ATOM      8  C   UNL     1     -15.060  45.179 -10.798  1.00  0.00     0.000 C 
BRANCH   8   9
ATOM      9  C   UNL     1     -15.360  46.660 -10.513  1.00  0.00     0.000 C 
BRANCH   9  10
ATOM     10  C   UNL     1     -14.161  47.391  -9.885  1.00  0.00     0.006 C 
BRANCH  10  11
ATOM     11  C   UNL     1     -14.557  48.751  -9.292  1.00  0.00     0.053 C 
BRANCH  11  12
ATOM     12  C   UNL     1     -14.532  48.736  -7.792  1.00  0.00     0.041 C 
ATOM     13  O   UNL     1     -14.952  49.727  -7.140  1.00  0.00    -0.550 OA
ATOM     14  O   UNL     1     -14.055  47.617  -7.117  1.00  0.00    -0.550 OA
ENDBRANCH  11  12
ENDBRANCH  10  11
ENDBRANCH   9  10
ENDBRANCH   8   9
ENDBRANCH   7   8
ENDBRANCH   6   7
ENDBRANCH   5   6
ENDBRANCH   4   5
ENDBRANCH   3   4
ENDBRANCH   2   3
ENDBRANCH   1   2
BRANCH   1  15
ATOM     15  C   UNL     1     -18.578  42.720  -3.287  1.00  0.00     0.000 C 
BRANCH  15  16
ATOM     16  C   UNL     1     -19.238  44.019  -3.775  1.00  0.00     0.000 C 
BRANCH  16  17
ATOM     17  C   UNL     1     -19.486  43.968  -5.290  1.00  0.00     0.000 C 
BRANCH  17  18
ATOM     18  C   UNL     1     -19.866  45.336  -5.877  1.00  0.00    -0.000 C 
BRANCH  18  19
ATOM     19  C   UNL     1     -20.231  45.258  -7.367  1.00  0.00    -0.000 C 
BRANCH  19  20
ATOM     20  C   UNL     1     -19.085  44.653  -8.187  1.00  0.00    -0.000 C 
BRANCH  20  21
ATOM     21  C   UNL     1     -18.989  45.318  -9.567  1.00  0.00    -0.000 C 
BRANCH  21  22
ATOM     22  C   UNL     1     -19.990  44.730 -10.577  1.00  0.00    -0.000 C 
BRANCH  22  23
ATOM     23  C   UNL     1     -19.903  43.197 -10.668  1.00  0.00    -0.000 C 
BRANCH  23  24
ATOM     24  C   UNL     1     -18.490  42.749 -11.057  1.00  0.00    -0.000 C 
BRANCH  24  25
ATOM     25  C   UNL     1     -18.335  41.231 -10.908  1.00  0.00    -0.003 C 
ATOM     26  C   UNL     1     -16.887  40.801 -11.125  1.00  0.00     0.004 C 
ENDBRANCH  24  25
ENDBRANCH  23  24
ENDBRANCH  22  23
ENDBRANCH  21  22
ENDBRANCH  20  21
ENDBRANCH  19  20
ENDBRANCH  18  19
ENDBRANCH  17  18
ENDBRANCH  16  17
ENDBRANCH  15  16
ENDBRANCH   1  15
TORSDOF 22
ENDMDL
MODEL 5
REMARK VINA RESULT:    -1.483      1.860      3.404
REMARK INTER + INTRA:          -5.668
REMARK INTER:                  -4.158
REMARK INTRA:                  -1.510
REMARK UNBOUND:                -2.277
REMARK SMILES CCCCCCCCCCCCCCCCCCCCCCCC(=O)[O-]
REMARK SMILES IDX 13 1 14 2 15 3 16 4 17 5 18 6 19 7 20 8 21 9 22 10 23 11
REMARK SMILES IDX 24 12 25 13 26 14 12 15 11 16 10 17 9 18 8 19 7 20 6 21 5 22
REMARK SMILES IDX 4 23 3 24 2 25 1 26
REMARK H PARENT
REMARK Flexibility Score: inf
ROOT
ATOM      1  C   UNL     1     -19.856  43.126  -9.594  1.00  0.00     0.000 C 
ENDROOT
BRANCH   1   2
ATOM      2  C   UNL     1     -19.600  44.641  -9.688  1.00  0.00     0.000 C 
BRANCH   2   3
ATOM      3  C   UNL     1     -18.796  45.194  -8.500  1.00  0.00     0.000 C 
BRANCH   3   4
ATOM      4  C   UNL     1     -19.067  44.432  -7.191  1.00  0.00     0.000 C 
BRANCH   4   5
ATOM      5  C   UNL     1     -19.590  45.327  -6.047  1.00  0.00     0.000 C 
BRANCH   5   6
ATOM      6  C   UNL     1     -19.982  44.510  -4.803  1.00  0.00     0.000 C 
BRANCH   6   7
ATOM      7  C   UNL     1     -18.765  44.112  -3.953  1.00  0.00     0.000 C 
BRANCH   7   8
ATOM      8  C   UNL     1     -18.964  42.761  -3.241  1.00  0.00     0.000 C 
BRANCH   8   9
ATOM      9  C   UNL     1     -18.958  41.573  -4.217  1.00  0.00     0.000 C 
BRANCH   9  10
ATOM     10  C   UNL     1     -17.911  41.738  -5.334  1.00  0.00     0.006 C 
BRANCH  10  11
ATOM     11  C   UNL     1     -16.522  42.083  -4.778  1.00  0.00     0.053 C 
BRANCH  11  12
ATOM     12  C   UNL     1     -15.974  43.341  -5.384  1.00  0.00     0.041 C 
ATOM     13  O   UNL     1     -16.113  43.565  -6.615  1.00  0.00    -0.550 OA
ATOM     14  O   UNL     1     -15.321  44.271  -4.583  1.00  0.00    -0.550 OA
ENDBRANCH  11  12
ENDBRANCH  10  11
ENDBRANCH   9  10
ENDBRANCH   8   9
ENDBRANCH   7   8
ENDBRANCH   6   7
ENDBRANCH   5   6
ENDBRANCH   4   5
ENDBRANCH   3   4
ENDBRANCH   2   3
ENDBRANCH   1   2
BRANCH   1  15
ATOM     15  C   UNL     1     -18.669  42.228  -9.993  1.00  0.00     0.000 C 
BRANCH  15  16
ATOM     16  C   UNL     1     -17.815  42.819 -11.125  1.00  0.00     0.000 C 
BRANCH  16  17
ATOM     17  C   UNL     1     -16.331  42.849 -10.730  1.00  0.00     0.000 C 
BRANCH  17  18
ATOM     18  C   UNL     1     -15.840  44.259 -10.367  1.00  0.00    -0.000 C 
BRANCH  18  19
ATOM     19  C   UNL     1     -14.361  44.477 -10.721  1.00  0.00    -0.000 C 
BRANCH  19  20
ATOM     20  C   UNL     1     -14.021  45.971 -10.784  1.00  0.00    -0.000 C 
BRANCH  20  21
ATOM     21  C   UNL     1     -14.886  46.770  -9.799  1.00  0.00    -0.000 C 
BRANCH  21  22
ATOM     22  C   UNL     1     -14.114  47.922  -9.134  1.00  0.00    -0.000 C 
BRANCH  22  23
ATOM     23  C   UNL     1     -14.282  47.938  -7.605  1.00  0.00    -0.000 C 
BRANCH  23  24
ATOM     24  C   UNL     1     -14.455  49.370  -7.086  1.00  0.00    -0.000 C 
BRANCH  24  25
ATOM     25  C   UNL     1     -14.875  50.317  -8.217  1.00  0.00    -0.003 C 
ATOM     26  C   UNL     1     -14.866  51.770  -7.750  1.00  0.00     0.004 C 
ENDBRANCH  24  25
ENDBRANCH  23  24
ENDBRANCH  22  23
ENDBRANCH  21  22
ENDBRANCH  20  21
ENDBRANCH  19  20
ENDBRANCH  18  19
ENDBRANCH  17  18
ENDBRANCH  16  17
ENDBRANCH  15  16
ENDBRANCH   1  15
TORSDOF 22
ENDMDL
MODEL 6
REMARK VINA RESULT:    -1.476      3.352      5.531
REMARK INTER + INTRA:          -5.652
REMARK INTER:                  -4.635
REMARK INTRA:                  -1.017
REMARK UNBOUND:                -2.277
REMARK SMILES CCCCCCCCCCCCCCCCCCCCCCCC(=O)[O-]
REMARK SMILES IDX 13 1 14 2 15 3 16 4 17 5 18 6 19 7 20 8 21 9 22 10 23 11
REMARK SMILES IDX 24 12 25 13 26 14 12 15 11 16 10 17 9 18 8 19 7 20 6 21 5 22
REMARK SMILES IDX 4 23 3 24 2 25 1 26
REMARK H PARENT
REMARK Flexibility Score: inf
ROOT
ATOM      1  C   UNL     1     -18.122  43.870  -7.020  1.00  0.00     0.000 C 
ENDROOT
BRANCH   1   2
ATOM      2  C   UNL     1     -16.644  44.125  -6.671  1.00  0.00     0.000 C 
BRANCH   2   3
ATOM      3  C   UNL     1     -16.131  43.236  -5.526  1.00  0.00     0.000 C 
BRANCH   3   4
ATOM      4  C   UNL     1     -16.856  43.503  -4.195  1.00  0.00     0.000 C 
BRANCH   4   5
ATOM      5  C   UNL     1     -18.347  43.101  -4.207  1.00  0.00     0.000 C 
BRANCH   5   6
ATOM      6  C   UNL     1     -18.538  41.575  -4.167  1.00  0.00     0.000 C 
BRANCH   6   7
ATOM      7  C   UNL     1     -17.930  40.874  -5.391  1.00  0.00     0.000 C 
BRANCH   7   8
ATOM      8  C   UNL     1     -18.459  39.438  -5.567  1.00  0.00     0.000 C 
BRANCH   8   9
ATOM      9  C   UNL     1     -17.339  38.429  -5.868  1.00  0.00     0.000 C 
BRANCH   9  10
ATOM     10  C   UNL     1     -17.766  37.369  -6.899  1.00  0.00     0.006 C 
BRANCH  10  11
ATOM     11  C   UNL     1     -18.260  36.078  -6.231  1.00  0.00     0.053 C 
BRANCH  11  12
ATOM     12  C   UNL     1     -19.428  35.482  -6.960  1.00  0.00     0.041 C 
ATOM     13  O   UNL     1     -20.085  36.175  -7.780  1.00  0.00    -0.550 OA
ATOM     14  O   UNL     1     -19.780  34.155  -6.740  1.00  0.00    -0.550 OA
ENDBRANCH  11  12
ENDBRANCH  10  11
ENDBRANCH   9  10
ENDBRANCH   8   9
ENDBRANCH   7   8
ENDBRANCH   6   7
ENDBRANCH   5   6
ENDBRANCH   4   5
ENDBRANCH   3   4
ENDBRANCH   2   3
ENDBRANCH   1   2
BRANCH   1  15
ATOM     15  C   UNL     1     -18.813  44.985  -7.828  1.00  0.00     0.000 C 
BRANCH  15  16
ATOM     16  C   UNL     1     -19.242  44.539  -9.234  1.00  0.00     0.000 C 
BRANCH  16  17
ATOM     17  C   UNL     1     -19.213  43.008  -9.353  1.00  0.00     0.000 C 
BRANCH  17  18
ATOM     18  C   UNL     1     -17.976  42.493 -10.105  1.00  0.00    -0.000 C 
BRANCH  18  19
ATOM     19  C   UNL     1     -17.431  43.515 -11.114  1.00  0.00    -0.000 C 
BRANCH  19  20
ATOM     20  C   UNL     1     -15.928  43.743 -10.915  1.00  0.00    -0.000 C 
BRANCH  20  21
ATOM     21  C   UNL     1     -15.585  45.237 -11.009  1.00  0.00    -0.000 C 
BRANCH  21  22
ATOM     22  C   UNL     1     -15.786  45.975  -9.674  1.00  0.00    -0.000 C 
BRANCH  22  23
ATOM     23  C   UNL     1     -14.455  46.332  -8.992  1.00  0.00    -0.000 C 
BRANCH  23  24
ATOM     24  C   UNL     1     -14.162  47.833  -9.110  1.00  0.00    -0.000 C 
BRANCH  24  25
ATOM     25  C   UNL     1     -14.183  48.507  -7.734  1.00  0.00    -0.003 C 
ATOM     26  C   UNL     1     -14.831  49.887  -7.806  1.00  0.00     0.004 C 
ENDBRANCH  24  25
ENDBRANCH  23  24
ENDBRANCH  22  23
ENDBRANCH  21  22
ENDBRANCH  20  21
ENDBRANCH  19  20
ENDBRANCH  18  19
ENDBRANCH  17  18
ENDBRANCH  16  17
ENDBRANCH  15  16
ENDBRANCH   1  15
TORSDOF 22
ENDMDL
MODEL 7
REMARK VINA RESULT:    -1.214      3.471      7.576
REMARK INTER + INTRA:          -5.053
REMARK INTER:                  -5.076
REMARK INTRA:                   0.023
REMARK UNBOUND:                -2.277
REMARK SMILES CCCCCCCCCCCCCCCCCCCCCCCC(=O)[O-]
REMARK SMILES IDX 13 1 14 2 15 3 16 4 17 5 18 6 19 7 20 8 21 9 22 10 23 11
REMARK SMILES IDX 24 12 25 13 26 14 12 15 11 16 10 17 9 18 8 19 7 20 6 21 5 22
REMARK SMILES IDX 4 23 3 24 2 25 1 26
REMARK H PARENT
REMARK Flexibility Score: inf
ROOT
ATOM      1  C   UNL     1     -16.541  46.795 -10.296  1.00  0.00     0.000 C 
ENDROOT
BRANCH   1   2
ATOM      2  C   UNL     1     -15.663  45.712 -10.949  1.00  0.00     0.000 C 
BRANCH   2   3
ATOM      3  C   UNL     1     -14.191  45.779 -10.509  1.00  0.00     0.000 C 
BRANCH   3   4
ATOM      4  C   UNL     1     -14.033  45.982  -8.992  1.00  0.00     0.000 C 
BRANCH   4   5
ATOM      5  C   UNL     1     -15.359  45.872  -8.207  1.00  0.00     0.000 C 
BRANCH   5   6
ATOM      6  C   UNL     1     -15.510  46.992  -7.163  1.00  0.00     0.000 C 
BRANCH   6   7
ATOM      7  C   UNL     1     -14.162  47.433  -6.573  1.00  0.00     0.000 C 
BRANCH   7   8
ATOM      8  C   UNL     1     -13.886  48.931  -6.796  1.00  0.00     0.000 C 
BRANCH   8   9
ATOM      9  C   UNL     1     -15.071  49.658  -7.453  1.00  0.00     0.000 C 
BRANCH   9  10
ATOM     10  C   UNL     1     -14.775  50.068  -8.906  1.00  0.00     0.006 C 
BRANCH  10  11
ATOM     11  C   UNL     1     -14.363  51.543  -9.019  1.00  0.00     0.053 C 
BRANCH  11  12
ATOM     12  C   UNL     1     -14.782  52.334  -7.816  1.00  0.00     0.041 C 
ATOM     13  O   UNL     1     -14.013  52.438  -6.825  1.00  0.00    -0.550 OA
ATOM     14  O   UNL     1     -16.020  52.968  -7.799  1.00  0.00    -0.550 OA
ENDBRANCH  11  12
ENDBRANCH  10  11
ENDBRANCH   9  10
ENDBRANCH   8   9
ENDBRANCH   7   8
ENDBRANCH   6   7
ENDBRANCH   5   6
ENDBRANCH   4   5
ENDBRANCH   3   4
ENDBRANCH   2   3
ENDBRANCH   1   2
BRANCH   1  15
ATOM     15  C   UNL     1     -18.060  46.555 -10.380  1.00  0.00     0.000 C 
BRANCH  15  16
ATOM     16  C   UNL     1     -18.428  45.223 -11.052  1.00  0.00     0.000 C 
BRANCH  16  17
ATOM     17  C   UNL     1     -19.931  44.940 -10.915  1.00  0.00     0.000 C 
BRANCH  17  18
ATOM     18  C   UNL     1     -20.229  43.481 -10.533  1.00  0.00    -0.000 C 
BRANCH  18  19
ATOM     19  C   UNL     1     -19.834  43.159  -9.084  1.00  0.00    -0.000 C 
BRANCH  19  20
ATOM     20  C   UNL     1     -18.374  43.541  -8.810  1.00  0.00    -0.000 C 
BRANCH  20  21
ATOM     21  C   UNL     1     -18.265  44.409  -7.548  1.00  0.00    -0.000 C 
BRANCH  21  22
ATOM     22  C   UNL     1     -18.557  43.620  -6.260  1.00  0.00    -0.000 C 
BRANCH  22  23
ATOM     23  C   UNL     1     -17.595  42.436  -6.064  1.00  0.00    -0.000 C 
BRANCH  23  24
ATOM     24  C   UNL     1     -17.456  42.082  -4.579  1.00  0.00    -0.000 C 
BRANCH  24  25
ATOM     25  C   UNL     1     -18.153  43.125  -3.698  1.00  0.00    -0.003 C 
ATOM     26  C   UNL     1     -19.323  42.509  -2.935  1.00  0.00     0.004 C 
ENDBRANCH  24  25
ENDBRANCH  23  24
ENDBRANCH  22  23
ENDBRANCH  21  22
ENDBRANCH  20  21
ENDBRANCH  19  20
ENDBRANCH  18  19
ENDBRANCH  17  18
ENDBRANCH  16  17
ENDBRANCH  15  16
ENDBRANCH   1  15
TORSDOF 22
ENDMDL
MODEL 8
REMARK VINA RESULT:    -1.071      3.422      8.575
REMARK INTER + INTRA:          -4.726
REMARK INTER:                  -2.590
REMARK INTRA:                  -2.135
REMARK UNBOUND:                -2.277
REMARK SMILES CCCCCCCCCCCCCCCCCCCCCCCC(=O)[O-]
REMARK SMILES IDX 13 1 14 2 15 3 16 4 17 5 18 6 19 7 20 8 21 9 22 10 23 11
REMARK SMILES IDX 24 12 25 13 26 14 12 15 11 16 10 17 9 18 8 19 7 20 6 21 5 22
REMARK SMILES IDX 4 23 3 24 2 25 1 26
REMARK H PARENT
REMARK Flexibility Score: inf
ROOT
ATOM      1  C   UNL     1     -15.045  46.581  -7.313  1.00  0.00     0.000 C 
ENDROOT
BRANCH   1   2
ATOM      2  C   UNL     1     -13.907  47.481  -6.798  1.00  0.00     0.000 C 
BRANCH   2   3
ATOM      3  C   UNL     1     -13.875  48.863  -7.472  1.00  0.00     0.000 C 
BRANCH   3   4
ATOM      4  C   UNL     1     -14.813  48.953  -8.688  1.00  0.00     0.000 C 
BRANCH   4   5
ATOM      5  C   UNL     1     -14.072  49.094 -10.036  1.00  0.00     0.000 C 
BRANCH   5   6
ATOM      6  C   UNL     1     -14.659  48.173 -11.121  1.00  0.00     0.000 C 
BRANCH   6   7
ATOM      7  C   UNL     1     -14.317  46.694 -10.884  1.00  0.00     0.000 C 
BRANCH   7   8
ATOM      8  C   UNL     1     -15.541  45.775 -11.053  1.00  0.00     0.000 C 
BRANCH   8   9
ATOM      9  C   UNL     1     -16.872  46.526 -10.877  1.00  0.00     0.000 C 
BRANCH   9  10
ATOM     10  C   UNL     1     -17.854  45.772  -9.964  1.00  0.00     0.006 C 
BRANCH  10  11
ATOM     11  C   UNL     1     -18.545  44.610 -10.691  1.00  0.00     0.053 C 
BRANCH  11  12
ATOM     12  C   UNL     1     -18.262  43.291 -10.035  1.00  0.00     0.041 C 
ATOM     13  O   UNL     1     -17.609  42.405 -10.646  1.00  0.00    -0.550 OA
ATOM     14  O   UNL     1     -18.711  43.049  -8.741  1.00  0.00    -0.550 OA
ENDBRANCH  11  12
ENDBRANCH  10  11
ENDBRANCH   9  10
ENDBRANCH   8   9
ENDBRANCH   7   8
ENDBRANCH   6   7
ENDBRANCH   5   6
ENDBRANCH   4   5
ENDBRANCH   3   4
ENDBRANCH   2   3
ENDBRANCH   1   2
BRANCH   1  15
ATOM     15  C   UNL     1     -14.667  45.106  -7.545  1.00  0.00     0.000 C 
BRANCH  15  16
ATOM     16  C   UNL     1     -15.804  44.128  -7.209  1.00  0.00     0.000 C 
BRANCH  16  17
ATOM     17  C   UNL     1     -16.003  44.025  -5.690  1.00  0.00     0.000 C 
BRANCH  17  18
ATOM     18  C   UNL     1     -17.361  43.416  -5.307  1.00  0.00    -0.000 C 
BRANCH  18  19
ATOM     19  C   UNL     1     -17.243  41.958  -4.838  1.00  0.00    -0.000 C 
BRANCH  19  20
ATOM     20  C   UNL     1     -17.844  40.995  -5.868  1.00  0.00    -0.000 C 
BRANCH  20  21
ATOM     21  C   UNL     1     -17.936  39.573  -5.298  1.00  0.00    -0.000 C 
BRANCH  21  22
ATOM     22  C   UNL     1     -18.734  38.621  -6.207  1.00  0.00    -0.000 C 
BRANCH  22  23
ATOM     23  C   UNL     1     -17.852  37.531  -6.837  1.00  0.00    -0.000 C 
BRANCH  23  24
ATOM     24  C   UNL     1     -18.050  36.186  -6.128  1.00  0.00    -0.000 C 
BRANCH  24  25
ATOM     25  C   UNL     1     -19.218  35.407  -6.745  1.00  0.00    -0.003 C 
ATOM     26  C   UNL     1     -19.930  36.234  -7.811  1.00  0.00     0.004 C 
ENDBRANCH  24  25
ENDBRANCH  23  24
ENDBRANCH  22  23
ENDBRANCH  21  22
ENDBRANCH  20  21
ENDBRANCH  19  20
ENDBRANCH  18  19
ENDBRANCH  17  18
ENDBRANCH  16  17
ENDBRANCH  15  16
ENDBRANCH   1  15
TORSDOF 22
ENDMDL
