MODEL 1
REMARK VINA RESULT:    -2.381      0.000      0.000
REMARK INTER + INTRA:          -7.856
REMARK INTER:                  -5.444
REMARK INTRA:                  -2.412
REMARK UNBOUND:                -2.412
REMARK SMILES CCCCCCCCCCCCCCCCCCCCCCCC(=O)[O-]
REMARK SMILES IDX 13 1 14 2 15 3 16 4 17 5 18 6 19 7 20 8 21 9 22 10 23 11
REMARK SMILES IDX 24 12 25 13 26 14 12 15 11 16 10 17 9 18 8 19 7 20 6 21 5 22
REMARK SMILES IDX 4 23 3 24 2 25 1 26
REMARK H PARENT
REMARK Flexibility Score: inf
ROOT
ATOM      1  C   UNL     1      60.740  24.995  23.683  1.00  0.00     0.000 C 
ENDROOT
BRANCH   1   2
ATOM      2  C   UNL     1      61.252  25.899  22.547  1.00  0.00     0.000 C 
BRANCH   2   3
ATOM      3  C   UNL     1      62.757  26.230  22.600  1.00  0.00     0.000 C 
BRANCH   3   4
ATOM      4  C   UNL     1      63.677  25.200  21.916  1.00  0.00     0.000 C 
BRANCH   4   5
ATOM      5  C   UNL     1      64.109  24.016  22.807  1.00  0.00     0.000 C 
BRANCH   5   6
ATOM      6  C   UNL     1      63.989  22.624  22.154  1.00  0.00     0.000 C 
BRANCH   6   7
ATOM      7  C   UNL     1      62.897  21.724  22.763  1.00  0.00     0.000 C 
BRANCH   7   8
ATOM      8  C   UNL     1      61.497  22.048  22.215  1.00  0.00     0.000 C 
BRANCH   8   9
ATOM      9  C   UNL     1      61.040  21.034  21.154  1.00  0.00     0.000 C 
BRANCH   9  10
ATOM     10  C   UNL     1      60.580  21.721  19.856  1.00  0.00     0.006 C 
BRANCH  10  11
ATOM     11  C   UNL     1      61.569  22.794  19.379  1.00  0.00     0.053 C 
BRANCH  11  12
ATOM     12  C   UNL     1      62.785  22.203  18.728  1.00  0.00     0.041 C 
ATOM     13  O   UNL     1      63.395  22.833  17.822  1.00  0.00    -0.550 OA
ATOM     14  O   UNL     1      63.235  20.948  19.117  1.00  0.00    -0.550 OA
ENDBRANCH  11  12
ENDBRANCH  10  11
ENDBRANCH   9  10
ENDBRANCH   8   9
ENDBRANCH   7   8
ENDBRANCH   6   7
ENDBRANCH   5   6
ENDBRANCH   4   5
ENDBRANCH   3   4
ENDBRANCH   2   3
ENDBRANCH   1   2
BRANCH   1  15
ATOM     15  C   UNL     1      61.610  25.078  24.949  1.00  0.00     0.000 C 
BRANCH  15  16
ATOM     16  C   UNL     1      61.094  24.185  26.090  1.00  0.00     0.000 C 
BRANCH  16  17
ATOM     17  C   UNL     1      61.727  22.782  26.084  1.00  0.00     0.000 C 
BRANCH  17  18
ATOM     18  C   UNL     1      60.861  21.732  25.362  1.00  0.00    -0.000 C 
BRANCH  18  19
ATOM     19  C   UNL     1      59.525  21.391  26.049  1.00  0.00    -0.000 C 
BRANCH  19  20
ATOM     20  C   UNL     1      58.348  22.229  25.526  1.00  0.00    -0.000 C 
BRANCH  20  21
ATOM     21  C   UNL     1      58.539  22.573  24.044  1.00  0.00    -0.000 C 
BRANCH  21  22
ATOM     22  C   UNL     1      57.942  21.481  23.144  1.00  0.00    -0.000 C 
BRANCH  22  23
ATOM     23  C   UNL     1      56.596  21.890  22.520  1.00  0.00    -0.000 C 
BRANCH  23  24
ATOM     24  C   UNL     1      55.496  22.264  23.531  1.00  0.00    -0.000 C 
BRANCH  24  25
ATOM     25  C   UNL     1      54.130  21.653  23.186  1.00  0.00    -0.003 C 
ATOM     26  C   UNL     1      53.295  21.432  24.446  1.00  0.00     0.004 C 
ENDBRANCH  24  25
ENDBRANCH  23  24
ENDBRANCH  22  23
ENDBRANCH  21  22
ENDBRANCH  20  21
ENDBRANCH  19  20
ENDBRANCH  18  19
ENDBRANCH  17  18
ENDBRANCH  16  17
ENDBRANCH  15  16
ENDBRANCH   1  15
TORSDOF 22
ENDMDL
MODEL 2
REMARK VINA RESULT:    -1.740      3.260      5.979
REMARK INTER + INTRA:          -6.389
REMARK INTER:                  -5.423
REMARK INTRA:                  -0.966
REMARK UNBOUND:                -2.412
REMARK SMILES CCCCCCCCCCCCCCCCCCCCCCCC(=O)[O-]
REMARK SMILES IDX 13 1 14 2 15 3 16 4 17 5 18 6 19 7 20 8 21 9 22 10 23 11
REMARK SMILES IDX 24 12 25 13 26 14 12 15 11 16 10 17 9 18 8 19 7 20 6 21 5 22
REMARK SMILES IDX 4 23 3 24 2 25 1 26
REMARK H PARENT
REMARK Flexibility Score: inf
ROOT
ATOM      1  C   UNL     1      62.942  26.173  24.594  1.00  0.00     0.000 C 
ENDROOT
BRANCH   1   2
ATOM      2  C   UNL     1      61.626  25.648  23.994  1.00  0.00     0.000 C 
BRANCH   2   3
ATOM      3  C   UNL     1      61.683  25.296  22.494  1.00  0.00     0.000 C 
BRANCH   3   4
ATOM      4  C   UNL     1      61.073  23.932  22.118  1.00  0.00     0.000 C 
BRANCH   4   5
ATOM      5  C   UNL     1      60.836  22.974  23.304  1.00  0.00     0.000 C 
BRANCH   5   6
ATOM      6  C   UNL     1      59.831  23.472  24.363  1.00  0.00     0.000 C 
BRANCH   6   7
ATOM      7  C   UNL     1      59.055  22.354  25.085  1.00  0.00     0.000 C 
BRANCH   7   8
ATOM      8  C   UNL     1      58.156  21.554  24.128  1.00  0.00     0.000 C 
BRANCH   8   9
ATOM      9  C   UNL     1      57.855  22.324  22.832  1.00  0.00     0.000 C 
BRANCH   9  10
ATOM     10  C   UNL     1      56.452  22.013  22.284  1.00  0.00     0.006 C 
BRANCH  10  11
ATOM     11  C   UNL     1      55.667  21.056  23.192  1.00  0.00     0.053 C 
BRANCH  11  12
ATOM     12  C   UNL     1      54.433  21.691  23.762  1.00  0.00     0.041 C 
ATOM     13  O   UNL     1      53.535  20.981  24.291  1.00  0.00    -0.550 OA
ATOM     14  O   UNL     1      54.273  23.069  23.698  1.00  0.00    -0.550 OA
ENDBRANCH  11  12
ENDBRANCH  10  11
ENDBRANCH   9  10
ENDBRANCH   8   9
ENDBRANCH   7   8
ENDBRANCH   6   7
ENDBRANCH   5   6
ENDBRANCH   4   5
ENDBRANCH   3   4
ENDBRANCH   2   3
ENDBRANCH   1   2
BRANCH   1  15
ATOM     15  C   UNL     1      63.967  25.055  24.856  1.00  0.00     0.000 C 
BRANCH  15  16
ATOM     16  C   UNL     1      63.656  24.244  26.125  1.00  0.00     0.000 C 
BRANCH  16  17
ATOM     17  C   UNL     1      64.062  22.764  26.003  1.00  0.00     0.000 C 
BRANCH  17  18
ATOM     18  C   UNL     1      62.933  21.871  25.456  1.00  0.00    -0.000 C 
BRANCH  18  19
ATOM     19  C   UNL     1      63.344  20.894  24.339  1.00  0.00    -0.000 C 
BRANCH  19  20
ATOM     20  C   UNL     1      64.125  21.572  23.203  1.00  0.00    -0.000 C 
BRANCH  20  21
ATOM     21  C   UNL     1      63.516  21.226  21.839  1.00  0.00    -0.000 C 
BRANCH  21  22
ATOM     22  C   UNL     1      64.111  22.108  20.731  1.00  0.00    -0.000 C 
BRANCH  22  23
ATOM     23  C   UNL     1      63.039  22.705  19.802  1.00  0.00    -0.000 C 
BRANCH  23  24
ATOM     24  C   UNL     1      62.402  21.707  18.817  1.00  0.00    -0.000 C 
BRANCH  24  25
ATOM     25  C   UNL     1      60.868  21.686  18.890  1.00  0.00    -0.003 C 
ATOM     26  C   UNL     1      60.388  21.724  20.339  1.00  0.00     0.004 C 
ENDBRANCH  24  25
ENDBRANCH  23  24
ENDBRANCH  22  23
ENDBRANCH  21  22
ENDBRANCH  20  21
ENDBRANCH  19  20
ENDBRANCH  18  19
ENDBRANCH  17  18
ENDBRANCH  16  17
ENDBRANCH  15  16
ENDBRANCH   1  15
TORSDOF 22
ENDMDL
MODEL 3
REMARK VINA RESULT:    -1.093      1.619      4.872
REMARK INTER + INTRA:          -4.911
REMARK INTER:                  -2.731
REMARK INTRA:                  -2.180
REMARK UNBOUND:                -2.412
REMARK SMILES CCCCCCCCCCCCCCCCCCCCCCCC(=O)[O-]
REMARK SMILES IDX 13 1 14 2 15 3 16 4 17 5 18 6 19 7 20 8 21 9 22 10 23 11
REMARK SMILES IDX 24 12 25 13 26 14 12 15 11 16 10 17 9 18 8 19 7 20 6 21 5 22
REMARK SMILES IDX 4 23 3 24 2 25 1 26
REMARK H PARENT
REMARK Flexibility Score: inf
ROOT
ATOM      1  C   UNL     1      60.572  21.644  24.175  1.00  0.00     0.000 C 
ENDROOT
BRANCH   1   2
ATOM      2  C   UNL     1      60.726  20.881  25.503  1.00  0.00     0.000 C 
BRANCH   2   3
ATOM      3  C   UNL     1      62.146  20.893  26.104  1.00  0.00     0.000 C 
BRANCH   3   4
ATOM      4  C   UNL     1      62.865  22.255  26.056  1.00  0.00     0.000 C 
BRANCH   4   5
ATOM      5  C   UNL     1      64.119  22.301  25.158  1.00  0.00     0.000 C 
BRANCH   5   6
ATOM      6  C   UNL     1      64.125  23.416  24.092  1.00  0.00     0.000 C 
BRANCH   6   7
ATOM      7  C   UNL     1      63.980  22.916  22.643  1.00  0.00     0.000 C 
BRANCH   7   8
ATOM      8  C   UNL     1      63.325  21.526  22.565  1.00  0.00     0.000 C 
BRANCH   8   9
ATOM      9  C   UNL     1      62.631  21.286  21.215  1.00  0.00     0.000 C 
BRANCH   9  10
ATOM     10  C   UNL     1      62.046  22.580  20.624  1.00  0.00     0.006 C 
BRANCH  10  11
ATOM     11  C   UNL     1      61.549  22.394  19.184  1.00  0.00     0.053 C 
BRANCH  11  12
ATOM     12  C   UNL     1      62.669  22.116  18.224  1.00  0.00     0.041 C 
ATOM     13  O   UNL     1      63.041  22.998  17.403  1.00  0.00    -0.550 OA
ATOM     14  O   UNL     1      63.293  20.875  18.231  1.00  0.00    -0.550 OA
ENDBRANCH  11  12
ENDBRANCH  10  11
ENDBRANCH   9  10
ENDBRANCH   8   9
ENDBRANCH   7   8
ENDBRANCH   6   7
ENDBRANCH   5   6
ENDBRANCH   4   5
ENDBRANCH   3   4
ENDBRANCH   2   3
ENDBRANCH   1   2
BRANCH   1  15
ATOM     15  C   UNL     1      59.619  20.944  23.191  1.00  0.00     0.000 C 
BRANCH  15  16
ATOM     16  C   UNL     1      58.846  21.932  22.301  1.00  0.00     0.000 C 
BRANCH  16  17
ATOM     17  C   UNL     1      57.390  22.136  22.758  1.00  0.00     0.000 C 
BRANCH  17  18
ATOM     18  C   UNL     1      57.180  23.450  23.535  1.00  0.00    -0.000 C 
BRANCH  18  19
ATOM     19  C   UNL     1      57.338  23.347  25.063  1.00  0.00    -0.000 C 
BRANCH  19  20
ATOM     20  C   UNL     1      58.711  23.822  25.561  1.00  0.00    -0.000 C 
BRANCH  20  21
ATOM     21  C   UNL     1      59.315  24.852  24.598  1.00  0.00    -0.000 C 
BRANCH  21  22
ATOM     22  C   UNL     1      60.751  24.469  24.213  1.00  0.00    -0.000 C 
BRANCH  22  23
ATOM     23  C   UNL     1      61.224  25.149  22.916  1.00  0.00    -0.000 C 
BRANCH  23  24
ATOM     24  C   UNL     1      62.013  26.456  23.116  1.00  0.00    -0.000 C 
BRANCH  24  25
ATOM     25  C   UNL     1      63.497  26.220  23.431  1.00  0.00    -0.003 C 
ATOM     26  C   UNL     1      63.870  26.805  24.792  1.00  0.00     0.004 C 
ENDBRANCH  24  25
ENDBRANCH  23  24
ENDBRANCH  22  23
ENDBRANCH  21  22
ENDBRANCH  20  21
ENDBRANCH  19  20
ENDBRANCH  18  19
ENDBRANCH  17  18
ENDBRANCH  16  17
ENDBRANCH  15  16
ENDBRANCH   1  15
TORSDOF 22
ENDMDL
MODEL 4
REMARK VINA RESULT:    -0.613      3.245      6.359
REMARK INTER + INTRA:          -3.813
REMARK INTER:                  -3.834
REMARK INTRA:                   0.021
REMARK UNBOUND:                -2.412
REMARK SMILES CCCCCCCCCCCCCCCCCCCCCCCC(=O)[O-]
REMARK SMILES IDX 13 1 14 2 15 3 16 4 17 5 18 6 19 7 20 8 21 9 22 10 23 11
REMARK SMILES IDX 24 12 25 13 26 14 12 15 11 16 10 17 9 18 8 19 7 20 6 21 5 22
REMARK SMILES IDX 4 23 3 24 2 25 1 26
REMARK H PARENT
REMARK Flexibility Score: inf
ROOT
ATOM      1  C   UNL     1      59.422  25.357  24.015  1.00  0.00     0.000 C 
ENDROOT
BRANCH   1   2
ATOM      2  C   UNL     1      58.586  24.350  24.824  1.00  0.00     0.000 C 
BRANCH   2   3
ATOM      3  C   UNL     1      59.244  23.847  26.125  1.00  0.00     0.000 C 
BRANCH   3   4
ATOM      4  C   UNL     1      60.555  23.061  25.933  1.00  0.00     0.000 C 
BRANCH   4   5
ATOM      5  C   UNL     1      60.451  21.835  25.000  1.00  0.00     0.000 C 
BRANCH   5   6
ATOM      6  C   UNL     1      60.078  22.152  23.537  1.00  0.00     0.000 C 
BRANCH   6   7
ATOM      7  C   UNL     1      59.941  20.914  22.631  1.00  0.00     0.000 C 
BRANCH   7   8
ATOM      8  C   UNL     1      58.734  21.013  21.681  1.00  0.00     0.000 C 
BRANCH   8   9
ATOM      9  C   UNL     1      57.397  20.877  22.426  1.00  0.00     0.000 C 
BRANCH   9  10
ATOM     10  C   UNL     1      56.800  22.245  22.802  1.00  0.00     0.006 C 
BRANCH  10  11
ATOM     11  C   UNL     1      55.333  22.382  22.371  1.00  0.00     0.053 C 
BRANCH  11  12
ATOM     12  C   UNL     1      54.380  22.164  23.509  1.00  0.00     0.041 C 
ATOM     13  O   UNL     1      53.777  23.139  24.034  1.00  0.00    -0.550 OA
ATOM     14  O   UNL     1      54.168  20.880  23.996  1.00  0.00    -0.550 OA
ENDBRANCH  11  12
ENDBRANCH  10  11
ENDBRANCH   9  10
ENDBRANCH   8   9
ENDBRANCH   7   8
ENDBRANCH   6   7
ENDBRANCH   5   6
ENDBRANCH   4   5
ENDBRANCH   3   4
ENDBRANCH   2   3
ENDBRANCH   1   2
BRANCH   1  15
ATOM     15  C   UNL     1      60.805  25.620  24.635  1.00  0.00     0.000 C 
BRANCH  15  16
ATOM     16  C   UNL     1      61.953  25.482  23.621  1.00  0.00     0.000 C 
BRANCH  16  17
ATOM     17  C   UNL     1      63.313  25.919  24.194  1.00  0.00     0.000 C 
BRANCH  17  18
ATOM     18  C   UNL     1      64.107  24.755  24.817  1.00  0.00    -0.000 C 
BRANCH  18  19
ATOM     19  C   UNL     1      63.592  23.345  24.475  1.00  0.00    -0.000 C 
BRANCH  19  20
ATOM     20  C   UNL     1      64.112  22.824  23.127  1.00  0.00    -0.000 C 
BRANCH  20  21
ATOM     21  C   UNL     1      64.103  23.936  22.071  1.00  0.00    -0.000 C 
BRANCH  21  22
ATOM     22  C   UNL     1      64.125  23.348  20.653  1.00  0.00    -0.000 C 
BRANCH  22  23
ATOM     23  C   UNL     1      63.349  22.024  20.542  1.00  0.00    -0.000 C 
BRANCH  23  24
ATOM     24  C   UNL     1      61.844  22.173  20.254  1.00  0.00    -0.000 C 
BRANCH  24  25
ATOM     25  C   UNL     1      61.500  22.023  18.765  1.00  0.00    -0.003 C 
ATOM     26  C   UNL     1      62.617  22.579  17.885  1.00  0.00     0.004 C 
ENDBRANCH  24  25
ENDBRANCH  23  24
ENDBRANCH  22  23
ENDBRANCH  21  22
ENDBRANCH  20  21
ENDBRANCH  19  20
ENDBRANCH  18  19
ENDBRANCH  17  18
ENDBRANCH  16  17
ENDBRANCH  15  16
ENDBRANCH   1  15
TORSDOF 22
ENDMDL
MODEL 5
REMARK VINA RESULT:    -0.500      2.524      3.595
REMARK INTER + INTRA:          -3.556
REMARK INTER:                  -2.974
REMARK INTRA:                  -0.581
REMARK UNBOUND:                -2.412
REMARK SMILES CCCCCCCCCCCCCCCCCCCCCCCC(=O)[O-]
REMARK SMILES IDX 13 1 14 2 15 3 16 4 17 5 18 6 19 7 20 8 21 9 22 10 23 11
REMARK SMILES IDX 24 12 25 13 26 14 12 15 11 16 10 17 9 18 8 19 7 20 6 21 5 22
REMARK SMILES IDX 4 23 3 24 2 25 1 26
REMARK H PARENT
REMARK Flexibility Score: inf
ROOT
ATOM      1  C   UNL     1      61.450  25.220  22.104  1.00  0.00     0.000 C 
ENDROOT
BRANCH   1   2
ATOM      2  C   UNL     1      62.957  25.275  21.798  1.00  0.00     0.000 C 
BRANCH   2   3
ATOM      3  C   UNL     1      63.517  24.055  21.039  1.00  0.00     0.000 C 
BRANCH   3   4
ATOM      4  C   UNL     1      62.456  23.153  20.380  1.00  0.00     0.000 C 
BRANCH   4   5
ATOM      5  C   UNL     1      62.961  22.314  19.187  1.00  0.00     0.000 C 
BRANCH   5   6
ATOM      6  C   UNL     1      63.755  21.046  19.563  1.00  0.00     0.000 C 
BRANCH   6   7
ATOM      7  C   UNL     1      64.017  20.881  21.072  1.00  0.00     0.000 C 
BRANCH   7   8
ATOM      8  C   UNL     1      62.771  21.186  21.920  1.00  0.00     0.000 C 
BRANCH   8   9
ATOM      9  C   UNL     1      62.991  20.875  23.409  1.00  0.00     0.000 C 
BRANCH   9  10
ATOM     10  C   UNL     1      64.125  21.719  24.017  1.00  0.00     0.006 C 
BRANCH  10  11
ATOM     11  C   UNL     1      63.700  23.172  24.274  1.00  0.00     0.053 C 
BRANCH  11  12
ATOM     12  C   UNL     1      62.919  23.323  25.546  1.00  0.00     0.041 C 
ATOM     13  O   UNL     1      62.811  24.451  26.100  1.00  0.00    -0.550 OA
ATOM     14  O   UNL     1      62.319  22.211  26.125  1.00  0.00    -0.550 OA
ENDBRANCH  11  12
ENDBRANCH  10  11
ENDBRANCH   9  10
ENDBRANCH   8   9
ENDBRANCH   7   8
ENDBRANCH   6   7
ENDBRANCH   5   6
ENDBRANCH   4   5
ENDBRANCH   3   4
ENDBRANCH   2   3
ENDBRANCH   1   2
BRANCH   1  15
ATOM     15  C   UNL     1      61.105  25.754  23.505  1.00  0.00     0.000 C 
BRANCH  15  16
ATOM     16  C   UNL     1      59.686  25.373  23.958  1.00  0.00     0.000 C 
BRANCH  16  17
ATOM     17  C   UNL     1      59.649  24.786  25.381  1.00  0.00     0.000 C 
BRANCH  17  18
ATOM     18  C   UNL     1      58.687  23.590  25.515  1.00  0.00    -0.000 C 
BRANCH  18  19
ATOM     19  C   UNL     1      59.328  22.279  26.007  1.00  0.00    -0.000 C 
BRANCH  19  20
ATOM     20  C   UNL     1      59.272  21.152  24.964  1.00  0.00    -0.000 C 
BRANCH  20  21
ATOM     21  C   UNL     1      59.525  21.700  23.554  1.00  0.00    -0.000 C 
BRANCH  21  22
ATOM     22  C   UNL     1      58.571  21.059  22.535  1.00  0.00    -0.000 C 
BRANCH  22  23
ATOM     23  C   UNL     1      57.120  20.980  23.042  1.00  0.00    -0.000 C 
BRANCH  23  24
ATOM     24  C   UNL     1      56.206  22.130  22.582  1.00  0.00    -0.000 C 
BRANCH  24  25
ATOM     25  C   UNL     1      55.395  22.750  23.729  1.00  0.00    -0.003 C 
ATOM     26  C   UNL     1      53.968  22.206  23.749  1.00  0.00     0.004 C 
ENDBRANCH  24  25
ENDBRANCH  23  24
ENDBRANCH  22  23
ENDBRANCH  21  22
ENDBRANCH  20  21
ENDBRANCH  19  20
ENDBRANCH  18  19
ENDBRANCH  17  18
ENDBRANCH  16  17
ENDBRANCH  15  16
ENDBRANCH   1  15
TORSDOF 22
ENDMDL
MODEL 6
REMARK VINA RESULT:    -0.042      1.308      2.924
REMARK INTER + INTRA:          -2.508
REMARK INTER:                  -0.523
REMARK INTRA:                  -1.986
REMARK UNBOUND:                -2.412
REMARK SMILES CCCCCCCCCCCCCCCCCCCCCCCC(=O)[O-]
REMARK SMILES IDX 13 1 14 2 15 3 16 4 17 5 18 6 19 7 20 8 21 9 22 10 23 11
REMARK SMILES IDX 24 12 25 13 26 14 12 15 11 16 10 17 9 18 8 19 7 20 6 21 5 22
REMARK SMILES IDX 4 23 3 24 2 25 1 26
REMARK H PARENT
REMARK Flexibility Score: inf
ROOT
ATOM      1  C   UNL     1      63.153  23.378  23.075  1.00  0.00     0.000 C 
ENDROOT
BRANCH   1   2
ATOM      2  C   UNL     1      64.125  22.317  23.622  1.00  0.00     0.000 C 
BRANCH   2   3
ATOM      3  C   UNL     1      63.461  21.144  24.371  1.00  0.00     0.000 C 
BRANCH   3   4
ATOM      4  C   UNL     1      63.071  21.438  25.832  1.00  0.00     0.000 C 
BRANCH   4   5
ATOM      5  C   UNL     1      61.577  21.752  26.059  1.00  0.00     0.000 C 
BRANCH   5   6
ATOM      6  C   UNL     1      60.594  20.936  25.195  1.00  0.00     0.000 C 
BRANCH   6   7
ATOM      7  C   UNL     1      60.038  21.691  23.973  1.00  0.00     0.000 C 
BRANCH   7   8
ATOM      8  C   UNL     1      60.161  20.875  22.675  1.00  0.00     0.000 C 
BRANCH   8   9
ATOM      9  C   UNL     1      60.470  21.762  21.459  1.00  0.00     0.000 C 
BRANCH   9  10
ATOM     10  C   UNL     1      61.351  21.041  20.424  1.00  0.00     0.006 C 
BRANCH  10  11
ATOM     11  C   UNL     1      62.679  21.771  20.175  1.00  0.00     0.053 C 
BRANCH  11  12
ATOM     12  C   UNL     1      62.725  22.432  18.829  1.00  0.00     0.041 C 
ATOM     13  O   UNL     1      61.744  22.346  18.040  1.00  0.00    -0.550 OA
ATOM     14  O   UNL     1      63.860  23.133  18.442  1.00  0.00    -0.550 OA
ENDBRANCH  11  12
ENDBRANCH  10  11
ENDBRANCH   9  10
ENDBRANCH   8   9
ENDBRANCH   7   8
ENDBRANCH   6   7
ENDBRANCH   5   6
ENDBRANCH   4   5
ENDBRANCH   3   4
ENDBRANCH   2   3
ENDBRANCH   1   2
BRANCH   1  15
ATOM     15  C   UNL     1      63.585  24.815  23.413  1.00  0.00     0.000 C 
BRANCH  15  16
ATOM     16  C   UNL     1      62.413  25.700  23.870  1.00  0.00     0.000 C 
BRANCH  16  17
ATOM     17  C   UNL     1      61.725  25.172  25.142  1.00  0.00     0.000 C 
BRANCH  17  18
ATOM     18  C   UNL     1      60.190  25.121  25.021  1.00  0.00    -0.000 C 
BRANCH  18  19
ATOM     19  C   UNL     1      59.471  24.266  26.081  1.00  0.00    -0.000 C 
BRANCH  19  20
ATOM     20  C   UNL     1      57.941  24.317  25.960  1.00  0.00    -0.000 C 
BRANCH  20  21
ATOM     21  C   UNL     1      57.414  23.102  25.186  1.00  0.00    -0.000 C 
BRANCH  21  22
ATOM     22  C   UNL     1      57.791  23.190  23.700  1.00  0.00    -0.000 C 
BRANCH  22  23
ATOM     23  C   UNL     1      56.673  22.690  22.768  1.00  0.00    -0.000 C 
BRANCH  23  24
ATOM     24  C   UNL     1      56.293  21.208  22.944  1.00  0.00    -0.000 C 
BRANCH  24  25
ATOM     25  C   UNL     1      54.918  21.013  23.598  1.00  0.00    -0.003 C 
ATOM     26  C   UNL     1      54.121  22.317  23.600  1.00  0.00     0.004 C 
ENDBRANCH  24  25
ENDBRANCH  23  24
ENDBRANCH  22  23
ENDBRANCH  21  22
ENDBRANCH  20  21
ENDBRANCH  19  20
ENDBRANCH  18  19
ENDBRANCH  17  18
ENDBRANCH  16  17
ENDBRANCH  15  16
ENDBRANCH   1  15
TORSDOF 22
ENDMDL
MODEL 7
REMARK VINA RESULT:     0.018      2.873      6.462
REMARK INTER + INTRA:          -2.372
REMARK INTER:                   0.075
REMARK INTRA:                  -2.447
REMARK UNBOUND:                -2.412
REMARK SMILES CCCCCCCCCCCCCCCCCCCCCCCC(=O)[O-]
REMARK SMILES IDX 13 1 14 2 15 3 16 4 17 5 18 6 19 7 20 8 21 9 22 10 23 11
REMARK SMILES IDX 24 12 25 13 26 14 12 15 11 16 10 17 9 18 8 19 7 20 6 21 5 22
REMARK SMILES IDX 4 23 3 24 2 25 1 26
REMARK H PARENT
REMARK Flexibility Score: inf
ROOT
ATOM      1  C   UNL     1      59.969  23.283  23.673  1.00  0.00     0.000 C 
ENDROOT
BRANCH   1   2
ATOM      2  C   UNL     1      59.969  23.028  22.155  1.00  0.00     0.000 C 
BRANCH   2   3
ATOM      3  C   UNL     1      59.853  21.548  21.739  1.00  0.00     0.000 C 
BRANCH   3   4
ATOM      4  C   UNL     1      58.502  20.883  22.061  1.00  0.00     0.000 C 
BRANCH   4   5
ATOM      5  C   UNL     1      58.114  20.881  23.555  1.00  0.00     0.000 C 
BRANCH   5   6
ATOM      6  C   UNL     1      57.026  21.900  23.953  1.00  0.00     0.000 C 
BRANCH   6   7
ATOM      7  C   UNL     1      55.618  21.573  23.420  1.00  0.00     0.000 C 
BRANCH   7   8
ATOM      8  C   UNL     1      55.105  22.632  22.430  1.00  0.00     0.000 C 
BRANCH   8   9
ATOM      9  C   UNL     1      56.239  23.517  21.887  1.00  0.00     0.000 C 
BRANCH   9  10
ATOM     10  C   UNL     1      56.246  23.572  20.350  1.00  0.00     0.006 C 
BRANCH  10  11
ATOM     11  C   UNL     1      55.495  24.794  19.804  1.00  0.00     0.053 C 
BRANCH  11  12
ATOM     12  C   UNL     1      55.578  24.896  18.309  1.00  0.00     0.041 C 
ATOM     13  O   UNL     1      55.425  23.872  17.589  1.00  0.00    -0.550 OA
ATOM     14  O   UNL     1      55.836  26.124  17.713  1.00  0.00    -0.550 OA
ENDBRANCH  11  12
ENDBRANCH  10  11
ENDBRANCH   9  10
ENDBRANCH   8   9
ENDBRANCH   7   8
ENDBRANCH   6   7
ENDBRANCH   5   6
ENDBRANCH   4   5
ENDBRANCH   3   4
ENDBRANCH   2   3
ENDBRANCH   1   2
BRANCH   1  15
ATOM     15  C   UNL     1      60.989  22.410  24.425  1.00  0.00     0.000 C 
BRANCH  15  16
ATOM     16  C   UNL     1      61.560  23.100  25.675  1.00  0.00     0.000 C 
BRANCH  16  17
ATOM     17  C   UNL     1      61.299  24.617  25.693  1.00  0.00     0.000 C 
BRANCH  17  18
ATOM     18  C   UNL     1      62.471  25.438  25.123  1.00  0.00    -0.000 C 
BRANCH  18  19
ATOM     19  C   UNL     1      62.336  25.844  23.643  1.00  0.00    -0.000 C 
BRANCH  19  20
ATOM     20  C   UNL     1      63.394  25.192  22.740  1.00  0.00    -0.000 C 
BRANCH  20  21
ATOM     21  C   UNL     1      64.125  24.066  23.481  1.00  0.00    -0.000 C 
BRANCH  21  22
ATOM     22  C   UNL     1      63.916  22.717  22.776  1.00  0.00    -0.000 C 
BRANCH  22  23
ATOM     23  C   UNL     1      63.681  22.864  21.262  1.00  0.00    -0.000 C 
BRANCH  23  24
ATOM     24  C   UNL     1      63.180  21.592  20.555  1.00  0.00    -0.000 C 
BRANCH  24  25
ATOM     25  C   UNL     1      63.117  21.739  19.027  1.00  0.00    -0.003 C 
ATOM     26  C   UNL     1      61.740  22.224  18.579  1.00  0.00     0.004 C 
ENDBRANCH  24  25
ENDBRANCH  23  24
ENDBRANCH  22  23
ENDBRANCH  21  22
ENDBRANCH  20  21
ENDBRANCH  19  20
ENDBRANCH  18  19
ENDBRANCH  17  18
ENDBRANCH  16  17
ENDBRANCH  15  16
ENDBRANCH   1  15
TORSDOF 22
ENDMDL
