MODEL 1
REMARK VINA RESULT:    -6.071      0.000      0.000
REMARK INTER + INTRA:          -6.426
REMARK INTER:                  -6.426
REMARK INTRA:                   0.000
REMARK UNBOUND:                 0.000
REMARK SMILES O=c1ccc2cc(O)c(O)cc2o1
REMARK SMILES IDX 4 1 3 2 2 3 1 4 13 5 12 6 11 7 9 8 7 9 6 10 5 11 8 12 10 14
REMARK H PARENT 8 13 10 15
REMARK Flexibility Score: inf
ROOT
ATOM      1  C   UNL     1     -10.682 -17.975  -7.521  1.00  0.00     0.019 A 
ATOM      2  C   UNL     1      -9.372 -17.739  -7.936  1.00  0.00     0.094 A 
ATOM      3  C   UNL     1      -8.352 -18.571  -7.464  1.00  0.00     0.336 A 
ATOM      4  O   UNL     1      -7.163 -18.375  -7.828  1.00  0.00    -0.246 OA
ATOM      5  O   UNL     1      -8.629 -19.571  -6.631  1.00  0.00    -0.423 OA
ATOM      6  C   UNL     1      -9.865 -19.830  -6.210  1.00  0.00     0.142 A 
ATOM      7  C   UNL     1     -10.096 -20.896  -5.335  1.00  0.00     0.098 A 
ATOM      8  C   UNL     1     -11.396 -21.174  -4.888  1.00  0.00     0.161 A 
ATOM      9  C   UNL     1     -12.473 -20.378  -5.321  1.00  0.00     0.158 A 
ATOM     10  C   UNL     1     -12.244 -19.310  -6.198  1.00  0.00     0.062 A 
ATOM     11  C   UNL     1     -10.945 -19.033  -6.645  1.00  0.00     0.022 A 
ENDROOT
BRANCH   9  12
ATOM     12  O   UNL     1     -13.775 -20.632  -4.891  1.00  0.00    -0.504 OA
ATOM     13  H   UNL     1     -13.970 -21.165  -4.053  1.00  0.00     0.293 HD
ENDBRANCH   9  12
BRANCH   8  14
ATOM     14  O   UNL     1     -11.623 -22.237  -4.014  1.00  0.00    -0.504 OA
ATOM     15  H   UNL     1     -11.874 -23.158  -4.353  1.00  0.00     0.293 HD
ENDBRANCH   8  14
TORSDOF 2
ENDMDL
MODEL 2
REMARK VINA RESULT:    -5.928     13.838     14.287
REMARK INTER + INTRA:          -6.275
REMARK INTER:                  -6.275
REMARK INTRA:                   0.000
REMARK UNBOUND:                 0.000
REMARK SMILES O=c1ccc2cc(O)c(O)cc2o1
REMARK SMILES IDX 4 1 3 2 2 3 1 4 13 5 12 6 11 7 9 8 7 9 6 10 5 11 8 12 10 14
REMARK H PARENT 8 13 10 15
REMARK Flexibility Score: inf
ROOT
ATOM      1  C   UNL     1     -14.645  -9.235 -13.837  1.00  0.00     0.019 A 
ATOM      2  C   UNL     1     -13.328  -9.107 -14.277  1.00  0.00     0.094 A 
ATOM      3  C   UNL     1     -12.979  -9.624 -15.529  1.00  0.00     0.336 A 
ATOM      4  O   UNL     1     -11.795  -9.518 -15.945  1.00  0.00    -0.246 OA
ATOM      5  O   UNL     1     -13.891 -10.230 -16.286  1.00  0.00    -0.423 OA
ATOM      6  C   UNL     1     -15.158 -10.373 -15.902  1.00  0.00     0.142 A 
ATOM      7  C   UNL     1     -16.072 -11.018 -16.741  1.00  0.00     0.098 A 
ATOM      8  C   UNL     1     -17.409 -11.172 -16.343  1.00  0.00     0.161 A 
ATOM      9  C   UNL     1     -17.832 -10.676 -15.095  1.00  0.00     0.158 A 
ATOM     10  C   UNL     1     -16.917 -10.029 -14.255  1.00  0.00     0.062 A 
ATOM     11  C   UNL     1     -15.582  -9.875 -14.652  1.00  0.00     0.022 A 
ENDROOT
BRANCH   9  12
ATOM     12  O   UNL     1     -19.154 -10.816 -14.675  1.00  0.00    -0.504 OA
ATOM     13  H   UNL     1     -19.810 -10.045 -14.698  1.00  0.00     0.293 HD
ENDBRANCH   9  12
BRANCH   8  14
ATOM     14  O   UNL     1     -18.318 -11.816 -17.181  1.00  0.00    -0.504 OA
ATOM     15  H   UNL     1     -18.170 -11.871 -18.182  1.00  0.00     0.293 HD
ENDBRANCH   8  14
TORSDOF 2
ENDMDL
MODEL 3
REMARK VINA RESULT:    -5.884      0.905      1.077
REMARK INTER + INTRA:          -6.228
REMARK INTER:                  -6.228
REMARK INTRA:                   0.000
REMARK UNBOUND:                 0.000
REMARK SMILES O=c1ccc2cc(O)c(O)cc2o1
REMARK SMILES IDX 4 1 3 2 2 3 1 4 13 5 12 6 11 7 9 8 7 9 6 10 5 11 8 12 10 14
REMARK H PARENT 8 13 10 15
REMARK Flexibility Score: inf
ROOT
ATOM      1  C   UNL     1     -10.206 -18.097  -7.756  1.00  0.00     0.019 A 
ATOM      2  C   UNL     1      -8.817 -18.222  -7.749  1.00  0.00     0.094 A 
ATOM      3  C   UNL     1      -8.229 -19.194  -6.932  1.00  0.00     0.336 A 
ATOM      4  O   UNL     1      -6.977 -19.322  -6.912  1.00  0.00    -0.246 OA
ATOM      5  O   UNL     1      -8.984 -19.984  -6.174  1.00  0.00    -0.423 OA
ATOM      6  C   UNL     1     -10.312 -19.897  -6.151  1.00  0.00     0.142 A 
ATOM      7  C   UNL     1     -11.055 -20.756  -5.335  1.00  0.00     0.098 A 
ATOM      8  C   UNL     1     -12.455 -20.669  -5.306  1.00  0.00     0.161 A 
ATOM      9  C   UNL     1     -13.116 -19.715  -6.102  1.00  0.00     0.158 A 
ATOM     10  C   UNL     1     -12.373 -18.854  -6.921  1.00  0.00     0.062 A 
ATOM     11  C   UNL     1     -10.976 -18.941  -6.950  1.00  0.00     0.022 A 
ENDROOT
BRANCH   9  12
ATOM     12  O   UNL     1     -14.506 -19.607  -6.092  1.00  0.00    -0.504 OA
ATOM     13  H   UNL     1     -15.024 -19.267  -6.893  1.00  0.00     0.293 HD
ENDBRANCH   9  12
BRANCH   8  14
ATOM     14  O   UNL     1     -13.192 -21.527  -4.490  1.00  0.00    -0.504 OA
ATOM     15  H   UNL     1     -14.163 -21.344  -4.269  1.00  0.00     0.293 HD
ENDBRANCH   8  14
TORSDOF 2
ENDMDL
MODEL 4
REMARK VINA RESULT:    -5.837     13.894     14.468
REMARK INTER + INTRA:          -6.178
REMARK INTER:                  -6.178
REMARK INTRA:                   0.000
REMARK UNBOUND:                 0.000
REMARK SMILES O=c1ccc2cc(O)c(O)cc2o1
REMARK SMILES IDX 4 1 3 2 2 3 1 4 13 5 12 6 11 7 9 8 7 9 6 10 5 11 8 12 10 14
REMARK H PARENT 8 13 10 15
REMARK Flexibility Score: inf
ROOT
ATOM      1  C   UNL     1     -14.105 -10.098 -16.347  1.00  0.00     0.019 A 
ATOM      2  C   UNL     1     -13.286  -9.417 -15.447  1.00  0.00     0.094 A 
ATOM      3  C   UNL     1     -13.824  -9.001 -14.224  1.00  0.00     0.336 A 
ATOM      4  O   UNL     1     -13.101  -8.386 -13.397  1.00  0.00    -0.246 OA
ATOM      5  O   UNL     1     -15.096  -9.250 -13.928  1.00  0.00    -0.423 OA
ATOM      6  C   UNL     1     -15.911  -9.896 -14.760  1.00  0.00     0.142 A 
ATOM      7  C   UNL     1     -17.240 -10.130 -14.393  1.00  0.00     0.098 A 
ATOM      8  C   UNL     1     -18.104 -10.810 -15.265  1.00  0.00     0.161 A 
ATOM      9  C   UNL     1     -17.632 -11.259 -16.513  1.00  0.00     0.158 A 
ATOM     10  C   UNL     1     -16.301 -11.025 -16.881  1.00  0.00     0.062 A 
ATOM     11  C   UNL     1     -15.438 -10.347 -16.010  1.00  0.00     0.022 A 
ENDROOT
BRANCH   9  12
ATOM     12  O   UNL     1     -18.469 -11.937 -17.398  1.00  0.00    -0.504 OA
ATOM     13  H   UNL     1     -18.392 -11.828 -18.402  1.00  0.00     0.293 HD
ENDBRANCH   9  12
BRANCH   8  14
ATOM     14  O   UNL     1     -19.429 -11.042 -14.897  1.00  0.00    -0.504 OA
ATOM     15  H   UNL     1     -19.860 -10.546 -14.126  1.00  0.00     0.293 HD
ENDBRANCH   8  14
TORSDOF 2
ENDMDL
MODEL 5
REMARK VINA RESULT:    -5.720     13.955     14.792
REMARK INTER + INTRA:          -6.055
REMARK INTER:                  -6.055
REMARK INTRA:                   0.000
REMARK UNBOUND:                 0.000
REMARK SMILES O=c1ccc2cc(O)c(O)cc2o1
REMARK SMILES IDX 4 1 3 2 2 3 1 4 13 5 12 6 11 7 9 8 7 9 6 10 5 11 8 12 10 14
REMARK H PARENT 8 13 10 15
REMARK Flexibility Score: inf
ROOT
ATOM      1  C   UNL     1     -17.492 -10.311 -14.743  1.00  0.00     0.019 A 
ATOM      2  C   UNL     1     -18.159 -11.066 -15.706  1.00  0.00     0.094 A 
ATOM      3  C   UNL     1     -17.448 -11.519 -16.823  1.00  0.00     0.336 A 
ATOM      4  O   UNL     1     -18.032 -12.203 -17.704  1.00  0.00    -0.246 OA
ATOM      5  O   UNL     1     -16.157 -11.230 -16.963  1.00  0.00    -0.423 OA
ATOM      6  C   UNL     1     -15.484 -10.511 -16.067  1.00  0.00     0.142 A 
ATOM      7  C   UNL     1     -14.127 -10.240 -16.266  1.00  0.00     0.098 A 
ATOM      8  C   UNL     1     -13.411  -9.484 -15.326  1.00  0.00     0.161 A 
ATOM      9  C   UNL     1     -14.061  -8.996 -14.177  1.00  0.00     0.158 A 
ATOM     10  C   UNL     1     -15.421  -9.267 -13.975  1.00  0.00     0.062 A 
ATOM     11  C   UNL     1     -16.134 -10.023 -14.914  1.00  0.00     0.022 A 
ENDROOT
BRANCH   9  12
ATOM     12  O   UNL     1     -13.374  -8.241 -13.226  1.00  0.00    -0.504 OA
ATOM     13  H   UNL     1     -13.779  -7.417 -12.799  1.00  0.00     0.293 HD
ENDBRANCH   9  12
BRANCH   8  14
ATOM     14  O   UNL     1     -12.058  -9.215 -15.528  1.00  0.00    -0.504 OA
ATOM     15  H   UNL     1     -11.462  -9.850 -16.045  1.00  0.00     0.293 HD
ENDBRANCH   8  14
TORSDOF 2
ENDMDL
MODEL 6
REMARK VINA RESULT:    -5.684     13.988     14.874
REMARK INTER + INTRA:          -6.017
REMARK INTER:                  -6.017
REMARK INTRA:                   0.000
REMARK UNBOUND:                 0.000
REMARK SMILES O=c1ccc2cc(O)c(O)cc2o1
REMARK SMILES IDX 4 1 3 2 2 3 1 4 13 5 12 6 11 7 9 8 7 9 6 10 5 11 8 12 10 14
REMARK H PARENT 8 13 10 15
REMARK Flexibility Score: inf
ROOT
ATOM      1  C   UNL     1     -16.551 -11.206 -16.763  1.00  0.00     0.019 A 
ATOM      2  C   UNL     1     -17.868 -11.380 -16.338  1.00  0.00     0.094 A 
ATOM      3  C   UNL     1     -18.269 -10.808 -15.126  1.00  0.00     0.336 A 
ATOM      4  O   UNL     1     -19.454 -10.954 -14.726  1.00  0.00    -0.246 OA
ATOM      5  O   UNL     1     -17.407 -10.111 -14.391  1.00  0.00    -0.423 OA
ATOM      6  C   UNL     1     -16.142  -9.922 -14.760  1.00  0.00     0.142 A 
ATOM      7  C   UNL     1     -15.281  -9.179 -13.946  1.00  0.00     0.098 A 
ATOM      8  C   UNL     1     -13.947  -8.975 -14.329  1.00  0.00     0.161 A 
ATOM      9  C   UNL     1     -13.472  -9.521 -15.537  1.00  0.00     0.158 A 
ATOM     10  C   UNL     1     -14.333 -10.266 -16.353  1.00  0.00     0.062 A 
ATOM     11  C   UNL     1     -15.666 -10.468 -15.971  1.00  0.00     0.022 A 
ENDROOT
BRANCH   9  12
ATOM     12  O   UNL     1     -12.150  -9.335 -15.941  1.00  0.00    -0.504 OA
ATOM     13  H   UNL     1     -11.775  -8.418 -16.145  1.00  0.00     0.293 HD
ENDBRANCH   9  12
BRANCH   8  14
ATOM     14  O   UNL     1     -13.091  -8.235 -13.515  1.00  0.00    -0.504 OA
ATOM     15  H   UNL     1     -13.032  -8.400 -12.518  1.00  0.00     0.293 HD
ENDBRANCH   8  14
TORSDOF 2
ENDMDL
MODEL 7
REMARK VINA RESULT:    -5.631      1.780      2.525
REMARK INTER + INTRA:          -5.960
REMARK INTER:                  -5.960
REMARK INTRA:                   0.000
REMARK UNBOUND:                 0.000
REMARK SMILES O=c1ccc2cc(O)c(O)cc2o1
REMARK SMILES IDX 4 1 3 2 2 3 1 4 13 5 12 6 11 7 9 8 7 9 6 10 5 11 8 12 10 14
REMARK H PARENT 8 13 10 15
REMARK Flexibility Score: inf
ROOT
ATOM      1  C   UNL     1      -7.904 -18.590  -7.651  1.00  0.00     0.019 A 
ATOM      2  C   UNL     1      -6.793 -19.370  -7.330  1.00  0.00     0.094 A 
ATOM      3  C   UNL     1      -6.958 -20.461  -6.470  1.00  0.00     0.336 A 
ATOM      4  O   UNL     1      -5.968 -21.178  -6.169  1.00  0.00    -0.246 OA
ATOM      5  O   UNL     1      -8.156 -20.748  -5.967  1.00  0.00    -0.423 OA
ATOM      6  C   UNL     1      -9.240 -20.029  -6.247  1.00  0.00     0.142 A 
ATOM      7  C   UNL     1     -10.474 -20.379  -5.689  1.00  0.00     0.098 A 
ATOM      8  C   UNL     1     -11.621 -19.625  -5.981  1.00  0.00     0.161 A 
ATOM      9  C   UNL     1     -11.531 -18.513  -6.838  1.00  0.00     0.158 A 
ATOM     10  C   UNL     1     -10.296 -18.161  -7.399  1.00  0.00     0.062 A 
ATOM     11  C   UNL     1      -9.151 -18.914  -7.108  1.00  0.00     0.022 A 
ENDROOT
BRANCH   9  12
ATOM     12  O   UNL     1     -12.655 -17.747  -7.144  1.00  0.00    -0.504 OA
ATOM     13  H   UNL     1     -12.647 -16.736  -7.093  1.00  0.00     0.293 HD
ENDBRANCH   9  12
BRANCH   8  14
ATOM     14  O   UNL     1     -12.849 -19.976  -5.421  1.00  0.00    -0.504 OA
ATOM     15  H   UNL     1     -13.245 -19.461  -4.645  1.00  0.00     0.293 HD
ENDBRANCH   8  14
TORSDOF 2
ENDMDL
MODEL 8
REMARK VINA RESULT:    -5.524      1.158      2.383
REMARK INTER + INTRA:          -5.847
REMARK INTER:                  -5.847
REMARK INTRA:                   0.000
REMARK UNBOUND:                 0.000
REMARK SMILES O=c1ccc2cc(O)c(O)cc2o1
REMARK SMILES IDX 4 1 3 2 2 3 1 4 13 5 12 6 11 7 9 8 7 9 6 10 5 11 8 12 10 14
REMARK H PARENT 8 13 10 15
REMARK Flexibility Score: inf
ROOT
ATOM      1  C   UNL     1      -8.323 -20.576  -5.965  1.00  0.00     0.019 A 
ATOM      2  C   UNL     1      -7.405 -19.952  -6.809  1.00  0.00     0.094 A 
ATOM      3  C   UNL     1      -7.867 -19.004  -7.728  1.00  0.00     0.336 A 
ATOM      4  O   UNL     1      -7.054 -18.429  -8.499  1.00  0.00    -0.246 OA
ATOM      5  O   UNL     1      -9.162 -18.706  -7.797  1.00  0.00    -0.423 OA
ATOM      6  C   UNL     1     -10.070 -19.280  -7.010  1.00  0.00     0.142 A 
ATOM      7  C   UNL     1     -11.417 -18.925  -7.126  1.00  0.00     0.098 A 
ATOM      8  C   UNL     1     -12.380 -19.525  -6.300  1.00  0.00     0.161 A 
ATOM      9  C   UNL     1     -11.988 -20.488  -5.350  1.00  0.00     0.158 A 
ATOM     10  C   UNL     1     -10.638 -20.843  -5.232  1.00  0.00     0.062 A 
ATOM     11  C   UNL     1      -9.678 -20.243  -6.057  1.00  0.00     0.022 A 
ENDROOT
BRANCH   9  12
ATOM     12  O   UNL     1     -12.924 -21.100  -4.517  1.00  0.00    -0.504 OA
ATOM     13  H   UNL     1     -13.904 -20.848  -4.533  1.00  0.00     0.293 HD
ENDBRANCH   9  12
BRANCH   8  14
ATOM     14  O   UNL     1     -13.723 -19.171  -6.419  1.00  0.00    -0.504 OA
ATOM     15  H   UNL     1     -14.368 -19.266  -5.644  1.00  0.00     0.293 HD
ENDBRANCH   8  14
TORSDOF 2
ENDMDL
MODEL 9
REMARK VINA RESULT:    -5.477     13.470     14.321
REMARK INTER + INTRA:          -5.797
REMARK INTER:                  -5.797
REMARK INTRA:                   0.000
REMARK UNBOUND:                 0.000
REMARK SMILES O=c1ccc2cc(O)c(O)cc2o1
REMARK SMILES IDX 4 1 3 2 2 3 1 4 13 5 12 6 11 7 9 8 7 9 6 10 5 11 8 12 10 14
REMARK H PARENT 8 13 10 15
REMARK Flexibility Score: inf
ROOT
ATOM      1  C   UNL     1     -14.752 -10.353 -17.677  1.00  0.00     0.019 A 
ATOM      2  C   UNL     1     -13.562  -9.736 -18.060  1.00  0.00     0.094 A 
ATOM      3  C   UNL     1     -12.827  -9.030 -17.102  1.00  0.00     0.336 A 
ATOM      4  O   UNL     1     -11.749  -8.466 -17.428  1.00  0.00    -0.246 OA
ATOM      5  O   UNL     1     -13.258  -8.949 -15.846  1.00  0.00    -0.423 OA
ATOM      6  C   UNL     1     -14.388  -9.523 -15.440  1.00  0.00     0.142 A 
ATOM      7  C   UNL     1     -14.791  -9.405 -14.106  1.00  0.00     0.098 A 
ATOM      8  C   UNL     1     -15.981 -10.007 -13.671  1.00  0.00     0.161 A 
ATOM      9  C   UNL     1     -16.773 -10.734 -14.580  1.00  0.00     0.158 A 
ATOM     10  C   UNL     1     -16.370 -10.854 -15.916  1.00  0.00     0.062 A 
ATOM     11  C   UNL     1     -15.182 -10.253 -16.350  1.00  0.00     0.022 A 
ENDROOT
BRANCH   9  12
ATOM     12  O   UNL     1     -17.960 -11.342 -14.174  1.00  0.00    -0.504 OA
ATOM     13  H   UNL     1     -18.062 -12.349 -14.131  1.00  0.00     0.293 HD
ENDBRANCH   9  12
BRANCH   8  14
ATOM     14  O   UNL     1     -16.380  -9.886 -12.341  1.00  0.00    -0.504 OA
ATOM     15  H   UNL     1     -16.445  -8.983 -11.886  1.00  0.00     0.293 HD
ENDBRANCH   8  14
TORSDOF 2
ENDMDL
