MODEL 1
REMARK VINA RESULT:    -4.376      0.000      0.000
REMARK INTER + INTRA:         -10.865
REMARK INTER:                  -8.470
REMARK INTRA:                  -2.395
REMARK UNBOUND:                -2.395
REMARK SMILES CCCCCCCCCCCCCCCCCC(=O)[O-]
REMARK SMILES IDX 10 1 11 2 12 3 13 4 14 5 15 6 16 7 17 8 18 9 19 10 20 11
REMARK SMILES IDX 9 12 8 13 7 14 6 15 5 16 4 17 3 18 2 19 1 20
REMARK H PARENT
REMARK Flexibility Score: inf
ROOT
ATOM      1  C   UNL     1     154.455 170.943 164.418  1.00  0.00     0.000 C 
ENDROOT
BRANCH   1   2
ATOM      2  C   UNL     1     155.072 172.005 163.482  1.00  0.00     0.000 C 
BRANCH   2   3
ATOM      3  C   UNL     1     153.998 172.884 162.817  1.00  0.00     0.000 C 
BRANCH   3   4
ATOM      4  C   UNL     1     154.128 174.367 163.197  1.00  0.00     0.000 C 
BRANCH   4   5
ATOM      5  C   UNL     1     154.467 175.259 161.992  1.00  0.00     0.000 C 
BRANCH   5   6
ATOM      6  C   UNL     1     154.957 174.413 160.806  1.00  0.00     0.000 C 
BRANCH   6   7
ATOM      7  C   UNL     1     155.964 175.159 159.918  1.00  0.00     0.006 C 
BRANCH   7   8
ATOM      8  C   UNL     1     157.090 174.252 159.405  1.00  0.00     0.053 C 
BRANCH   8   9
ATOM      9  C   UNL     1     157.136 174.268 157.911  1.00  0.00     0.041 C 
ATOM     10  O   UNL     1     156.509 173.402 157.247  1.00  0.00    -0.550 OA
ATOM     11  O   UNL     1     157.912 175.214 157.250  1.00  0.00    -0.550 OA
ENDBRANCH   8   9
ENDBRANCH   7   8
ENDBRANCH   6   7
ENDBRANCH   5   6
ENDBRANCH   4   5
ENDBRANCH   3   4
ENDBRANCH   2   3
ENDBRANCH   1   2
BRANCH   1  12
ATOM     12  C   UNL     1     153.995 171.510 165.773  1.00  0.00     0.000 C 
BRANCH  12  13
ATOM     13  C   UNL     1     154.690 170.838 166.968  1.00  0.00    -0.000 C 
BRANCH  13  14
ATOM     14  C   UNL     1     155.859 171.669 167.519  1.00  0.00    -0.000 C 
BRANCH  14  15
ATOM     15  C   UNL     1     155.829 173.126 167.037  1.00  0.00    -0.000 C 
BRANCH  15  16
ATOM     16  C   UNL     1     157.135 173.492 166.322  1.00  0.00    -0.000 C 
BRANCH  16  17
ATOM     17  C   UNL     1     156.907 174.604 165.291  1.00  0.00    -0.000 C 
BRANCH  17  18
ATOM     18  C   UNL     1     158.212 174.960 164.568  1.00  0.00    -0.000 C 
BRANCH  18  19
ATOM     19  C   UNL     1     158.104 174.674 163.067  1.00  0.00    -0.003 C 
ATOM     20  C   UNL     1     158.384 173.205 162.764  1.00  0.00     0.004 C 
ENDBRANCH  18  19
ENDBRANCH  17  18
ENDBRANCH  16  17
ENDBRANCH  15  16
ENDBRANCH  14  15
ENDBRANCH  13  14
ENDBRANCH  12  13
ENDBRANCH   1  12
TORSDOF 16
ENDMDL
MODEL 2
REMARK VINA RESULT:    -4.201      0.939      3.424
REMARK INTER + INTRA:         -10.526
REMARK INTER:                  -8.018
REMARK INTRA:                  -2.508
REMARK UNBOUND:                -2.395
REMARK SMILES CCCCCCCCCCCCCCCCCC(=O)[O-]
REMARK SMILES IDX 10 1 11 2 12 3 13 4 14 5 15 6 16 7 17 8 18 9 19 10 20 11
REMARK SMILES IDX 9 12 8 13 7 14 6 15 5 16 4 17 3 18 2 19 1 20
REMARK H PARENT
REMARK Flexibility Score: inf
ROOT
ATOM      1  C   UNL     1     157.218 174.245 165.512  1.00  0.00     0.000 C 
ENDROOT
BRANCH   1   2
ATOM      2  C   UNL     1     158.302 174.299 164.415  1.00  0.00     0.000 C 
BRANCH   2   3
ATOM      3  C   UNL     1     158.195 173.117 163.435  1.00  0.00     0.000 C 
BRANCH   3   4
ATOM      4  C   UNL     1     157.705 173.542 162.043  1.00  0.00     0.000 C 
BRANCH   4   5
ATOM      5  C   UNL     1     157.817 175.058 161.814  1.00  0.00     0.000 C 
BRANCH   5   6
ATOM      6  C   UNL     1     157.224 175.451 160.452  1.00  0.00     0.000 C 
BRANCH   6   7
ATOM      7  C   UNL     1     156.888 174.235 159.575  1.00  0.00     0.006 C 
BRANCH   7   8
ATOM      8  C   UNL     1     156.040 174.603 158.351  1.00  0.00     0.053 C 
BRANCH   8   9
ATOM      9  C   UNL     1     156.759 174.249 157.089  1.00  0.00     0.041 C 
ATOM     10  O   UNL     1     157.764 174.913 156.723  1.00  0.00    -0.550 OA
ATOM     11  O   UNL     1     156.291 173.212 156.290  1.00  0.00    -0.550 OA
ENDBRANCH   8   9
ENDBRANCH   7   8
ENDBRANCH   6   7
ENDBRANCH   5   6
ENDBRANCH   4   5
ENDBRANCH   3   4
ENDBRANCH   2   3
ENDBRANCH   1   2
BRANCH   1  12
ATOM     12  C   UNL     1     157.650 173.466 166.767  1.00  0.00     0.000 C 
BRANCH  12  13
ATOM     13  C   UNL     1     156.496 172.680 167.408  1.00  0.00    -0.000 C 
BRANCH  13  14
ATOM     14  C   UNL     1     155.196 172.761 166.592  1.00  0.00    -0.000 C 
BRANCH  14  15
ATOM     15  C   UNL     1     154.772 171.403 166.017  1.00  0.00    -0.000 C 
BRANCH  15  16
ATOM     16  C   UNL     1     153.838 171.586 164.815  1.00  0.00    -0.000 C 
BRANCH  16  17
ATOM     17  C   UNL     1     154.596 172.147 163.606  1.00  0.00    -0.000 C 
BRANCH  17  18
ATOM     18  C   UNL     1     153.625 172.707 162.559  1.00  0.00    -0.000 C 
BRANCH  18  19
ATOM     19  C   UNL     1     154.070 174.094 162.083  1.00  0.00    -0.003 C 
ATOM     20  C   UNL     1     154.363 175.014 163.264  1.00  0.00     0.004 C 
ENDBRANCH  18  19
ENDBRANCH  17  18
ENDBRANCH  16  17
ENDBRANCH  15  16
ENDBRANCH  14  15
ENDBRANCH  13  14
ENDBRANCH  12  13
ENDBRANCH   1  12
TORSDOF 16
ENDMDL
MODEL 3
REMARK VINA RESULT:    -4.037      2.954      5.518
REMARK INTER + INTRA:         -10.209
REMARK INTER:                  -7.849
REMARK INTRA:                  -2.360
REMARK UNBOUND:                -2.395
REMARK SMILES CCCCCCCCCCCCCCCCCC(=O)[O-]
REMARK SMILES IDX 10 1 11 2 12 3 13 4 14 5 15 6 16 7 17 8 18 9 19 10 20 11
REMARK SMILES IDX 9 12 8 13 7 14 6 15 5 16 4 17 3 18 2 19 1 20
REMARK H PARENT
REMARK Flexibility Score: inf
ROOT
ATOM      1  C   UNL     1     154.415 171.632 163.569  1.00  0.00     0.000 C 
ENDROOT
BRANCH   1   2
ATOM      2  C   UNL     1     154.387 170.841 164.894  1.00  0.00     0.000 C 
BRANCH   2   3
ATOM      3  C   UNL     1     154.182 171.760 166.112  1.00  0.00     0.000 C 
BRANCH   3   4
ATOM      4  C   UNL     1     155.323 171.650 167.136  1.00  0.00     0.000 C 
BRANCH   4   5
ATOM      5  C   UNL     1     156.252 172.874 167.119  1.00  0.00     0.000 C 
BRANCH   5   6
ATOM      6  C   UNL     1     155.698 173.969 166.194  1.00  0.00     0.000 C 
BRANCH   6   7
ATOM      7  C   UNL     1     156.792 174.653 165.359  1.00  0.00     0.006 C 
BRANCH   7   8
ATOM      8  C   UNL     1     158.155 173.959 165.483  1.00  0.00     0.053 C 
BRANCH   8   9
ATOM      9  C   UNL     1     159.236 174.965 165.709  1.00  0.00     0.041 C 
ATOM     10  O   UNL     1     159.376 175.936 164.920  1.00  0.00    -0.550 OA
ATOM     11  O   UNL     1     160.124 174.805 166.768  1.00  0.00    -0.550 OA
ENDBRANCH   8   9
ENDBRANCH   7   8
ENDBRANCH   6   7
ENDBRANCH   5   6
ENDBRANCH   4   5
ENDBRANCH   3   4
ENDBRANCH   2   3
ENDBRANCH   1   2
BRANCH   1  12
ATOM     12  C   UNL     1     153.017 171.986 163.033  1.00  0.00     0.000 C 
BRANCH  12  13
ATOM     13  C   UNL     1     152.993 173.314 162.261  1.00  0.00    -0.000 C 
BRANCH  13  14
ATOM     14  C   UNL     1     154.108 174.277 162.699  1.00  0.00    -0.000 C 
BRANCH  14  15
ATOM     15  C   UNL     1     154.293 175.449 161.727  1.00  0.00    -0.000 C 
BRANCH  15  16
ATOM     16  C   UNL     1     154.581 174.943 160.309  1.00  0.00    -0.000 C 
BRANCH  16  17
ATOM     17  C   UNL     1     156.060 174.571 160.145  1.00  0.00    -0.000 C 
BRANCH  17  18
ATOM     18  C   UNL     1     156.958 175.528 160.938  1.00  0.00    -0.000 C 
BRANCH  18  19
ATOM     19  C   UNL     1     158.057 174.760 161.681  1.00  0.00    -0.003 C 
ATOM     20  C   UNL     1     157.587 173.362 162.070  1.00  0.00     0.004 C 
ENDBRANCH  18  19
ENDBRANCH  17  18
ENDBRANCH  16  17
ENDBRANCH  15  16
ENDBRANCH  14  15
ENDBRANCH  13  14
ENDBRANCH  12  13
ENDBRANCH   1  12
TORSDOF 16
ENDMDL
MODEL 4
REMARK VINA RESULT:    -3.912      3.350      5.498
REMARK INTER + INTRA:          -9.966
REMARK INTER:                  -7.619
REMARK INTRA:                  -2.347
REMARK UNBOUND:                -2.395
REMARK SMILES CCCCCCCCCCCCCCCCCC(=O)[O-]
REMARK SMILES IDX 10 1 11 2 12 3 13 4 14 5 15 6 16 7 17 8 18 9 19 10 20 11
REMARK SMILES IDX 9 12 8 13 7 14 6 15 5 16 4 17 3 18 2 19 1 20
REMARK H PARENT
REMARK Flexibility Score: inf
ROOT
ATOM      1  C   UNL     1     155.345 172.298 166.614  1.00  0.00     0.000 C 
ENDROOT
BRANCH   1   2
ATOM      2  C   UNL     1     155.308 173.713 165.998  1.00  0.00     0.000 C 
BRANCH   2   3
ATOM      3  C   UNL     1     156.718 174.243 165.683  1.00  0.00     0.000 C 
BRANCH   3   4
ATOM      4  C   UNL     1     157.372 173.522 164.494  1.00  0.00     0.000 C 
BRANCH   4   5
ATOM      5  C   UNL     1     158.687 174.183 164.053  1.00  0.00     0.000 C 
BRANCH   5   6
ATOM      6  C   UNL     1     158.985 175.430 164.899  1.00  0.00     0.000 C 
BRANCH   6   7
ATOM      7  C   UNL     1     160.309 175.324 165.671  1.00  0.00     0.006 C 
BRANCH   7   8
ATOM      8  C   UNL     1     160.783 173.875 165.841  1.00  0.00     0.053 C 
BRANCH   8   9
ATOM      9  C   UNL     1     162.139 173.694 165.239  1.00  0.00     0.041 C 
ATOM     10  O   UNL     1     162.445 174.287 164.173  1.00  0.00    -0.550 OA
ATOM     11  O   UNL     1     163.052 172.828 165.832  1.00  0.00    -0.550 OA
ENDBRANCH   8   9
ENDBRANCH   7   8
ENDBRANCH   6   7
ENDBRANCH   5   6
ENDBRANCH   4   5
ENDBRANCH   3   4
ENDBRANCH   2   3
ENDBRANCH   1   2
BRANCH   1  12
ATOM     12  C   UNL     1     154.433 171.289 165.894  1.00  0.00     0.000 C 
BRANCH  12  13
ATOM     13  C   UNL     1     154.488 171.421 164.364  1.00  0.00    -0.000 C 
BRANCH  13  14
ATOM     14  C   UNL     1     153.104 171.650 163.737  1.00  0.00    -0.000 C 
BRANCH  14  15
ATOM     15  C   UNL     1     152.984 173.016 163.050  1.00  0.00    -0.000 C 
BRANCH  15  16
ATOM     16  C   UNL     1     154.324 173.438 162.436  1.00  0.00    -0.000 C 
BRANCH  16  17
ATOM     17  C   UNL     1     154.542 174.951 162.573  1.00  0.00    -0.000 C 
BRANCH  17  18
ATOM     18  C   UNL     1     155.673 175.428 161.653  1.00  0.00    -0.000 C 
BRANCH  18  19
ATOM     19  C   UNL     1     156.449 174.241 161.074  1.00  0.00    -0.003 C 
ATOM     20  C   UNL     1     157.086 174.599 159.735  1.00  0.00     0.004 C 
ENDBRANCH  18  19
ENDBRANCH  17  18
ENDBRANCH  16  17
ENDBRANCH  15  16
ENDBRANCH  14  15
ENDBRANCH  13  14
ENDBRANCH  12  13
ENDBRANCH   1  12
TORSDOF 16
ENDMDL
MODEL 5
REMARK VINA RESULT:    -3.911      2.536      6.114
REMARK INTER + INTRA:          -9.965
REMARK INTER:                  -7.641
REMARK INTRA:                  -2.324
REMARK UNBOUND:                -2.395
REMARK SMILES CCCCCCCCCCCCCCCCCC(=O)[O-]
REMARK SMILES IDX 10 1 11 2 12 3 13 4 14 5 15 6 16 7 17 8 18 9 19 10 20 11
REMARK SMILES IDX 9 12 8 13 7 14 6 15 5 16 4 17 3 18 2 19 1 20
REMARK H PARENT
REMARK Flexibility Score: inf
ROOT
ATOM      1  C   UNL     1     157.859 173.386 162.949  1.00  0.00     0.000 C 
ENDROOT
BRANCH   1   2
ATOM      2  C   UNL     1     159.201 173.525 163.699  1.00  0.00     0.000 C 
BRANCH   2   3
ATOM      3  C   UNL     1     159.035 174.220 165.062  1.00  0.00     0.000 C 
BRANCH   3   4
ATOM      4  C   UNL     1     157.562 174.458 165.430  1.00  0.00     0.000 C 
BRANCH   4   5
ATOM      5  C   UNL     1     157.059 173.488 166.511  1.00  0.00     0.000 C 
BRANCH   5   6
ATOM      6  C   UNL     1     155.527 173.380 166.479  1.00  0.00     0.000 C 
BRANCH   6   7
ATOM      7  C   UNL     1     154.908 174.046 165.241  1.00  0.00     0.006 C 
BRANCH   7   8
ATOM      8  C   UNL     1     153.655 173.318 164.738  1.00  0.00     0.053 C 
BRANCH   8   9
ATOM      9  C   UNL     1     153.994 172.429 163.585  1.00  0.00     0.041 C 
ATOM     10  O   UNL     1     153.383 172.546 162.491  1.00  0.00    -0.550 OA
ATOM     11  O   UNL     1     154.955 171.435 163.733  1.00  0.00    -0.550 OA
ENDBRANCH   8   9
ENDBRANCH   7   8
ENDBRANCH   6   7
ENDBRANCH   5   6
ENDBRANCH   4   5
ENDBRANCH   3   4
ENDBRANCH   2   3
ENDBRANCH   1   2
BRANCH   1  12
ATOM     12  C   UNL     1     157.873 174.005 161.541  1.00  0.00     0.000 C 
BRANCH  12  13
ATOM     13  C   UNL     1     157.641 175.524 161.555  1.00  0.00    -0.000 C 
BRANCH  13  14
ATOM     14  C   UNL     1     156.438 175.934 162.419  1.00  0.00    -0.000 C 
BRANCH  14  15
ATOM     15  C   UNL     1     155.094 175.609 161.756  1.00  0.00    -0.000 C 
BRANCH  15  16
ATOM     16  C   UNL     1     155.119 175.969 160.265  1.00  0.00    -0.000 C 
BRANCH  16  17
ATOM     17  C   UNL     1     154.628 174.798 159.406  1.00  0.00    -0.000 C 
BRANCH  17  18
ATOM     18  C   UNL     1     155.333 174.782 158.044  1.00  0.00    -0.000 C 
BRANCH  18  19
ATOM     19  C   UNL     1     156.741 174.190 158.161  1.00  0.00    -0.003 C 
ATOM     20  C   UNL     1     157.736 174.957 157.296  1.00  0.00     0.004 C 
ENDBRANCH  18  19
ENDBRANCH  17  18
ENDBRANCH  16  17
ENDBRANCH  15  16
ENDBRANCH  14  15
ENDBRANCH  13  14
ENDBRANCH  12  13
ENDBRANCH   1  12
TORSDOF 16
ENDMDL
MODEL 6
REMARK VINA RESULT:    -3.876      2.145      5.308
REMARK INTER + INTRA:          -9.898
REMARK INTER:                  -7.760
REMARK INTRA:                  -2.137
REMARK UNBOUND:                -2.395
REMARK SMILES CCCCCCCCCCCCCCCCCC(=O)[O-]
REMARK SMILES IDX 10 1 11 2 12 3 13 4 14 5 15 6 16 7 17 8 18 9 19 10 20 11
REMARK SMILES IDX 9 12 8 13 7 14 6 15 5 16 4 17 3 18 2 19 1 20
REMARK H PARENT
REMARK Flexibility Score: inf
ROOT
ATOM      1  C   UNL     1     154.444 171.963 163.228  1.00  0.00     0.000 C 
ENDROOT
BRANCH   1   2
ATOM      2  C   UNL     1     154.424 170.867 164.315  1.00  0.00     0.000 C 
BRANCH   2   3
ATOM      3  C   UNL     1     153.954 171.409 165.676  1.00  0.00     0.000 C 
BRANCH   3   4
ATOM      4  C   UNL     1     155.004 171.224 166.783  1.00  0.00     0.000 C 
BRANCH   4   5
ATOM      5  C   UNL     1     155.977 172.410 166.879  1.00  0.00     0.000 C 
BRANCH   5   6
ATOM      6  C   UNL     1     155.355 173.679 166.276  1.00  0.00     0.000 C 
BRANCH   6   7
ATOM      7  C   UNL     1     156.392 174.584 165.593  1.00  0.00     0.006 C 
BRANCH   7   8
ATOM      8  C   UNL     1     157.725 173.870 165.335  1.00  0.00     0.053 C 
BRANCH   8   9
ATOM      9  C   UNL     1     157.977 173.744 163.867  1.00  0.00     0.041 C 
ATOM     10  O   UNL     1     157.669 172.686 163.258  1.00  0.00    -0.550 OA
ATOM     11  O   UNL     1     158.597 174.780 163.177  1.00  0.00    -0.550 OA
ENDBRANCH   8   9
ENDBRANCH   7   8
ENDBRANCH   6   7
ENDBRANCH   5   6
ENDBRANCH   4   5
ENDBRANCH   3   4
ENDBRANCH   2   3
ENDBRANCH   1   2
BRANCH   1  12
ATOM     12  C   UNL     1     153.049 172.505 162.873  1.00  0.00     0.000 C 
BRANCH  12  13
ATOM     13  C   UNL     1     153.101 173.858 162.148  1.00  0.00    -0.000 C 
BRANCH  13  14
ATOM     14  C   UNL     1     153.951 174.900 162.893  1.00  0.00    -0.000 C 
BRANCH  14  15
ATOM     15  C   UNL     1     155.051 175.505 162.011  1.00  0.00    -0.000 C 
BRANCH  15  16
ATOM     16  C   UNL     1     155.189 174.727 160.697  1.00  0.00    -0.000 C 
BRANCH  16  17
ATOM     17  C   UNL     1     156.654 174.367 160.420  1.00  0.00    -0.000 C 
BRANCH  17  18
ATOM     18  C   UNL     1     156.943 174.361 158.913  1.00  0.00    -0.000 C 
BRANCH  18  19
ATOM     19  C   UNL     1     155.724 174.843 158.118  1.00  0.00    -0.003 C 
ATOM     20  C   UNL     1     156.093 175.996 157.190  1.00  0.00     0.004 C 
ENDBRANCH  18  19
ENDBRANCH  17  18
ENDBRANCH  16  17
ENDBRANCH  15  16
ENDBRANCH  14  15
ENDBRANCH  13  14
ENDBRANCH  12  13
ENDBRANCH   1  12
TORSDOF 16
ENDMDL
MODEL 7
REMARK VINA RESULT:    -3.677      3.892      5.912
REMARK INTER + INTRA:          -9.511
REMARK INTER:                  -7.606
REMARK INTRA:                  -1.905
REMARK UNBOUND:                -2.395
REMARK SMILES CCCCCCCCCCCCCCCCCC(=O)[O-]
REMARK SMILES IDX 10 1 11 2 12 3 13 4 14 5 15 6 16 7 17 8 18 9 19 10 20 11
REMARK SMILES IDX 9 12 8 13 7 14 6 15 5 16 4 17 3 18 2 19 1 20
REMARK H PARENT
REMARK Flexibility Score: inf
ROOT
ATOM      1  C   UNL     1     155.813 172.692 167.805  1.00  0.00     0.000 C 
ENDROOT
BRANCH   1   2
ATOM      2  C   UNL     1     157.028 173.035 166.918  1.00  0.00     0.000 C 
BRANCH   2   3
ATOM      3  C   UNL     1     156.695 174.113 165.871  1.00  0.00     0.000 C 
BRANCH   3   4
ATOM      4  C   UNL     1     157.926 174.562 165.069  1.00  0.00     0.000 C 
BRANCH   4   5
ATOM      5  C   UNL     1     159.207 174.590 165.918  1.00  0.00     0.000 C 
BRANCH   5   6
ATOM      6  C   UNL     1     160.401 175.090 165.091  1.00  0.00     0.000 C 
BRANCH   6   7
ATOM      7  C   UNL     1     161.512 174.038 164.953  1.00  0.00     0.006 C 
BRANCH   7   8
ATOM      8  C   UNL     1     162.876 174.656 164.618  1.00  0.00     0.053 C 
BRANCH   8   9
ATOM      9  C   UNL     1     163.973 173.676 164.882  1.00  0.00     0.041 C 
ATOM     10  O   UNL     1     165.012 173.678 164.171  1.00  0.00    -0.550 OA
ATOM     11  O   UNL     1     163.828 172.725 165.887  1.00  0.00    -0.550 OA
ENDBRANCH   8   9
ENDBRANCH   7   8
ENDBRANCH   6   7
ENDBRANCH   5   6
ENDBRANCH   4   5
ENDBRANCH   3   4
ENDBRANCH   2   3
ENDBRANCH   1   2
BRANCH   1  12
ATOM     12  C   UNL     1     155.652 171.185 168.074  1.00  0.00     0.000 C 
BRANCH  12  13
ATOM     13  C   UNL     1     154.733 170.493 167.056  1.00  0.00    -0.000 C 
BRANCH  13  14
ATOM     14  C   UNL     1     153.480 171.320 166.727  1.00  0.00    -0.000 C 
BRANCH  14  15
ATOM     15  C   UNL     1     153.406 171.719 165.248  1.00  0.00    -0.000 C 
BRANCH  15  16
ATOM     16  C   UNL     1     154.542 171.070 164.449  1.00  0.00    -0.000 C 
BRANCH  16  17
ATOM     17  C   UNL     1     155.065 172.019 163.362  1.00  0.00    -0.000 C 
BRANCH  17  18
ATOM     18  C   UNL     1     154.215 173.294 163.291  1.00  0.00    -0.000 C 
BRANCH  18  19
ATOM     19  C   UNL     1     154.842 174.319 162.340  1.00  0.00    -0.003 C 
ATOM     20  C   UNL     1     156.246 173.895 161.919  1.00  0.00     0.004 C 
ENDBRANCH  18  19
ENDBRANCH  17  18
ENDBRANCH  16  17
ENDBRANCH  15  16
ENDBRANCH  14  15
ENDBRANCH  13  14
ENDBRANCH  12  13
ENDBRANCH   1  12
TORSDOF 16
ENDMDL
MODEL 8
REMARK VINA RESULT:    -3.601      3.790      6.760
REMARK INTER + INTRA:          -9.365
REMARK INTER:                  -7.365
REMARK INTRA:                  -1.999
REMARK UNBOUND:                -2.395
REMARK SMILES CCCCCCCCCCCCCCCCCC(=O)[O-]
REMARK SMILES IDX 10 1 11 2 12 3 13 4 14 5 15 6 16 7 17 8 18 9 19 10 20 11
REMARK SMILES IDX 9 12 8 13 7 14 6 15 5 16 4 17 3 18 2 19 1 20
REMARK H PARENT
REMARK Flexibility Score: inf
ROOT
ATOM      1  C   UNL     1     157.730 174.939 162.073  1.00  0.00     0.000 C 
ENDROOT
BRANCH   1   2
ATOM      2  C   UNL     1     158.031 173.542 162.655  1.00  0.00     0.000 C 
BRANCH   2   3
ATOM      3  C   UNL     1     159.234 173.559 163.613  1.00  0.00     0.000 C 
BRANCH   3   4
ATOM      4  C   UNL     1     158.864 174.044 165.023  1.00  0.00     0.000 C 
BRANCH   4   5
ATOM      5  C   UNL     1     159.824 175.123 165.549  1.00  0.00     0.000 C 
BRANCH   5   6
ATOM      6  C   UNL     1     160.446 174.697 166.887  1.00  0.00     0.000 C 
BRANCH   6   7
ATOM      7  C   UNL     1     161.979 174.597 166.827  1.00  0.00     0.006 C 
BRANCH   7   8
ATOM      8  C   UNL     1     162.464 173.416 165.977  1.00  0.00     0.053 C 
BRANCH   8   9
ATOM      9  C   UNL     1     163.497 173.866 164.996  1.00  0.00     0.041 C 
ATOM     10  O   UNL     1     164.573 173.225 164.866  1.00  0.00    -0.550 OA
ATOM     11  O   UNL     1     163.294 175.025 164.255  1.00  0.00    -0.550 OA
ENDBRANCH   8   9
ENDBRANCH   7   8
ENDBRANCH   6   7
ENDBRANCH   5   6
ENDBRANCH   4   5
ENDBRANCH   3   4
ENDBRANCH   2   3
ENDBRANCH   1   2
BRANCH   1  12
ATOM     12  C   UNL     1     157.054 174.899 160.692  1.00  0.00     0.000 C 
BRANCH  12  13
ATOM     13  C   UNL     1     155.561 174.545 160.768  1.00  0.00    -0.000 C 
BRANCH  13  14
ATOM     14  C   UNL     1     154.728 175.628 161.471  1.00  0.00    -0.000 C 
BRANCH  14  15
ATOM     15  C   UNL     1     153.683 175.043 162.429  1.00  0.00    -0.000 C 
BRANCH  15  16
ATOM     16  C   UNL     1     154.343 174.119 163.460  1.00  0.00    -0.000 C 
BRANCH  16  17
ATOM     17  C   UNL     1     155.018 174.928 164.575  1.00  0.00    -0.000 C 
BRANCH  17  18
ATOM     18  C   UNL     1     155.257 174.059 165.816  1.00  0.00    -0.000 C 
BRANCH  18  19
ATOM     19  C   UNL     1     155.593 172.618 165.421  1.00  0.00    -0.003 C 
ATOM     20  C   UNL     1     154.791 171.618 166.249  1.00  0.00     0.004 C 
ENDBRANCH  18  19
ENDBRANCH  17  18
ENDBRANCH  16  17
ENDBRANCH  15  16
ENDBRANCH  14  15
ENDBRANCH  13  14
ENDBRANCH  12  13
ENDBRANCH   1  12
TORSDOF 16
ENDMDL
MODEL 9
REMARK VINA RESULT:    -3.508     14.026     17.563
REMARK INTER + INTRA:          -9.185
REMARK INTER:                  -5.904
REMARK INTRA:                  -3.281
REMARK UNBOUND:                -2.395
REMARK SMILES CCCCCCCCCCCCCCCCCC(=O)[O-]
REMARK SMILES IDX 10 1 11 2 12 3 13 4 14 5 15 6 16 7 17 8 18 9 19 10 20 11
REMARK SMILES IDX 9 12 8 13 7 14 6 15 5 16 4 17 3 18 2 19 1 20
REMARK H PARENT
REMARK Flexibility Score: inf
ROOT
ATOM      1  C   UNL     1     171.961 171.014 151.201  1.00  0.00     0.000 C 
ENDROOT
BRANCH   1   2
ATOM      2  C   UNL     1     171.024 171.632 150.141  1.00  0.00     0.000 C 
BRANCH   2   3
ATOM      3  C   UNL     1     169.723 170.826 149.979  1.00  0.00     0.000 C 
BRANCH   3   4
ATOM      4  C   UNL     1     169.641 169.631 150.941  1.00  0.00     0.000 C 
BRANCH   4   5
ATOM      5  C   UNL     1     168.325 169.600 151.734  1.00  0.00     0.000 C 
BRANCH   5   6
ATOM      6  C   UNL     1     167.754 171.016 151.904  1.00  0.00     0.000 C 
BRANCH   6   7
ATOM      7  C   UNL     1     166.813 171.138 153.112  1.00  0.00     0.006 C 
BRANCH   7   8
ATOM      8  C   UNL     1     166.345 169.776 153.641  1.00  0.00     0.053 C 
BRANCH   8   9
ATOM      9  C   UNL     1     164.882 169.593 153.395  1.00  0.00     0.041 C 
ATOM     10  O   UNL     1     164.232 170.462 152.756  1.00  0.00    -0.550 OA
ATOM     11  O   UNL     1     164.224 168.484 153.913  1.00  0.00    -0.550 OA
ENDBRANCH   8   9
ENDBRANCH   7   8
ENDBRANCH   6   7
ENDBRANCH   5   6
ENDBRANCH   4   5
ENDBRANCH   3   4
ENDBRANCH   2   3
ENDBRANCH   1   2
BRANCH   1  12
ATOM     12  C   UNL     1     172.335 171.986 152.334  1.00  0.00     0.000 C 
BRANCH  12  13
ATOM     13  C   UNL     1     171.302 173.107 152.524  1.00  0.00    -0.000 C 
BRANCH  13  14
ATOM     14  C   UNL     1     170.446 172.918 153.786  1.00  0.00    -0.000 C 
BRANCH  14  15
ATOM     15  C   UNL     1     170.901 171.725 154.637  1.00  0.00    -0.000 C 
BRANCH  15  16
ATOM     16  C   UNL     1     169.705 170.851 155.034  1.00  0.00    -0.000 C 
BRANCH  16  17
ATOM     17  C   UNL     1     170.140 169.401 155.283  1.00  0.00    -0.000 C 
BRANCH  17  18
ATOM     18  C   UNL     1     171.214 168.969 154.276  1.00  0.00    -0.000 C 
BRANCH  18  19
ATOM     19  C   UNL     1     170.894 167.590 153.690  1.00  0.00    -0.003 C 
ATOM     20  C   UNL     1     169.560 167.064 154.212  1.00  0.00     0.004 C 
ENDBRANCH  18  19
ENDBRANCH  17  18
ENDBRANCH  16  17
ENDBRANCH  15  16
ENDBRANCH  14  15
ENDBRANCH  13  14
ENDBRANCH  12  13
ENDBRANCH   1  12
TORSDOF 16
ENDMDL
