MODEL 1
REMARK VINA RESULT:    -6.504      0.000      0.000
REMARK INTER + INTRA:          -9.801
REMARK INTER:                  -8.595
REMARK INTRA:                  -1.206
REMARK UNBOUND:                -1.206
REMARK SMILES CC[C@H](C=C[C@@H](C)[C@H]1CC[C@H]2[C@H]3CC=C4C[C@@H](O)CC[C@@]4(C)[C@H]3CC[C@@]12C)C(C)C
REMARK SMILES IDX 6 1 7 2 5 3 4 4 3 5 2 6 1 7 28 8 29 9 30 10 8 11 9 12 26 13
REMARK SMILES IDX 10 14 11 15 25 16 27 17 12 18 24 19 23 20 13 21 21 22 14 23
REMARK SMILES IDX 15 24 20 25 22 26 16 27 19 28 17 29 18 30
REMARK H PARENT 18 31
REMARK Flexibility Score: inf
ROOT
ATOM      1  C   UNL     1     128.729 135.609 132.861  1.00  0.00     0.012 C 
ATOM      2  C   UNL     1     130.240 135.733 132.618  1.00  0.00     0.012 C 
ENDROOT
BRANCH   1   3
ATOM      3  C   UNL     1     128.524 135.198 134.301  1.00  0.00    -0.028 C 
ATOM      4  C   UNL     1     128.066 136.070 135.218  1.00  0.00    -0.027 C 
BRANCH   4   5
ATOM      5  C   UNL     1     127.822 135.670 136.659  1.00  0.00     0.014 C 
BRANCH   5   6
ATOM      6  C   UNL     1     128.681 136.501 137.664  1.00  0.00     0.004 C 
ATOM      7  C   UNL     1     129.585 135.697 138.609  1.00  0.00     0.004 C 
ENDBRANCH   5   6
BRANCH   5   8
ATOM      8  C   UNL     1     126.292 135.635 136.962  1.00  0.00    -0.011 C 
ATOM      9  C   UNL     1     125.939 136.452 138.217  1.00  0.00     0.008 C 
ATOM     10  C   UNL     1     125.406 136.064 135.784  1.00  0.00     0.008 C 
ENDBRANCH   5   8
ENDBRANCH   4   5
ENDBRANCH   1   3
BRANCH   1  11
ATOM     11  C   UNL     1     128.038 134.584 131.896  1.00  0.00     0.002 C 
ATOM     12  C   UNL     1     127.234 133.538 132.665  1.00  0.00     0.005 C 
ATOM     13  C   UNL     1     127.037 135.151 130.833  1.00  0.00    -0.026 C 
ATOM     14  C   UNL     1     126.277 132.917 131.666  1.00  0.00     0.005 C 
ATOM     15  C   UNL     1     126.113 133.927 130.508  1.00  0.00    -0.001 C 
ATOM     16  C   UNL     1     126.165 136.303 131.412  1.00  0.00     0.007 C 
ATOM     17  C   UNL     1     127.811 135.644 129.561  1.00  0.00     0.012 C 
ATOM     18  C   UNL     1     124.632 134.284 130.100  1.00  0.00     0.000 C 
ATOM     19  C   UNL     1     125.033 136.766 130.473  1.00  0.00     0.005 C 
ATOM     20  C   UNL     1     124.552 135.693 129.455  1.00  0.00     0.003 C 
ATOM     21  C   UNL     1     123.562 134.151 131.218  1.00  0.00     0.031 C 
ATOM     22  C   UNL     1     123.115 135.976 128.860  1.00  0.00    -0.008 C 
ATOM     23  C   UNL     1     122.223 134.752 130.872  1.00  0.00    -0.027 C 
ATOM     24  C   UNL     1     122.026 135.655 129.885  1.00  0.00    -0.065 C 
ATOM     25  C   UNL     1     122.994 137.472 128.407  1.00  0.00     0.014 C 
ATOM     26  C   UNL     1     122.887 135.070 127.614  1.00  0.00     0.016 C 
ATOM     27  C   UNL     1     120.614 136.143 129.622  1.00  0.00     0.063 C 
ATOM     28  C   UNL     1     121.559 137.903 128.064  1.00  0.00     0.033 C 
ATOM     29  C   UNL     1     120.594 137.626 129.231  1.00  0.00     0.118 C 
BRANCH  29  30
ATOM     30  O   UNL     1     120.932 138.408 130.350  1.00  0.00    -0.393 OA
ATOM     31  H   UNL     1     120.080 138.751 130.729  1.00  0.00     0.210 HD
ENDBRANCH  29  30
ENDBRANCH   1  11
TORSDOF 6
ENDMDL
MODEL 2
REMARK VINA RESULT:    -6.297     10.089     11.990
REMARK INTER + INTRA:          -9.528
REMARK INTER:                  -7.993
REMARK INTRA:                  -1.534
REMARK UNBOUND:                -1.206
REMARK SMILES CC[C@H](C=C[C@@H](C)[C@H]1CC[C@H]2[C@H]3CC=C4C[C@@H](O)CC[C@@]4(C)[C@H]3CC[C@@]12C)C(C)C
REMARK SMILES IDX 6 1 7 2 5 3 4 4 3 5 2 6 1 7 28 8 29 9 30 10 8 11 9 12 26 13
REMARK SMILES IDX 10 14 11 15 25 16 27 17 12 18 24 19 23 20 13 21 21 22 14 23
REMARK SMILES IDX 15 24 20 25 22 26 16 27 19 28 17 29 18 30
REMARK H PARENT 18 31
REMARK Flexibility Score: inf
ROOT
ATOM      1  C   UNL     1     130.756 126.062 137.521  1.00  0.00     0.012 C 
ATOM      2  C   UNL     1     132.090 126.819 137.597  1.00  0.00     0.012 C 
ENDROOT
BRANCH   1   3
ATOM      3  C   UNL     1     130.943 124.726 138.202  1.00  0.00    -0.028 C 
ATOM      4  C   UNL     1     130.092 124.301 139.155  1.00  0.00    -0.027 C 
BRANCH   4   5
ATOM      5  C   UNL     1     130.243 122.951 139.826  1.00  0.00     0.014 C 
BRANCH   5   6
ATOM      6  C   UNL     1     130.490 123.073 141.363  1.00  0.00     0.004 C 
ATOM      7  C   UNL     1     131.514 124.129 141.803  1.00  0.00     0.004 C 
ENDBRANCH   5   6
BRANCH   5   8
ATOM      8  C   UNL     1     129.073 122.005 139.413  1.00  0.00    -0.011 C 
ATOM      9  C   UNL     1     128.022 121.875 140.529  1.00  0.00     0.008 C 
ATOM     10  C   UNL     1     128.395 122.382 138.088  1.00  0.00     0.008 C 
ENDBRANCH   5   8
ENDBRANCH   4   5
ENDBRANCH   1   3
BRANCH   1  11
ATOM     11  C   UNL     1     130.252 125.860 136.050  1.00  0.00     0.002 C 
ATOM     12  C   UNL     1     130.233 124.385 135.657  1.00  0.00     0.005 C 
ATOM     13  C   UNL     1     128.819 126.384 135.696  1.00  0.00    -0.026 C 
ATOM     14  C   UNL     1     129.330 124.279 134.443  1.00  0.00     0.005 C 
ATOM     15  C   UNL     1     128.406 125.517 134.457  1.00  0.00    -0.001 C 
ATOM     16  C   UNL     1     127.807 126.129 136.851  1.00  0.00     0.007 C 
ATOM     17  C   UNL     1     128.867 127.911 135.343  1.00  0.00     0.012 C 
ATOM     18  C   UNL     1     126.862 125.236 134.310  1.00  0.00     0.000 C 
ATOM     19  C   UNL     1     126.343 126.448 136.483  1.00  0.00     0.005 C 
ATOM     20  C   UNL     1     126.021 126.364 134.964  1.00  0.00     0.003 C 
ATOM     21  C   UNL     1     126.367 123.850 134.807  1.00  0.00     0.031 C 
ATOM     22  C   UNL     1     124.482 126.197 134.646  1.00  0.00    -0.008 C 
ATOM     23  C   UNL     1     124.867 123.722 134.901  1.00  0.00    -0.027 C 
ATOM     24  C   UNL     1     124.015 124.770 134.939  1.00  0.00    -0.065 C 
ATOM     25  C   UNL     1     123.635 127.216 135.485  1.00  0.00     0.014 C 
ATOM     26  C   UNL     1     124.235 126.485 133.136  1.00  0.00     0.016 C 
ATOM     27  C   UNL     1     122.525 124.490 134.992  1.00  0.00     0.063 C 
ATOM     28  C   UNL     1     122.122 126.950 135.440  1.00  0.00     0.033 C 
ATOM     29  C   UNL     1     121.789 125.510 135.871  1.00  0.00     0.118 C 
BRANCH  29  30
ATOM     30  O   UNL     1     122.139 125.302 137.218  1.00  0.00    -0.393 OA
ATOM     31  H   UNL     1     122.754 126.038 137.471  1.00  0.00     0.210 HD
ENDBRANCH  29  30
ENDBRANCH   1  11
TORSDOF 6
ENDMDL
MODEL 3
REMARK VINA RESULT:    -6.187      4.795      7.305
REMARK INTER + INTRA:          -9.382
REMARK INTER:                  -8.104
REMARK INTRA:                  -1.278
REMARK UNBOUND:                -1.206
REMARK SMILES CC[C@H](C=C[C@@H](C)[C@H]1CC[C@H]2[C@H]3CC=C4C[C@@H](O)CC[C@@]4(C)[C@H]3CC[C@@]12C)C(C)C
REMARK SMILES IDX 6 1 7 2 5 3 4 4 3 5 2 6 1 7 28 8 29 9 30 10 8 11 9 12 26 13
REMARK SMILES IDX 10 14 11 15 25 16 27 17 12 18 24 19 23 20 13 21 21 22 14 23
REMARK SMILES IDX 15 24 20 25 22 26 16 27 19 28 17 29 18 30
REMARK H PARENT 18 31
REMARK Flexibility Score: inf
ROOT
ATOM      1  C   UNL     1     124.428 129.230 135.088  1.00  0.00     0.012 C 
ATOM      2  C   UNL     1     123.288 128.247 135.397  1.00  0.00     0.012 C 
ENDROOT
BRANCH   1   3
ATOM      3  C   UNL     1     125.599 128.873 135.974  1.00  0.00    -0.028 C 
ATOM      4  C   UNL     1     126.617 128.121 135.516  1.00  0.00    -0.027 C 
BRANCH   4   5
ATOM      5  C   UNL     1     127.817 127.781 136.378  1.00  0.00     0.014 C 
BRANCH   5   6
ATOM      6  C   UNL     1     127.754 126.326 136.940  1.00  0.00     0.004 C 
ATOM      7  C   UNL     1     127.198 125.256 135.990  1.00  0.00     0.004 C 
ENDBRANCH   5   6
BRANCH   5   8
ATOM      8  C   UNL     1     129.140 128.152 135.638  1.00  0.00    -0.011 C 
ATOM      9  C   UNL     1     130.343 127.372 136.195  1.00  0.00     0.008 C 
ATOM     10  C   UNL     1     129.072 128.005 134.112  1.00  0.00     0.008 C 
ENDBRANCH   5   8
ENDBRANCH   4   5
ENDBRANCH   1   3
BRANCH   1  11
ATOM     11  C   UNL     1     124.016 130.728 135.302  1.00  0.00     0.002 C 
ATOM     12  C   UNL     1     124.654 131.314 136.558  1.00  0.00     0.005 C 
ATOM     13  C   UNL     1     124.368 131.746 134.165  1.00  0.00    -0.026 C 
ATOM     14  C   UNL     1     124.569 132.822 136.415  1.00  0.00     0.005 C 
ATOM     15  C   UNL     1     124.415 133.126 134.908  1.00  0.00    -0.001 C 
ATOM     16  C   UNL     1     125.765 131.460 133.542  1.00  0.00     0.007 C 
ATOM     17  C   UNL     1     123.263 131.727 133.052  1.00  0.00     0.012 C 
ATOM     18  C   UNL     1     125.412 134.188 134.305  1.00  0.00     0.000 C 
ATOM     19  C   UNL     1     126.246 132.544 132.555  1.00  0.00     0.005 C 
ATOM     20  C   UNL     1     125.631 133.954 132.787  1.00  0.00     0.003 C 
ATOM     21  C   UNL     1     126.782 134.326 135.024  1.00  0.00     0.031 C 
ATOM     22  C   UNL     1     126.464 135.128 132.135  1.00  0.00    -0.008 C 
ATOM     23  C   UNL     1     127.801 135.143 134.269  1.00  0.00    -0.027 C 
ATOM     24  C   UNL     1     127.726 135.420 132.948  1.00  0.00    -0.065 C 
ATOM     25  C   UNL     1     126.854 134.770 130.659  1.00  0.00     0.014 C 
ATOM     26  C   UNL     1     125.596 136.421 132.110  1.00  0.00     0.016 C 
ATOM     27  C   UNL     1     128.803 136.291 132.330  1.00  0.00     0.063 C 
ATOM     28  C   UNL     1     127.881 135.729 130.038  1.00  0.00     0.033 C 
ATOM     29  C   UNL     1     129.148 135.837 130.906  1.00  0.00     0.118 C 
BRANCH  29  30
ATOM     30  O   UNL     1     129.818 134.600 130.961  1.00  0.00    -0.393 OA
ATOM     31  H   UNL     1     130.486 134.603 130.227  1.00  0.00     0.210 HD
ENDBRANCH  29  30
ENDBRANCH   1  11
TORSDOF 6
ENDMDL
MODEL 4
REMARK VINA RESULT:    -6.139      4.069      7.485
REMARK INTER + INTRA:          -9.319
REMARK INTER:                  -8.268
REMARK INTRA:                  -1.051
REMARK UNBOUND:                -1.206
REMARK SMILES CC[C@H](C=C[C@@H](C)[C@H]1CC[C@H]2[C@H]3CC=C4C[C@@H](O)CC[C@@]4(C)[C@H]3CC[C@@]12C)C(C)C
REMARK SMILES IDX 6 1 7 2 5 3 4 4 3 5 2 6 1 7 28 8 29 9 30 10 8 11 9 12 26 13
REMARK SMILES IDX 10 14 11 15 25 16 27 17 12 18 24 19 23 20 13 21 21 22 14 23
REMARK SMILES IDX 15 24 20 25 22 26 16 27 19 28 17 29 18 30
REMARK H PARENT 18 31
REMARK Flexibility Score: inf
ROOT
ATOM      1  C   UNL     1     123.847 137.280 137.741  1.00  0.00     0.012 C 
ATOM      2  C   UNL     1     123.966 136.470 139.040  1.00  0.00     0.012 C 
ENDROOT
BRANCH   1   3
ATOM      3  C   UNL     1     122.771 138.322 137.943  1.00  0.00    -0.028 C 
ATOM      4  C   UNL     1     121.733 138.103 138.770  1.00  0.00    -0.027 C 
BRANCH   4   5
ATOM      5  C   UNL     1     120.661 139.147 139.013  1.00  0.00     0.014 C 
BRANCH   5   6
ATOM      6  C   UNL     1     120.891 140.444 138.175  1.00  0.00     0.004 C 
ATOM      7  C   UNL     1     120.031 140.597 136.912  1.00  0.00     0.004 C 
ENDBRANCH   5   6
BRANCH   5   8
ATOM      8  C   UNL     1     119.242 138.511 138.880  1.00  0.00    -0.011 C 
ATOM      9  C   UNL     1     119.293 137.148 138.169  1.00  0.00     0.008 C 
ATOM     10  C   UNL     1     118.479 138.391 140.206  1.00  0.00     0.008 C 
ENDBRANCH   5   8
ENDBRANCH   4   5
ENDBRANCH   1   3
BRANCH   1  11
ATOM     11  C   UNL     1     123.517 136.388 136.494  1.00  0.00     0.002 C 
ATOM     12  C   UNL     1     123.064 137.228 135.303  1.00  0.00     0.005 C 
ATOM     13  C   UNL     1     124.663 135.482 135.928  1.00  0.00    -0.026 C 
ATOM     14  C   UNL     1     123.218 136.348 134.077  1.00  0.00     0.005 C 
ATOM     15  C   UNL     1     124.245 135.250 134.435  1.00  0.00    -0.001 C 
ATOM     16  C   UNL     1     126.042 136.203 135.960  1.00  0.00     0.007 C 
ATOM     17  C   UNL     1     124.737 134.133 136.724  1.00  0.00     0.012 C 
ATOM     18  C   UNL     1     125.435 135.051 133.420  1.00  0.00     0.000 C 
ATOM     19  C   UNL     1     127.168 135.434 135.239  1.00  0.00     0.005 C 
ATOM     20  C   UNL     1     126.683 134.461 134.127  1.00  0.00     0.003 C 
ATOM     21  C   UNL     1     125.838 136.297 132.585  1.00  0.00     0.031 C 
ATOM     22  C   UNL     1     127.807 134.069 133.087  1.00  0.00    -0.008 C 
ATOM     23  C   UNL     1     127.137 136.148 131.832  1.00  0.00    -0.027 C 
ATOM     24  C   UNL     1     128.079 135.221 132.117  1.00  0.00    -0.065 C 
ATOM     25  C   UNL     1     129.131 133.677 133.830  1.00  0.00     0.014 C 
ATOM     26  C   UNL     1     127.332 132.841 132.256  1.00  0.00     0.016 C 
ATOM     27  C   UNL     1     129.320 135.160 131.247  1.00  0.00     0.063 C 
ATOM     28  C   UNL     1     130.347 133.539 132.901  1.00  0.00     0.033 C 
ATOM     29  C   UNL     1     130.569 134.816 132.069  1.00  0.00     0.118 C 
BRANCH  29  30
ATOM     30  O   UNL     1     130.892 135.901 132.904  1.00  0.00    -0.393 OA
ATOM     31  H   UNL     1     130.069 136.129 133.410  1.00  0.00     0.210 HD
ENDBRANCH  29  30
ENDBRANCH   1  11
TORSDOF 6
ENDMDL
MODEL 5
REMARK VINA RESULT:    -5.988      8.569     10.434
REMARK INTER + INTRA:          -9.120
REMARK INTER:                  -7.537
REMARK INTRA:                  -1.583
REMARK UNBOUND:                -1.206
REMARK SMILES CC[C@H](C=C[C@@H](C)[C@H]1CC[C@H]2[C@H]3CC=C4C[C@@H](O)CC[C@@]4(C)[C@H]3CC[C@@]12C)C(C)C
REMARK SMILES IDX 6 1 7 2 5 3 4 4 3 5 2 6 1 7 28 8 29 9 30 10 8 11 9 12 26 13
REMARK SMILES IDX 10 14 11 15 25 16 27 17 12 18 24 19 23 20 13 21 21 22 14 23
REMARK SMILES IDX 15 24 20 25 22 26 16 27 19 28 17 29 18 30
REMARK H PARENT 18 31
REMARK Flexibility Score: inf
ROOT
ATOM      1  C   UNL     1     130.124 127.637 134.889  1.00  0.00     0.012 C 
ATOM      2  C   UNL     1     131.347 128.283 134.220  1.00  0.00     0.012 C 
ENDROOT
BRANCH   1   3
ATOM      3  C   UNL     1     130.587 126.373 135.575  1.00  0.00    -0.028 C 
ATOM      4  C   UNL     1     130.438 126.204 136.902  1.00  0.00    -0.027 C 
BRANCH   4   5
ATOM      5  C   UNL     1     130.864 124.930 137.605  1.00  0.00     0.014 C 
BRANCH   5   6
ATOM      6  C   UNL     1     131.792 125.206 138.830  1.00  0.00     0.004 C 
ATOM      7  C   UNL     1     131.581 124.307 140.056  1.00  0.00     0.004 C 
ENDBRANCH   5   6
BRANCH   5   8
ATOM      8  C   UNL     1     129.624 124.030 137.898  1.00  0.00    -0.011 C 
ATOM      9  C   UNL     1     128.336 124.861 138.039  1.00  0.00     0.008 C 
ATOM     10  C   UNL     1     129.415 122.895 136.887  1.00  0.00     0.008 C 
ENDBRANCH   5   8
ENDBRANCH   4   5
ENDBRANCH   1   3
BRANCH   1  11
ATOM     11  C   UNL     1     128.972 127.318 133.874  1.00  0.00     0.002 C 
ATOM     12  C   UNL     1     128.762 125.815 133.712  1.00  0.00     0.005 C 
ATOM     13  C   UNL     1     127.548 127.886 134.193  1.00  0.00    -0.026 C 
ATOM     14  C   UNL     1     127.385 125.640 133.102  1.00  0.00     0.005 C 
ATOM     15  C   UNL     1     126.585 126.925 133.413  1.00  0.00    -0.001 C 
ATOM     16  C   UNL     1     127.218 127.807 135.712  1.00  0.00     0.007 C 
ATOM     17  C   UNL     1     127.422 129.365 133.686  1.00  0.00     0.012 C 
ATOM     18  C   UNL     1     125.161 126.720 134.058  1.00  0.00     0.000 C 
ATOM     19  C   UNL     1     125.760 128.172 136.057  1.00  0.00     0.005 C 
ATOM     20  C   UNL     1     124.743 127.955 134.900  1.00  0.00     0.003 C 
ATOM     21  C   UNL     1     124.966 125.422 134.889  1.00  0.00     0.031 C 
ATOM     22  C   UNL     1     123.242 127.846 135.381  1.00  0.00    -0.008 C 
ATOM     23  C   UNL     1     123.697 125.391 135.704  1.00  0.00    -0.027 C 
ATOM     24  C   UNL     1     122.972 126.485 136.025  1.00  0.00    -0.065 C 
ATOM     25  C   UNL     1     122.908 128.991 136.399  1.00  0.00     0.014 C 
ATOM     26  C   UNL     1     122.297 127.995 134.152  1.00  0.00     0.016 C 
ATOM     27  C   UNL     1     121.692 126.298 136.818  1.00  0.00     0.063 C 
ATOM     28  C   UNL     1     121.561 128.810 137.117  1.00  0.00     0.033 C 
ATOM     29  C   UNL     1     121.475 127.442 137.817  1.00  0.00     0.118 C 
BRANCH  29  30
ATOM     30  O   UNL     1     122.431 127.350 138.845  1.00  0.00    -0.393 OA
ATOM     31  H   UNL     1     123.225 127.864 138.545  1.00  0.00     0.210 HD
ENDBRANCH  29  30
ENDBRANCH   1  11
TORSDOF 6
ENDMDL
MODEL 6
REMARK VINA RESULT:    -5.961      8.422     12.006
REMARK INTER + INTRA:          -9.083
REMARK INTER:                  -8.168
REMARK INTRA:                  -0.916
REMARK UNBOUND:                -1.206
REMARK SMILES CC[C@H](C=C[C@@H](C)[C@H]1CC[C@H]2[C@H]3CC=C4C[C@@H](O)CC[C@@]4(C)[C@H]3CC[C@@]12C)C(C)C
REMARK SMILES IDX 6 1 7 2 5 3 4 4 3 5 2 6 1 7 28 8 29 9 30 10 8 11 9 12 26 13
REMARK SMILES IDX 10 14 11 15 25 16 27 17 12 18 24 19 23 20 13 21 21 22 14 23
REMARK SMILES IDX 15 24 20 25 22 26 16 27 19 28 17 29 18 30
REMARK H PARENT 18 31
REMARK Flexibility Score: inf
ROOT
ATOM      1  C   UNL     1     125.686 129.261 134.869  1.00  0.00     0.012 C 
ATOM      2  C   UNL     1     124.274 128.712 134.621  1.00  0.00     0.012 C 
ENDROOT
BRANCH   1   3
ATOM      3  C   UNL     1     125.738 130.668 134.321  1.00  0.00    -0.028 C 
ATOM      4  C   UNL     1     125.171 131.696 134.980  1.00  0.00    -0.027 C 
BRANCH   4   5
ATOM      5  C   UNL     1     125.241 133.120 134.465  1.00  0.00     0.014 C 
BRANCH   5   6
ATOM      6  C   UNL     1     125.624 134.141 135.583  1.00  0.00     0.004 C 
ATOM      7  C   UNL     1     124.488 134.578 136.519  1.00  0.00     0.004 C 
ENDBRANCH   5   6
BRANCH   5   8
ATOM      8  C   UNL     1     126.113 133.189 133.173  1.00  0.00    -0.011 C 
ATOM      9  C   UNL     1     125.394 133.940 132.039  1.00  0.00     0.008 C 
ATOM     10  C   UNL     1     127.516 133.771 133.389  1.00  0.00     0.008 C 
ENDBRANCH   5   8
ENDBRANCH   4   5
ENDBRANCH   1   3
BRANCH   1  11
ATOM     11  C   UNL     1     126.806 128.379 134.218  1.00  0.00     0.002 C 
ATOM     12  C   UNL     1     128.128 129.135 134.106  1.00  0.00     0.005 C 
ATOM     13  C   UNL     1     127.177 127.035 134.931  1.00  0.00    -0.026 C 
ATOM     14  C   UNL     1     129.204 128.086 133.907  1.00  0.00     0.005 C 
ATOM     15  C   UNL     1     128.641 126.751 134.445  1.00  0.00    -0.001 C 
ATOM     16  C   UNL     1     127.180 127.181 136.481  1.00  0.00     0.007 C 
ATOM     17  C   UNL     1     126.193 125.894 134.495  1.00  0.00     0.012 C 
ATOM     18  C   UNL     1     129.555 125.969 135.464  1.00  0.00     0.000 C 
ATOM     19  C   UNL     1     127.725 125.946 137.227  1.00  0.00     0.005 C 
ATOM     20  C   UNL     1     128.708 125.068 136.401  1.00  0.00     0.003 C 
ATOM     21  C   UNL     1     130.539 126.829 136.302  1.00  0.00     0.031 C 
ATOM     22  C   UNL     1     129.623 124.130 137.285  1.00  0.00    -0.008 C 
ATOM     23  C   UNL     1     131.196 126.091 137.442  1.00  0.00    -0.027 C 
ATOM     24  C   UNL     1     130.733 124.934 137.965  1.00  0.00    -0.065 C 
ATOM     25  C   UNL     1     128.764 123.389 138.368  1.00  0.00     0.014 C 
ATOM     26  C   UNL     1     130.291 123.059 136.375  1.00  0.00     0.016 C 
ATOM     27  C   UNL     1     131.521 124.280 139.085  1.00  0.00     0.063 C 
ATOM     28  C   UNL     1     129.601 122.665 139.434  1.00  0.00     0.033 C 
ATOM     29  C   UNL     1     130.595 123.622 140.116  1.00  0.00     0.118 C 
BRANCH  29  30
ATOM     30  O   UNL     1     129.910 124.621 140.832  1.00  0.00    -0.393 OA
ATOM     31  H   UNL     1     129.436 125.180 140.163  1.00  0.00     0.210 HD
ENDBRANCH  29  30
ENDBRANCH   1  11
TORSDOF 6
ENDMDL
MODEL 7
REMARK VINA RESULT:    -5.769      2.354      4.428
REMARK INTER + INTRA:          -8.829
REMARK INTER:                  -7.224
REMARK INTRA:                  -1.605
REMARK UNBOUND:                -1.206
REMARK SMILES CC[C@H](C=C[C@@H](C)[C@H]1CC[C@H]2[C@H]3CC=C4C[C@@H](O)CC[C@@]4(C)[C@H]3CC[C@@]12C)C(C)C
REMARK SMILES IDX 6 1 7 2 5 3 4 4 3 5 2 6 1 7 28 8 29 9 30 10 8 11 9 12 26 13
REMARK SMILES IDX 10 14 11 15 25 16 27 17 12 18 24 19 23 20 13 21 21 22 14 23
REMARK SMILES IDX 15 24 20 25 22 26 16 27 19 28 17 29 18 30
REMARK H PARENT 18 31
REMARK Flexibility Score: inf
ROOT
ATOM      1  C   UNL     1     126.430 136.467 136.643  1.00  0.00     0.012 C 
ATOM      2  C   UNL     1     127.411 136.652 137.810  1.00  0.00     0.012 C 
ENDROOT
BRANCH   1   3
ATOM      3  C   UNL     1     125.070 136.938 137.103  1.00  0.00    -0.028 C 
ATOM      4  C   UNL     1     124.236 137.588 136.269  1.00  0.00    -0.027 C 
BRANCH   4   5
ATOM      5  C   UNL     1     122.855 138.038 136.701  1.00  0.00     0.014 C 
BRANCH   5   6
ATOM      6  C   UNL     1     121.717 137.252 135.976  1.00  0.00     0.004 C 
ATOM      7  C   UNL     1     122.167 136.196 134.957  1.00  0.00     0.004 C 
ENDBRANCH   5   6
BRANCH   5   8
ATOM      8  C   UNL     1     122.755 138.071 138.257  1.00  0.00    -0.011 C 
ATOM      9  C   UNL     1     122.117 139.377 138.761  1.00  0.00     0.008 C 
ATOM     10  C   UNL     1     122.038 136.859 138.869  1.00  0.00     0.008 C 
ENDBRANCH   5   8
ENDBRANCH   4   5
ENDBRANCH   1   3
BRANCH   1  11
ATOM     11  C   UNL     1     126.354 134.984 136.139  1.00  0.00     0.002 C 
ATOM     12  C   UNL     1     125.030 134.326 136.519  1.00  0.00     0.005 C 
ATOM     13  C   UNL     1     126.494 134.734 134.599  1.00  0.00    -0.026 C 
ATOM     14  C   UNL     1     124.884 133.114 135.619  1.00  0.00     0.005 C 
ATOM     15  C   UNL     1     125.778 133.356 134.383  1.00  0.00    -0.001 C 
ATOM     16  C   UNL     1     125.758 135.822 133.765  1.00  0.00     0.007 C 
ATOM     17  C   UNL     1     128.007 134.669 134.191  1.00  0.00     0.012 C 
ATOM     18  C   UNL     1     125.092 133.160 132.977  1.00  0.00     0.000 C 
ATOM     19  C   UNL     1     125.698 135.520 132.253  1.00  0.00     0.005 C 
ATOM     20  C   UNL     1     125.794 134.012 131.886  1.00  0.00     0.003 C 
ATOM     21  C   UNL     1     123.558 133.394 132.925  1.00  0.00     0.031 C 
ATOM     22  C   UNL     1     125.248 133.669 130.444  1.00  0.00    -0.008 C 
ATOM     23  C   UNL     1     122.986 133.463 131.531  1.00  0.00    -0.027 C 
ATOM     24  C   UNL     1     123.718 133.694 130.419  1.00  0.00    -0.065 C 
ATOM     25  C   UNL     1     125.812 134.682 129.388  1.00  0.00     0.014 C 
ATOM     26  C   UNL     1     125.714 132.239 130.044  1.00  0.00     0.016 C 
ATOM     27  C   UNL     1     123.014 133.695 129.076  1.00  0.00     0.063 C 
ATOM     28  C   UNL     1     125.132 134.590 128.013  1.00  0.00     0.033 C 
ATOM     29  C   UNL     1     123.605 134.747 128.129  1.00  0.00     0.118 C 
BRANCH  29  30
ATOM     30  O   UNL     1     123.272 136.033 128.595  1.00  0.00    -0.393 OA
ATOM     31  H   UNL     1     123.416 136.658 127.838  1.00  0.00     0.210 HD
ENDBRANCH  29  30
ENDBRANCH   1  11
TORSDOF 6
ENDMDL
MODEL 8
REMARK VINA RESULT:    -5.695      2.246      7.800
REMARK INTER + INTRA:          -8.732
REMARK INTER:                  -7.207
REMARK INTRA:                  -1.525
REMARK UNBOUND:                -1.206
REMARK SMILES CC[C@H](C=C[C@@H](C)[C@H]1CC[C@H]2[C@H]3CC=C4C[C@@H](O)CC[C@@]4(C)[C@H]3CC[C@@]12C)C(C)C
REMARK SMILES IDX 6 1 7 2 5 3 4 4 3 5 2 6 1 7 28 8 29 9 30 10 8 11 9 12 26 13
REMARK SMILES IDX 10 14 11 15 25 16 27 17 12 18 24 19 23 20 13 21 21 22 14 23
REMARK SMILES IDX 15 24 20 25 22 26 16 27 19 28 17 29 18 30
REMARK H PARENT 18 31
REMARK Flexibility Score: inf
ROOT
ATOM      1  C   UNL     1     121.421 135.866 127.933  1.00  0.00     0.012 C 
ATOM      2  C   UNL     1     120.418 135.561 126.810  1.00  0.00     0.012 C 
ENDROOT
BRANCH   1   3
ATOM      3  C   UNL     1     121.799 137.325 127.832  1.00  0.00    -0.028 C 
ATOM      4  C   UNL     1     121.581 138.176 128.851  1.00  0.00    -0.027 C 
BRANCH   4   5
ATOM      5  C   UNL     1     121.983 139.636 128.784  1.00  0.00     0.014 C 
BRANCH   5   6
ATOM      6  C   UNL     1     123.532 139.830 128.815  1.00  0.00     0.004 C 
ATOM      7  C   UNL     1     124.289 139.062 129.908  1.00  0.00     0.004 C 
ENDBRANCH   5   6
BRANCH   5   8
ATOM      8  C   UNL     1     121.246 140.349 127.608  1.00  0.00    -0.011 C 
ATOM      9  C   UNL     1     119.814 140.757 127.996  1.00  0.00     0.008 C 
ATOM     10  C   UNL     1     122.002 141.551 127.025  1.00  0.00     0.008 C 
ENDBRANCH   5   8
ENDBRANCH   4   5
ENDBRANCH   1   3
BRANCH   1  11
ATOM     11  C   UNL     1     122.701 134.963 127.868  1.00  0.00     0.002 C 
ATOM     12  C   UNL     1     123.880 135.700 127.237  1.00  0.00     0.005 C 
ATOM     13  C   UNL     1     123.261 134.401 129.218  1.00  0.00    -0.026 C 
ATOM     14  C   UNL     1     125.126 134.932 127.636  1.00  0.00     0.005 C 
ATOM     15  C   UNL     1     124.772 134.122 128.903  1.00  0.00    -0.001 C 
ATOM     16  C   UNL     1     123.171 135.449 130.365  1.00  0.00     0.007 C 
ATOM     17  C   UNL     1     122.503 133.089 129.621  1.00  0.00     0.012 C 
ATOM     18  C   UNL     1     125.759 134.270 130.123  1.00  0.00     0.000 C 
ATOM     19  C   UNL     1     123.882 135.020 131.665  1.00  0.00     0.005 C 
ATOM     20  C   UNL     1     125.035 133.994 131.467  1.00  0.00     0.003 C 
ATOM     21  C   UNL     1     126.546 135.606 130.209  1.00  0.00     0.031 C 
ATOM     22  C   UNL     1     126.054 133.940 132.674  1.00  0.00    -0.008 C 
ATOM     23  C   UNL     1     127.266 135.820 131.517  1.00  0.00    -0.027 C 
ATOM     24  C   UNL     1     126.983 135.156 132.659  1.00  0.00    -0.065 C 
ATOM     25  C   UNL     1     125.286 133.874 134.039  1.00  0.00     0.014 C 
ATOM     26  C   UNL     1     126.933 132.661 132.546  1.00  0.00     0.016 C 
ATOM     27  C   UNL     1     127.819 135.446 133.892  1.00  0.00     0.063 C 
ATOM     28  C   UNL     1     126.185 134.084 135.268  1.00  0.00     0.033 C 
ATOM     29  C   UNL     1     126.973 135.404 135.171  1.00  0.00     0.118 C 
BRANCH  29  30
ATOM     30  O   UNL     1     126.099 136.506 135.188  1.00  0.00    -0.393 OA
ATOM     31  H   UNL     1     125.565 136.461 134.352  1.00  0.00     0.210 HD
ENDBRANCH  29  30
ENDBRANCH   1  11
TORSDOF 6
ENDMDL
MODEL 9
REMARK VINA RESULT:    -5.615      4.235      8.965
REMARK INTER + INTRA:          -8.626
REMARK INTER:                  -7.429
REMARK INTRA:                  -1.197
REMARK UNBOUND:                -1.206
REMARK SMILES CC[C@H](C=C[C@@H](C)[C@H]1CC[C@H]2[C@H]3CC=C4C[C@@H](O)CC[C@@]4(C)[C@H]3CC[C@@]12C)C(C)C
REMARK SMILES IDX 6 1 7 2 5 3 4 4 3 5 2 6 1 7 28 8 29 9 30 10 8 11 9 12 26 13
REMARK SMILES IDX 10 14 11 15 25 16 27 17 12 18 24 19 23 20 13 21 21 22 14 23
REMARK SMILES IDX 15 24 20 25 22 26 16 27 19 28 17 29 18 30
REMARK H PARENT 18 31
REMARK Flexibility Score: inf
ROOT
ATOM      1  C   UNL     1     122.882 132.305 127.671  1.00  0.00     0.012 C 
ATOM      2  C   UNL     1     121.566 132.489 126.901  1.00  0.00     0.012 C 
ENDROOT
BRANCH   1   3
ATOM      3  C   UNL     1     123.323 130.870 127.499  1.00  0.00    -0.028 C 
ATOM      4  C   UNL     1     122.976 130.158 126.410  1.00  0.00    -0.027 C 
BRANCH   4   5
ATOM      5  C   UNL     1     123.435 128.729 126.202  1.00  0.00     0.014 C 
BRANCH   5   6
ATOM      6  C   UNL     1     124.363 128.226 127.353  1.00  0.00     0.004 C 
ATOM      7  C   UNL     1     125.710 127.628 126.925  1.00  0.00     0.004 C 
ENDBRANCH   5   6
BRANCH   5   8
ATOM      8  C   UNL     1     122.218 127.809 125.877  1.00  0.00    -0.011 C 
ATOM      9  C   UNL     1     122.303 126.466 126.623  1.00  0.00     0.008 C 
ATOM     10  C   UNL     1     120.850 128.464 126.118  1.00  0.00     0.008 C 
ENDBRANCH   5   8
ENDBRANCH   4   5
ENDBRANCH   1   3
BRANCH   1  11
ATOM     11  C   UNL     1     122.753 132.659 129.193  1.00  0.00     0.002 C 
ATOM     12  C   UNL     1     122.812 131.411 130.070  1.00  0.00     0.005 C 
ATOM     13  C   UNL     1     123.821 133.626 129.806  1.00  0.00    -0.026 C 
ATOM     14  C   UNL     1     123.135 131.890 131.472  1.00  0.00     0.005 C 
ATOM     15  C   UNL     1     123.799 133.278 131.334  1.00  0.00    -0.001 C 
ATOM     16  C   UNL     1     125.246 133.347 129.245  1.00  0.00     0.007 C 
ATOM     17  C   UNL     1     123.420 135.120 129.548  1.00  0.00     0.012 C 
ATOM     18  C   UNL     1     125.166 133.475 132.095  1.00  0.00     0.000 C 
ATOM     19  C   UNL     1     126.365 134.136 129.954  1.00  0.00     0.005 C 
ATOM     20  C   UNL     1     126.036 134.563 131.413  1.00  0.00     0.003 C 
ATOM     21  C   UNL     1     126.009 132.192 132.332  1.00  0.00     0.031 C 
ATOM     22  C   UNL     1     127.311 134.912 132.280  1.00  0.00    -0.008 C 
ATOM     23  C   UNL     1     127.415 132.452 132.814  1.00  0.00    -0.027 C 
ATOM     24  C   UNL     1     128.051 133.640 132.699  1.00  0.00    -0.065 C 
ATOM     25  C   UNL     1     128.280 135.849 131.479  1.00  0.00     0.014 C 
ATOM     26  C   UNL     1     126.867 135.658 133.571  1.00  0.00     0.016 C 
ATOM     27  C   UNL     1     129.452 133.768 133.267  1.00  0.00     0.063 C 
ATOM     28  C   UNL     1     129.659 136.024 132.134  1.00  0.00     0.033 C 
ATOM     29  C   UNL     1     130.336 134.666 132.392  1.00  0.00     0.118 C 
BRANCH  29  30
ATOM     30  O   UNL     1     130.610 134.010 131.178  1.00  0.00    -0.393 OA
ATOM     31  H   UNL     1     131.595 134.035 131.054  1.00  0.00     0.210 HD
ENDBRANCH  29  30
ENDBRANCH   1  11
TORSDOF 6
ENDMDL
