MODEL 1
REMARK VINA RESULT:    -3.441      0.000      0.000
REMARK INTER + INTRA:          -8.954
REMARK INTER:                  -6.459
REMARK INTRA:                  -2.494
REMARK UNBOUND:                -2.494
REMARK SMILES CCCCCCCCC=CCCCCCCCC(=O)[O-]
REMARK SMILES IDX 10 1 9 2 11 3 12 4 13 5 14 6 15 7 16 8 17 9 18 10 19 11
REMARK SMILES IDX 20 12 8 13 7 14 6 15 5 16 4 17 3 18 2 19 1 20
REMARK H PARENT
REMARK Flexibility Score: inf
ROOT
ATOM      1  C   UNL     1      58.872  28.583  49.238  1.00  0.00    -0.031 C 
ATOM      2  C   UNL     1      58.126  29.257  50.133  1.00  0.00    -0.031 C 
ENDROOT
BRANCH   1   3
ATOM      3  C   UNL     1      60.136  27.829  49.564  1.00  0.00     0.027 C 
BRANCH   3   4
ATOM      4  C   UNL     1      59.978  26.332  49.275  1.00  0.00     0.004 C 
BRANCH   4   5
ATOM      5  C   UNL     1      60.377  25.492  50.494  1.00  0.00     0.000 C 
BRANCH   5   6
ATOM      6  C   UNL     1      60.198  23.996  50.214  1.00  0.00     0.000 C 
BRANCH   6   7
ATOM      7  C   UNL     1      61.440  23.202  50.647  1.00  0.00     0.000 C 
BRANCH   7   8
ATOM      8  C   UNL     1      61.727  21.990  49.739  1.00  0.00     0.006 C 
BRANCH   8   9
ATOM      9  C   UNL     1      60.462  21.336  49.155  1.00  0.00     0.053 C 
BRANCH   9  10
ATOM     10  C   UNL     1      60.019  20.139  49.939  1.00  0.00     0.041 C 
ATOM     11  O   UNL     1      59.498  19.156  49.350  1.00  0.00    -0.550 OA
ATOM     12  O   UNL     1      60.194  20.102  51.316  1.00  0.00    -0.550 OA
ENDBRANCH   9  10
ENDBRANCH   8   9
ENDBRANCH   7   8
ENDBRANCH   6   7
ENDBRANCH   5   6
ENDBRANCH   4   5
ENDBRANCH   3   4
ENDBRANCH   1   3
BRANCH   2  13
ATOM     13  C   UNL     1      58.420  29.356  51.611  1.00  0.00     0.027 C 
BRANCH  13  14
ATOM     14  C   UNL     1      57.415  28.551  52.453  1.00  0.00     0.004 C 
BRANCH  14  15
ATOM     15  C   UNL     1      57.779  27.062  52.601  1.00  0.00     0.000 C 
BRANCH  15  16
ATOM     16  C   UNL     1      56.644  26.120  52.167  1.00  0.00     0.000 C 
BRANCH  16  17
ATOM     17  C   UNL     1      56.721  25.729  50.680  1.00  0.00    -0.000 C 
BRANCH  17  18
ATOM     18  C   UNL     1      55.586  26.280  49.798  1.00  0.00    -0.000 C 
BRANCH  18  19
ATOM     19  C   UNL     1      54.525  27.052  50.596  1.00  0.00    -0.003 C 
ATOM     20  C   UNL     1      54.437  28.504  50.137  1.00  0.00     0.004 C 
ENDBRANCH  18  19
ENDBRANCH  17  18
ENDBRANCH  16  17
ENDBRANCH  15  16
ENDBRANCH  14  15
ENDBRANCH  13  14
ENDBRANCH   2  13
TORSDOF 15
ENDMDL
MODEL 2
REMARK VINA RESULT:    -3.413      1.561      3.304
REMARK INTER + INTRA:          -8.900
REMARK INTER:                  -6.266
REMARK INTRA:                  -2.634
REMARK UNBOUND:                -2.494
REMARK SMILES CCCCCCCCC=CCCCCCCCC(=O)[O-]
REMARK SMILES IDX 10 1 9 2 11 3 12 4 13 5 14 6 15 7 16 8 17 9 18 10 19 11
REMARK SMILES IDX 20 12 8 13 7 14 6 15 5 16 4 17 3 18 2 19 1 20
REMARK H PARENT
REMARK Flexibility Score: inf
ROOT
ATOM      1  C   UNL     1      57.718  28.125  51.098  1.00  0.00    -0.031 C 
ATOM      2  C   UNL     1      57.306  26.846  51.176  1.00  0.00    -0.031 C 
ENDROOT
BRANCH   1   3
ATOM      3  C   UNL     1      57.924  28.887  49.814  1.00  0.00     0.027 C 
BRANCH   3   4
ATOM      4  C   UNL     1      59.247  28.497  49.145  1.00  0.00     0.004 C 
BRANCH   4   5
ATOM      5  C   UNL     1      60.443  28.901  50.014  1.00  0.00     0.000 C 
BRANCH   5   6
ATOM      6  C   UNL     1      61.413  27.728  50.195  1.00  0.00     0.000 C 
BRANCH   6   7
ATOM      7  C   UNL     1      60.796  26.418  49.683  1.00  0.00     0.000 C 
BRANCH   7   8
ATOM      8  C   UNL     1      60.839  25.283  50.725  1.00  0.00     0.006 C 
BRANCH   8   9
ATOM      9  C   UNL     1      59.977  24.064  50.352  1.00  0.00     0.053 C 
BRANCH   9  10
ATOM     10  C   UNL     1      60.795  22.832  50.110  1.00  0.00     0.041 C 
ATOM     11  O   UNL     1      61.010  22.437  48.934  1.00  0.00    -0.550 OA
ATOM     12  O   UNL     1      61.333  22.130  51.181  1.00  0.00    -0.550 OA
ENDBRANCH   9  10
ENDBRANCH   8   9
ENDBRANCH   7   8
ENDBRANCH   6   7
ENDBRANCH   5   6
ENDBRANCH   4   5
ENDBRANCH   3   4
ENDBRANCH   1   3
BRANCH   2  13
ATOM     13  C   UNL     1      56.963  25.969  49.996  1.00  0.00     0.027 C 
BRANCH  13  14
ATOM     14  C   UNL     1      55.455  25.977  49.692  1.00  0.00     0.004 C 
BRANCH  14  15
ATOM     15  C   UNL     1      54.567  25.854  50.945  1.00  0.00     0.000 C 
BRANCH  15  16
ATOM     16  C   UNL     1      53.505  26.961  51.038  1.00  0.00     0.000 C 
BRANCH  16  17
ATOM     17  C   UNL     1      53.722  28.091  50.014  1.00  0.00    -0.000 C 
BRANCH  17  18
ATOM     18  C   UNL     1      54.281  29.403  50.595  1.00  0.00    -0.000 C 
BRANCH  18  19
ATOM     19  C   UNL     1      54.373  29.390  52.129  1.00  0.00    -0.003 C 
ATOM     20  C   UNL     1      54.791  30.755  52.667  1.00  0.00     0.004 C 
ENDBRANCH  18  19
ENDBRANCH  17  18
ENDBRANCH  16  17
ENDBRANCH  15  16
ENDBRANCH  14  15
ENDBRANCH  13  14
ENDBRANCH   2  13
TORSDOF 15
ENDMDL
MODEL 3
REMARK VINA RESULT:    -3.378     10.793     13.147
REMARK INTER + INTRA:          -8.834
REMARK INTER:                  -6.011
REMARK INTRA:                  -2.823
REMARK UNBOUND:                -2.494
REMARK SMILES CCCCCCCCC=CCCCCCCCC(=O)[O-]
REMARK SMILES IDX 10 1 9 2 11 3 12 4 13 5 14 6 15 7 16 8 17 9 18 10 19 11
REMARK SMILES IDX 20 12 8 13 7 14 6 15 5 16 4 17 3 18 2 19 1 20
REMARK H PARENT
REMARK Flexibility Score: inf
ROOT
ATOM      1  C   UNL     1      62.370  32.905  59.391  1.00  0.00    -0.031 C 
ATOM      2  C   UNL     1      63.703  32.989  59.564  1.00  0.00    -0.031 C 
ENDROOT
BRANCH   1   3
ATOM      3  C   UNL     1      61.367  32.725  60.501  1.00  0.00     0.027 C 
BRANCH   3   4
ATOM      4  C   UNL     1      60.576  31.423  60.327  1.00  0.00     0.004 C 
BRANCH   4   5
ATOM      5  C   UNL     1      60.569  30.606  61.623  1.00  0.00     0.000 C 
BRANCH   5   6
ATOM      6  C   UNL     1      61.991  30.420  62.164  1.00  0.00     0.000 C 
BRANCH   6   7
ATOM      7  C   UNL     1      62.614  29.117  61.640  1.00  0.00     0.000 C 
BRANCH   7   8
ATOM      8  C   UNL     1      63.696  29.355  60.568  1.00  0.00     0.006 C 
BRANCH   8   9
ATOM      9  C   UNL     1      63.239  29.018  59.137  1.00  0.00     0.053 C 
BRANCH   9  10
ATOM     10  C   UNL     1      62.212  27.928  59.103  1.00  0.00     0.041 C 
ATOM     11  O   UNL     1      60.998  28.209  58.924  1.00  0.00    -0.550 OA
ATOM     12  O   UNL     1      62.597  26.601  59.252  1.00  0.00    -0.550 OA
ENDBRANCH   9  10
ENDBRANCH   8   9
ENDBRANCH   7   8
ENDBRANCH   6   7
ENDBRANCH   5   6
ENDBRANCH   4   5
ENDBRANCH   3   4
ENDBRANCH   1   3
BRANCH   2  13
ATOM     13  C   UNL     1      64.412  32.936  60.896  1.00  0.00     0.027 C 
BRANCH  13  14
ATOM     14  C   UNL     1      64.409  34.301  61.604  1.00  0.00     0.004 C 
BRANCH  14  15
ATOM     15  C   UNL     1      64.790  35.479  60.688  1.00  0.00     0.000 C 
BRANCH  15  16
ATOM     16  C   UNL     1      63.738  36.600  60.683  1.00  0.00     0.000 C 
BRANCH  16  17
ATOM     17  C   UNL     1      62.416  36.188  61.359  1.00  0.00    -0.000 C 
BRANCH  17  18
ATOM     18  C   UNL     1      61.190  37.034  60.970  1.00  0.00    -0.000 C 
BRANCH  18  19
ATOM     19  C   UNL     1      60.146  36.245  60.166  1.00  0.00    -0.003 C 
ATOM     20  C   UNL     1      60.572  36.089  58.710  1.00  0.00     0.004 C 
ENDBRANCH  18  19
ENDBRANCH  17  18
ENDBRANCH  16  17
ENDBRANCH  15  16
ENDBRANCH  14  15
ENDBRANCH  13  14
ENDBRANCH   2  13
TORSDOF 15
ENDMDL
MODEL 4
REMARK VINA RESULT:    -3.356     11.434     14.102
REMARK INTER + INTRA:          -8.793
REMARK INTER:                  -6.124
REMARK INTRA:                  -2.670
REMARK UNBOUND:                -2.494
REMARK SMILES CCCCCCCCC=CCCCCCCCC(=O)[O-]
REMARK SMILES IDX 10 1 9 2 11 3 12 4 13 5 14 6 15 7 16 8 17 9 18 10 19 11
REMARK SMILES IDX 20 12 8 13 7 14 6 15 5 16 4 17 3 18 2 19 1 20
REMARK H PARENT
REMARK Flexibility Score: inf
ROOT
ATOM      1  C   UNL     1      64.349  31.940  58.859  1.00  0.00    -0.031 C 
ATOM      2  C   UNL     1      64.816  31.681  60.095  1.00  0.00    -0.031 C 
ENDROOT
BRANCH   1   3
ATOM      3  C   UNL     1      62.891  32.046  58.494  1.00  0.00     0.027 C 
BRANCH   3   4
ATOM      4  C   UNL     1      62.525  33.479  58.088  1.00  0.00     0.004 C 
BRANCH   4   5
ATOM      5  C   UNL     1      61.247  33.942  58.796  1.00  0.00     0.000 C 
BRANCH   5   6
ATOM      6  C   UNL     1      61.463  34.045  60.310  1.00  0.00     0.000 C 
BRANCH   6   7
ATOM      7  C   UNL     1      61.290  35.493  60.793  1.00  0.00     0.000 C 
BRANCH   7   8
ATOM      8  C   UNL     1      62.607  36.129  61.278  1.00  0.00     0.006 C 
BRANCH   8   9
ATOM      9  C   UNL     1      63.746  35.115  61.490  1.00  0.00     0.053 C 
BRANCH   9  10
ATOM     10  C   UNL     1      65.009  35.514  60.790  1.00  0.00     0.041 C 
ATOM     11  O   UNL     1      65.108  35.384  59.541  1.00  0.00    -0.550 OA
ATOM     12  O   UNL     1      66.071  36.042  61.513  1.00  0.00    -0.550 OA
ENDBRANCH   9  10
ENDBRANCH   8   9
ENDBRANCH   7   8
ENDBRANCH   6   7
ENDBRANCH   5   6
ENDBRANCH   4   5
ENDBRANCH   3   4
ENDBRANCH   1   3
BRANCH   2  13
ATOM     13  C   UNL     1      63.960  31.472  61.322  1.00  0.00     0.027 C 
BRANCH  13  14
ATOM     14  C   UNL     1      63.775  29.980  61.647  1.00  0.00     0.004 C 
BRANCH  14  15
ATOM     15  C   UNL     1      62.327  29.598  62.010  1.00  0.00     0.000 C 
BRANCH  15  16
ATOM     16  C   UNL     1      61.338  30.762  61.838  1.00  0.00     0.000 C 
BRANCH  16  17
ATOM     17  C   UNL     1      60.389  30.574  60.640  1.00  0.00    -0.000 C 
BRANCH  17  18
ATOM     18  C   UNL     1      60.591  29.272  59.843  1.00  0.00    -0.000 C 
BRANCH  18  19
ATOM     19  C   UNL     1      59.492  28.231  60.104  1.00  0.00    -0.003 C 
ATOM     20  C   UNL     1      58.195  28.611  59.397  1.00  0.00     0.004 C 
ENDBRANCH  18  19
ENDBRANCH  17  18
ENDBRANCH  16  17
ENDBRANCH  15  16
ENDBRANCH  14  15
ENDBRANCH  13  14
ENDBRANCH   2  13
TORSDOF 15
ENDMDL
MODEL 5
REMARK VINA RESULT:    -3.324     11.612     13.938
REMARK INTER + INTRA:          -8.733
REMARK INTER:                  -5.783
REMARK INTRA:                  -2.950
REMARK UNBOUND:                -2.494
REMARK SMILES CCCCCCCCC=CCCCCCCCC(=O)[O-]
REMARK SMILES IDX 10 1 9 2 11 3 12 4 13 5 14 6 15 7 16 8 17 9 18 10 19 11
REMARK SMILES IDX 20 12 8 13 7 14 6 15 5 16 4 17 3 18 2 19 1 20
REMARK H PARENT
REMARK Flexibility Score: inf
ROOT
ATOM      1  C   UNL     1      63.841  35.064  61.514  1.00  0.00    -0.031 C 
ATOM      2  C   UNL     1      65.077  35.249  61.012  1.00  0.00    -0.031 C 
ENDROOT
BRANCH   1   3
ATOM      3  C   UNL     1      62.642  35.914  61.183  1.00  0.00     0.027 C 
BRANCH   3   4
ATOM      4  C   UNL     1      61.477  35.054  60.678  1.00  0.00     0.004 C 
BRANCH   4   5
ATOM      5  C   UNL     1      61.797  33.561  60.811  1.00  0.00     0.000 C 
BRANCH   5   6
ATOM      6  C   UNL     1      61.007  32.736  59.790  1.00  0.00     0.000 C 
BRANCH   6   7
ATOM      7  C   UNL     1      60.622  31.366  60.368  1.00  0.00     0.000 C 
BRANCH   7   8
ATOM      8  C   UNL     1      61.055  31.188  61.837  1.00  0.00     0.006 C 
BRANCH   8   9
ATOM      9  C   UNL     1      62.016  30.008  62.064  1.00  0.00     0.053 C 
BRANCH   9  10
ATOM     10  C   UNL     1      63.332  30.196  61.373  1.00  0.00     0.041 C 
ATOM     11  O   UNL     1      64.107  31.123  61.730  1.00  0.00    -0.550 OA
ATOM     12  O   UNL     1      63.710  29.340  60.346  1.00  0.00    -0.550 OA
ENDBRANCH   9  10
ENDBRANCH   8   9
ENDBRANCH   7   8
ENDBRANCH   6   7
ENDBRANCH   5   6
ENDBRANCH   4   5
ENDBRANCH   3   4
ENDBRANCH   1   3
BRANCH   2  13
ATOM     13  C   UNL     1      65.462  36.323  60.023  1.00  0.00     0.027 C 
BRANCH  13  14
ATOM     14  C   UNL     1      65.601  35.768  58.595  1.00  0.00     0.004 C 
BRANCH  14  15
ATOM     15  C   UNL     1      64.383  36.051  57.696  1.00  0.00     0.000 C 
BRANCH  15  16
ATOM     16  C   UNL     1      63.403  34.869  57.624  1.00  0.00     0.000 C 
BRANCH  16  17
ATOM     17  C   UNL     1      63.678  33.931  56.433  1.00  0.00    -0.000 C 
BRANCH  17  18
ATOM     18  C   UNL     1      64.055  32.487  56.811  1.00  0.00    -0.000 C 
BRANCH  18  19
ATOM     19  C   UNL     1      64.247  32.292  58.322  1.00  0.00    -0.003 C 
ATOM     20  C   UNL     1      65.716  32.066  58.667  1.00  0.00     0.004 C 
ENDBRANCH  18  19
ENDBRANCH  17  18
ENDBRANCH  16  17
ENDBRANCH  15  16
ENDBRANCH  14  15
ENDBRANCH  13  14
ENDBRANCH   2  13
TORSDOF 15
ENDMDL
MODEL 6
REMARK VINA RESULT:    -3.324     11.506     13.620
REMARK INTER + INTRA:          -8.732
REMARK INTER:                  -5.986
REMARK INTRA:                  -2.747
REMARK UNBOUND:                -2.494
REMARK SMILES CCCCCCCCC=CCCCCCCCC(=O)[O-]
REMARK SMILES IDX 10 1 9 2 11 3 12 4 13 5 14 6 15 7 16 8 17 9 18 10 19 11
REMARK SMILES IDX 20 12 8 13 7 14 6 15 5 16 4 17 3 18 2 19 1 20
REMARK H PARENT
REMARK Flexibility Score: inf
ROOT
ATOM      1  C   UNL     1      63.153  32.518  59.150  1.00  0.00    -0.031 C 
ATOM      2  C   UNL     1      62.058  33.136  59.630  1.00  0.00    -0.031 C 
ENDROOT
BRANCH   1   3
ATOM      3  C   UNL     1      64.495  32.488  59.835  1.00  0.00     0.027 C 
BRANCH   3   4
ATOM      4  C   UNL     1      64.482  31.537  61.038  1.00  0.00     0.004 C 
BRANCH   4   5
ATOM      5  C   UNL     1      64.061  30.125  60.617  1.00  0.00     0.000 C 
BRANCH   5   6
ATOM      6  C   UNL     1      63.217  29.454  61.708  1.00  0.00     0.000 C 
BRANCH   6   7
ATOM      7  C   UNL     1      61.988  30.307  62.056  1.00  0.00     0.000 C 
BRANCH   7   8
ATOM      8  C   UNL     1      60.707  29.838  61.340  1.00  0.00     0.006 C 
BRANCH   8   9
ATOM      9  C   UNL     1      60.727  28.353  60.937  1.00  0.00     0.053 C 
BRANCH   9  10
ATOM     10  C   UNL     1      59.389  27.697  61.085  1.00  0.00     0.041 C 
ATOM     11  O   UNL     1      58.338  28.334  60.805  1.00  0.00    -0.550 OA
ATOM     12  O   UNL     1      59.300  26.380  61.518  1.00  0.00    -0.550 OA
ENDBRANCH   9  10
ENDBRANCH   8   9
ENDBRANCH   7   8
ENDBRANCH   6   7
ENDBRANCH   5   6
ENDBRANCH   4   5
ENDBRANCH   3   4
ENDBRANCH   1   3
BRANCH   2  13
ATOM     13  C   UNL     1      61.986  33.886  60.939  1.00  0.00     0.027 C 
BRANCH  13  14
ATOM     14  C   UNL     1      61.714  35.385  60.729  1.00  0.00     0.004 C 
BRANCH  14  15
ATOM     15  C   UNL     1      62.779  36.305  61.355  1.00  0.00     0.000 C 
BRANCH  15  16
ATOM     16  C   UNL     1      64.033  35.544  61.815  1.00  0.00     0.000 C 
BRANCH  16  17
ATOM     17  C   UNL     1      65.296  35.931  61.023  1.00  0.00    -0.000 C 
BRANCH  17  18
ATOM     18  C   UNL     1      65.038  36.694  59.710  1.00  0.00    -0.000 C 
BRANCH  18  19
ATOM     19  C   UNL     1      65.120  35.795  58.467  1.00  0.00    -0.003 C 
ATOM     20  C   UNL     1      63.825  35.847  57.663  1.00  0.00     0.004 C 
ENDBRANCH  18  19
ENDBRANCH  17  18
ENDBRANCH  16  17
ENDBRANCH  15  16
ENDBRANCH  14  15
ENDBRANCH  13  14
ENDBRANCH   2  13
TORSDOF 15
ENDMDL
MODEL 7
REMARK VINA RESULT:    -3.290     11.295     13.939
REMARK INTER + INTRA:          -8.669
REMARK INTER:                  -5.927
REMARK INTRA:                  -2.742
REMARK UNBOUND:                -2.494
REMARK SMILES CCCCCCCCC=CCCCCCCCC(=O)[O-]
REMARK SMILES IDX 10 1 9 2 11 3 12 4 13 5 14 6 15 7 16 8 17 9 18 10 19 11
REMARK SMILES IDX 20 12 8 13 7 14 6 15 5 16 4 17 3 18 2 19 1 20
REMARK H PARENT
REMARK Flexibility Score: inf
ROOT
ATOM      1  C   UNL     1      61.571  30.480  58.133  1.00  0.00    -0.031 C 
ATOM      2  C   UNL     1      60.618  30.704  59.057  1.00  0.00    -0.031 C 
ENDROOT
BRANCH   1   3
ATOM      3  C   UNL     1      62.594  31.494  57.688  1.00  0.00     0.027 C 
BRANCH   3   4
ATOM      4  C   UNL     1      63.860  31.417  58.550  1.00  0.00     0.004 C 
BRANCH   4   5
ATOM      5  C   UNL     1      64.207  32.789  59.139  1.00  0.00     0.000 C 
BRANCH   5   6
ATOM      6  C   UNL     1      64.499  32.686  60.640  1.00  0.00     0.000 C 
BRANCH   6   7
ATOM      7  C   UNL     1      64.129  33.990  61.363  1.00  0.00     0.000 C 
BRANCH   7   8
ATOM      8  C   UNL     1      63.388  34.993  60.458  1.00  0.00     0.006 C 
BRANCH   8   9
ATOM      9  C   UNL     1      62.055  35.493  61.043  1.00  0.00     0.053 C 
BRANCH   9  10
ATOM     10  C   UNL     1      61.152  36.078  60.001  1.00  0.00     0.041 C 
ATOM     11  O   UNL     1      61.604  36.365  58.861  1.00  0.00    -0.550 OA
ATOM     12  O   UNL     1      59.809  36.293  60.283  1.00  0.00    -0.550 OA
ENDBRANCH   9  10
ENDBRANCH   8   9
ENDBRANCH   7   8
ENDBRANCH   6   7
ENDBRANCH   5   6
ENDBRANCH   4   5
ENDBRANCH   3   4
ENDBRANCH   1   3
BRANCH   2  13
ATOM     13  C   UNL     1      60.426  31.998  59.813  1.00  0.00     0.027 C 
BRANCH  13  14
ATOM     14  C   UNL     1      60.949  31.903  61.257  1.00  0.00     0.004 C 
BRANCH  14  15
ATOM     15  C   UNL     1      61.185  30.459  61.739  1.00  0.00     0.000 C 
BRANCH  15  16
ATOM     16  C   UNL     1      62.660  30.167  62.059  1.00  0.00     0.000 C 
BRANCH  16  17
ATOM     17  C   UNL     1      63.211  28.948  61.295  1.00  0.00    -0.000 C 
BRANCH  17  18
ATOM     18  C   UNL     1      62.215  27.790  61.103  1.00  0.00    -0.000 C 
BRANCH  18  19
ATOM     19  C   UNL     1      62.586  26.538  61.912  1.00  0.00    -0.003 C 
ATOM     20  C   UNL     1      61.555  26.258  63.000  1.00  0.00     0.004 C 
ENDBRANCH  18  19
ENDBRANCH  17  18
ENDBRANCH  16  17
ENDBRANCH  15  16
ENDBRANCH  14  15
ENDBRANCH  13  14
ENDBRANCH   2  13
TORSDOF 15
ENDMDL
MODEL 8
REMARK VINA RESULT:    -3.264     11.104     13.392
REMARK INTER + INTRA:          -8.620
REMARK INTER:                  -5.831
REMARK INTRA:                  -2.790
REMARK UNBOUND:                -2.494
REMARK SMILES CCCCCCCCC=CCCCCCCCC(=O)[O-]
REMARK SMILES IDX 10 1 9 2 11 3 12 4 13 5 14 6 15 7 16 8 17 9 18 10 19 11
REMARK SMILES IDX 20 12 8 13 7 14 6 15 5 16 4 17 3 18 2 19 1 20
REMARK H PARENT
REMARK Flexibility Score: inf
ROOT
ATOM      1  C   UNL     1      61.151  35.520  60.532  1.00  0.00    -0.031 C 
ATOM      2  C   UNL     1      62.220  35.944  61.232  1.00  0.00    -0.031 C 
ENDROOT
BRANCH   1   3
ATOM      3  C   UNL     1      61.076  35.459  59.028  1.00  0.00     0.027 C 
BRANCH   3   4
ATOM      4  C   UNL     1      61.369  34.044  58.516  1.00  0.00     0.004 C 
BRANCH   4   5
ATOM      5  C   UNL     1      60.372  33.033  59.094  1.00  0.00     0.000 C 
BRANCH   5   6
ATOM      6  C   UNL     1      61.101  31.856  59.753  1.00  0.00     0.000 C 
BRANCH   6   7
ATOM      7  C   UNL     1      61.031  31.953  61.284  1.00  0.00     0.000 C 
BRANCH   7   8
ATOM      8  C   UNL     1      61.315  30.611  61.987  1.00  0.00     0.006 C 
BRANCH   8   9
ATOM      9  C   UNL     1      62.708  30.031  61.680  1.00  0.00     0.053 C 
BRANCH   9  10
ATOM     10  C   UNL     1      62.641  28.666  61.066  1.00  0.00     0.041 C 
ATOM     11  O   UNL     1      61.917  28.462  60.056  1.00  0.00    -0.550 OA
ATOM     12  O   UNL     1      63.387  27.623  61.600  1.00  0.00    -0.550 OA
ENDBRANCH   9  10
ENDBRANCH   8   9
ENDBRANCH   7   8
ENDBRANCH   6   7
ENDBRANCH   5   6
ENDBRANCH   4   5
ENDBRANCH   3   4
ENDBRANCH   1   3
BRANCH   2  13
ATOM     13  C   UNL     1      63.524  36.411  60.630  1.00  0.00     0.027 C 
BRANCH  13  14
ATOM     14  C   UNL     1      64.703  35.515  61.047  1.00  0.00     0.004 C 
BRANCH  14  15
ATOM     15  C   UNL     1      64.277  34.137  61.589  1.00  0.00     0.000 C 
BRANCH  15  16
ATOM     16  C   UNL     1      64.449  33.008  60.560  1.00  0.00     0.000 C 
BRANCH  16  17
ATOM     17  C   UNL     1      64.841  33.522  59.162  1.00  0.00    -0.000 C 
BRANCH  17  18
ATOM     18  C   UNL     1      65.373  32.448  58.196  1.00  0.00    -0.000 C 
BRANCH  18  19
ATOM     19  C   UNL     1      64.258  31.737  57.415  1.00  0.00    -0.003 C 
ATOM     20  C   UNL     1      63.990  30.345  57.980  1.00  0.00     0.004 C 
ENDBRANCH  18  19
ENDBRANCH  17  18
ENDBRANCH  16  17
ENDBRANCH  15  16
ENDBRANCH  14  15
ENDBRANCH  13  14
ENDBRANCH   2  13
TORSDOF 15
ENDMDL
MODEL 9
REMARK VINA RESULT:    -3.257      3.036      6.314
REMARK INTER + INTRA:          -8.607
REMARK INTER:                  -6.371
REMARK INTRA:                  -2.235
REMARK UNBOUND:                -2.494
REMARK SMILES CCCCCCCCC=CCCCCCCCC(=O)[O-]
REMARK SMILES IDX 10 1 9 2 11 3 12 4 13 5 14 6 15 7 16 8 17 9 18 10 19 11
REMARK SMILES IDX 20 12 8 13 7 14 6 15 5 16 4 17 3 18 2 19 1 20
REMARK H PARENT
REMARK Flexibility Score: inf
ROOT
ATOM      1  C   UNL     1      56.845  28.900  51.189  1.00  0.00    -0.031 C 
ATOM      2  C   UNL     1      58.086  29.312  50.869  1.00  0.00    -0.031 C 
ENDROOT
BRANCH   1   3
ATOM      3  C   UNL     1      55.967  28.046  50.311  1.00  0.00     0.027 C 
BRANCH   3   4
ATOM      4  C   UNL     1      54.517  28.543  50.326  1.00  0.00     0.004 C 
BRANCH   4   5
ATOM      5  C   UNL     1      53.548  27.424  49.931  1.00  0.00     0.000 C 
BRANCH   5   6
ATOM      6  C   UNL     1      54.306  26.148  49.548  1.00  0.00     0.000 C 
BRANCH   6   7
ATOM      7  C   UNL     1      53.705  24.919  50.246  1.00  0.00     0.000 C 
BRANCH   7   8
ATOM      8  C   UNL     1      53.628  25.072  51.777  1.00  0.00     0.006 C 
BRANCH   8   9
ATOM      9  C   UNL     1      54.969  24.833  52.495  1.00  0.00     0.053 C 
BRANCH   9  10
ATOM     10  C   UNL     1      55.441  26.036  53.251  1.00  0.00     0.041 C 
ATOM     11  O   UNL     1      56.654  26.147  53.569  1.00  0.00    -0.550 OA
ATOM     12  O   UNL     1      54.545  27.042  53.592  1.00  0.00    -0.550 OA
ENDBRANCH   9  10
ENDBRANCH   8   9
ENDBRANCH   7   8
ENDBRANCH   6   7
ENDBRANCH   5   6
ENDBRANCH   4   5
ENDBRANCH   3   4
ENDBRANCH   1   3
BRANCH   2  13
ATOM     13  C   UNL     1      58.811  28.973  49.589  1.00  0.00     0.027 C 
BRANCH  13  14
ATOM     14  C   UNL     1      59.770  27.783  49.768  1.00  0.00     0.004 C 
BRANCH  14  15
ATOM     15  C   UNL     1      59.223  26.454  49.214  1.00  0.00     0.000 C 
BRANCH  15  16
ATOM     16  C   UNL     1      58.579  25.572  50.296  1.00  0.00     0.000 C 
BRANCH  16  17
ATOM     17  C   UNL     1      59.535  24.495  50.842  1.00  0.00    -0.000 C 
BRANCH  17  18
ATOM     18  C   UNL     1      60.737  24.168  49.938  1.00  0.00    -0.000 C 
BRANCH  18  19
ATOM     19  C   UNL     1      62.089  24.398  50.630  1.00  0.00    -0.003 C 
ATOM     20  C   UNL     1      62.790  25.634  50.074  1.00  0.00     0.004 C 
ENDBRANCH  18  19
ENDBRANCH  17  18
ENDBRANCH  16  17
ENDBRANCH  15  16
ENDBRANCH  14  15
ENDBRANCH  13  14
ENDBRANCH   2  13
TORSDOF 15
ENDMDL
