MODEL 1
REMARK VINA RESULT:    -1.724      0.000      0.000
REMARK INTER + INTRA:          -5.157
REMARK INTER:                  -2.934
REMARK INTRA:                  -2.223
REMARK UNBOUND:                -2.223
REMARK SMILES CCCCCCCCCCCCCC(=O)[O-]
REMARK SMILES IDX 8 1 9 2 10 3 11 4 12 5 13 6 14 7 15 8 16 9 7 10 6 11 5 12
REMARK SMILES IDX 4 13 3 14 2 15 1 16
REMARK H PARENT
REMARK Flexibility Score: inf
ROOT
ATOM      1  C   UNL     1      41.961  50.877  20.724  1.00  0.00     0.000 C 
ENDROOT
BRANCH   1   2
ATOM      2  C   UNL     1      42.195  51.744  19.477  1.00  0.00     0.000 C 
BRANCH   2   3
ATOM      3  C   UNL     1      42.314  53.226  19.851  1.00  0.00     0.000 C 
BRANCH   3   4
ATOM      4  C   UNL     1      41.524  54.106  18.876  1.00  0.00     0.000 C 
BRANCH   4   5
ATOM      5  C   UNL     1      41.323  53.394  17.530  1.00  0.00     0.006 C 
BRANCH   5   6
ATOM      6  C   UNL     1      39.863  53.440  17.061  1.00  0.00     0.053 C 
BRANCH   6   7
ATOM      7  C   UNL     1      39.556  52.337  16.095  1.00  0.00     0.041 C 
ATOM      8  O   UNL     1      38.612  51.535  16.326  1.00  0.00    -0.550 OA
ATOM      9  O   UNL     1      40.332  52.175  14.956  1.00  0.00    -0.550 OA
ENDBRANCH   6   7
ENDBRANCH   5   6
ENDBRANCH   4   5
ENDBRANCH   3   4
ENDBRANCH   2   3
ENDBRANCH   1   2
BRANCH   1  10
ATOM     10  C   UNL     1      40.582  50.199  20.719  1.00  0.00     0.000 C 
BRANCH  10  11
ATOM     11  C   UNL     1      39.642  50.782  19.649  1.00  0.00    -0.000 C 
BRANCH  11  12
ATOM     12  C   UNL     1      38.375  51.411  20.267  1.00  0.00    -0.000 C 
BRANCH  12  13
ATOM     13  C   UNL     1      38.481  52.934  20.479  1.00  0.00    -0.000 C 
BRANCH  13  14
ATOM     14  C   UNL     1      38.462  53.384  21.950  1.00  0.00    -0.000 C 
BRANCH  14  15
ATOM     15  C   UNL     1      39.853  53.359  22.596  1.00  0.00    -0.003 C 
ATOM     16  C   UNL     1      39.913  52.340  23.730  1.00  0.00     0.004 C 
ENDBRANCH  14  15
ENDBRANCH  13  14
ENDBRANCH  12  13
ENDBRANCH  11  12
ENDBRANCH  10  11
ENDBRANCH   1  10
TORSDOF 12
ENDMDL
MODEL 2
REMARK VINA RESULT:    -1.693      3.032      5.228
REMARK INTER + INTRA:          -5.104
REMARK INTER:                  -2.886
REMARK INTRA:                  -2.218
REMARK UNBOUND:                -2.223
REMARK SMILES CCCCCCCCCCCCCC(=O)[O-]
REMARK SMILES IDX 8 1 9 2 10 3 11 4 12 5 13 6 14 7 15 8 16 9 7 10 6 11 5 12
REMARK SMILES IDX 4 13 3 14 2 15 1 16
REMARK H PARENT
REMARK Flexibility Score: inf
ROOT
ATOM      1  C   UNL     1      41.014  53.784  17.992  1.00  0.00     0.000 C 
ENDROOT
BRANCH   1   2
ATOM      2  C   UNL     1      39.585  54.018  18.508  1.00  0.00     0.000 C 
BRANCH   2   3
ATOM      3  C   UNL     1      39.557  54.081  20.040  1.00  0.00     0.000 C 
BRANCH   3   4
ATOM      4  C   UNL     1      38.206  53.607  20.586  1.00  0.00     0.000 C 
BRANCH   4   5
ATOM      5  C   UNL     1      38.320  53.204  22.064  1.00  0.00     0.006 C 
BRANCH   5   6
ATOM      6  C   UNL     1      39.753  53.339  22.595  1.00  0.00     0.053 C 
BRANCH   6   7
ATOM      7  C   UNL     1      40.029  52.366  23.698  1.00  0.00     0.041 C 
ATOM      8  O   UNL     1      40.636  52.738  24.737  1.00  0.00    -0.550 OA
ATOM      9  O   UNL     1      39.644  51.038  23.566  1.00  0.00    -0.550 OA
ENDBRANCH   6   7
ENDBRANCH   5   6
ENDBRANCH   4   5
ENDBRANCH   3   4
ENDBRANCH   2   3
ENDBRANCH   1   2
BRANCH   1  10
ATOM     10  C   UNL     1      41.970  53.319  19.101  1.00  0.00     0.000 C 
BRANCH  10  11
ATOM     11  C   UNL     1      42.194  51.797  19.087  1.00  0.00    -0.000 C 
BRANCH  11  12
ATOM     12  C   UNL     1      41.599  51.109  20.335  1.00  0.00    -0.000 C 
BRANCH  12  13
ATOM     13  C   UNL     1      40.517  50.062  20.009  1.00  0.00    -0.000 C 
BRANCH  13  14
ATOM     14  C   UNL     1      39.778  50.291  18.679  1.00  0.00    -0.000 C 
BRANCH  14  15
ATOM     15  C   UNL     1      38.257  50.405  18.856  1.00  0.00    -0.003 C 
ATOM     16  C   UNL     1      37.833  49.953  20.250  1.00  0.00     0.004 C 
ENDBRANCH  14  15
ENDBRANCH  13  14
ENDBRANCH  12  13
ENDBRANCH  11  12
ENDBRANCH  10  11
ENDBRANCH   1  10
TORSDOF 12
ENDMDL
MODEL 3
REMARK VINA RESULT:    -1.595     15.185     16.685
REMARK INTER + INTRA:          -4.937
REMARK INTER:                  -3.051
REMARK INTRA:                  -1.886
REMARK UNBOUND:                -2.223
REMARK SMILES CCCCCCCCCCCCCC(=O)[O-]
REMARK SMILES IDX 8 1 9 2 10 3 11 4 12 5 13 6 14 7 15 8 16 9 7 10 6 11 5 12
REMARK SMILES IDX 4 13 3 14 2 15 1 16
REMARK H PARENT
REMARK Flexibility Score: inf
ROOT
ATOM      1  C   UNL     1      40.054  36.748  22.136  1.00  0.00     0.000 C 
ENDROOT
BRANCH   1   2
ATOM      2  C   UNL     1      39.463  36.939  20.731  1.00  0.00     0.000 C 
BRANCH   2   3
ATOM      3  C   UNL     1      38.112  37.662  20.797  1.00  0.00     0.000 C 
BRANCH   3   4
ATOM      4  C   UNL     1      36.952  36.680  20.601  1.00  0.00     0.000 C 
BRANCH   4   5
ATOM      5  C   UNL     1      37.441  35.367  19.971  1.00  0.00     0.006 C 
BRANCH   5   6
ATOM      6  C   UNL     1      37.042  35.245  18.495  1.00  0.00     0.053 C 
BRANCH   6   7
ATOM      7  C   UNL     1      38.216  34.910  17.629  1.00  0.00     0.041 C 
ATOM      8  O   UNL     1      38.171  35.121  16.388  1.00  0.00    -0.550 OA
ATOM      9  O   UNL     1      39.350  34.335  18.187  1.00  0.00    -0.550 OA
ENDBRANCH   6   7
ENDBRANCH   5   6
ENDBRANCH   4   5
ENDBRANCH   3   4
ENDBRANCH   2   3
ENDBRANCH   1   2
BRANCH   1  10
ATOM     10  C   UNL     1      40.108  35.271  22.555  1.00  0.00     0.000 C 
BRANCH  10  11
ATOM     11  C   UNL     1      39.357  35.002  23.871  1.00  0.00    -0.000 C 
BRANCH  11  12
ATOM     12  C   UNL     1      37.860  34.703  23.636  1.00  0.00    -0.000 C 
BRANCH  12  13
ATOM     13  C   UNL     1      36.919  35.802  24.165  1.00  0.00    -0.000 C 
BRANCH  13  14
ATOM     14  C   UNL     1      37.409  36.514  25.438  1.00  0.00    -0.000 C 
BRANCH  14  15
ATOM     15  C   UNL     1      37.708  38.002  25.209  1.00  0.00    -0.003 C 
ATOM     16  C   UNL     1      36.876  38.557  24.058  1.00  0.00     0.004 C 
ENDBRANCH  14  15
ENDBRANCH  13  14
ENDBRANCH  12  13
ENDBRANCH  11  12
ENDBRANCH  10  11
ENDBRANCH   1  10
TORSDOF 12
ENDMDL
MODEL 4
REMARK VINA RESULT:    -1.584      3.056      5.056
REMARK INTER + INTRA:          -4.919
REMARK INTER:                  -2.850
REMARK INTRA:                  -2.068
REMARK UNBOUND:                -2.223
REMARK SMILES CCCCCCCCCCCCCC(=O)[O-]
REMARK SMILES IDX 8 1 9 2 10 3 11 4 12 5 13 6 14 7 15 8 16 9 7 10 6 11 5 12
REMARK SMILES IDX 4 13 3 14 2 15 1 16
REMARK H PARENT
REMARK Flexibility Score: inf
ROOT
ATOM      1  C   UNL     1      43.527  52.339  19.747  1.00  0.00     0.000 C 
ENDROOT
BRANCH   1   2
ATOM      2  C   UNL     1      42.798  53.599  20.235  1.00  0.00     0.000 C 
BRANCH   2   3
ATOM      3  C   UNL     1      41.525  53.234  21.008  1.00  0.00     0.000 C 
BRANCH   3   4
ATOM      4  C   UNL     1      40.351  54.125  20.590  1.00  0.00     0.000 C 
BRANCH   4   5
ATOM      5  C   UNL     1      39.025  53.588  21.149  1.00  0.00     0.006 C 
BRANCH   5   6
ATOM      6  C   UNL     1      39.238  52.590  22.295  1.00  0.00     0.053 C 
BRANCH   6   7
ATOM      7  C   UNL     1      37.970  52.331  23.048  1.00  0.00     0.041 C 
ATOM      8  O   UNL     1      36.918  52.959  22.757  1.00  0.00    -0.550 OA
ATOM      9  O   UNL     1      37.957  51.418  24.094  1.00  0.00    -0.550 OA
ENDBRANCH   6   7
ENDBRANCH   5   6
ENDBRANCH   4   5
ENDBRANCH   3   4
ENDBRANCH   2   3
ENDBRANCH   1   2
BRANCH   1  10
ATOM     10  C   UNL     1      43.710  52.319  18.221  1.00  0.00     0.000 C 
BRANCH  10  11
ATOM     11  C   UNL     1      42.832  53.363  17.508  1.00  0.00    -0.000 C 
BRANCH  11  12
ATOM     12  C   UNL     1      41.755  52.708  16.618  1.00  0.00    -0.000 C 
BRANCH  12  13
ATOM     13  C   UNL     1      40.313  53.090  17.007  1.00  0.00    -0.000 C 
BRANCH  13  14
ATOM     14  C   UNL     1      39.555  52.017  17.806  1.00  0.00    -0.000 C 
BRANCH  14  15
ATOM     15  C   UNL     1      40.288  50.668  17.834  1.00  0.00    -0.003 C 
ATOM     16  C   UNL     1      40.458  50.167  19.265  1.00  0.00     0.004 C 
ENDBRANCH  14  15
ENDBRANCH  13  14
ENDBRANCH  12  13
ENDBRANCH  11  12
ENDBRANCH  10  11
ENDBRANCH   1  10
TORSDOF 12
ENDMDL
MODEL 5
REMARK VINA RESULT:    -1.577     14.201     16.403
REMARK INTER + INTRA:          -4.907
REMARK INTER:                  -3.495
REMARK INTRA:                  -1.412
REMARK UNBOUND:                -2.223
REMARK SMILES CCCCCCCCCCCCCC(=O)[O-]
REMARK SMILES IDX 8 1 9 2 10 3 11 4 12 5 13 6 14 7 15 8 16 9 7 10 6 11 5 12
REMARK SMILES IDX 4 13 3 14 2 15 1 16
REMARK H PARENT
REMARK Flexibility Score: inf
ROOT
ATOM      1  C   UNL     1      53.679  50.345  16.688  1.00  0.00     0.000 C 
ENDROOT
BRANCH   1   2
ATOM      2  C   UNL     1      54.080  50.827  18.091  1.00  0.00     0.000 C 
BRANCH   2   3
ATOM      3  C   UNL     1      55.561  50.541  18.369  1.00  0.00     0.000 C 
BRANCH   3   4
ATOM      4  C   UNL     1      56.391  51.827  18.308  1.00  0.00     0.000 C 
BRANCH   4   5
ATOM      5  C   UNL     1      55.895  52.852  19.339  1.00  0.00     0.006 C 
BRANCH   5   6
ATOM      6  C   UNL     1      56.967  53.194  20.382  1.00  0.00     0.053 C 
BRANCH   6   7
ATOM      7  C   UNL     1      56.660  52.584  21.714  1.00  0.00     0.041 C 
ATOM      8  O   UNL     1      56.331  51.371  21.797  1.00  0.00    -0.550 OA
ATOM      9  O   UNL     1      56.706  53.363  22.863  1.00  0.00    -0.550 OA
ENDBRANCH   6   7
ENDBRANCH   5   6
ENDBRANCH   4   5
ENDBRANCH   3   4
ENDBRANCH   2   3
ENDBRANCH   1   2
BRANCH   1  10
ATOM     10  C   UNL     1      52.958  51.432  15.876  1.00  0.00     0.000 C 
BRANCH  10  11
ATOM     11  C   UNL     1      52.896  52.779  16.618  1.00  0.00    -0.000 C 
BRANCH  11  12
ATOM     12  C   UNL     1      54.022  53.739  16.178  1.00  0.00    -0.000 C 
BRANCH  12  13
ATOM     13  C   UNL     1      54.672  53.357  14.834  1.00  0.00    -0.000 C 
BRANCH  13  14
ATOM     14  C   UNL     1      56.197  53.160  14.888  1.00  0.00    -0.000 C 
BRANCH  14  15
ATOM     15  C   UNL     1      56.806  52.859  13.512  1.00  0.00    -0.003 C 
ATOM     16  C   UNL     1      56.863  54.117  12.651  1.00  0.00     0.004 C 
ENDBRANCH  14  15
ENDBRANCH  13  14
ENDBRANCH  12  13
ENDBRANCH  11  12
ENDBRANCH  10  11
ENDBRANCH   1  10
TORSDOF 12
ENDMDL
MODEL 6
REMARK VINA RESULT:    -1.571     15.101     17.283
REMARK INTER + INTRA:          -4.896
REMARK INTER:                  -2.915
REMARK INTRA:                  -1.980
REMARK UNBOUND:                -2.223
REMARK SMILES CCCCCCCCCCCCCC(=O)[O-]
REMARK SMILES IDX 8 1 9 2 10 3 11 4 12 5 13 6 14 7 15 8 16 9 7 10 6 11 5 12
REMARK SMILES IDX 4 13 3 14 2 15 1 16
REMARK H PARENT
REMARK Flexibility Score: inf
ROOT
ATOM      1  C   UNL     1      40.500  34.921  23.600  1.00  0.00     0.000 C 
ENDROOT
BRANCH   1   2
ATOM      2  C   UNL     1      39.446  33.977  23.000  1.00  0.00     0.000 C 
BRANCH   2   3
ATOM      3  C   UNL     1      38.027  34.456  23.329  1.00  0.00     0.000 C 
BRANCH   3   4
ATOM      4  C   UNL     1      37.333  35.021  22.085  1.00  0.00     0.000 C 
BRANCH   4   5
ATOM      5  C   UNL     1      37.456  36.551  22.033  1.00  0.00     0.006 C 
BRANCH   5   6
ATOM      6  C   UNL     1      36.875  37.225  23.283  1.00  0.00     0.053 C 
BRANCH   6   7
ATOM      7  C   UNL     1      37.801  38.264  23.834  1.00  0.00     0.041 C 
ATOM      8  O   UNL     1      37.464  39.477  23.840  1.00  0.00    -0.550 OA
ATOM      9  O   UNL     1      39.051  37.896  24.314  1.00  0.00    -0.550 OA
ENDBRANCH   6   7
ENDBRANCH   5   6
ENDBRANCH   4   5
ENDBRANCH   3   4
ENDBRANCH   2   3
ENDBRANCH   1   2
BRANCH   1  10
ATOM     10  C   UNL     1      41.610  35.275  22.599  1.00  0.00     0.000 C 
BRANCH  10  11
ATOM     11  C   UNL     1      41.397  36.651  21.943  1.00  0.00    -0.000 C 
BRANCH  11  12
ATOM     12  C   UNL     1      40.797  36.534  20.525  1.00  0.00    -0.000 C 
BRANCH  12  13
ATOM     13  C   UNL     1      41.049  35.168  19.857  1.00  0.00    -0.000 C 
BRANCH  13  14
ATOM     14  C   UNL     1      39.832  34.572  19.129  1.00  0.00    -0.000 C 
BRANCH  14  15
ATOM     15  C   UNL     1      38.775  35.627  18.777  1.00  0.00    -0.003 C 
ATOM     16  C   UNL     1      37.527  34.977  18.188  1.00  0.00     0.004 C 
ENDBRANCH  14  15
ENDBRANCH  13  14
ENDBRANCH  12  13
ENDBRANCH  11  12
ENDBRANCH  10  11
ENDBRANCH   1  10
TORSDOF 12
ENDMDL
MODEL 7
REMARK VINA RESULT:    -1.547     15.993     17.067
REMARK INTER + INTRA:          -4.855
REMARK INTER:                  -2.996
REMARK INTRA:                  -1.859
REMARK UNBOUND:                -2.223
REMARK SMILES CCCCCCCCCCCCCC(=O)[O-]
REMARK SMILES IDX 8 1 9 2 10 3 11 4 12 5 13 6 14 7 15 8 16 9 7 10 6 11 5 12
REMARK SMILES IDX 4 13 3 14 2 15 1 16
REMARK H PARENT
REMARK Flexibility Score: inf
ROOT
ATOM      1  C   UNL     1      40.158  34.906  19.832  1.00  0.00     0.000 C 
ENDROOT
BRANCH   1   2
ATOM      2  C   UNL     1      39.667  36.345  20.058  1.00  0.00     0.000 C 
BRANCH   2   3
ATOM      3  C   UNL     1      38.359  36.605  19.300  1.00  0.00     0.000 C 
BRANCH   3   4
ATOM      4  C   UNL     1      37.781  35.303  18.735  1.00  0.00     0.000 C 
BRANCH   4   5
ATOM      5  C   UNL     1      37.542  35.418  17.222  1.00  0.00     0.006 C 
BRANCH   5   6
ATOM      6  C   UNL     1      38.772  34.998  16.405  1.00  0.00     0.053 C 
BRANCH   6   7
ATOM      7  C   UNL     1      39.518  36.183  15.877  1.00  0.00     0.041 C 
ATOM      8  O   UNL     1      40.544  36.606  16.473  1.00  0.00    -0.550 OA
ATOM      9  O   UNL     1      39.063  36.843  14.743  1.00  0.00    -0.550 OA
ENDBRANCH   6   7
ENDBRANCH   5   6
ENDBRANCH   4   5
ENDBRANCH   3   4
ENDBRANCH   2   3
ENDBRANCH   1   2
BRANCH   1  10
ATOM     10  C   UNL     1      41.345  34.542  20.736  1.00  0.00     0.000 C 
BRANCH  10  11
ATOM     11  C   UNL     1      41.419  35.421  21.997  1.00  0.00    -0.000 C 
BRANCH  11  12
ATOM     12  C   UNL     1      40.973  34.661  23.264  1.00  0.00    -0.000 C 
BRANCH  12  13
ATOM     13  C   UNL     1      39.553  35.029  23.739  1.00  0.00    -0.000 C 
BRANCH  13  14
ATOM     14  C   UNL     1      38.431  34.157  23.152  1.00  0.00    -0.000 C 
BRANCH  14  15
ATOM     15  C   UNL     1      37.323  34.983  22.485  1.00  0.00    -0.003 C 
ATOM     16  C   UNL     1      37.367  36.435  22.951  1.00  0.00     0.004 C 
ENDBRANCH  14  15
ENDBRANCH  13  14
ENDBRANCH  12  13
ENDBRANCH  11  12
ENDBRANCH  10  11
ENDBRANCH   1  10
TORSDOF 12
ENDMDL
MODEL 8
REMARK VINA RESULT:    -1.525     14.308     16.551
REMARK INTER + INTRA:          -4.818
REMARK INTER:                  -2.644
REMARK INTRA:                  -2.174
REMARK UNBOUND:                -2.223
REMARK SMILES CCCCCCCCCCCCCC(=O)[O-]
REMARK SMILES IDX 8 1 9 2 10 3 11 4 12 5 13 6 14 7 15 8 16 9 7 10 6 11 5 12
REMARK SMILES IDX 4 13 3 14 2 15 1 16
REMARK H PARENT
REMARK Flexibility Score: inf
ROOT
ATOM      1  C   UNL     1      52.994  51.722  12.245  1.00  0.00     0.000 C 
ENDROOT
BRANCH   1   2
ATOM      2  C   UNL     1      53.087  51.596  13.773  1.00  0.00     0.000 C 
BRANCH   2   3
ATOM      3  C   UNL     1      52.468  52.817  14.464  1.00  0.00     0.000 C 
BRANCH   3   4
ATOM      4  C   UNL     1      53.363  53.319  15.603  1.00  0.00     0.000 C 
BRANCH   4   5
ATOM      5  C   UNL     1      54.068  52.148  16.306  1.00  0.00     0.006 C 
BRANCH   5   6
ATOM      6  C   UNL     1      55.444  52.544  16.855  1.00  0.00     0.053 C 
BRANCH   6   7
ATOM      7  C   UNL     1      55.997  51.497  17.771  1.00  0.00     0.041 C 
ATOM      8  O   UNL     1      56.671  51.828  18.783  1.00  0.00    -0.550 OA
ATOM      9  O   UNL     1      55.797  50.152  17.490  1.00  0.00    -0.550 OA
ENDBRANCH   6   7
ENDBRANCH   5   6
ENDBRANCH   4   5
ENDBRANCH   3   4
ENDBRANCH   2   3
ENDBRANCH   1   2
BRANCH   1  10
ATOM     10  C   UNL     1      53.406  53.114  11.743  1.00  0.00     0.000 C 
BRANCH  10  11
ATOM     11  C   UNL     1      54.905  53.200  11.406  1.00  0.00    -0.000 C 
BRANCH  11  12
ATOM     12  C   UNL     1      55.669  54.125  12.378  1.00  0.00    -0.000 C 
BRANCH  12  13
ATOM     13  C   UNL     1      56.491  53.366  13.438  1.00  0.00    -0.000 C 
BRANCH  13  14
ATOM     14  C   UNL     1      57.107  52.043  12.951  1.00  0.00    -0.000 C 
BRANCH  14  15
ATOM     15  C   UNL     1      56.698  50.844  13.818  1.00  0.00    -0.003 C 
ATOM     16  C   UNL     1      56.199  49.689  12.955  1.00  0.00     0.004 C 
ENDBRANCH  14  15
ENDBRANCH  13  14
ENDBRANCH  12  13
ENDBRANCH  11  12
ENDBRANCH  10  11
ENDBRANCH   1  10
TORSDOF 12
ENDMDL
MODEL 9
REMARK VINA RESULT:    -1.519     14.412     16.420
REMARK INTER + INTRA:          -4.808
REMARK INTER:                  -2.584
REMARK INTRA:                  -2.224
REMARK UNBOUND:                -2.223
REMARK SMILES CCCCCCCCCCCCCC(=O)[O-]
REMARK SMILES IDX 8 1 9 2 10 3 11 4 12 5 13 6 14 7 15 8 16 9 7 10 6 11 5 12
REMARK SMILES IDX 4 13 3 14 2 15 1 16
REMARK H PARENT
REMARK Flexibility Score: inf
ROOT
ATOM      1  C   UNL     1      37.304  37.863  22.763  1.00  0.00     0.000 C 
ENDROOT
BRANCH   1   2
ATOM      2  C   UNL     1      38.531  38.735  23.069  1.00  0.00     0.000 C 
BRANCH   2   3
ATOM      3  C   UNL     1      39.401  38.919  21.820  1.00  0.00     0.000 C 
BRANCH   3   4
ATOM      4  C   UNL     1      38.721  38.324  20.582  1.00  0.00     0.000 C 
BRANCH   4   5
ATOM      5  C   UNL     1      39.618  37.271  19.914  1.00  0.00     0.006 C 
BRANCH   5   6
ATOM      6  C   UNL     1      39.036  35.856  20.026  1.00  0.00     0.053 C 
BRANCH   6   7
ATOM      7  C   UNL     1      37.906  35.643  19.067  1.00  0.00     0.041 C 
ATOM      8  O   UNL     1      36.883  35.000  19.422  1.00  0.00    -0.550 OA
ATOM      9  O   UNL     1      37.997  36.127  17.768  1.00  0.00    -0.550 OA
ENDBRANCH   6   7
ENDBRANCH   5   6
ENDBRANCH   4   5
ENDBRANCH   3   4
ENDBRANCH   2   3
ENDBRANCH   1   2
BRANCH   1  10
ATOM     10  C   UNL     1      37.212  36.635  23.681  1.00  0.00     0.000 C 
BRANCH  10  11
ATOM     11  C   UNL     1      36.877  35.346  22.911  1.00  0.00    -0.000 C 
BRANCH  11  12
ATOM     12  C   UNL     1      37.961  34.261  23.092  1.00  0.00    -0.000 C 
BRANCH  12  13
ATOM     13  C   UNL     1      39.119  34.690  24.013  1.00  0.00    -0.000 C 
BRANCH  13  14
ATOM     14  C   UNL     1      40.507  34.687  23.350  1.00  0.00    -0.000 C 
BRANCH  14  15
ATOM     15  C   UNL     1      41.183  36.065  23.381  1.00  0.00    -0.003 C 
ATOM     16  C   UNL     1      41.001  36.734  24.739  1.00  0.00     0.004 C 
ENDBRANCH  14  15
ENDBRANCH  13  14
ENDBRANCH  12  13
ENDBRANCH  11  12
ENDBRANCH  10  11
ENDBRANCH   1  10
TORSDOF 12
ENDMDL
