MODEL 1
REMARK VINA RESULT:    15.069      0.000      0.000
REMARK INTER + INTRA:          28.098
REMARK INTER:                  29.164
REMARK INTRA:                  -1.067
REMARK UNBOUND:                -1.067
REMARK SMILES CCCCCCCCCCCCCCCCCC(=O)[O-]
REMARK SMILES IDX 10 1 11 2 12 3 13 4 14 5 15 6 16 7 17 8 18 9 19 10 20 11
REMARK SMILES IDX 9 12 8 13 7 14 6 15 5 16 4 17 3 18 2 19 1 20
REMARK H PARENT
REMARK Flexibility Score: inf
ROOT
ATOM      1  C   UNL     1      -5.770 -18.490  25.270  1.00  0.00     0.000 C 
ENDROOT
BRANCH   1   2
ATOM      2  C   UNL     1      -4.906 -19.593  24.639  1.00  0.00     0.000 C 
BRANCH   2   3
ATOM      3  C   UNL     1      -4.699 -19.337  23.141  1.00  0.00     0.000 C 
BRANCH   3   4
ATOM      4  C   UNL     1      -4.337 -20.635  22.405  1.00  0.00     0.000 C 
BRANCH   4   5
ATOM      5  C   UNL     1      -2.933 -21.148  22.762  1.00  0.00     0.000 C 
BRANCH   5   6
ATOM      6  C   UNL     1      -1.832 -20.123  22.453  1.00  0.00     0.000 C 
BRANCH   6   7
ATOM      7  C   UNL     1      -1.054 -19.752  23.721  1.00  0.00     0.006 C 
BRANCH   7   8
ATOM      8  C   UNL     1      -0.194 -18.505  23.494  1.00  0.00     0.053 C 
BRANCH   8   9
ATOM      9  C   UNL     1      -0.578 -17.423  24.454  1.00  0.00     0.041 C 
ATOM     10  O   UNL     1      -0.230 -16.232  24.239  1.00  0.00    -0.550 OA
ATOM     11  O   UNL     1      -1.362 -17.723  25.561  1.00  0.00    -0.550 OA
ENDBRANCH   8   9
ENDBRANCH   7   8
ENDBRANCH   6   7
ENDBRANCH   5   6
ENDBRANCH   4   5
ENDBRANCH   3   4
ENDBRANCH   2   3
ENDBRANCH   1   2
BRANCH   1  12
ATOM     12  C   UNL     1      -5.347 -18.157  26.711  1.00  0.00     0.000 C 
BRANCH  12  13
ATOM     13  C   UNL     1      -6.480 -17.505  27.522  1.00  0.00    -0.000 C 
BRANCH  13  14
ATOM     14  C   UNL     1      -7.728 -17.206  26.673  1.00  0.00    -0.000 C 
BRANCH  14  15
ATOM     15  C   UNL     1      -8.987 -16.823  27.474  1.00  0.00    -0.000 C 
BRANCH  15  16
ATOM     16  C   UNL     1      -9.640 -18.023  28.177  1.00  0.00    -0.000 C 
BRANCH  16  17
ATOM     17  C   UNL     1     -10.022 -17.670  29.621  1.00  0.00    -0.000 C 
BRANCH  17  18
ATOM     18  C   UNL     1      -9.003 -18.189  30.647  1.00  0.00    -0.000 C 
BRANCH  18  19
ATOM     19  C   UNL     1      -8.795 -17.218  31.819  1.00  0.00    -0.003 C 
ATOM     20  C   UNL     1      -7.310 -17.034  32.122  1.00  0.00     0.004 C 
ENDBRANCH  18  19
ENDBRANCH  17  18
ENDBRANCH  16  17
ENDBRANCH  15  16
ENDBRANCH  14  15
ENDBRANCH  13  14
ENDBRANCH  12  13
ENDBRANCH   1  12
TORSDOF 16
ENDMDL
MODEL 2
REMARK VINA RESULT:    15.491      3.214      8.530
REMARK INTER + INTRA:          28.914
REMARK INTER:                  30.286
REMARK INTRA:                  -1.371
REMARK UNBOUND:                -1.067
REMARK SMILES CCCCCCCCCCCCCCCCCC(=O)[O-]
REMARK SMILES IDX 10 1 11 2 12 3 13 4 14 5 15 6 16 7 17 8 18 9 19 10 20 11
REMARK SMILES IDX 9 12 8 13 7 14 6 15 5 16 4 17 3 18 2 19 1 20
REMARK H PARENT
REMARK Flexibility Score: inf
ROOT
ATOM      1  C   UNL     1      -5.874 -18.142  24.369  1.00  0.00     0.000 C 
ENDROOT
BRANCH   1   2
ATOM      2  C   UNL     1      -5.300 -18.617  25.713  1.00  0.00     0.000 C 
BRANCH   2   3
ATOM      3  C   UNL     1      -6.109 -18.050  26.886  1.00  0.00     0.000 C 
BRANCH   3   4
ATOM      4  C   UNL     1      -7.556 -17.752  26.464  1.00  0.00     0.000 C 
BRANCH   4   5
ATOM      5  C   UNL     1      -8.236 -16.715  27.370  1.00  0.00     0.000 C 
BRANCH   5   6
ATOM      6  C   UNL     1      -9.591 -17.196  27.909  1.00  0.00     0.000 C 
BRANCH   6   7
ATOM      7  C   UNL     1      -9.433 -17.860  29.282  1.00  0.00     0.006 C 
BRANCH   7   8
ATOM      8  C   UNL     1      -8.145 -17.400  29.971  1.00  0.00     0.053 C 
BRANCH   8   9
ATOM      9  C   UNL     1      -8.256 -17.564  31.454  1.00  0.00     0.041 C 
ATOM     10  O   UNL     1      -7.264 -17.953  32.125  1.00  0.00    -0.550 OA
ATOM     11  O   UNL     1      -9.441 -17.239  32.101  1.00  0.00    -0.550 OA
ENDBRANCH   8   9
ENDBRANCH   7   8
ENDBRANCH   6   7
ENDBRANCH   5   6
ENDBRANCH   4   5
ENDBRANCH   3   4
ENDBRANCH   2   3
ENDBRANCH   1   2
BRANCH   1  12
ATOM     12  C   UNL     1      -5.137 -18.748  23.162  1.00  0.00     0.000 C 
BRANCH  12  13
ATOM     13  C   UNL     1      -4.529 -20.126  23.474  1.00  0.00    -0.000 C 
BRANCH  13  14
ATOM     14  C   UNL     1      -3.955 -20.823  22.227  1.00  0.00    -0.000 C 
BRANCH  14  15
ATOM     15  C   UNL     1      -2.418 -20.838  22.136  1.00  0.00    -0.000 C 
BRANCH  15  16
ATOM     16  C   UNL     1      -1.738 -20.162  23.336  1.00  0.00    -0.000 C 
BRANCH  16  17
ATOM     17  C   UNL     1      -0.855 -18.992  22.878  1.00  0.00    -0.000 C 
BRANCH  17  18
ATOM     18  C   UNL     1      -0.310 -18.166  24.054  1.00  0.00    -0.000 C 
BRANCH  18  19
ATOM     19  C   UNL     1      -0.948 -18.554  25.396  1.00  0.00    -0.003 C 
ATOM     20  C   UNL     1      -1.626 -17.353  26.050  1.00  0.00     0.004 C 
ENDBRANCH  18  19
ENDBRANCH  17  18
ENDBRANCH  16  17
ENDBRANCH  15  16
ENDBRANCH  14  15
ENDBRANCH  13  14
ENDBRANCH  12  13
ENDBRANCH   1  12
TORSDOF 16
ENDMDL
MODEL 3
REMARK VINA RESULT:    15.619      3.139      8.756
REMARK INTER + INTRA:          29.161
REMARK INTER:                  30.093
REMARK INTRA:                  -0.933
REMARK UNBOUND:                -1.067
REMARK SMILES CCCCCCCCCCCCCCCCCC(=O)[O-]
REMARK SMILES IDX 10 1 11 2 12 3 13 4 14 5 15 6 16 7 17 8 18 9 19 10 20 11
REMARK SMILES IDX 9 12 8 13 7 14 6 15 5 16 4 17 3 18 2 19 1 20
REMARK H PARENT
REMARK Flexibility Score: inf
ROOT
ATOM      1  C   UNL     1      -5.885 -18.958  25.456  1.00  0.00     0.000 C 
ENDROOT
BRANCH   1   2
ATOM      2  C   UNL     1      -5.795 -17.716  26.355  1.00  0.00     0.000 C 
BRANCH   2   3
ATOM      3  C   UNL     1      -6.872 -17.750  27.447  1.00  0.00     0.000 C 
BRANCH   3   4
ATOM      4  C   UNL     1      -8.101 -16.925  27.035  1.00  0.00     0.000 C 
BRANCH   4   5
ATOM      5  C   UNL     1      -9.271 -17.072  28.019  1.00  0.00     0.000 C 
BRANCH   5   6
ATOM      6  C   UNL     1      -8.913 -17.930  29.241  1.00  0.00     0.000 C 
BRANCH   6   7
ATOM      7  C   UNL     1      -9.990 -17.817  30.326  1.00  0.00     0.006 C 
BRANCH   7   8
ATOM      8  C   UNL     1      -9.433 -17.151  31.588  1.00  0.00     0.053 C 
BRANCH   8   9
ATOM      9  C   UNL     1      -8.102 -17.735  31.944  1.00  0.00     0.041 C 
ATOM     10  O   UNL     1      -7.108 -16.983  32.124  1.00  0.00    -0.550 OA
ATOM     11  O   UNL     1      -7.971 -19.106  32.125  1.00  0.00    -0.550 OA
ENDBRANCH   8   9
ENDBRANCH   7   8
ENDBRANCH   6   7
ENDBRANCH   5   6
ENDBRANCH   4   5
ENDBRANCH   3   4
ENDBRANCH   2   3
ENDBRANCH   1   2
BRANCH   1  12
ATOM     12  C   UNL     1      -5.616 -18.640  23.976  1.00  0.00     0.000 C 
BRANCH  12  13
ATOM     13  C   UNL     1      -4.242 -19.148  23.504  1.00  0.00    -0.000 C 
BRANCH  13  14
ATOM     14  C   UNL     1      -4.325 -20.493  22.759  1.00  0.00    -0.000 C 
BRANCH  14  15
ATOM     15  C   UNL     1      -2.971 -21.086  22.327  1.00  0.00    -0.000 C 
BRANCH  15  16
ATOM     16  C   UNL     1      -1.804 -20.101  22.492  1.00  0.00    -0.000 C 
BRANCH  16  17
ATOM     17  C   UNL     1      -1.104 -20.302  23.844  1.00  0.00    -0.000 C 
BRANCH  17  18
ATOM     18  C   UNL     1      -0.199 -19.119  24.224  1.00  0.00    -0.000 C 
BRANCH  18  19
ATOM     19  C   UNL     1      -0.994 -17.842  24.534  1.00  0.00    -0.003 C 
ATOM     20  C   UNL     1      -1.576 -17.887  25.945  1.00  0.00     0.004 C 
ENDBRANCH  18  19
ENDBRANCH  17  18
ENDBRANCH  16  17
ENDBRANCH  15  16
ENDBRANCH  14  15
ENDBRANCH  13  14
ENDBRANCH  12  13
ENDBRANCH   1  12
TORSDOF 16
ENDMDL
MODEL 4
REMARK VINA RESULT:    15.623      2.358      4.008
REMARK INTER + INTRA:          29.169
REMARK INTER:                  30.246
REMARK INTRA:                  -1.077
REMARK UNBOUND:                -1.067
REMARK SMILES CCCCCCCCCCCCCCCCCC(=O)[O-]
REMARK SMILES IDX 10 1 11 2 12 3 13 4 14 5 15 6 16 7 17 8 18 9 19 10 20 11
REMARK SMILES IDX 9 12 8 13 7 14 6 15 5 16 4 17 3 18 2 19 1 20
REMARK H PARENT
REMARK Flexibility Score: inf
ROOT
ATOM      1  C   UNL     1      -3.360 -18.127  27.122  1.00  0.00     0.000 C 
ENDROOT
BRANCH   1   2
ATOM      2  C   UNL     1      -2.670 -17.474  25.915  1.00  0.00     0.000 C 
BRANCH   2   3
ATOM      3  C   UNL     1      -1.197 -17.896  25.831  1.00  0.00     0.000 C 
BRANCH   3   4
ATOM      4  C   UNL     1      -0.604 -17.552  24.456  1.00  0.00     0.000 C 
BRANCH   4   5
ATOM      5  C   UNL     1      -0.305 -18.800  23.611  1.00  0.00     0.000 C 
BRANCH   5   6
ATOM      6  C   UNL     1      -0.859 -20.087  24.239  1.00  0.00     0.000 C 
BRANCH   6   7
ATOM      7  C   UNL     1      -1.451 -21.011  23.168  1.00  0.00     0.006 C 
BRANCH   7   8
ATOM      8  C   UNL     1      -2.380 -20.239  22.228  1.00  0.00     0.053 C 
BRANCH   8   9
ATOM      9  C   UNL     1      -3.812 -20.510  22.567  1.00  0.00     0.041 C 
ATOM     10  O   UNL     1      -4.536 -19.594  23.038  1.00  0.00    -0.550 OA
ATOM     11  O   UNL     1      -4.359 -21.762  22.317  1.00  0.00    -0.550 OA
ENDBRANCH   8   9
ENDBRANCH   7   8
ENDBRANCH   6   7
ENDBRANCH   5   6
ENDBRANCH   4   5
ENDBRANCH   3   4
ENDBRANCH   2   3
ENDBRANCH   1   2
BRANCH   1  12
ATOM     12  C   UNL     1      -4.845 -17.744  27.235  1.00  0.00     0.000 C 
BRANCH  12  13
ATOM     13  C   UNL     1      -5.713 -18.429  26.165  1.00  0.00    -0.000 C 
BRANCH  13  14
ATOM     14  C   UNL     1      -7.139 -17.853  26.091  1.00  0.00    -0.000 C 
BRANCH  14  15
ATOM     15  C   UNL     1      -7.568 -17.013  27.308  1.00  0.00    -0.000 C 
BRANCH  15  16
ATOM     16  C   UNL     1      -8.825 -17.558  28.002  1.00  0.00    -0.000 C 
BRANCH  16  17
ATOM     17  C   UNL     1     -10.060 -16.724  27.635  1.00  0.00    -0.000 C 
BRANCH  17  18
ATOM     18  C   UNL     1      -9.699 -15.307  27.163  1.00  0.00    -0.000 C 
BRANCH  18  19
ATOM     19  C   UNL     1     -10.811 -14.660  26.326  1.00  0.00    -0.003 C 
ATOM     20  C   UNL     1     -11.031 -13.205  26.733  1.00  0.00     0.004 C 
ENDBRANCH  18  19
ENDBRANCH  17  18
ENDBRANCH  16  17
ENDBRANCH  15  16
ENDBRANCH  14  15
ENDBRANCH  13  14
ENDBRANCH  12  13
ENDBRANCH   1  12
TORSDOF 16
ENDMDL
MODEL 5
REMARK VINA RESULT:    15.669      2.023      3.104
REMARK INTER + INTRA:          29.258
REMARK INTER:                  30.262
REMARK INTRA:                  -1.003
REMARK UNBOUND:                -1.067
REMARK SMILES CCCCCCCCCCCCCCCCCC(=O)[O-]
REMARK SMILES IDX 10 1 11 2 12 3 13 4 14 5 15 6 16 7 17 8 18 9 19 10 20 11
REMARK SMILES IDX 9 12 8 13 7 14 6 15 5 16 4 17 3 18 2 19 1 20
REMARK H PARENT
REMARK Flexibility Score: inf
ROOT
ATOM      1  C   UNL     1      -4.819 -18.191  26.355  1.00  0.00     0.000 C 
ENDROOT
BRANCH   1   2
ATOM      2  C   UNL     1      -3.546 -17.859  27.148  1.00  0.00     0.000 C 
BRANCH   2   3
ATOM      3  C   UNL     1      -2.471 -17.257  26.234  1.00  0.00     0.000 C 
BRANCH   3   4
ATOM      4  C   UNL     1      -1.501 -18.339  25.737  1.00  0.00     0.000 C 
BRANCH   4   5
ATOM      5  C   UNL     1      -0.651 -17.872  24.546  1.00  0.00     0.000 C 
BRANCH   5   6
ATOM      6  C   UNL     1      -0.539 -18.935  23.444  1.00  0.00     0.000 C 
BRANCH   6   7
ATOM      7  C   UNL     1      -1.528 -20.082  23.684  1.00  0.00     0.006 C 
BRANCH   7   8
ATOM      8  C   UNL     1      -2.215 -20.499  22.380  1.00  0.00     0.053 C 
BRANCH   8   9
ATOM      9  C   UNL     1      -3.697 -20.581  22.572  1.00  0.00     0.041 C 
ATOM     10  O   UNL     1      -4.317 -19.639  23.133  1.00  0.00    -0.550 OA
ATOM     11  O   UNL     1      -4.400 -21.676  22.087  1.00  0.00    -0.550 OA
ENDBRANCH   8   9
ENDBRANCH   7   8
ENDBRANCH   6   7
ENDBRANCH   5   6
ENDBRANCH   4   5
ENDBRANCH   3   4
ENDBRANCH   2   3
ENDBRANCH   1   2
BRANCH   1  12
ATOM     12  C   UNL     1      -6.104 -17.932  27.160  1.00  0.00     0.000 C 
BRANCH  12  13
ATOM     13  C   UNL     1      -7.285 -17.516  26.268  1.00  0.00    -0.000 C 
BRANCH  13  14
ATOM     14  C   UNL     1      -8.281 -16.587  26.986  1.00  0.00    -0.000 C 
BRANCH  14  15
ATOM     15  C   UNL     1      -9.649 -17.216  27.305  1.00  0.00    -0.000 C 
BRANCH  15  16
ATOM     16  C   UNL     1      -9.665 -17.979  28.638  1.00  0.00    -0.000 C 
BRANCH  16  17
ATOM     17  C   UNL     1      -8.805 -17.264  29.689  1.00  0.00    -0.000 C 
BRANCH  17  18
ATOM     18  C   UNL     1      -9.073 -17.768  31.116  1.00  0.00    -0.000 C 
BRANCH  18  19
ATOM     19  C   UNL     1      -7.790 -17.890  31.951  1.00  0.00    -0.003 C 
ATOM     20  C   UNL     1      -7.383 -19.352  32.123  1.00  0.00     0.004 C 
ENDBRANCH  18  19
ENDBRANCH  17  18
ENDBRANCH  16  17
ENDBRANCH  15  16
ENDBRANCH  14  15
ENDBRANCH  13  14
ENDBRANCH  12  13
ENDBRANCH   1  12
TORSDOF 16
ENDMDL
MODEL 6
REMARK VINA RESULT:    15.783      1.616      2.584
REMARK INTER + INTRA:          29.479
REMARK INTER:                  30.208
REMARK INTRA:                  -0.729
REMARK UNBOUND:                -1.067
REMARK SMILES CCCCCCCCCCCCCCCCCC(=O)[O-]
REMARK SMILES IDX 10 1 11 2 12 3 13 4 14 5 15 6 16 7 17 8 18 9 19 10 20 11
REMARK SMILES IDX 9 12 8 13 7 14 6 15 5 16 4 17 3 18 2 19 1 20
REMARK H PARENT
REMARK Flexibility Score: inf
ROOT
ATOM      1  C   UNL     1      -5.545 -18.338  24.348  1.00  0.00     0.000 C 
ENDROOT
BRANCH   1   2
ATOM      2  C   UNL     1      -4.337 -19.026  23.696  1.00  0.00     0.000 C 
BRANCH   2   3
ATOM      3  C   UNL     1      -4.788 -20.142  22.744  1.00  0.00     0.000 C 
BRANCH   3   4
ATOM      4  C   UNL     1      -3.612 -21.055  22.369  1.00  0.00     0.000 C 
BRANCH   4   5
ATOM      5  C   UNL     1      -2.252 -20.354  22.499  1.00  0.00     0.000 C 
BRANCH   5   6
ATOM      6  C   UNL     1      -1.329 -21.035  23.521  1.00  0.00     0.000 C 
BRANCH   6   7
ATOM      7  C   UNL     1      -0.525 -19.997  24.313  1.00  0.00     0.006 C 
BRANCH   7   8
ATOM      8  C   UNL     1      -0.361 -18.701  23.514  1.00  0.00     0.053 C 
BRANCH   8   9
ATOM      9  C   UNL     1      -0.565 -17.511  24.398  1.00  0.00     0.041 C 
ATOM     10  O   UNL     1      -0.107 -16.387  24.064  1.00  0.00    -0.550 OA
ATOM     11  O   UNL     1      -1.305 -17.634  25.568  1.00  0.00    -0.550 OA
ENDBRANCH   8   9
ENDBRANCH   7   8
ENDBRANCH   6   7
ENDBRANCH   5   6
ENDBRANCH   4   5
ENDBRANCH   3   4
ENDBRANCH   2   3
ENDBRANCH   1   2
BRANCH   1  12
ATOM     12  C   UNL     1      -5.916 -18.955  25.708  1.00  0.00     0.000 C 
BRANCH  12  13
ATOM     13  C   UNL     1      -5.711 -17.975  26.875  1.00  0.00    -0.000 C 
BRANCH  13  14
ATOM     14  C   UNL     1      -6.972 -17.153  27.197  1.00  0.00    -0.000 C 
BRANCH  14  15
ATOM     15  C   UNL     1      -8.307 -17.874  26.935  1.00  0.00    -0.000 C 
BRANCH  15  16
ATOM     16  C   UNL     1      -9.290 -17.766  28.111  1.00  0.00    -0.000 C 
BRANCH  16  17
ATOM     17  C   UNL     1     -10.130 -16.486  28.007  1.00  0.00    -0.000 C 
BRANCH  17  18
ATOM     18  C   UNL     1      -9.622 -15.531  26.915  1.00  0.00    -0.000 C 
BRANCH  18  19
ATOM     19  C   UNL     1     -10.750 -14.700  26.286  1.00  0.00    -0.003 C 
ATOM     20  C   UNL     1     -10.860 -13.330  26.952  1.00  0.00     0.004 C 
ENDBRANCH  18  19
ENDBRANCH  17  18
ENDBRANCH  16  17
ENDBRANCH  15  16
ENDBRANCH  14  15
ENDBRANCH  13  14
ENDBRANCH  12  13
ENDBRANCH   1  12
TORSDOF 16
ENDMDL
MODEL 7
REMARK VINA RESULT:    16.035      3.938      8.986
REMARK INTER + INTRA:          29.967
REMARK INTER:                  31.078
REMARK INTRA:                  -1.111
REMARK UNBOUND:                -1.067
REMARK SMILES CCCCCCCCCCCCCCCCCC(=O)[O-]
REMARK SMILES IDX 10 1 11 2 12 3 13 4 14 5 15 6 16 7 17 8 18 9 19 10 20 11
REMARK SMILES IDX 9 12 8 13 7 14 6 15 5 16 4 17 3 18 2 19 1 20
REMARK H PARENT
REMARK Flexibility Score: inf
ROOT
ATOM      1  C   UNL     1      -6.293 -18.167  24.577  1.00  0.00     0.000 C 
ENDROOT
BRANCH   1   2
ATOM      2  C   UNL     1      -5.843 -18.732  25.933  1.00  0.00     0.000 C 
BRANCH   2   3
ATOM      3  C   UNL     1      -6.238 -17.791  27.078  1.00  0.00     0.000 C 
BRANCH   3   4
ATOM      4  C   UNL     1      -7.563 -17.077  26.772  1.00  0.00     0.000 C 
BRANCH   4   5
ATOM      5  C   UNL     1      -8.622 -17.300  27.861  1.00  0.00     0.000 C 
BRANCH   5   6
ATOM      6  C   UNL     1      -9.954 -16.602  27.546  1.00  0.00     0.000 C 
BRANCH   6   7
ATOM      7  C   UNL     1      -9.734 -15.118  27.229  1.00  0.00     0.006 C 
BRANCH   7   8
ATOM      8  C   UNL     1     -10.677 -14.647  26.118  1.00  0.00     0.053 C 
BRANCH   8   9
ATOM      9  C   UNL     1     -11.401 -13.405  26.537  1.00  0.00     0.041 C 
ATOM     10  O   UNL     1     -10.829 -12.555  27.269  1.00  0.00    -0.550 OA
ATOM     11  O   UNL     1     -12.689 -13.164  26.078  1.00  0.00    -0.550 OA
ENDBRANCH   8   9
ENDBRANCH   7   8
ENDBRANCH   6   7
ENDBRANCH   5   6
ENDBRANCH   4   5
ENDBRANCH   3   4
ENDBRANCH   2   3
ENDBRANCH   1   2
BRANCH   1  12
ATOM     12  C   UNL     1      -5.324 -18.519  23.436  1.00  0.00     0.000 C 
BRANCH  12  13
ATOM     13  C   UNL     1      -4.489 -19.775  23.739  1.00  0.00    -0.000 C 
BRANCH  13  14
ATOM     14  C   UNL     1      -4.152 -20.589  22.475  1.00  0.00    -0.000 C 
BRANCH  14  15
ATOM     15  C   UNL     1      -2.680 -21.024  22.352  1.00  0.00    -0.000 C 
BRANCH  15  16
ATOM     16  C   UNL     1      -1.708 -19.839  22.256  1.00  0.00    -0.000 C 
BRANCH  16  17
ATOM     17  C   UNL     1      -0.939 -19.652  23.571  1.00  0.00    -0.000 C 
BRANCH  17  18
ATOM     18  C   UNL     1      -0.106 -18.361  23.593  1.00  0.00    -0.000 C 
BRANCH  18  19
ATOM     19  C   UNL     1      -0.701 -17.289  24.517  1.00  0.00    -0.003 C 
ATOM     20  C   UNL     1      -1.528 -17.923  25.633  1.00  0.00     0.004 C 
ENDBRANCH  18  19
ENDBRANCH  17  18
ENDBRANCH  16  17
ENDBRANCH  15  16
ENDBRANCH  14  15
ENDBRANCH  13  14
ENDBRANCH  12  13
ENDBRANCH   1  12
TORSDOF 16
ENDMDL
MODEL 8
REMARK VINA RESULT:    16.545      4.061      8.994
REMARK INTER + INTRA:          30.954
REMARK INTER:                  31.856
REMARK INTRA:                  -0.902
REMARK UNBOUND:                -1.067
REMARK SMILES CCCCCCCCCCCCCCCCCC(=O)[O-]
REMARK SMILES IDX 10 1 11 2 12 3 13 4 14 5 15 6 16 7 17 8 18 9 19 10 20 11
REMARK SMILES IDX 9 12 8 13 7 14 6 15 5 16 4 17 3 18 2 19 1 20
REMARK H PARENT
REMARK Flexibility Score: inf
ROOT
ATOM      1  C   UNL     1      -4.837 -17.587  27.256  1.00  0.00     0.000 C 
ENDROOT
BRANCH   1   2
ATOM      2  C   UNL     1      -5.574 -18.345  26.141  1.00  0.00     0.000 C 
BRANCH   2   3
ATOM      3  C   UNL     1      -7.020 -17.849  26.004  1.00  0.00     0.000 C 
BRANCH   3   4
ATOM      4  C   UNL     1      -7.517 -17.232  27.320  1.00  0.00     0.000 C 
BRANCH   4   5
ATOM      5  C   UNL     1      -8.905 -17.748  27.729  1.00  0.00     0.000 C 
BRANCH   5   6
ATOM      6  C   UNL     1      -9.879 -16.614  28.079  1.00  0.00     0.000 C 
BRANCH   6   7
ATOM      7  C   UNL     1     -10.332 -15.870  26.817  1.00  0.00     0.006 C 
BRANCH   7   8
ATOM      8  C   UNL     1      -9.862 -14.413  26.839  1.00  0.00     0.053 C 
BRANCH   8   9
ATOM      9  C   UNL     1     -11.023 -13.485  26.670  1.00  0.00     0.041 C 
ATOM     10  O   UNL     1     -11.143 -12.477  27.415  1.00  0.00    -0.550 OA
ATOM     11  O   UNL     1     -11.947 -13.706  25.656  1.00  0.00    -0.550 OA
ENDBRANCH   8   9
ENDBRANCH   7   8
ENDBRANCH   6   7
ENDBRANCH   5   6
ENDBRANCH   4   5
ENDBRANCH   3   4
ENDBRANCH   2   3
ENDBRANCH   1   2
BRANCH   1  12
ATOM     12  C   UNL     1      -3.321 -17.850  27.250  1.00  0.00     0.000 C 
BRANCH  12  13
ATOM     13  C   UNL     1      -2.760 -18.033  25.829  1.00  0.00    -0.000 C 
BRANCH  13  14
ATOM     14  C   UNL     1      -1.257 -17.713  25.733  1.00  0.00    -0.000 C 
BRANCH  14  15
ATOM     15  C   UNL     1      -0.768 -17.287  24.337  1.00  0.00    -0.000 C 
BRANCH  15  16
ATOM     16  C   UNL     1      -0.230 -18.461  23.504  1.00  0.00    -0.000 C 
BRANCH  16  17
ATOM     17  C   UNL     1      -1.131 -19.696  23.650  1.00  0.00    -0.000 C 
BRANCH  17  18
ATOM     18  C   UNL     1      -1.729 -20.154  22.311  1.00  0.00    -0.000 C 
BRANCH  18  19
ATOM     19  C   UNL     1      -3.063 -20.896  22.482  1.00  0.00    -0.003 C 
ATOM     20  C   UNL     1      -4.146 -19.963  23.019  1.00  0.00     0.004 C 
ENDBRANCH  18  19
ENDBRANCH  17  18
ENDBRANCH  16  17
ENDBRANCH  15  16
ENDBRANCH  14  15
ENDBRANCH  13  14
ENDBRANCH  12  13
ENDBRANCH   1  12
TORSDOF 16
ENDMDL
