MODEL 1
REMARK VINA RESULT:    -6.293      0.000      0.000
REMARK INTER + INTRA:          -7.639
REMARK INTER:                  -7.396
REMARK INTRA:                  -0.243
REMARK UNBOUND:                -0.243
REMARK SMILES O=c1c(O)c(-c2ccc(O)cc2)oc2cc(O)cc(O)c12
REMARK SMILES IDX 5 1 3 2 2 3 1 4 21 5 19 6 18 7 16 8 15 9 14 10 13 11 6 12
REMARK SMILES IDX 7 13 8 14 9 15 12 16 11 17 10 18 4 20 20 22 17 24
REMARK H PARENT 10 19 4 21 20 23 17 25
REMARK Flexibility Score: inf
ROOT
ATOM      1  C   UNL     1      31.322  30.580  12.985  1.00  0.00     0.180 A 
ATOM      2  C   UNL     1      30.268  31.040  12.177  1.00  0.00     0.208 A 
ATOM      3  C   UNL     1      30.345  30.855  10.788  1.00  0.00     0.238 A 
ATOM      4  O   UNL     1      29.423  31.317  10.064  1.00  0.00    -0.285 OA
ATOM      5  C   UNL     1      31.466  30.201  10.225  1.00  0.00     0.111 A 
ATOM      6  C   UNL     1      31.631  29.925   8.834  1.00  0.00     0.134 A 
ATOM      7  C   UNL     1      32.840  29.389   8.374  1.00  0.00     0.093 A 
ATOM      8  C   UNL     1      33.866  29.059   9.263  1.00  0.00     0.123 A 
ATOM      9  C   UNL     1      33.692  29.270  10.628  1.00  0.00     0.094 A 
ATOM     10  C   UNL     1      32.511  29.836  11.114  1.00  0.00     0.146 A 
ATOM     11  O   UNL     1      32.390  30.029  12.422  1.00  0.00    -0.452 OA
ENDROOT
BRANCH   1  12
ATOM     12  C   UNL     1      31.301  30.716  14.460  1.00  0.00     0.021 A 
ATOM     13  C   UNL     1      30.493  29.857  15.222  1.00  0.00     0.016 A 
ATOM     14  C   UNL     1      30.441  29.983  16.614  1.00  0.00     0.047 A 
ATOM     15  C   UNL     1      31.184  30.977  17.259  1.00  0.00     0.115 A 
ATOM     16  C   UNL     1      32.031  31.726  15.113  1.00  0.00     0.016 A 
ATOM     17  C   UNL     1      31.977  31.850  16.505  1.00  0.00     0.047 A 
BRANCH  15  18
ATOM     18  O   UNL     1      31.123  31.090  18.646  1.00  0.00    -0.508 OA
ATOM     19  H   UNL     1      30.716  31.903  19.093  1.00  0.00     0.293 HD
ENDBRANCH  15  18
ENDBRANCH   1  12
BRANCH   2  20
ATOM     20  O   UNL     1      29.180  31.703  12.751  1.00  0.00    -0.502 OA
ATOM     21  H   UNL     1      28.696  32.460  12.284  1.00  0.00     0.293 HD
ENDBRANCH   2  20
BRANCH   6  22
ATOM     22  O   UNL     1      30.635  30.132   7.875  1.00  0.00    -0.507 OA
ATOM     23  H   UNL     1      30.778  30.584   6.985  1.00  0.00     0.293 HD
ENDBRANCH   6  22
BRANCH   8  24
ATOM     24  O   UNL     1      35.060  28.512   8.799  1.00  0.00    -0.508 OA
ATOM     25  H   UNL     1      35.871  28.419   9.401  1.00  0.00     0.293 HD
ENDBRANCH   8  24
TORSDOF 5
ENDMDL
MODEL 2
REMARK VINA RESULT:    -6.011      2.765      7.160
REMARK INTER + INTRA:          -7.308
REMARK INTER:                  -7.010
REMARK INTRA:                  -0.298
REMARK UNBOUND:                -0.243
REMARK SMILES O=c1c(O)c(-c2ccc(O)cc2)oc2cc(O)cc(O)c12
REMARK SMILES IDX 5 1 3 2 2 3 1 4 21 5 19 6 18 7 16 8 15 9 14 10 13 11 6 12
REMARK SMILES IDX 7 13 8 14 9 15 12 16 11 17 10 18 4 20 20 22 17 24
REMARK H PARENT 10 19 4 21 20 23 17 25
REMARK Flexibility Score: inf
ROOT
ATOM      1  C   UNL     1      33.648  28.294  13.453  1.00  0.00     0.180 A 
ATOM      2  C   UNL     1      34.095  28.335  14.785  1.00  0.00     0.208 A 
ATOM      3  C   UNL     1      33.443  29.182  15.696  1.00  0.00     0.238 A 
ATOM      4  O   UNL     1      33.882  29.254  16.875  1.00  0.00    -0.285 OA
ATOM      5  C   UNL     1      32.346  29.966  15.269  1.00  0.00     0.111 A 
ATOM      6  C   UNL     1      31.587  30.829  16.115  1.00  0.00     0.134 A 
ATOM      7  C   UNL     1      30.605  31.656  15.557  1.00  0.00     0.093 A 
ATOM      8  C   UNL     1      30.310  31.603  14.191  1.00  0.00     0.123 A 
ATOM      9  C   UNL     1      31.004  30.722  13.368  1.00  0.00     0.094 A 
ATOM     10  C   UNL     1      32.014  29.910  13.889  1.00  0.00     0.146 A 
ATOM     11  O   UNL     1      32.659  29.090  13.067  1.00  0.00    -0.452 OA
ENDROOT
BRANCH   1  12
ATOM     12  C   UNL     1      34.268  27.409  12.441  1.00  0.00     0.021 A 
ATOM     13  C   UNL     1      35.257  27.921  11.586  1.00  0.00     0.016 A 
ATOM     14  C   UNL     1      35.839  27.108  10.608  1.00  0.00     0.047 A 
ATOM     15  C   UNL     1      35.429  25.779  10.463  1.00  0.00     0.115 A 
ATOM     16  C   UNL     1      33.846  26.076  12.277  1.00  0.00     0.016 A 
ATOM     17  C   UNL     1      34.429  25.266  11.297  1.00  0.00     0.047 A 
BRANCH  15  18
ATOM     18  O   UNL     1      36.018  24.981   9.485  1.00  0.00    -0.508 OA
ATOM     19  H   UNL     1      35.643  24.069   9.250  1.00  0.00     0.293 HD
ENDBRANCH  15  18
ENDBRANCH   1  12
BRANCH   2  20
ATOM     20  O   UNL     1      35.194  27.569  15.182  1.00  0.00    -0.502 OA
ATOM     21  H   UNL     1      35.937  27.311  14.542  1.00  0.00     0.293 HD
ENDBRANCH   2  20
BRANCH   6  22
ATOM     22  O   UNL     1      31.739  30.891  17.503  1.00  0.00    -0.507 OA
ATOM     23  H   UNL     1      32.127  30.154  18.073  1.00  0.00     0.293 HD
ENDBRANCH   6  22
BRANCH   8  24
ATOM     24  O   UNL     1      29.320  32.418  13.646  1.00  0.00    -0.508 OA
ATOM     25  H   UNL     1      28.871  32.190  12.766  1.00  0.00     0.293 HD
ENDBRANCH   8  24
TORSDOF 5
ENDMDL
MODEL 3
REMARK VINA RESULT:    -5.794      2.391      6.394
REMARK INTER + INTRA:          -7.053
REMARK INTER:                  -7.135
REMARK INTRA:                   0.081
REMARK UNBOUND:                -0.243
REMARK SMILES O=c1c(O)c(-c2ccc(O)cc2)oc2cc(O)cc(O)c12
REMARK SMILES IDX 5 1 3 2 2 3 1 4 21 5 19 6 18 7 16 8 15 9 14 10 13 11 6 12
REMARK SMILES IDX 7 13 8 14 9 15 12 16 11 17 10 18 4 20 20 22 17 24
REMARK H PARENT 10 19 4 21 20 23 17 25
REMARK Flexibility Score: inf
ROOT
ATOM      1  C   UNL     1      33.217  28.787  12.940  1.00  0.00     0.180 A 
ATOM      2  C   UNL     1      32.222  29.301  12.092  1.00  0.00     0.208 A 
ATOM      3  C   UNL     1      31.248  30.159  12.627  1.00  0.00     0.238 A 
ATOM      4  O   UNL     1      30.328  30.574  11.873  1.00  0.00    -0.285 OA
ATOM      5  C   UNL     1      31.289  30.504  13.999  1.00  0.00     0.111 A 
ATOM      6  C   UNL     1      30.377  31.395  14.639  1.00  0.00     0.134 A 
ATOM      7  C   UNL     1      30.433  31.562  16.028  1.00  0.00     0.093 A 
ATOM      8  C   UNL     1      31.411  30.918  16.792  1.00  0.00     0.123 A 
ATOM      9  C   UNL     1      32.342  30.093  16.168  1.00  0.00     0.094 A 
ATOM     10  C   UNL     1      32.290  29.878  14.789  1.00  0.00     0.146 A 
ATOM     11  O   UNL     1      33.191  29.076  14.236  1.00  0.00    -0.452 OA
ENDROOT
BRANCH   1  12
ATOM     12  C   UNL     1      34.292  27.897  12.445  1.00  0.00     0.021 A 
ATOM     13  C   UNL     1      34.673  26.781  13.209  1.00  0.00     0.016 A 
ATOM     14  C   UNL     1      35.702  25.940  12.771  1.00  0.00     0.047 A 
ATOM     15  C   UNL     1      36.371  26.212  11.573  1.00  0.00     0.115 A 
ATOM     16  C   UNL     1      34.983  28.175  11.252  1.00  0.00     0.016 A 
ATOM     17  C   UNL     1      36.011  27.334  10.817  1.00  0.00     0.047 A 
BRANCH  15  18
ATOM     18  O   UNL     1      37.393  25.365  11.150  1.00  0.00    -0.508 OA
ATOM     19  H   UNL     1      38.038  24.945  11.808  1.00  0.00     0.293 HD
ENDBRANCH  15  18
ENDBRANCH   1  12
BRANCH   2  20
ATOM     20  O   UNL     1      32.187  28.931  10.745  1.00  0.00    -0.502 OA
ATOM     21  H   UNL     1      32.981  29.049  10.127  1.00  0.00     0.293 HD
ENDBRANCH   2  20
BRANCH   6  22
ATOM     22  O   UNL     1      29.423  32.157  13.957  1.00  0.00    -0.507 OA
ATOM     23  H   UNL     1      28.599  31.781  13.512  1.00  0.00     0.293 HD
ENDBRANCH   6  22
BRANCH   8  24
ATOM     24  O   UNL     1      31.470  31.102  18.171  1.00  0.00    -0.508 OA
ATOM     25  H   UNL     1      31.018  31.890  18.621  1.00  0.00     0.293 HD
ENDBRANCH   8  24
TORSDOF 5
ENDMDL
MODEL 4
REMARK VINA RESULT:    -5.787      4.013      5.590
REMARK INTER + INTRA:          -7.045
REMARK INTER:                  -6.756
REMARK INTRA:                  -0.288
REMARK UNBOUND:                -0.243
REMARK SMILES O=c1c(O)c(-c2ccc(O)cc2)oc2cc(O)cc(O)c12
REMARK SMILES IDX 5 1 3 2 2 3 1 4 21 5 19 6 18 7 16 8 15 9 14 10 13 11 6 12
REMARK SMILES IDX 7 13 8 14 9 15 12 16 11 17 10 18 4 20 20 22 17 24
REMARK H PARENT 10 19 4 21 20 23 17 25
REMARK Flexibility Score: inf
ROOT
ATOM      1  C   UNL     1      34.080  27.655  14.291  1.00  0.00     0.180 A 
ATOM      2  C   UNL     1      34.569  26.516  14.953  1.00  0.00     0.208 A 
ATOM      3  C   UNL     1      35.465  25.669  14.279  1.00  0.00     0.238 A 
ATOM      4  O   UNL     1      35.858  24.622  14.858  1.00  0.00    -0.285 OA
ATOM      5  C   UNL     1      35.870  25.980  12.960  1.00  0.00     0.111 A 
ATOM      6  C   UNL     1      36.803  25.214  12.197  1.00  0.00     0.134 A 
ATOM      7  C   UNL     1      37.032  25.542  10.855  1.00  0.00     0.093 A 
ATOM      8  C   UNL     1      36.409  26.647  10.267  1.00  0.00     0.123 A 
ATOM      9  C   UNL     1      35.543  27.434  11.020  1.00  0.00     0.094 A 
ATOM     10  C   UNL     1      35.267  27.112  12.351  1.00  0.00     0.146 A 
ATOM     11  O   UNL     1      34.428  27.884  13.031  1.00  0.00    -0.452 OA
ENDROOT
BRANCH   1  12
ATOM     12  C   UNL     1      33.153  28.608  14.944  1.00  0.00     0.021 A 
ATOM     13  C   UNL     1      33.673  29.693  15.668  1.00  0.00     0.016 A 
ATOM     14  C   UNL     1      32.817  30.592  16.312  1.00  0.00     0.047 A 
ATOM     15  C   UNL     1      31.431  30.409  16.251  1.00  0.00     0.115 A 
ATOM     16  C   UNL     1      31.759  28.418  14.904  1.00  0.00     0.016 A 
ATOM     17  C   UNL     1      30.905  29.318  15.549  1.00  0.00     0.047 A 
BRANCH  15  18
ATOM     18  O   UNL     1      30.590  31.312  16.897  1.00  0.00    -0.508 OA
ATOM     19  H   UNL     1      30.224  32.129  16.420  1.00  0.00     0.293 HD
ENDBRANCH  15  18
ENDBRANCH   1  12
BRANCH   2  20
ATOM     20  O   UNL     1      34.139  26.216  16.248  1.00  0.00    -0.502 OA
ATOM     21  H   UNL     1      33.928  25.270  16.546  1.00  0.00     0.293 HD
ENDBRANCH   2  20
BRANCH   6  22
ATOM     22  O   UNL     1      37.546  24.149  12.714  1.00  0.00    -0.507 OA
ATOM     23  H   UNL     1      38.154  23.555  12.172  1.00  0.00     0.293 HD
ENDBRANCH   6  22
BRANCH   8  24
ATOM     24  O   UNL     1      36.654  26.975   8.935  1.00  0.00    -0.508 OA
ATOM     25  H   UNL     1      36.554  27.926   8.596  1.00  0.00     0.293 HD
ENDBRANCH   8  24
TORSDOF 5
ENDMDL
MODEL 5
REMARK VINA RESULT:    -5.726      3.201      4.809
REMARK INTER + INTRA:          -6.973
REMARK INTER:                  -6.687
REMARK INTRA:                  -0.286
REMARK UNBOUND:                -0.243
REMARK SMILES O=c1c(O)c(-c2ccc(O)cc2)oc2cc(O)cc(O)c12
REMARK SMILES IDX 5 1 3 2 2 3 1 4 21 5 19 6 18 7 16 8 15 9 14 10 13 11 6 12
REMARK SMILES IDX 7 13 8 14 9 15 12 16 11 17 10 18 4 20 20 22 17 24
REMARK H PARENT 10 19 4 21 20 23 17 25
REMARK Flexibility Score: inf
ROOT
ATOM      1  C   UNL     1      33.913  28.159  13.925  1.00  0.00     0.180 A 
ATOM      2  C   UNL     1      34.715  27.104  14.392  1.00  0.00     0.208 A 
ATOM      3  C   UNL     1      35.550  26.431  13.487  1.00  0.00     0.238 A 
ATOM      4  O   UNL     1      36.226  25.451  13.900  1.00  0.00    -0.285 OA
ATOM      5  C   UNL     1      35.584  26.829  12.129  1.00  0.00     0.111 A 
ATOM      6  C   UNL     1      36.422  26.243  11.133  1.00  0.00     0.134 A 
ATOM      7  C   UNL     1      36.278  26.630   9.795  1.00  0.00     0.093 A 
ATOM      8  C   UNL     1      35.371  27.628   9.427  1.00  0.00     0.123 A 
ATOM      9  C   UNL     1      34.592  28.247  10.400  1.00  0.00     0.094 A 
ATOM     10  C   UNL     1      34.687  27.858  11.739  1.00  0.00     0.146 A 
ATOM     11  O   UNL     1      33.918  28.467  12.634  1.00  0.00    -0.452 OA
ENDROOT
BRANCH   1  12
ATOM     12  C   UNL     1      33.026  28.933  14.824  1.00  0.00     0.021 A 
ATOM     13  C   UNL     1      31.652  28.647  14.852  1.00  0.00     0.016 A 
ATOM     14  C   UNL     1      30.792  29.381  15.677  1.00  0.00     0.047 A 
ATOM     15  C   UNL     1      31.294  30.418  16.471  1.00  0.00     0.115 A 
ATOM     16  C   UNL     1      33.521  29.990  15.609  1.00  0.00     0.016 A 
ATOM     17  C   UNL     1      32.660  30.723  16.432  1.00  0.00     0.047 A 
BRANCH  15  18
ATOM     18  O   UNL     1      30.426  31.140  17.287  1.00  0.00    -0.508 OA
ATOM     19  H   UNL     1      29.426  31.142  17.125  1.00  0.00     0.293 HD
ENDBRANCH  15  18
ENDBRANCH   1  12
BRANCH   2  20
ATOM     20  O   UNL     1      34.650  26.712  15.732  1.00  0.00    -0.502 OA
ATOM     21  H   UNL     1      34.078  25.936  16.045  1.00  0.00     0.293 HD
ENDBRANCH   2  20
BRANCH   6  22
ATOM     22  O   UNL     1      37.422  25.306  11.407  1.00  0.00    -0.507 OA
ATOM     23  H   UNL     1      38.411  25.470  11.292  1.00  0.00     0.293 HD
ENDBRANCH   6  22
BRANCH   8  24
ATOM     24  O   UNL     1      35.245  28.018   8.095  1.00  0.00    -0.508 OA
ATOM     25  H   UNL     1      34.342  28.238   7.690  1.00  0.00     0.293 HD
ENDBRANCH   8  24
TORSDOF 5
ENDMDL
MODEL 6
REMARK VINA RESULT:    -5.636      4.197      6.247
REMARK INTER + INTRA:          -6.868
REMARK INTER:                  -6.685
REMARK INTRA:                  -0.183
REMARK UNBOUND:                -0.243
REMARK SMILES O=c1c(O)c(-c2ccc(O)cc2)oc2cc(O)cc(O)c12
REMARK SMILES IDX 5 1 3 2 2 3 1 4 21 5 19 6 18 7 16 8 15 9 14 10 13 11 6 12
REMARK SMILES IDX 7 13 8 14 9 15 12 16 11 17 10 18 4 20 20 22 17 24
REMARK H PARENT 10 19 4 21 20 23 17 25
REMARK Flexibility Score: inf
ROOT
ATOM      1  C   UNL     1      28.892  28.361  14.043  1.00  0.00     0.180 A 
ATOM      2  C   UNL     1      28.821  29.765  14.055  1.00  0.00     0.208 A 
ATOM      3  C   UNL     1      29.934  30.499  14.495  1.00  0.00     0.238 A 
ATOM      4  O   UNL     1      29.845  31.754  14.555  1.00  0.00    -0.285 OA
ATOM      5  C   UNL     1      31.107  29.822  14.905  1.00  0.00     0.111 A 
ATOM      6  C   UNL     1      32.308  30.466  15.332  1.00  0.00     0.134 A 
ATOM      7  C   UNL     1      33.362  29.696  15.838  1.00  0.00     0.093 A 
ATOM      8  C   UNL     1      33.284  28.301  15.872  1.00  0.00     0.123 A 
ATOM      9  C   UNL     1      32.140  27.661  15.402  1.00  0.00     0.094 A 
ATOM     10  C   UNL     1      31.057  28.403  14.924  1.00  0.00     0.146 A 
ATOM     11  O   UNL     1      29.982  27.754  14.494  1.00  0.00    -0.452 OA
ENDROOT
BRANCH   1  12
ATOM     12  C   UNL     1      27.769  27.520  13.569  1.00  0.00     0.021 A 
ATOM     13  C   UNL     1      27.122  26.659  14.469  1.00  0.00     0.016 A 
ATOM     14  C   UNL     1      26.074  25.838  14.038  1.00  0.00     0.047 A 
ATOM     15  C   UNL     1      25.671  25.858  12.698  1.00  0.00     0.115 A 
ATOM     16  C   UNL     1      27.372  27.520  12.219  1.00  0.00     0.016 A 
ATOM     17  C   UNL     1      26.326  26.699  11.789  1.00  0.00     0.047 A 
BRANCH  15  18
ATOM     18  O   UNL     1      24.627  25.036  12.282  1.00  0.00    -0.508 OA
ATOM     19  H   UNL     1      23.896  24.745  12.922  1.00  0.00     0.293 HD
ENDBRANCH  15  18
ENDBRANCH   1  12
BRANCH   2  20
ATOM     20  O   UNL     1      27.645  30.413  13.667  1.00  0.00    -0.502 OA
ATOM     21  H   UNL     1      27.318  31.261  14.115  1.00  0.00     0.293 HD
ENDBRANCH   2  20
BRANCH   6  22
ATOM     22  O   UNL     1      32.523  31.845  15.255  1.00  0.00    -0.507 OA
ATOM     23  H   UNL     1      31.895  32.501  14.816  1.00  0.00     0.293 HD
ENDBRANCH   6  22
BRANCH   8  24
ATOM     24  O   UNL     1      34.344  27.541  16.362  1.00  0.00    -0.508 OA
ATOM     25  H   UNL     1      34.225  26.567  16.616  1.00  0.00     0.293 HD
ENDBRANCH   8  24
TORSDOF 5
ENDMDL
MODEL 7
REMARK VINA RESULT:    -5.580      4.707      6.502
REMARK INTER + INTRA:          -6.802
REMARK INTER:                  -6.576
REMARK INTRA:                  -0.226
REMARK UNBOUND:                -0.243
REMARK SMILES O=c1c(O)c(-c2ccc(O)cc2)oc2cc(O)cc(O)c12
REMARK SMILES IDX 5 1 3 2 2 3 1 4 21 5 19 6 18 7 16 8 15 9 14 10 13 11 6 12
REMARK SMILES IDX 7 13 8 14 9 15 12 16 11 17 10 18 4 20 20 22 17 24
REMARK H PARENT 10 19 4 21 20 23 17 25
REMARK Flexibility Score: inf
ROOT
ATOM      1  C   UNL     1      29.073  28.366  14.572  1.00  0.00     0.180 A 
ATOM      2  C   UNL     1      29.272  27.139  15.227  1.00  0.00     0.208 A 
ATOM      3  C   UNL     1      28.379  26.083  14.981  1.00  0.00     0.238 A 
ATOM      4  O   UNL     1      28.530  25.004  15.613  1.00  0.00    -0.285 OA
ATOM      5  C   UNL     1      27.308  26.263  14.074  1.00  0.00     0.111 A 
ATOM      6  C   UNL     1      26.367  25.250  13.719  1.00  0.00     0.134 A 
ATOM      7  C   UNL     1      25.271  25.577  12.911  1.00  0.00     0.093 A 
ATOM      8  C   UNL     1      25.120  26.866  12.390  1.00  0.00     0.123 A 
ATOM      9  C   UNL     1      26.065  27.845  12.682  1.00  0.00     0.094 A 
ATOM     10  C   UNL     1      27.150  27.559  13.515  1.00  0.00     0.146 A 
ATOM     11  O   UNL     1      28.022  28.524  13.776  1.00  0.00    -0.452 OA
ENDROOT
BRANCH   1  12
ATOM     12  C   UNL     1      29.986  29.516  14.760  1.00  0.00     0.021 A 
ATOM     13  C   UNL     1      29.902  30.281  15.935  1.00  0.00     0.016 A 
ATOM     14  C   UNL     1      30.738  31.386  16.123  1.00  0.00     0.047 A 
ATOM     15  C   UNL     1      31.659  31.748  15.135  1.00  0.00     0.115 A 
ATOM     16  C   UNL     1      30.901  29.898  13.761  1.00  0.00     0.016 A 
ATOM     17  C   UNL     1      31.736  31.003  13.951  1.00  0.00     0.047 A 
BRANCH  15  18
ATOM     18  O   UNL     1      32.487  32.850  15.336  1.00  0.00    -0.508 OA
ATOM     19  H   UNL     1      32.897  33.354  14.557  1.00  0.00     0.293 HD
ENDBRANCH  15  18
ENDBRANCH   1  12
BRANCH   2  20
ATOM     20  O   UNL     1      30.322  26.989  16.137  1.00  0.00    -0.502 OA
ATOM     21  H   UNL     1      30.929  27.757  16.398  1.00  0.00     0.293 HD
ENDBRANCH   2  20
BRANCH   6  22
ATOM     22  O   UNL     1      26.477  23.913  14.110  1.00  0.00    -0.507 OA
ATOM     23  H   UNL     1      26.226  23.556  15.020  1.00  0.00     0.293 HD
ENDBRANCH   6  22
BRANCH   8  24
ATOM     24  O   UNL     1      24.036  27.179  11.573  1.00  0.00    -0.508 OA
ATOM     25  H   UNL     1      23.505  28.034  11.701  1.00  0.00     0.293 HD
ENDBRANCH   8  24
TORSDOF 5
ENDMDL
MODEL 8
REMARK VINA RESULT:    -5.486      1.761      2.586
REMARK INTER + INTRA:          -6.691
REMARK INTER:                  -6.422
REMARK INTRA:                  -0.269
REMARK UNBOUND:                -0.243
REMARK SMILES O=c1c(O)c(-c2ccc(O)cc2)oc2cc(O)cc(O)c12
REMARK SMILES IDX 5 1 3 2 2 3 1 4 21 5 19 6 18 7 16 8 15 9 14 10 13 11 6 12
REMARK SMILES IDX 7 13 8 14 9 15 12 16 11 17 10 18 4 20 20 22 17 24
REMARK H PARENT 10 19 4 21 20 23 17 25
REMARK Flexibility Score: inf
ROOT
ATOM      1  C   UNL     1      32.616  29.530  13.106  1.00  0.00     0.180 A 
ATOM      2  C   UNL     1      32.090  30.059  11.915  1.00  0.00     0.208 A 
ATOM      3  C   UNL     1      32.615  29.624  10.687  1.00  0.00     0.238 A 
ATOM      4  O   UNL     1      32.178  30.141   9.625  1.00  0.00    -0.285 OA
ATOM      5  C   UNL     1      33.647  28.656  10.666  1.00  0.00     0.111 A 
ATOM      6  C   UNL     1      34.227  28.114   9.479  1.00  0.00     0.134 A 
ATOM      7  C   UNL     1      35.331  27.259   9.577  1.00  0.00     0.093 A 
ATOM      8  C   UNL     1      35.836  26.875  10.822  1.00  0.00     0.123 A 
ATOM      9  C   UNL     1      35.241  27.351  11.987  1.00  0.00     0.094 A 
ATOM     10  C   UNL     1      34.160  28.234  11.921  1.00  0.00     0.146 A 
ATOM     11  O   UNL     1      33.628  28.673  13.056  1.00  0.00    -0.452 OA
ENDROOT
BRANCH   1  12
ATOM     12  C   UNL     1      32.097  29.921  14.437  1.00  0.00     0.021 A 
ATOM     13  C   UNL     1      32.842  30.803  15.238  1.00  0.00     0.016 A 
ATOM     14  C   UNL     1      32.382  31.167  16.508  1.00  0.00     0.047 A 
ATOM     15  C   UNL     1      31.181  30.643  16.998  1.00  0.00     0.115 A 
ATOM     16  C   UNL     1      30.901  29.382  14.945  1.00  0.00     0.016 A 
ATOM     17  C   UNL     1      30.444  29.747  16.215  1.00  0.00     0.047 A 
BRANCH  15  18
ATOM     18  O   UNL     1      30.736  31.015  18.265  1.00  0.00    -0.508 OA
ATOM     19  H   UNL     1      30.549  31.984  18.496  1.00  0.00     0.293 HD
ENDBRANCH  15  18
ENDBRANCH   1  12
BRANCH   2  20
ATOM     20  O   UNL     1      31.087  31.030  11.959  1.00  0.00    -0.502 OA
ATOM     21  H   UNL     1      31.287  32.015  12.089  1.00  0.00     0.293 HD
ENDBRANCH   2  20
BRANCH   6  22
ATOM     22  O   UNL     1      33.741  28.361   8.192  1.00  0.00    -0.507 OA
ATOM     23  H   UNL     1      33.508  29.273   7.830  1.00  0.00     0.293 HD
ENDBRANCH   6  22
BRANCH   8  24
ATOM     24  O   UNL     1      36.925  26.010  10.912  1.00  0.00    -0.508 OA
ATOM     25  H   UNL     1      37.875  26.337  10.771  1.00  0.00     0.293 HD
ENDBRANCH   8  24
TORSDOF 5
ENDMDL
MODEL 9
REMARK VINA RESULT:    -5.441      1.259      3.149
REMARK INTER + INTRA:          -6.639
REMARK INTER:                  -6.403
REMARK INTRA:                  -0.236
REMARK UNBOUND:                -0.243
REMARK SMILES O=c1c(O)c(-c2ccc(O)cc2)oc2cc(O)cc(O)c12
REMARK SMILES IDX 5 1 3 2 2 3 1 4 21 5 19 6 18 7 16 8 15 9 14 10 13 11 6 12
REMARK SMILES IDX 7 13 8 14 9 15 12 16 11 17 10 18 4 20 20 22 17 24
REMARK H PARENT 10 19 4 21 20 23 17 25
REMARK Flexibility Score: inf
ROOT
ATOM      1  C   UNL     1      31.487  30.247  12.930  1.00  0.00     0.180 A 
ATOM      2  C   UNL     1      32.516  29.463  12.381  1.00  0.00     0.208 A 
ATOM      3  C   UNL     1      32.582  29.304  10.988  1.00  0.00     0.238 A 
ATOM      4  O   UNL     1      33.473  28.556  10.506  1.00  0.00    -0.285 OA
ATOM      5  C   UNL     1      31.627  29.941  10.160  1.00  0.00     0.111 A 
ATOM      6  C   UNL     1      31.621  29.881   8.734  1.00  0.00     0.134 A 
ATOM      7  C   UNL     1      30.554  30.443   8.023  1.00  0.00     0.093 A 
ATOM      8  C   UNL     1      29.524  31.120   8.685  1.00  0.00     0.123 A 
ATOM      9  C   UNL     1      29.552  31.235  10.071  1.00  0.00     0.094 A 
ATOM     10  C   UNL     1      30.586  30.654  10.811  1.00  0.00     0.146 A 
ATOM     11  O   UNL     1      30.569  30.779  12.133  1.00  0.00    -0.452 OA
ENDROOT
BRANCH   1  12
ATOM     12  C   UNL     1      31.367  30.482  14.387  1.00  0.00     0.021 A 
ATOM     13  C   UNL     1      32.245  31.379  15.018  1.00  0.00     0.016 A 
ATOM     14  C   UNL     1      32.165  31.599  16.397  1.00  0.00     0.047 A 
ATOM     15  C   UNL     1      31.216  30.914  17.164  1.00  0.00     0.115 A 
ATOM     16  C   UNL     1      30.429  29.782  15.168  1.00  0.00     0.016 A 
ATOM     17  C   UNL     1      30.351  30.003  16.547  1.00  0.00     0.047 A 
BRANCH  15  18
ATOM     18  O   UNL     1      31.147  31.143  18.536  1.00  0.00    -0.508 OA
ATOM     19  H   UNL     1      31.983  31.198  19.106  1.00  0.00     0.293 HD
ENDBRANCH  15  18
ENDBRANCH   1  12
BRANCH   2  20
ATOM     20  O   UNL     1      33.435  28.824  13.218  1.00  0.00    -0.502 OA
ATOM     21  H   UNL     1      34.156  28.206  12.863  1.00  0.00     0.293 HD
ENDBRANCH   2  20
BRANCH   6  22
ATOM     22  O   UNL     1      32.645  29.310   7.974  1.00  0.00    -0.507 OA
ATOM     23  H   UNL     1      32.617  28.385   7.573  1.00  0.00     0.293 HD
ENDBRANCH   6  22
BRANCH   8  24
ATOM     24  O   UNL     1      28.474  31.690   7.969  1.00  0.00    -0.508 OA
ATOM     25  H   UNL     1      27.559  31.822   8.385  1.00  0.00     0.293 HD
ENDBRANCH   8  24
TORSDOF 5
ENDMDL
