MODEL 1
REMARK VINA RESULT:    -4.223      0.000      0.000
REMARK INTER + INTRA:          -8.274
REMARK INTER:                  -7.186
REMARK INTRA:                  -1.088
REMARK UNBOUND:                -1.088
REMARK SMILES CCCCCCCCCCCCCC(=O)[O-]
REMARK SMILES IDX 8 1 9 2 10 3 11 4 12 5 13 6 14 7 15 8 16 9 7 10 6 11 5 12
REMARK SMILES IDX 4 13 3 14 2 15 1 16
REMARK H PARENT
REMARK Flexibility Score: inf
ROOT
ATOM      1  C   UNL     1      10.025  15.823  24.912  1.00  0.00     0.000 C 
ENDROOT
BRANCH   1   2
ATOM      2  C   UNL     1       9.193  14.696  24.277  1.00  0.00     0.000 C 
BRANCH   2   3
ATOM      3  C   UNL     1      10.033  13.428  24.018  1.00  0.00     0.000 C 
BRANCH   3   4
ATOM      4  C   UNL     1       9.832  12.832  22.615  1.00  0.00     0.000 C 
BRANCH   4   5
ATOM      5  C   UNL     1      10.726  13.492  21.552  1.00  0.00     0.006 C 
BRANCH   5   6
ATOM      6  C   UNL     1      10.096  13.443  20.153  1.00  0.00     0.053 C 
BRANCH   6   7
ATOM      7  C   UNL     1      10.024  14.802  19.529  1.00  0.00     0.041 C 
ATOM      8  O   UNL     1       9.074  15.579  19.812  1.00  0.00    -0.550 OA
ATOM      9  O   UNL     1      11.023  15.225  18.662  1.00  0.00    -0.550 OA
ENDBRANCH   6   7
ENDBRANCH   5   6
ENDBRANCH   4   5
ENDBRANCH   3   4
ENDBRANCH   2   3
ENDBRANCH   1   2
BRANCH   1  10
ATOM     10  C   UNL     1      11.106  16.371  23.967  1.00  0.00     0.000 C 
BRANCH  10  11
ATOM     11  C   UNL     1      10.525  16.892  22.642  1.00  0.00    -0.000 C 
BRANCH  11  12
ATOM     12  C   UNL     1       9.363  17.881  22.846  1.00  0.00    -0.000 C 
BRANCH  12  13
ATOM     13  C   UNL     1       9.335  19.076  21.871  1.00  0.00    -0.000 C 
BRANCH  13  14
ATOM     14  C   UNL     1       9.363  20.464  22.536  1.00  0.00    -0.000 C 
BRANCH  14  15
ATOM     15  C   UNL     1      10.658  20.722  23.320  1.00  0.00    -0.003 C 
ATOM     16  C   UNL     1      10.356  21.122  24.761  1.00  0.00     0.004 C 
ENDBRANCH  14  15
ENDBRANCH  13  14
ENDBRANCH  12  13
ENDBRANCH  11  12
ENDBRANCH  10  11
ENDBRANCH   1  10
TORSDOF 12
ENDMDL
MODEL 2
REMARK VINA RESULT:    -4.111      3.541      7.316
REMARK INTER + INTRA:          -8.083
REMARK INTER:                  -7.523
REMARK INTRA:                  -0.560
REMARK UNBOUND:                -1.088
REMARK SMILES CCCCCCCCCCCCCC(=O)[O-]
REMARK SMILES IDX 8 1 9 2 10 3 11 4 12 5 13 6 14 7 15 8 16 9 7 10 6 11 5 12
REMARK SMILES IDX 4 13 3 14 2 15 1 16
REMARK H PARENT
REMARK Flexibility Score: inf
ROOT
ATOM      1  C   UNL     1      10.295  13.974  23.958  1.00  0.00     0.000 C 
ENDROOT
BRANCH   1   2
ATOM      2  C   UNL     1       9.955  15.437  24.291  1.00  0.00     0.000 C 
BRANCH   2   3
ATOM      3  C   UNL     1       9.084  16.095  23.201  1.00  0.00     0.000 C 
BRANCH   3   4
ATOM      4  C   UNL     1       9.886  16.950  22.206  1.00  0.00     0.000 C 
BRANCH   4   5
ATOM      5  C   UNL     1      10.549  16.115  21.098  1.00  0.00     0.006 C 
BRANCH   5   6
ATOM      6  C   UNL     1       9.562  15.145  20.434  1.00  0.00     0.053 C 
BRANCH   6   7
ATOM      7  C   UNL     1      10.257  13.945  19.871  1.00  0.00     0.041 C 
ATOM      8  O   UNL     1      10.088  12.812  20.394  1.00  0.00    -0.550 OA
ATOM      9  O   UNL     1      11.062  14.069  18.746  1.00  0.00    -0.550 OA
ENDBRANCH   6   7
ENDBRANCH   5   6
ENDBRANCH   4   5
ENDBRANCH   3   4
ENDBRANCH   2   3
ENDBRANCH   1   2
BRANCH   1  10
ATOM     10  C   UNL     1       9.234  12.985  24.467  1.00  0.00     0.000 C 
BRANCH  10  11
ATOM     11  C   UNL     1       9.813  11.589  24.749  1.00  0.00    -0.000 C 
BRANCH  11  12
ATOM     12  C   UNL     1       8.762  10.470  24.629  1.00  0.00    -0.000 C 
BRANCH  12  13
ATOM     13  C   UNL     1       9.259   9.057  24.997  1.00  0.00    -0.000 C 
BRANCH  13  14
ATOM     14  C   UNL     1       8.576   8.421  26.221  1.00  0.00    -0.000 C 
BRANCH  14  15
ATOM     15  C   UNL     1       9.221   7.091  26.638  1.00  0.00    -0.003 C 
ATOM     16  C   UNL     1       8.446   6.441  27.780  1.00  0.00     0.004 C 
ENDBRANCH  14  15
ENDBRANCH  13  14
ENDBRANCH  12  13
ENDBRANCH  11  12
ENDBRANCH  10  11
ENDBRANCH   1  10
TORSDOF 12
ENDMDL
MODEL 3
REMARK VINA RESULT:    -4.104      4.079      7.751
REMARK INTER + INTRA:          -8.072
REMARK INTER:                  -7.380
REMARK INTRA:                  -0.692
REMARK UNBOUND:                -1.088
REMARK SMILES CCCCCCCCCCCCCC(=O)[O-]
REMARK SMILES IDX 8 1 9 2 10 3 11 4 12 5 13 6 14 7 15 8 16 9 7 10 6 11 5 12
REMARK SMILES IDX 4 13 3 14 2 15 1 16
REMARK H PARENT
REMARK Flexibility Score: inf
ROOT
ATOM      1  C   UNL     1       9.103  11.946  25.325  1.00  0.00     0.000 C 
ENDROOT
BRANCH   1   2
ATOM      2  C   UNL     1       9.811  12.791  24.251  1.00  0.00     0.000 C 
BRANCH   2   3
ATOM      3  C   UNL     1       9.580  14.303  24.454  1.00  0.00     0.000 C 
BRANCH   3   4
ATOM      4  C   UNL     1       9.726  15.126  23.163  1.00  0.00     0.000 C 
BRANCH   4   5
ATOM      5  C   UNL     1      10.977  14.749  22.353  1.00  0.00     0.006 C 
BRANCH   5   6
ATOM      6  C   UNL     1      10.868  15.181  20.884  1.00  0.00     0.053 C 
BRANCH   6   7
ATOM      7  C   UNL     1      10.615  14.015  19.979  1.00  0.00     0.041 C 
ATOM      8  O   UNL     1      10.876  14.099  18.750  1.00  0.00    -0.550 OA
ATOM      9  O   UNL     1      10.125  12.824  20.498  1.00  0.00    -0.550 OA
ENDBRANCH   6   7
ENDBRANCH   5   6
ENDBRANCH   4   5
ENDBRANCH   3   4
ENDBRANCH   2   3
ENDBRANCH   1   2
BRANCH   1  10
ATOM     10  C   UNL     1       8.530  10.634  24.769  1.00  0.00     0.000 C 
BRANCH  10  11
ATOM     11  C   UNL     1       9.625   9.619  24.399  1.00  0.00    -0.000 C 
BRANCH  11  12
ATOM     12  C   UNL     1       9.378   8.226  25.007  1.00  0.00    -0.000 C 
BRANCH  12  13
ATOM     13  C   UNL     1       8.479   8.203  26.259  1.00  0.00    -0.000 C 
BRANCH  13  14
ATOM     14  C   UNL     1       8.755   7.051  27.242  1.00  0.00    -0.000 C 
BRANCH  14  15
ATOM     15  C   UNL     1       8.647   7.484  28.712  1.00  0.00    -0.003 C 
ATOM     16  C   UNL     1       8.617   9.004  28.835  1.00  0.00     0.004 C 
ENDBRANCH  14  15
ENDBRANCH  13  14
ENDBRANCH  12  13
ENDBRANCH  11  12
ENDBRANCH  10  11
ENDBRANCH   1  10
TORSDOF 12
ENDMDL
MODEL 4
REMARK VINA RESULT:    -4.065      1.116      1.657
REMARK INTER + INTRA:          -8.004
REMARK INTER:                  -6.599
REMARK INTRA:                  -1.405
REMARK UNBOUND:                -1.088
REMARK SMILES CCCCCCCCCCCCCC(=O)[O-]
REMARK SMILES IDX 8 1 9 2 10 3 11 4 12 5 13 6 14 7 15 8 16 9 7 10 6 11 5 12
REMARK SMILES IDX 4 13 3 14 2 15 1 16
REMARK H PARENT
REMARK Flexibility Score: inf
ROOT
ATOM      1  C   UNL     1      11.444  16.959  23.218  1.00  0.00     0.000 C 
ENDROOT
BRANCH   1   2
ATOM      2  C   UNL     1      10.306  16.283  24.002  1.00  0.00     0.000 C 
BRANCH   2   3
ATOM      3  C   UNL     1      10.449  14.746  24.024  1.00  0.00     0.000 C 
BRANCH   3   4
ATOM      4  C   UNL     1       9.809  14.051  22.811  1.00  0.00     0.000 C 
BRANCH   4   5
ATOM      5  C   UNL     1      10.812  13.788  21.676  1.00  0.00     0.006 C 
BRANCH   5   6
ATOM      6  C   UNL     1      10.117  13.597  20.321  1.00  0.00     0.053 C 
BRANCH   6   7
ATOM      7  C   UNL     1      10.020  14.883  19.560  1.00  0.00     0.041 C 
ATOM      8  O   UNL     1       9.053  15.665  19.759  1.00  0.00    -0.550 OA
ATOM      9  O   UNL     1      11.015  15.235  18.657  1.00  0.00    -0.550 OA
ENDBRANCH   6   7
ENDBRANCH   5   6
ENDBRANCH   4   5
ENDBRANCH   3   4
ENDBRANCH   2   3
ENDBRANCH   1   2
BRANCH   1  10
ATOM     10  C   UNL     1      10.937  17.791  22.029  1.00  0.00     0.000 C 
BRANCH  10  11
ATOM     11  C   UNL     1       9.422  18.047  22.091  1.00  0.00    -0.000 C 
BRANCH  11  12
ATOM     12  C   UNL     1       9.046  19.500  21.746  1.00  0.00    -0.000 C 
BRANCH  12  13
ATOM     13  C   UNL     1       8.008  20.152  22.683  1.00  0.00    -0.000 C 
BRANCH  13  14
ATOM     14  C   UNL     1       8.587  20.783  23.962  1.00  0.00    -0.000 C 
BRANCH  14  15
ATOM     15  C   UNL     1       8.617  19.807  25.147  1.00  0.00    -0.003 C 
ATOM     16  C   UNL     1      10.020  19.699  25.734  1.00  0.00     0.004 C 
ENDBRANCH  14  15
ENDBRANCH  13  14
ENDBRANCH  12  13
ENDBRANCH  11  12
ENDBRANCH  10  11
ENDBRANCH   1  10
TORSDOF 12
ENDMDL
MODEL 5
REMARK VINA RESULT:    -4.025      1.409      2.251
REMARK INTER + INTRA:          -7.936
REMARK INTER:                  -6.410
REMARK INTRA:                  -1.526
REMARK UNBOUND:                -1.088
REMARK SMILES CCCCCCCCCCCCCC(=O)[O-]
REMARK SMILES IDX 8 1 9 2 10 3 11 4 12 5 13 6 14 7 15 8 16 9 7 10 6 11 5 12
REMARK SMILES IDX 4 13 3 14 2 15 1 16
REMARK H PARENT
REMARK Flexibility Score: inf
ROOT
ATOM      1  C   UNL     1       9.853  17.076  25.802  1.00  0.00     0.000 C 
ENDROOT
BRANCH   1   2
ATOM      2  C   UNL     1      10.580  15.907  25.114  1.00  0.00     0.000 C 
BRANCH   2   3
ATOM      3  C   UNL     1       9.794  15.366  23.902  1.00  0.00     0.000 C 
BRANCH   3   4
ATOM      4  C   UNL     1      10.218  13.950  23.476  1.00  0.00     0.000 C 
BRANCH   4   5
ATOM      5  C   UNL     1      10.145  13.737  21.956  1.00  0.00     0.006 C 
BRANCH   5   6
ATOM      6  C   UNL     1      10.967  14.778  21.183  1.00  0.00     0.053 C 
BRANCH   6   7
ATOM      7  C   UNL     1      10.296  15.180  19.907  1.00  0.00     0.041 C 
ATOM      8  O   UNL     1       9.077  15.498  19.904  1.00  0.00    -0.550 OA
ATOM      9  O   UNL     1      11.023  15.238  18.725  1.00  0.00    -0.550 OA
ENDBRANCH   6   7
ENDBRANCH   5   6
ENDBRANCH   4   5
ENDBRANCH   3   4
ENDBRANCH   2   3
ENDBRANCH   1   2
BRANCH   1  10
ATOM     10  C   UNL     1       8.482  17.375  25.175  1.00  0.00     0.000 C 
BRANCH  10  11
ATOM     11  C   UNL     1       8.005  18.811  25.454  1.00  0.00    -0.000 C 
BRANCH  11  12
ATOM     12  C   UNL     1       8.297  19.774  24.289  1.00  0.00    -0.000 C 
BRANCH  12  13
ATOM     13  C   UNL     1       9.581  20.617  24.437  1.00  0.00    -0.000 C 
BRANCH  13  14
ATOM     14  C   UNL     1      10.657  20.363  23.366  1.00  0.00    -0.000 C 
BRANCH  14  15
ATOM     15  C   UNL     1      10.391  19.092  22.546  1.00  0.00    -0.003 C 
ATOM     16  C   UNL     1      11.628  18.199  22.503  1.00  0.00     0.004 C 
ENDBRANCH  14  15
ENDBRANCH  13  14
ENDBRANCH  12  13
ENDBRANCH  11  12
ENDBRANCH  10  11
ENDBRANCH   1  10
TORSDOF 12
ENDMDL
MODEL 6
REMARK VINA RESULT:    -3.973      4.249      7.944
REMARK INTER + INTRA:          -7.849
REMARK INTER:                  -7.210
REMARK INTRA:                  -0.639
REMARK UNBOUND:                -1.088
REMARK SMILES CCCCCCCCCCCCCC(=O)[O-]
REMARK SMILES IDX 8 1 9 2 10 3 11 4 12 5 13 6 14 7 15 8 16 9 7 10 6 11 5 12
REMARK SMILES IDX 4 13 3 14 2 15 1 16
REMARK H PARENT
REMARK Flexibility Score: inf
ROOT
ATOM      1  C   UNL     1       8.212  11.434  24.389  1.00  0.00     0.000 C 
ENDROOT
BRANCH   1   2
ATOM      2  C   UNL     1       8.524  12.820  23.797  1.00  0.00     0.000 C 
BRANCH   2   3
ATOM      3  C   UNL     1      10.020  13.178  23.911  1.00  0.00     0.000 C 
BRANCH   3   4
ATOM      4  C   UNL     1      10.766  13.136  22.567  1.00  0.00     0.000 C 
BRANCH   4   5
ATOM      5  C   UNL     1       9.819  13.176  21.357  1.00  0.00     0.006 C 
BRANCH   5   6
ATOM      6  C   UNL     1      10.563  13.473  20.047  1.00  0.00     0.053 C 
BRANCH   6   7
ATOM      7  C   UNL     1      10.236  14.835  19.519  1.00  0.00     0.041 C 
ATOM      8  O   UNL     1       9.221  15.451  19.940  1.00  0.00    -0.550 OA
ATOM      9  O   UNL     1      11.070  15.441  18.589  1.00  0.00    -0.550 OA
ENDBRANCH   6   7
ENDBRANCH   5   6
ENDBRANCH   4   5
ENDBRANCH   3   4
ENDBRANCH   2   3
ENDBRANCH   1   2
BRANCH   1  10
ATOM     10  C   UNL     1       9.464  10.717  24.918  1.00  0.00     0.000 C 
BRANCH  10  11
ATOM     11  C   UNL     1       9.471   9.216  24.584  1.00  0.00    -0.000 C 
BRANCH  11  12
ATOM     12  C   UNL     1       9.043   8.337  25.773  1.00  0.00    -0.000 C 
BRANCH  12  13
ATOM     13  C   UNL     1       8.436   9.098  26.970  1.00  0.00    -0.000 C 
BRANCH  13  14
ATOM     14  C   UNL     1       7.878   8.208  28.096  1.00  0.00    -0.000 C 
BRANCH  14  15
ATOM     15  C   UNL     1       8.799   7.027  28.432  1.00  0.00    -0.003 C 
ATOM     16  C   UNL     1       8.119   5.696  28.125  1.00  0.00     0.004 C 
ENDBRANCH  14  15
ENDBRANCH  13  14
ENDBRANCH  12  13
ENDBRANCH  11  12
ENDBRANCH  10  11
ENDBRANCH   1  10
TORSDOF 12
ENDMDL
MODEL 7
REMARK VINA RESULT:    -3.915      1.591      3.988
REMARK INTER + INTRA:          -7.749
REMARK INTER:                  -6.420
REMARK INTRA:                  -1.328
REMARK UNBOUND:                -1.088
REMARK SMILES CCCCCCCCCCCCCC(=O)[O-]
REMARK SMILES IDX 8 1 9 2 10 3 11 4 12 5 13 6 14 7 15 8 16 9 7 10 6 11 5 12
REMARK SMILES IDX 4 13 3 14 2 15 1 16
REMARK H PARENT
REMARK Flexibility Score: inf
ROOT
ATOM      1  C   UNL     1      10.177  20.046  22.909  1.00  0.00     0.000 C 
ENDROOT
BRANCH   1   2
ATOM      2  C   UNL     1      11.306  19.000  22.882  1.00  0.00     0.000 C 
BRANCH   2   3
ATOM      3  C   UNL     1      10.922  17.752  22.060  1.00  0.00     0.000 C 
BRANCH   3   4
ATOM      4  C   UNL     1      11.181  16.427  22.797  1.00  0.00     0.000 C 
BRANCH   4   5
ATOM      5  C   UNL     1      10.367  15.256  22.223  1.00  0.00     0.006 C 
BRANCH   5   6
ATOM      6  C   UNL     1      11.017  14.657  20.968  1.00  0.00     0.053 C 
BRANCH   6   7
ATOM      7  C   UNL     1      10.360  15.146  19.715  1.00  0.00     0.041 C 
ATOM      8  O   UNL     1      11.013  15.210  18.640  1.00  0.00    -0.550 OA
ATOM      9  O   UNL     1       9.016  15.498  19.724  1.00  0.00    -0.550 OA
ENDBRANCH   6   7
ENDBRANCH   5   6
ENDBRANCH   4   5
ENDBRANCH   3   4
ENDBRANCH   2   3
ENDBRANCH   1   2
BRANCH   1  10
ATOM     10  C   UNL     1      10.341  21.069  24.043  1.00  0.00     0.000 C 
BRANCH  10  11
ATOM     11  C   UNL     1       9.634  20.636  25.338  1.00  0.00    -0.000 C 
BRANCH  11  12
ATOM     12  C   UNL     1       8.434  19.705  25.081  1.00  0.00    -0.000 C 
BRANCH  12  13
ATOM     13  C   UNL     1       8.445  18.382  25.873  1.00  0.00    -0.000 C 
BRANCH  13  14
ATOM     14  C   UNL     1       9.802  18.003  26.493  1.00  0.00    -0.000 C 
BRANCH  14  15
ATOM     15  C   UNL     1      10.241  16.575  26.137  1.00  0.00    -0.003 C 
ATOM     16  C   UNL     1       9.047  15.626  26.103  1.00  0.00     0.004 C 
ENDBRANCH  14  15
ENDBRANCH  13  14
ENDBRANCH  12  13
ENDBRANCH  11  12
ENDBRANCH  10  11
ENDBRANCH   1  10
TORSDOF 12
ENDMDL
MODEL 8
REMARK VINA RESULT:    -3.901      3.060      4.735
REMARK INTER + INTRA:          -7.726
REMARK INTER:                  -6.247
REMARK INTRA:                  -1.478
REMARK UNBOUND:                -1.088
REMARK SMILES CCCCCCCCCCCCCC(=O)[O-]
REMARK SMILES IDX 8 1 9 2 10 3 11 4 12 5 13 6 14 7 15 8 16 9 7 10 6 11 5 12
REMARK SMILES IDX 4 13 3 14 2 15 1 16
REMARK H PARENT
REMARK Flexibility Score: inf
ROOT
ATOM      1  C   UNL     1      10.754  13.358  19.825  1.00  0.00     0.000 C 
ENDROOT
BRANCH   1   2
ATOM      2  C   UNL     1      10.122  12.999  21.181  1.00  0.00     0.000 C 
BRANCH   2   3
ATOM      3  C   UNL     1      11.111  13.185  22.351  1.00  0.00     0.000 C 
BRANCH   3   4
ATOM      4  C   UNL     1      10.436  13.612  23.665  1.00  0.00     0.000 C 
BRANCH   4   5
ATOM      5  C   UNL     1       9.208  12.754  24.012  1.00  0.00     0.006 C 
BRANCH   5   6
ATOM      6  C   UNL     1       9.444  11.876  25.249  1.00  0.00     0.053 C 
BRANCH   6   7
ATOM      7  C   UNL     1       9.560  10.428  24.888  1.00  0.00     0.041 C 
ATOM      8  O   UNL     1       9.851  10.090  23.710  1.00  0.00    -0.550 OA
ATOM      9  O   UNL     1       9.384   9.451  25.859  1.00  0.00    -0.550 OA
ENDBRANCH   6   7
ENDBRANCH   5   6
ENDBRANCH   4   5
ENDBRANCH   3   4
ENDBRANCH   2   3
ENDBRANCH   1   2
BRANCH   1  10
ATOM     10  C   UNL     1      10.701  14.864  19.523  1.00  0.00     0.000 C 
BRANCH  10  11
ATOM     11  C   UNL     1       9.398  15.520  20.010  1.00  0.00    -0.000 C 
BRANCH  11  12
ATOM     12  C   UNL     1       9.595  16.372  21.277  1.00  0.00    -0.000 C 
BRANCH  12  13
ATOM     13  C   UNL     1      11.026  16.903  21.498  1.00  0.00    -0.000 C 
BRANCH  13  14
ATOM     14  C   UNL     1      11.410  17.158  22.967  1.00  0.00    -0.000 C 
BRANCH  14  15
ATOM     15  C   UNL     1      10.248  17.724  23.795  1.00  0.00    -0.003 C 
ATOM     16  C   UNL     1      10.037  16.914  25.070  1.00  0.00     0.004 C 
ENDBRANCH  14  15
ENDBRANCH  13  14
ENDBRANCH  12  13
ENDBRANCH  11  12
ENDBRANCH  10  11
ENDBRANCH   1  10
TORSDOF 12
ENDMDL
MODEL 9
REMARK VINA RESULT:    -3.827     17.425     19.857
REMARK INTER + INTRA:          -7.599
REMARK INTER:                  -6.024
REMARK INTRA:                  -1.575
REMARK UNBOUND:                -1.088
REMARK SMILES CCCCCCCCCCCCCC(=O)[O-]
REMARK SMILES IDX 8 1 9 2 10 3 11 4 12 5 13 6 14 7 15 8 16 9 7 10 6 11 5 12
REMARK SMILES IDX 4 13 3 14 2 15 1 16
REMARK H PARENT
REMARK Flexibility Score: inf
ROOT
ATOM      1  C   UNL     1      21.561   3.985  30.703  1.00  0.00     0.000 C 
ENDROOT
BRANCH   1   2
ATOM      2  C   UNL     1      22.641   4.933  31.253  1.00  0.00     0.000 C 
BRANCH   2   3
ATOM      3  C   UNL     1      23.033   6.023  30.234  1.00  0.00     0.000 C 
BRANCH   3   4
ATOM      4  C   UNL     1      24.477   5.894  29.720  1.00  0.00     0.000 C 
BRANCH   4   5
ATOM      5  C   UNL     1      24.550   5.502  28.235  1.00  0.00     0.006 C 
BRANCH   5   6
ATOM      6  C   UNL     1      23.246   5.815  27.488  1.00  0.00     0.053 C 
BRANCH   6   7
ATOM      7  C   UNL     1      23.475   6.745  26.337  1.00  0.00     0.041 C 
ATOM      8  O   UNL     1      23.223   7.973  26.454  1.00  0.00    -0.550 OA
ATOM      9  O   UNL     1      24.001   6.262  25.145  1.00  0.00    -0.550 OA
ENDBRANCH   6   7
ENDBRANCH   5   6
ENDBRANCH   4   5
ENDBRANCH   3   4
ENDBRANCH   2   3
ENDBRANCH   1   2
BRANCH   1  10
ATOM     10  C   UNL     1      22.148   2.707  30.084  1.00  0.00     0.000 C 
BRANCH  10  11
ATOM     11  C   UNL     1      23.525   2.346  30.667  1.00  0.00    -0.000 C 
BRANCH  11  12
ATOM     12  C   UNL     1      24.543   1.936  29.587  1.00  0.00    -0.000 C 
BRANCH  12  13
ATOM     13  C   UNL     1      23.932   1.463  28.252  1.00  0.00    -0.000 C 
BRANCH  13  14
ATOM     14  C   UNL     1      24.485   2.160  26.996  1.00  0.00    -0.000 C 
BRANCH  14  15
ATOM     15  C   UNL     1      24.457   1.257  25.754  1.00  0.00    -0.003 C 
ATOM     16  C   UNL     1      25.172   1.918  24.579  1.00  0.00     0.004 C 
ENDBRANCH  14  15
ENDBRANCH  13  14
ENDBRANCH  12  13
ENDBRANCH  11  12
ENDBRANCH  10  11
ENDBRANCH   1  10
TORSDOF 12
ENDMDL
