MODEL 1
REMARK VINA RESULT:    -3.259      0.000      0.000
REMARK INTER + INTRA:          -8.901
REMARK INTER:                  -6.117
REMARK INTRA:                  -2.783
REMARK UNBOUND:                -2.783
REMARK SMILES CCCCCCCCC=CCCCCCCCC(=O)[O-]
REMARK SMILES IDX 10 1 9 2 11 3 12 4 13 5 14 6 15 7 16 8 17 9 18 10 19 11
REMARK SMILES IDX 20 12 8 13 7 14 6 15 5 16 4 17 3 18 2 19 1 20
REMARK H PARENT
REMARK Flexibility Score: inf
ROOT
ATOM      1  C   UNL     1      56.848  26.003  50.197  1.00  0.00    -0.031 C 
ATOM      2  C   UNL     1      57.960  25.727  50.893  1.00  0.00    -0.031 C 
ENDROOT
BRANCH   1   3
ATOM      3  C   UNL     1      55.514  26.144  50.874  1.00  0.00     0.027 C 
BRANCH   3   4
ATOM      4  C   UNL     1      54.384  26.237  49.844  1.00  0.00     0.004 C 
BRANCH   4   5
ATOM      5  C   UNL     1      53.916  27.686  49.671  1.00  0.00     0.000 C 
BRANCH   5   6
ATOM      6  C   UNL     1      54.115  28.489  50.965  1.00  0.00     0.000 C 
BRANCH   6   7
ATOM      7  C   UNL     1      54.043  30.011  50.725  1.00  0.00     0.000 C 
BRANCH   7   8
ATOM      8  C   UNL     1      53.473  30.797  51.919  1.00  0.00     0.006 C 
BRANCH   8   9
ATOM      9  C   UNL     1      54.557  31.480  52.760  1.00  0.00     0.053 C 
BRANCH   9  10
ATOM     10  C   UNL     1      54.648  30.849  54.113  1.00  0.00     0.041 C 
ATOM     11  O   UNL     1      55.674  31.017  54.822  1.00  0.00    -0.550 OA
ATOM     12  O   UNL     1      53.578  30.115  54.610  1.00  0.00    -0.550 OA
ENDBRANCH   9  10
ENDBRANCH   8   9
ENDBRANCH   7   8
ENDBRANCH   6   7
ENDBRANCH   5   6
ENDBRANCH   4   5
ENDBRANCH   3   4
ENDBRANCH   1   3
BRANCH   2  13
ATOM     13  C   UNL     1      59.296  25.598  50.217  1.00  0.00     0.027 C 
BRANCH  13  14
ATOM     14  C   UNL     1      60.281  26.642  50.759  1.00  0.00     0.004 C 
BRANCH  14  15
ATOM     15  C   UNL     1      60.697  27.669  49.693  1.00  0.00     0.000 C 
BRANCH  15  16
ATOM     16  C   UNL     1      60.183  29.084  50.010  1.00  0.00     0.000 C 
BRANCH  16  17
ATOM     17  C   UNL     1      58.865  29.404  49.291  1.00  0.00    -0.000 C 
BRANCH  17  18
ATOM     18  C   UNL     1      57.664  29.424  50.249  1.00  0.00    -0.000 C 
BRANCH  18  19
ATOM     19  C   UNL     1      58.073  29.743  51.697  1.00  0.00    -0.003 C 
ATOM     20  C   UNL     1      57.464  28.776  52.709  1.00  0.00     0.004 C 
ENDBRANCH  18  19
ENDBRANCH  17  18
ENDBRANCH  16  17
ENDBRANCH  15  16
ENDBRANCH  14  15
ENDBRANCH  13  14
ENDBRANCH   2  13
TORSDOF 15
ENDMDL
MODEL 2
REMARK VINA RESULT:    -3.253     10.307     12.611
REMARK INTER + INTRA:          -8.889
REMARK INTER:                  -6.247
REMARK INTRA:                  -2.642
REMARK UNBOUND:                -2.783
REMARK SMILES CCCCCCCCC=CCCCCCCCC(=O)[O-]
REMARK SMILES IDX 10 1 9 2 11 3 12 4 13 5 14 6 15 7 16 8 17 9 18 10 19 11
REMARK SMILES IDX 20 12 8 13 7 14 6 15 5 16 4 17 3 18 2 19 1 20
REMARK H PARENT
REMARK Flexibility Score: inf
ROOT
ATOM      1  C   UNL     1      61.288  34.054  58.886  1.00  0.00    -0.031 C 
ATOM      2  C   UNL     1      61.624  34.471  60.114  1.00  0.00    -0.031 C 
ENDROOT
BRANCH   1   3
ATOM      3  C   UNL     1      61.418  32.613  58.483  1.00  0.00     0.027 C 
BRANCH   3   4
ATOM      4  C   UNL     1      60.134  31.838  58.794  1.00  0.00     0.004 C 
BRANCH   4   5
ATOM      5  C   UNL     1      60.432  30.599  59.647  1.00  0.00     0.000 C 
BRANCH   5   6
ATOM      6  C   UNL     1      60.613  30.977  61.124  1.00  0.00     0.000 C 
BRANCH   6   7
ATOM      7  C   UNL     1      62.033  30.663  61.637  1.00  0.00     0.000 C 
BRANCH   7   8
ATOM      8  C   UNL     1      62.539  29.266  61.237  1.00  0.00     0.006 C 
BRANCH   8   9
ATOM      9  C   UNL     1      64.014  29.259  60.820  1.00  0.00     0.053 C 
BRANCH   9  10
ATOM     10  C   UNL     1      64.245  30.209  59.688  1.00  0.00     0.041 C 
ATOM     11  O   UNL     1      64.952  31.236  59.859  1.00  0.00    -0.550 OA
ATOM     12  O   UNL     1      63.718  29.935  58.432  1.00  0.00    -0.550 OA
ENDBRANCH   9  10
ENDBRANCH   8   9
ENDBRANCH   7   8
ENDBRANCH   6   7
ENDBRANCH   5   6
ENDBRANCH   4   5
ENDBRANCH   3   4
ENDBRANCH   1   3
BRANCH   2  13
ATOM     13  C   UNL     1      61.482  35.912  60.520  1.00  0.00     0.027 C 
BRANCH  13  14
ATOM     14  C   UNL     1      62.767  36.417  61.189  1.00  0.00     0.004 C 
BRANCH  14  15
ATOM     15  C   UNL     1      63.882  35.358  61.198  1.00  0.00     0.000 C 
BRANCH  15  16
ATOM     16  C   UNL     1      65.272  35.968  60.945  1.00  0.00     0.000 C 
BRANCH  16  17
ATOM     17  C   UNL     1      65.582  36.120  59.450  1.00  0.00    -0.000 C 
BRANCH  17  18
ATOM     18  C   UNL     1      65.017  34.962  58.612  1.00  0.00    -0.000 C 
BRANCH  18  19
ATOM     19  C   UNL     1      64.317  35.450  57.333  1.00  0.00    -0.003 C 
ATOM     20  C   UNL     1      63.561  36.761  57.538  1.00  0.00     0.004 C 
ENDBRANCH  18  19
ENDBRANCH  17  18
ENDBRANCH  16  17
ENDBRANCH  15  16
ENDBRANCH  14  15
ENDBRANCH  13  14
ENDBRANCH   2  13
TORSDOF 15
ENDMDL
MODEL 3
REMARK VINA RESULT:    -3.209     10.585     12.816
REMARK INTER + INTRA:          -8.807
REMARK INTER:                  -6.145
REMARK INTRA:                  -2.662
REMARK UNBOUND:                -2.783
REMARK SMILES CCCCCCCCC=CCCCCCCCC(=O)[O-]
REMARK SMILES IDX 10 1 9 2 11 3 12 4 13 5 14 6 15 7 16 8 17 9 18 10 19 11
REMARK SMILES IDX 20 12 8 13 7 14 6 15 5 16 4 17 3 18 2 19 1 20
REMARK H PARENT
REMARK Flexibility Score: inf
ROOT
ATOM      1  C   UNL     1      61.342  31.747  58.698  1.00  0.00    -0.031 C 
ATOM      2  C   UNL     1      62.420  32.419  59.126  1.00  0.00    -0.031 C 
ENDROOT
BRANCH   1   3
ATOM      3  C   UNL     1      60.488  30.950  59.643  1.00  0.00     0.027 C 
BRANCH   3   4
ATOM      4  C   UNL     1      60.737  31.370  61.095  1.00  0.00     0.004 C 
BRANCH   4   5
ATOM      5  C   UNL     1      61.558  30.312  61.840  1.00  0.00     0.000 C 
BRANCH   5   6
ATOM      6  C   UNL     1      61.683  29.026  61.010  1.00  0.00     0.000 C 
BRANCH   6   7
ATOM      7  C   UNL     1      63.153  28.665  60.712  1.00  0.00     0.000 C 
BRANCH   7   8
ATOM      8  C   UNL     1      64.153  29.761  61.120  1.00  0.00     0.006 C 
BRANCH   8   9
ATOM      9  C   UNL     1      65.113  30.149  59.990  1.00  0.00     0.053 C 
BRANCH   9  10
ATOM     10  C   UNL     1      66.362  29.328  60.059  1.00  0.00     0.041 C 
ATOM     11  O   UNL     1      67.208  29.385  59.128  1.00  0.00    -0.550 OA
ATOM     12  O   UNL     1      66.615  28.538  61.173  1.00  0.00    -0.550 OA
ENDBRANCH   9  10
ENDBRANCH   8   9
ENDBRANCH   7   8
ENDBRANCH   6   7
ENDBRANCH   5   6
ENDBRANCH   4   5
ENDBRANCH   3   4
ENDBRANCH   1   3
BRANCH   2  13
ATOM     13  C   UNL     1      63.266  33.226  58.182  1.00  0.00     0.027 C 
BRANCH  13  14
ATOM     14  C   UNL     1      64.449  33.864  58.923  1.00  0.00     0.004 C 
BRANCH  14  15
ATOM     15  C   UNL     1      64.289  33.801  60.451  1.00  0.00     0.000 C 
BRANCH  15  16
ATOM     16  C   UNL     1      64.570  35.155  61.126  1.00  0.00     0.000 C 
BRANCH  16  17
ATOM     17  C   UNL     1      63.294  35.982  61.337  1.00  0.00    -0.000 C 
BRANCH  17  18
ATOM     18  C   UNL     1      63.005  36.924  60.158  1.00  0.00    -0.000 C 
BRANCH  18  19
ATOM     19  C   UNL     1      61.710  36.554  59.415  1.00  0.00    -0.003 C 
ATOM     20  C   UNL     1      60.868  35.529  60.172  1.00  0.00     0.004 C 
ENDBRANCH  18  19
ENDBRANCH  17  18
ENDBRANCH  16  17
ENDBRANCH  15  16
ENDBRANCH  14  15
ENDBRANCH  13  14
ENDBRANCH   2  13
TORSDOF 15
ENDMDL
MODEL 4
REMARK VINA RESULT:    -3.201      3.211      6.792
REMARK INTER + INTRA:          -8.791
REMARK INTER:                  -6.429
REMARK INTRA:                  -2.362
REMARK UNBOUND:                -2.783
REMARK SMILES CCCCCCCCC=CCCCCCCCC(=O)[O-]
REMARK SMILES IDX 10 1 9 2 11 3 12 4 13 5 14 6 15 7 16 8 17 9 18 10 19 11
REMARK SMILES IDX 20 12 8 13 7 14 6 15 5 16 4 17 3 18 2 19 1 20
REMARK H PARENT
REMARK Flexibility Score: inf
ROOT
ATOM      1  C   UNL     1      59.288  27.033  50.084  1.00  0.00    -0.031 C 
ATOM      2  C   UNL     1      59.282  28.089  49.258  1.00  0.00    -0.031 C 
ENDROOT
BRANCH   1   3
ATOM      3  C   UNL     1      59.982  25.753  49.716  1.00  0.00     0.027 C 
BRANCH   3   4
ATOM      4  C   UNL     1      60.768  25.193  50.906  1.00  0.00     0.004 C 
BRANCH   4   5
ATOM      5  C   UNL     1      62.236  24.960  50.533  1.00  0.00     0.000 C 
BRANCH   5   6
ATOM      6  C   UNL     1      63.063  26.241  50.718  1.00  0.00     0.000 C 
BRANCH   6   7
ATOM      7  C   UNL     1      62.615  27.051  51.953  1.00  0.00     0.000 C 
BRANCH   7   8
ATOM      8  C   UNL     1      62.352  28.537  51.654  1.00  0.00     0.006 C 
BRANCH   8   9
ATOM      9  C   UNL     1      62.779  28.948  50.240  1.00  0.00     0.053 C 
BRANCH   9  10
ATOM     10  C   UNL     1      62.583  30.417  50.039  1.00  0.00     0.041 C 
ATOM     11  O   UNL     1      61.645  31.016  50.627  1.00  0.00    -0.550 OA
ATOM     12  O   UNL     1      63.467  31.134  49.241  1.00  0.00    -0.550 OA
ENDBRANCH   9  10
ENDBRANCH   8   9
ENDBRANCH   7   8
ENDBRANCH   6   7
ENDBRANCH   5   6
ENDBRANCH   4   5
ENDBRANCH   3   4
ENDBRANCH   1   3
BRANCH   2  13
ATOM     13  C   UNL     1      58.597  29.374  49.632  1.00  0.00     0.027 C 
BRANCH  13  14
ATOM     14  C   UNL     1      58.322  29.422  51.141  1.00  0.00     0.004 C 
BRANCH  14  15
ATOM     15  C   UNL     1      56.825  29.558  51.463  1.00  0.00     0.000 C 
BRANCH  15  16
ATOM     16  C   UNL     1      56.122  28.193  51.568  1.00  0.00     0.000 C 
BRANCH  16  17
ATOM     17  C   UNL     1      55.351  27.830  50.291  1.00  0.00    -0.000 C 
BRANCH  17  18
ATOM     18  C   UNL     1      55.570  26.368  49.870  1.00  0.00    -0.000 C 
BRANCH  18  19
ATOM     19  C   UNL     1      54.251  25.647  49.547  1.00  0.00    -0.003 C 
ATOM     20  C   UNL     1      53.124  26.612  49.184  1.00  0.00     0.004 C 
ENDBRANCH  18  19
ENDBRANCH  17  18
ENDBRANCH  16  17
ENDBRANCH  15  16
ENDBRANCH  14  15
ENDBRANCH  13  14
ENDBRANCH   2  13
TORSDOF 15
ENDMDL
MODEL 5
REMARK VINA RESULT:    -3.197      5.441      8.410
REMARK INTER + INTRA:          -8.783
REMARK INTER:                  -7.391
REMARK INTRA:                  -1.392
REMARK UNBOUND:                -2.783
REMARK SMILES CCCCCCCCC=CCCCCCCCC(=O)[O-]
REMARK SMILES IDX 10 1 9 2 11 3 12 4 13 5 14 6 15 7 16 8 17 9 18 10 19 11
REMARK SMILES IDX 20 12 8 13 7 14 6 15 5 16 4 17 3 18 2 19 1 20
REMARK H PARENT
REMARK Flexibility Score: inf
ROOT
ATOM      1  C   UNL     1      59.599  26.151  50.777  1.00  0.00    -0.031 C 
ATOM      2  C   UNL     1      59.525  26.719  49.565  1.00  0.00    -0.031 C 
ENDROOT
BRANCH   1   3
ATOM      3  C   UNL     1      59.231  24.711  50.992  1.00  0.00     0.027 C 
BRANCH   3   4
ATOM      4  C   UNL     1      60.482  23.828  51.047  1.00  0.00     0.004 C 
BRANCH   4   5
ATOM      5  C   UNL     1      60.872  23.340  49.647  1.00  0.00     0.000 C 
BRANCH   5   6
ATOM      6  C   UNL     1      61.277  21.859  49.671  1.00  0.00     0.000 C 
BRANCH   6   7
ATOM      7  C   UNL     1      60.480  21.053  50.718  1.00  0.00     0.000 C 
BRANCH   7   8
ATOM      8  C   UNL     1      60.319  19.566  50.358  1.00  0.00     0.006 C 
BRANCH   8   9
ATOM      9  C   UNL     1      59.005  19.265  49.628  1.00  0.00     0.053 C 
BRANCH   9  10
ATOM     10  C   UNL     1      58.323  18.083  50.241  1.00  0.00     0.041 C 
ATOM     11  O   UNL     1      58.981  17.259  50.928  1.00  0.00    -0.550 OA
ATOM     12  O   UNL     1      56.951  17.918  50.093  1.00  0.00    -0.550 OA
ENDBRANCH   9  10
ENDBRANCH   8   9
ENDBRANCH   7   8
ENDBRANCH   6   7
ENDBRANCH   5   6
ENDBRANCH   4   5
ENDBRANCH   3   4
ENDBRANCH   1   3
BRANCH   2  13
ATOM     13  C   UNL     1      59.904  28.158  49.349  1.00  0.00     0.027 C 
BRANCH  13  14
ATOM     14  C   UNL     1      58.680  29.070  49.500  1.00  0.00     0.004 C 
BRANCH  14  15
ATOM     15  C   UNL     1      58.476  29.546  50.948  1.00  0.00     0.000 C 
BRANCH  15  16
ATOM     16  C   UNL     1      57.004  29.464  51.389  1.00  0.00     0.000 C 
BRANCH  16  17
ATOM     17  C   UNL     1      56.492  28.018  51.457  1.00  0.00    -0.000 C 
BRANCH  17  18
ATOM     18  C   UNL     1      55.482  27.701  50.343  1.00  0.00    -0.000 C 
BRANCH  18  19
ATOM     19  C   UNL     1      55.531  26.226  49.909  1.00  0.00    -0.003 C 
ATOM     20  C   UNL     1      54.244  25.768  49.228  1.00  0.00     0.004 C 
ENDBRANCH  18  19
ENDBRANCH  17  18
ENDBRANCH  16  17
ENDBRANCH  15  16
ENDBRANCH  14  15
ENDBRANCH  13  14
ENDBRANCH   2  13
TORSDOF 15
ENDMDL
MODEL 6
REMARK VINA RESULT:    -3.178      9.810     11.958
REMARK INTER + INTRA:          -8.749
REMARK INTER:                  -5.957
REMARK INTRA:                  -2.792
REMARK UNBOUND:                -2.783
REMARK SMILES CCCCCCCCC=CCCCCCCCC(=O)[O-]
REMARK SMILES IDX 10 1 9 2 11 3 12 4 13 5 14 6 15 7 16 8 17 9 18 10 19 11
REMARK SMILES IDX 20 12 8 13 7 14 6 15 5 16 4 17 3 18 2 19 1 20
REMARK H PARENT
REMARK Flexibility Score: inf
ROOT
ATOM      1  C   UNL     1      61.668  34.706  56.929  1.00  0.00    -0.031 C 
ATOM      2  C   UNL     1      62.812  34.089  57.256  1.00  0.00    -0.031 C 
ENDROOT
BRANCH   1   3
ATOM      3  C   UNL     1      60.360  33.968  56.900  1.00  0.00     0.027 C 
BRANCH   3   4
ATOM      4  C   UNL     1      60.063  33.324  58.258  1.00  0.00     0.004 C 
BRANCH   4   5
ATOM      5  C   UNL     1      60.124  31.795  58.165  1.00  0.00     0.000 C 
BRANCH   5   6
ATOM      6  C   UNL     1      61.156  31.223  59.148  1.00  0.00     0.000 C 
BRANCH   6   7
ATOM      7  C   UNL     1      60.797  31.532  60.616  1.00  0.00     0.000 C 
BRANCH   7   8
ATOM      8  C   UNL     1      61.661  30.768  61.636  1.00  0.00     0.006 C 
BRANCH   8   9
ATOM      9  C   UNL     1      61.904  29.308  61.240  1.00  0.00     0.053 C 
BRANCH   9  10
ATOM     10  C   UNL     1      63.364  29.058  61.026  1.00  0.00     0.041 C 
ATOM     11  O   UNL     1      64.193  29.992  61.178  1.00  0.00    -0.550 OA
ATOM     12  O   UNL     1      63.811  27.782  60.706  1.00  0.00    -0.550 OA
ENDBRANCH   9  10
ENDBRANCH   8   9
ENDBRANCH   7   8
ENDBRANCH   6   7
ENDBRANCH   5   6
ENDBRANCH   4   5
ENDBRANCH   3   4
ENDBRANCH   1   3
BRANCH   2  13
ATOM     13  C   UNL     1      64.119  34.831  57.296  1.00  0.00     0.027 C 
BRANCH  13  14
ATOM     14  C   UNL     1      64.976  34.357  58.477  1.00  0.00     0.004 C 
BRANCH  14  15
ATOM     15  C   UNL     1      64.332  33.188  59.240  1.00  0.00     0.000 C 
BRANCH  15  16
ATOM     16  C   UNL     1      63.999  33.552  60.698  1.00  0.00     0.000 C 
BRANCH  16  17
ATOM     17  C   UNL     1      64.418  34.984  61.055  1.00  0.00    -0.000 C 
BRANCH  17  18
ATOM     18  C   UNL     1      63.215  35.928  61.203  1.00  0.00    -0.000 C 
BRANCH  18  19
ATOM     19  C   UNL     1      61.918  35.317  60.647  1.00  0.00    -0.003 C 
ATOM     20  C   UNL     1      60.869  36.372  60.302  1.00  0.00     0.004 C 
ENDBRANCH  18  19
ENDBRANCH  17  18
ENDBRANCH  16  17
ENDBRANCH  15  16
ENDBRANCH  14  15
ENDBRANCH  13  14
ENDBRANCH   2  13
TORSDOF 15
ENDMDL
MODEL 7
REMARK VINA RESULT:    -3.094      9.453     11.798
REMARK INTER + INTRA:          -8.591
REMARK INTER:                  -5.633
REMARK INTRA:                  -2.959
REMARK UNBOUND:                -2.783
REMARK SMILES CCCCCCCCC=CCCCCCCCC(=O)[O-]
REMARK SMILES IDX 10 1 9 2 11 3 12 4 13 5 14 6 15 7 16 8 17 9 18 10 19 11
REMARK SMILES IDX 20 12 8 13 7 14 6 15 5 16 4 17 3 18 2 19 1 20
REMARK H PARENT
REMARK Flexibility Score: inf
ROOT
ATOM      1  C   UNL     1      63.825  32.082  58.463  1.00  0.00    -0.031 C 
ATOM      2  C   UNL     1      62.494  32.073  58.301  1.00  0.00    -0.031 C 
ENDROOT
BRANCH   1   3
ATOM      3  C   UNL     1      64.545  33.298  58.975  1.00  0.00     0.027 C 
BRANCH   3   4
ATOM      4  C   UNL     1      64.153  33.598  60.425  1.00  0.00     0.004 C 
BRANCH   4   5
ATOM      5  C   UNL     1      64.278  35.095  60.729  1.00  0.00     0.000 C 
BRANCH   5   6
ATOM      6  C   UNL     1      62.901  35.722  60.988  1.00  0.00     0.000 C 
BRANCH   6   7
ATOM      7  C   UNL     1      61.747  34.801  60.540  1.00  0.00     0.000 C 
BRANCH   7   8
ATOM      8  C   UNL     1      60.757  35.478  59.576  1.00  0.00     0.006 C 
BRANCH   8   9
ATOM      9  C   UNL     1      61.260  35.513  58.128  1.00  0.00     0.053 C 
BRANCH   9  10
ATOM     10  C   UNL     1      60.259  34.887  57.209  1.00  0.00     0.041 C 
ATOM     11  O   UNL     1      60.156  35.286  56.020  1.00  0.00    -0.550 OA
ATOM     12  O   UNL     1      59.475  33.829  57.653  1.00  0.00    -0.550 OA
ENDBRANCH   9  10
ENDBRANCH   8   9
ENDBRANCH   7   8
ENDBRANCH   6   7
ENDBRANCH   5   6
ENDBRANCH   4   5
ENDBRANCH   3   4
ENDBRANCH   1   3
BRANCH   2  13
ATOM     13  C   UNL     1      61.774  30.852  57.800  1.00  0.00     0.027 C 
BRANCH  13  14
ATOM     14  C   UNL     1      60.918  30.234  58.913  1.00  0.00     0.004 C 
BRANCH  14  15
ATOM     15  C   UNL     1      60.417  31.280  59.922  1.00  0.00     0.000 C 
BRANCH  15  16
ATOM     16  C   UNL     1      61.098  31.144  61.295  1.00  0.00     0.000 C 
BRANCH  16  17
ATOM     17  C   UNL     1      61.918  29.852  61.418  1.00  0.00    -0.000 C 
BRANCH  17  18
ATOM     18  C   UNL     1      63.431  30.118  61.456  1.00  0.00    -0.000 C 
BRANCH  18  19
ATOM     19  C   UNL     1      64.226  29.102  60.619  1.00  0.00    -0.003 C 
ATOM     20  C   UNL     1      65.680  29.519  60.409  1.00  0.00     0.004 C 
ENDBRANCH  18  19
ENDBRANCH  17  18
ENDBRANCH  16  17
ENDBRANCH  15  16
ENDBRANCH  14  15
ENDBRANCH  13  14
ENDBRANCH   2  13
TORSDOF 15
ENDMDL
MODEL 8
REMARK VINA RESULT:    -3.049     10.048     12.541
REMARK INTER + INTRA:          -8.506
REMARK INTER:                  -6.002
REMARK INTRA:                  -2.504
REMARK UNBOUND:                -2.783
REMARK SMILES CCCCCCCCC=CCCCCCCCC(=O)[O-]
REMARK SMILES IDX 10 1 9 2 11 3 12 4 13 5 14 6 15 7 16 8 17 9 18 10 19 11
REMARK SMILES IDX 20 12 8 13 7 14 6 15 5 16 4 17 3 18 2 19 1 20
REMARK H PARENT
REMARK Flexibility Score: inf
ROOT
ATOM      1  C   UNL     1      63.918  33.724  60.338  1.00  0.00    -0.031 C 
ATOM      2  C   UNL     1      64.415  34.483  61.325  1.00  0.00    -0.031 C 
ENDROOT
BRANCH   1   3
ATOM      3  C   UNL     1      64.228  32.258  60.243  1.00  0.00     0.027 C 
BRANCH   3   4
ATOM      4  C   UNL     1      63.251  31.433  61.087  1.00  0.00     0.004 C 
BRANCH   4   5
ATOM      5  C   UNL     1      61.812  31.927  60.900  1.00  0.00     0.000 C 
BRANCH   5   6
ATOM      6  C   UNL     1      60.802  30.821  61.238  1.00  0.00     0.000 C 
BRANCH   6   7
ATOM      7  C   UNL     1      60.610  29.829  60.072  1.00  0.00     0.000 C 
BRANCH   7   8
ATOM      8  C   UNL     1      60.691  28.352  60.499  1.00  0.00     0.006 C 
BRANCH   8   9
ATOM      9  C   UNL     1      61.888  28.057  61.411  1.00  0.00     0.053 C 
BRANCH   9  10
ATOM     10  C   UNL     1      63.016  27.471  60.624  1.00  0.00     0.041 C 
ATOM     11  O   UNL     1      62.813  26.490  59.863  1.00  0.00    -0.550 OA
ATOM     12  O   UNL     1      64.282  28.041  60.693  1.00  0.00    -0.550 OA
ENDBRANCH   9  10
ENDBRANCH   8   9
ENDBRANCH   7   8
ENDBRANCH   6   7
ENDBRANCH   5   6
ENDBRANCH   4   5
ENDBRANCH   3   4
ENDBRANCH   1   3
BRANCH   2  13
ATOM     13  C   UNL     1      64.094  35.948  61.426  1.00  0.00     0.027 C 
BRANCH  13  14
ATOM     14  C   UNL     1      63.121  36.367  60.316  1.00  0.00     0.004 C 
BRANCH  14  15
ATOM     15  C   UNL     1      61.688  36.569  60.835  1.00  0.00     0.000 C 
BRANCH  15  16
ATOM     16  C   UNL     1      60.668  35.683  60.099  1.00  0.00     0.000 C 
BRANCH  16  17
ATOM     17  C   UNL     1      61.035  35.465  58.625  1.00  0.00    -0.000 C 
BRANCH  17  18
ATOM     18  C   UNL     1      60.760  34.026  58.158  1.00  0.00    -0.000 C 
BRANCH  18  19
ATOM     19  C   UNL     1      61.908  33.456  57.308  1.00  0.00    -0.003 C 
ATOM     20  C   UNL     1      61.887  31.931  57.235  1.00  0.00     0.004 C 
ENDBRANCH  18  19
ENDBRANCH  17  18
ENDBRANCH  16  17
ENDBRANCH  15  16
ENDBRANCH  14  15
ENDBRANCH  13  14
ENDBRANCH   2  13
TORSDOF 15
ENDMDL
MODEL 9
REMARK VINA RESULT:    -3.045      3.895      7.047
REMARK INTER + INTRA:          -8.498
REMARK INTER:                  -6.192
REMARK INTRA:                  -2.306
REMARK UNBOUND:                -2.783
REMARK SMILES CCCCCCCCC=CCCCCCCCC(=O)[O-]
REMARK SMILES IDX 10 1 9 2 11 3 12 4 13 5 14 6 15 7 16 8 17 9 18 10 19 11
REMARK SMILES IDX 20 12 8 13 7 14 6 15 5 16 4 17 3 18 2 19 1 20
REMARK H PARENT
REMARK Flexibility Score: inf
ROOT
ATOM      1  C   UNL     1      57.597  25.918  50.031  1.00  0.00    -0.031 C 
ATOM      2  C   UNL     1      56.530  26.372  50.703  1.00  0.00    -0.031 C 
ENDROOT
BRANCH   1   3
ATOM      3  C   UNL     1      58.864  25.529  50.740  1.00  0.00     0.027 C 
BRANCH   3   4
ATOM      4  C   UNL     1      60.094  25.875  49.895  1.00  0.00     0.004 C 
BRANCH   4   5
ATOM      5  C   UNL     1      61.385  25.449  50.604  1.00  0.00     0.000 C 
BRANCH   5   6
ATOM      6  C   UNL     1      62.539  26.404  50.268  1.00  0.00     0.000 C 
BRANCH   6   7
ATOM      7  C   UNL     1      62.049  27.691  49.572  1.00  0.00     0.000 C 
BRANCH   7   8
ATOM      8  C   UNL     1      62.574  28.982  50.223  1.00  0.00     0.006 C 
BRANCH   8   9
ATOM      9  C   UNL     1      64.065  29.223  49.960  1.00  0.00     0.053 C 
BRANCH   9  10
ATOM     10  C   UNL     1      64.252  30.107  48.768  1.00  0.00     0.041 C 
ATOM     11  O   UNL     1      63.999  31.337  48.848  1.00  0.00    -0.550 OA
ATOM     12  O   UNL     1      64.751  29.581  47.583  1.00  0.00    -0.550 OA
ENDBRANCH   9  10
ENDBRANCH   8   9
ENDBRANCH   7   8
ENDBRANCH   6   7
ENDBRANCH   5   6
ENDBRANCH   4   5
ENDBRANCH   3   4
ENDBRANCH   1   3
BRANCH   2  13
ATOM     13  C   UNL     1      55.259  26.750  49.995  1.00  0.00     0.027 C 
BRANCH  13  14
ATOM     14  C   UNL     1      54.889  28.210  50.287  1.00  0.00     0.004 C 
BRANCH  14  15
ATOM     15  C   UNL     1      54.940  28.542  51.787  1.00  0.00     0.000 C 
BRANCH  15  16
ATOM     16  C   UNL     1      55.735  29.827  52.076  1.00  0.00     0.000 C 
BRANCH  16  17
ATOM     17  C   UNL     1      57.109  29.540  52.697  1.00  0.00    -0.000 C 
BRANCH  17  18
ATOM     18  C   UNL     1      58.254  30.212  51.922  1.00  0.00    -0.000 C 
BRANCH  18  19
ATOM     19  C   UNL     1      58.991  29.229  50.996  1.00  0.00    -0.003 C 
ATOM     20  C   UNL     1      58.590  29.385  49.531  1.00  0.00     0.004 C 
ENDBRANCH  18  19
ENDBRANCH  17  18
ENDBRANCH  16  17
ENDBRANCH  15  16
ENDBRANCH  14  15
ENDBRANCH  13  14
ENDBRANCH   2  13
TORSDOF 15
ENDMDL
