MODEL 1
REMARK VINA RESULT:    -4.466      0.000      0.000
REMARK INTER + INTRA:         -10.612
REMARK INTER:                  -8.643
REMARK INTRA:                  -1.969
REMARK UNBOUND:                -1.969
REMARK SMILES CCCCCCCCCCCCCCCCCC(=O)[O-]
REMARK SMILES IDX 10 1 11 2 12 3 13 4 14 5 15 6 16 7 17 8 18 9 19 10 20 11
REMARK SMILES IDX 9 12 8 13 7 14 6 15 5 16 4 17 3 18 2 19 1 20
REMARK H PARENT
REMARK Flexibility Score: inf
ROOT
ATOM      1  C   UNL     1      -5.154  -3.362  -4.342  1.00  0.00     0.000 C 
ENDROOT
BRANCH   1   2
ATOM      2  C   UNL     1      -4.191  -3.691  -5.497  1.00  0.00     0.000 C 
BRANCH   2   3
ATOM      3  C   UNL     1      -4.039  -2.524  -6.485  1.00  0.00     0.000 C 
BRANCH   3   4
ATOM      4  C   UNL     1      -5.192  -1.509  -6.382  1.00  0.00     0.000 C 
BRANCH   4   5
ATOM      5  C   UNL     1      -4.698  -0.070  -6.165  1.00  0.00     0.000 C 
BRANCH   5   6
ATOM      6  C   UNL     1      -3.196   0.088  -6.458  1.00  0.00     0.000 C 
BRANCH   6   7
ATOM      7  C   UNL     1      -2.388   0.468  -5.207  1.00  0.00     0.006 C 
BRANCH   7   8
ATOM      8  C   UNL     1      -3.231   0.436  -3.926  1.00  0.00     0.053 C 
BRANCH   8   9
ATOM      9  C   UNL     1      -2.803  -0.699  -3.049  1.00  0.00     0.041 C 
ATOM     10  O   UNL     1      -2.082  -1.622  -3.513  1.00  0.00    -0.550 OA
ATOM     11  O   UNL     1      -3.238  -0.763  -1.732  1.00  0.00    -0.550 OA
ENDBRANCH   8   9
ENDBRANCH   7   8
ENDBRANCH   6   7
ENDBRANCH   5   6
ENDBRANCH   4   5
ENDBRANCH   3   4
ENDBRANCH   2   3
ENDBRANCH   1   2
BRANCH   1  12
ATOM     12  C   UNL     1      -4.695  -3.960  -3.003  1.00  0.00     0.000 C 
BRANCH  12  13
ATOM     13  C   UNL     1      -5.792  -3.914  -1.928  1.00  0.00    -0.000 C 
BRANCH  13  14
ATOM     14  C   UNL     1      -5.238  -3.383  -0.601  1.00  0.00    -0.000 C 
BRANCH  14  15
ATOM     15  C   UNL     1      -6.373  -2.980   0.348  1.00  0.00    -0.000 C 
BRANCH  15  16
ATOM     16  C   UNL     1      -7.743  -3.216  -0.298  1.00  0.00    -0.000 C 
BRANCH  16  17
ATOM     17  C   UNL     1      -8.604  -4.153   0.561  1.00  0.00    -0.000 C 
BRANCH  17  18
ATOM     18  C   UNL     1      -7.776  -4.984   1.558  1.00  0.00    -0.000 C 
BRANCH  18  19
ATOM     19  C   UNL     1      -7.735  -6.494   1.265  1.00  0.00    -0.003 C 
ATOM     20  C   UNL     1      -7.352  -6.812  -0.181  1.00  0.00     0.004 C 
ENDBRANCH  18  19
ENDBRANCH  17  18
ENDBRANCH  16  17
ENDBRANCH  15  16
ENDBRANCH  14  15
ENDBRANCH  13  14
ENDBRANCH  12  13
ENDBRANCH   1  12
TORSDOF 16
ENDMDL
MODEL 2
REMARK VINA RESULT:    -4.353      1.777      2.141
REMARK INTER + INTRA:         -10.394
REMARK INTER:                  -9.000
REMARK INTRA:                  -1.395
REMARK UNBOUND:                -1.969
REMARK SMILES CCCCCCCCCCCCCCCCCC(=O)[O-]
REMARK SMILES IDX 10 1 11 2 12 3 13 4 14 5 15 6 16 7 17 8 18 9 19 10 20 11
REMARK SMILES IDX 9 12 8 13 7 14 6 15 5 16 4 17 3 18 2 19 1 20
REMARK H PARENT
REMARK Flexibility Score: inf
ROOT
ATOM      1  C   UNL     1      -4.880  -4.175  -3.799  1.00  0.00     0.000 C 
ENDROOT
BRANCH   1   2
ATOM      2  C   UNL     1      -5.347  -3.258  -4.944  1.00  0.00     0.000 C 
BRANCH   2   3
ATOM      3  C   UNL     1      -4.217  -2.933  -5.934  1.00  0.00     0.000 C 
BRANCH   3   4
ATOM      4  C   UNL     1      -4.379  -1.546  -6.580  1.00  0.00     0.000 C 
BRANCH   4   5
ATOM      5  C   UNL     1      -5.771  -0.940  -6.343  1.00  0.00     0.000 C 
BRANCH   5   6
ATOM      6  C   UNL     1      -5.743   0.597  -6.283  1.00  0.00     0.000 C 
BRANCH   6   7
ATOM      7  C   UNL     1      -4.564   1.134  -5.456  1.00  0.00     0.006 C 
BRANCH   7   8
ATOM      8  C   UNL     1      -3.693   2.124  -6.240  1.00  0.00     0.053 C 
BRANCH   8   9
ATOM      9  C   UNL     1      -2.315   1.572  -6.425  1.00  0.00     0.041 C 
ATOM     10  O   UNL     1      -1.965   1.098  -7.538  1.00  0.00    -0.550 OA
ATOM     11  O   UNL     1      -1.431   1.536  -5.354  1.00  0.00    -0.550 OA
ENDBRANCH   8   9
ENDBRANCH   7   8
ENDBRANCH   6   7
ENDBRANCH   5   6
ENDBRANCH   4   5
ENDBRANCH   3   4
ENDBRANCH   2   3
ENDBRANCH   1   2
BRANCH   1  12
ATOM     12  C   UNL     1      -4.486  -3.392  -2.538  1.00  0.00     0.000 C 
BRANCH  12  13
ATOM     13  C   UNL     1      -5.265  -3.843  -1.293  1.00  0.00    -0.000 C 
BRANCH  13  14
ATOM     14  C   UNL     1      -5.337  -2.719  -0.253  1.00  0.00    -0.000 C 
BRANCH  14  15
ATOM     15  C   UNL     1      -6.627  -2.813   0.571  1.00  0.00    -0.000 C 
BRANCH  15  16
ATOM     16  C   UNL     1      -7.821  -3.193  -0.313  1.00  0.00    -0.000 C 
BRANCH  16  17
ATOM     17  C   UNL     1      -8.553  -4.420   0.249  1.00  0.00    -0.000 C 
BRANCH  17  18
ATOM     18  C   UNL     1      -7.775  -5.120   1.376  1.00  0.00    -0.000 C 
BRANCH  18  19
ATOM     19  C   UNL     1      -6.896  -6.299   0.922  1.00  0.00    -0.003 C 
ATOM     20  C   UNL     1      -7.470  -7.042  -0.284  1.00  0.00     0.004 C 
ENDBRANCH  18  19
ENDBRANCH  17  18
ENDBRANCH  16  17
ENDBRANCH  15  16
ENDBRANCH  14  15
ENDBRANCH  13  14
ENDBRANCH  12  13
ENDBRANCH   1  12
TORSDOF 16
ENDMDL
MODEL 3
REMARK VINA RESULT:    -4.345      2.697      6.909
REMARK INTER + INTRA:         -10.378
REMARK INTER:                  -8.099
REMARK INTRA:                  -2.279
REMARK UNBOUND:                -1.969
REMARK SMILES CCCCCCCCCCCCCCCCCC(=O)[O-]
REMARK SMILES IDX 10 1 11 2 12 3 13 4 14 5 15 6 16 7 17 8 18 9 19 10 20 11
REMARK SMILES IDX 9 12 8 13 7 14 6 15 5 16 4 17 3 18 2 19 1 20
REMARK H PARENT
REMARK Flexibility Score: inf
ROOT
ATOM      1  C   UNL     1      -3.134  -0.917  -2.318  1.00  0.00     0.000 C 
ENDROOT
BRANCH   1   2
ATOM      2  C   UNL     1      -2.539  -0.542  -0.949  1.00  0.00     0.000 C 
BRANCH   2   3
ATOM      3  C   UNL     1      -2.715  -1.659   0.093  1.00  0.00     0.000 C 
BRANCH   3   4
ATOM      4  C   UNL     1      -3.128  -2.999  -0.543  1.00  0.00     0.000 C 
BRANCH   4   5
ATOM      5  C   UNL     1      -4.404  -3.583   0.083  1.00  0.00     0.000 C 
BRANCH   5   6
ATOM      6  C   UNL     1      -5.685  -2.968  -0.506  1.00  0.00     0.000 C 
BRANCH   6   7
ATOM      7  C   UNL     1      -6.816  -2.857   0.528  1.00  0.00     0.006 C 
BRANCH   7   8
ATOM      8  C   UNL     1      -8.145  -3.431   0.017  1.00  0.00     0.053 C 
BRANCH   8   9
ATOM      9  C   UNL     1      -8.390  -4.782   0.611  1.00  0.00     0.041 C 
ATOM     10  O   UNL     1      -9.041  -4.894   1.684  1.00  0.00    -0.550 OA
ATOM     11  O   UNL     1      -7.861  -5.915   0.007  1.00  0.00    -0.550 OA
ENDBRANCH   8   9
ENDBRANCH   7   8
ENDBRANCH   6   7
ENDBRANCH   5   6
ENDBRANCH   4   5
ENDBRANCH   3   4
ENDBRANCH   2   3
ENDBRANCH   1   2
BRANCH   1  12
ATOM     12  C   UNL     1      -2.878   0.157  -3.387  1.00  0.00     0.000 C 
BRANCH  12  13
ATOM     13  C   UNL     1      -1.804  -0.262  -4.402  1.00  0.00    -0.000 C 
BRANCH  13  14
ATOM     14  C   UNL     1      -2.443  -0.796  -5.689  1.00  0.00    -0.000 C 
BRANCH  14  15
ATOM     15  C   UNL     1      -3.872  -0.266  -5.855  1.00  0.00    -0.000 C 
BRANCH  15  16
ATOM     16  C   UNL     1      -4.765  -1.297  -6.554  1.00  0.00    -0.000 C 
BRANCH  16  17
ATOM     17  C   UNL     1      -4.380  -2.726  -6.147  1.00  0.00    -0.000 C 
BRANCH  17  18
ATOM     18  C   UNL     1      -5.293  -3.306  -5.052  1.00  0.00    -0.000 C 
BRANCH  18  19
ATOM     19  C   UNL     1      -4.557  -4.032  -3.912  1.00  0.00    -0.003 C 
ATOM     20  C   UNL     1      -3.048  -4.120  -4.136  1.00  0.00     0.004 C 
ENDBRANCH  18  19
ENDBRANCH  17  18
ENDBRANCH  16  17
ENDBRANCH  15  16
ENDBRANCH  14  15
ENDBRANCH  13  14
ENDBRANCH  12  13
ENDBRANCH   1  12
TORSDOF 16
ENDMDL
MODEL 4
REMARK VINA RESULT:    -4.298      2.213      3.443
REMARK INTER + INTRA:         -10.288
REMARK INTER:                  -7.604
REMARK INTRA:                  -2.685
REMARK UNBOUND:                -1.969
REMARK SMILES CCCCCCCCCCCCCCCCCC(=O)[O-]
REMARK SMILES IDX 10 1 11 2 12 3 13 4 14 5 15 6 16 7 17 8 18 9 19 10 20 11
REMARK SMILES IDX 9 12 8 13 7 14 6 15 5 16 4 17 3 18 2 19 1 20
REMARK H PARENT
REMARK Flexibility Score: inf
ROOT
ATOM      1  C   UNL     1      -2.496  -2.520  -2.589  1.00  0.00     0.000 C 
ENDROOT
BRANCH   1   2
ATOM      2  C   UNL     1      -3.108  -3.724  -3.328  1.00  0.00     0.000 C 
BRANCH   2   3
ATOM      3  C   UNL     1      -4.645  -3.705  -3.308  1.00  0.00     0.000 C 
BRANCH   3   4
ATOM      4  C   UNL     1      -5.248  -3.374  -4.685  1.00  0.00     0.000 C 
BRANCH   4   5
ATOM      5  C   UNL     1      -4.212  -3.437  -5.818  1.00  0.00     0.000 C 
BRANCH   5   6
ATOM      6  C   UNL     1      -4.101  -2.111  -6.590  1.00  0.00     0.000 C 
BRANCH   6   7
ATOM      7  C   UNL     1      -4.853  -0.962  -5.900  1.00  0.00     0.006 C 
BRANCH   7   8
ATOM      8  C   UNL     1      -3.908   0.087  -5.299  1.00  0.00     0.053 C 
BRANCH   8   9
ATOM      9  C   UNL     1      -3.740   1.237  -6.241  1.00  0.00     0.041 C 
ATOM     10  O   UNL     1      -2.631   1.442  -6.801  1.00  0.00    -0.550 OA
ATOM     11  O   UNL     1      -4.796   2.112  -6.466  1.00  0.00    -0.550 OA
ENDBRANCH   8   9
ENDBRANCH   7   8
ENDBRANCH   6   7
ENDBRANCH   5   6
ENDBRANCH   4   5
ENDBRANCH   3   4
ENDBRANCH   2   3
ENDBRANCH   1   2
BRANCH   1  12
ATOM     12  C   UNL     1      -3.563  -1.564  -2.032  1.00  0.00     0.000 C 
BRANCH  12  13
ATOM     13  C   UNL     1      -3.606  -1.556  -0.497  1.00  0.00    -0.000 C 
BRANCH  13  14
ATOM     14  C   UNL     1      -2.576  -2.530   0.087  1.00  0.00    -0.000 C 
BRANCH  14  15
ATOM     15  C   UNL     1      -3.247  -3.550   1.014  1.00  0.00    -0.000 C 
BRANCH  15  16
ATOM     16  C   UNL     1      -3.897  -4.683   0.212  1.00  0.00    -0.000 C 
BRANCH  16  17
ATOM     17  C   UNL     1      -5.320  -4.968   0.714  1.00  0.00    -0.000 C 
BRANCH  17  18
ATOM     18  C   UNL     1      -6.371  -4.939  -0.409  1.00  0.00    -0.000 C 
BRANCH  18  19
ATOM     19  C   UNL     1      -6.948  -3.547  -0.721  1.00  0.00    -0.003 C 
ATOM     20  C   UNL     1      -6.937  -2.612   0.489  1.00  0.00     0.004 C 
ENDBRANCH  18  19
ENDBRANCH  17  18
ENDBRANCH  16  17
ENDBRANCH  15  16
ENDBRANCH  14  15
ENDBRANCH  13  14
ENDBRANCH  12  13
ENDBRANCH   1  12
TORSDOF 16
ENDMDL
MODEL 5
REMARK VINA RESULT:    -4.296      2.650      7.143
REMARK INTER + INTRA:         -10.284
REMARK INTER:                  -8.117
REMARK INTRA:                  -2.167
REMARK UNBOUND:                -1.969
REMARK SMILES CCCCCCCCCCCCCCCCCC(=O)[O-]
REMARK SMILES IDX 10 1 11 2 12 3 13 4 14 5 15 6 16 7 17 8 18 9 19 10 20 11
REMARK SMILES IDX 9 12 8 13 7 14 6 15 5 16 4 17 3 18 2 19 1 20
REMARK H PARENT
REMARK Flexibility Score: inf
ROOT
ATOM      1  C   UNL     1      -5.234  -3.275  -4.649  1.00  0.00     0.000 C 
ENDROOT
BRANCH   1   2
ATOM      2  C   UNL     1      -4.799  -4.302  -3.587  1.00  0.00     0.000 C 
BRANCH   2   3
ATOM      3  C   UNL     1      -3.440  -3.955  -2.957  1.00  0.00     0.000 C 
BRANCH   3   4
ATOM      4  C   UNL     1      -3.551  -3.631  -1.457  1.00  0.00     0.000 C 
BRANCH   4   5
ATOM      5  C   UNL     1      -4.982  -3.796  -0.918  1.00  0.00     0.000 C 
BRANCH   5   6
ATOM      6  C   UNL     1      -5.406  -2.632  -0.005  1.00  0.00     0.000 C 
BRANCH   6   7
ATOM      7  C   UNL     1      -6.876  -2.731   0.431  1.00  0.00     0.006 C 
BRANCH   7   8
ATOM      8  C   UNL     1      -7.708  -3.633  -0.491  1.00  0.00     0.053 C 
BRANCH   8   9
ATOM      9  C   UNL     1      -8.362  -4.723   0.299  1.00  0.00     0.041 C 
ATOM     10  O   UNL     1      -9.291  -4.451   1.105  1.00  0.00    -0.550 OA
ATOM     11  O   UNL     1      -7.915  -6.032   0.181  1.00  0.00    -0.550 OA
ENDBRANCH   8   9
ENDBRANCH   7   8
ENDBRANCH   6   7
ENDBRANCH   5   6
ENDBRANCH   4   5
ENDBRANCH   3   4
ENDBRANCH   2   3
ENDBRANCH   1   2
BRANCH   1  12
ATOM     12  C   UNL     1      -4.366  -3.333  -5.916  1.00  0.00     0.000 C 
BRANCH  12  13
ATOM     13  C   UNL     1      -4.002  -1.938  -6.447  1.00  0.00    -0.000 C 
BRANCH  13  14
ATOM     14  C   UNL     1      -5.214  -1.000  -6.402  1.00  0.00    -0.000 C 
BRANCH  14  15
ATOM     15  C   UNL     1      -4.797   0.419  -5.998  1.00  0.00    -0.000 C 
BRANCH  15  16
ATOM     16  C   UNL     1      -3.338   0.696  -6.377  1.00  0.00    -0.000 C 
BRANCH  16  17
ATOM     17  C   UNL     1      -2.551   1.243  -5.178  1.00  0.00    -0.000 C 
BRANCH  17  18
ATOM     18  C   UNL     1      -1.405   0.314  -4.738  1.00  0.00    -0.000 C 
BRANCH  18  19
ATOM     19  C   UNL     1      -1.781  -0.711  -3.654  1.00  0.00    -0.003 C 
ATOM     20  C   UNL     1      -2.981  -0.277  -2.812  1.00  0.00     0.004 C 
ENDBRANCH  18  19
ENDBRANCH  17  18
ENDBRANCH  16  17
ENDBRANCH  15  16
ENDBRANCH  14  15
ENDBRANCH  13  14
ENDBRANCH  12  13
ENDBRANCH   1  12
TORSDOF 16
ENDMDL
MODEL 6
REMARK VINA RESULT:    -4.271      3.535      5.230
REMARK INTER + INTRA:         -10.235
REMARK INTER:                  -7.140
REMARK INTRA:                  -3.096
REMARK UNBOUND:                -1.969
REMARK SMILES CCCCCCCCCCCCCCCCCC(=O)[O-]
REMARK SMILES IDX 10 1 11 2 12 3 13 4 14 5 15 6 16 7 17 8 18 9 19 10 20 11
REMARK SMILES IDX 9 12 8 13 7 14 6 15 5 16 4 17 3 18 2 19 1 20
REMARK H PARENT
REMARK Flexibility Score: inf
ROOT
ATOM      1  C   UNL     1      -4.630   0.301  -6.253  1.00  0.00     0.000 C 
ENDROOT
BRANCH   1   2
ATOM      2  C   UNL     1      -4.172   1.030  -4.977  1.00  0.00     0.000 C 
BRANCH   2   3
ATOM      3  C   UNL     1      -3.362   0.120  -4.039  1.00  0.00     0.000 C 
BRANCH   3   4
ATOM      4  C   UNL     1      -1.843   0.289  -4.219  1.00  0.00     0.000 C 
BRANCH   4   5
ATOM      5  C   UNL     1      -1.215  -0.841  -5.050  1.00  0.00     0.000 C 
BRANCH   5   6
ATOM      6  C   UNL     1      -0.709  -0.355  -6.419  1.00  0.00     0.000 C 
BRANCH   6   7
ATOM      7  C   UNL     1      -0.702   1.177  -6.535  1.00  0.00     0.006 C 
BRANCH   7   8
ATOM      8  C   UNL     1      -1.561   1.686  -7.700  1.00  0.00     0.053 C 
BRANCH   8   9
ATOM      9  C   UNL     1      -2.237   2.969  -7.327  1.00  0.00     0.041 C 
ATOM     10  O   UNL     1      -1.891   3.588  -6.287  1.00  0.00    -0.550 OA
ATOM     11  O   UNL     1      -3.281   3.456  -8.103  1.00  0.00    -0.550 OA
ENDBRANCH   8   9
ENDBRANCH   7   8
ENDBRANCH   6   7
ENDBRANCH   5   6
ENDBRANCH   4   5
ENDBRANCH   3   4
ENDBRANCH   2   3
ENDBRANCH   1   2
BRANCH   1  12
ATOM     12  C   UNL     1      -5.147  -1.117  -5.969  1.00  0.00     0.000 C 
BRANCH  12  13
ATOM     13  C   UNL     1      -4.251  -2.207  -6.578  1.00  0.00    -0.000 C 
BRANCH  13  14
ATOM     14  C   UNL     1      -4.227  -3.457  -5.691  1.00  0.00    -0.000 C 
BRANCH  14  15
ATOM     15  C   UNL     1      -5.255  -3.349  -4.559  1.00  0.00    -0.000 C 
BRANCH  15  16
ATOM     16  C   UNL     1      -4.623  -3.691  -3.205  1.00  0.00    -0.000 C 
BRANCH  16  17
ATOM     17  C   UNL     1      -3.098  -3.515  -3.248  1.00  0.00    -0.000 C 
BRANCH  17  18
ATOM     18  C   UNL     1      -2.499  -3.131  -1.883  1.00  0.00    -0.000 C 
BRANCH  18  19
ATOM     19  C   UNL     1      -3.340  -2.135  -1.064  1.00  0.00    -0.003 C 
ATOM     20  C   UNL     1      -2.554  -0.892  -0.646  1.00  0.00     0.004 C 
ENDBRANCH  18  19
ENDBRANCH  17  18
ENDBRANCH  16  17
ENDBRANCH  15  16
ENDBRANCH  14  15
ENDBRANCH  13  14
ENDBRANCH  12  13
ENDBRANCH   1  12
TORSDOF 16
ENDMDL
MODEL 7
REMARK VINA RESULT:    -4.239      2.174      3.671
REMARK INTER + INTRA:         -10.174
REMARK INTER:                  -7.891
REMARK INTRA:                  -2.282
REMARK UNBOUND:                -1.969
REMARK SMILES CCCCCCCCCCCCCCCCCC(=O)[O-]
REMARK SMILES IDX 10 1 11 2 12 3 13 4 14 5 15 6 16 7 17 8 18 9 19 10 20 11
REMARK SMILES IDX 9 12 8 13 7 14 6 15 5 16 4 17 3 18 2 19 1 20
REMARK H PARENT
REMARK Flexibility Score: inf
ROOT
ATOM      1  C   UNL     1      -3.062  -1.152  -2.517  1.00  0.00     0.000 C 
ENDROOT
BRANCH   1   2
ATOM      2  C   UNL     1      -2.082  -2.279  -2.891  1.00  0.00     0.000 C 
BRANCH   2   3
ATOM      3  C   UNL     1      -2.803  -3.543  -3.385  1.00  0.00     0.000 C 
BRANCH   3   4
ATOM      4  C   UNL     1      -4.270  -3.276  -3.766  1.00  0.00     0.000 C 
BRANCH   4   5
ATOM      5  C   UNL     1      -4.609  -3.749  -5.189  1.00  0.00     0.000 C 
BRANCH   5   6
ATOM      6  C   UNL     1      -4.182  -2.735  -6.264  1.00  0.00     0.000 C 
BRANCH   6   7
ATOM      7  C   UNL     1      -4.636  -1.304  -5.939  1.00  0.00     0.006 C 
BRANCH   7   8
ATOM      8  C   UNL     1      -3.618  -0.244  -6.383  1.00  0.00     0.053 C 
BRANCH   8   9
ATOM      9  C   UNL     1      -4.133   1.129  -6.085  1.00  0.00     0.041 C 
ATOM     10  O   UNL     1      -5.373   1.348  -6.051  1.00  0.00    -0.550 OA
ATOM     11  O   UNL     1      -3.244   2.178  -5.893  1.00  0.00    -0.550 OA
ENDBRANCH   8   9
ENDBRANCH   7   8
ENDBRANCH   6   7
ENDBRANCH   5   6
ENDBRANCH   4   5
ENDBRANCH   3   4
ENDBRANCH   2   3
ENDBRANCH   1   2
BRANCH   1  12
ATOM     12  C   UNL     1      -3.359  -1.103  -1.010  1.00  0.00     0.000 C 
BRANCH  12  13
ATOM     13  C   UNL     1      -2.163  -1.556  -0.157  1.00  0.00    -0.000 C 
BRANCH  13  14
ATOM     14  C   UNL     1      -2.602  -2.564   0.911  1.00  0.00    -0.000 C 
BRANCH  14  15
ATOM     15  C   UNL     1      -2.887  -3.936   0.290  1.00  0.00    -0.000 C 
BRANCH  15  16
ATOM     16  C   UNL     1      -4.251  -4.473   0.738  1.00  0.00    -0.000 C 
BRANCH  16  17
ATOM     17  C   UNL     1      -5.351  -4.088  -0.262  1.00  0.00    -0.000 C 
BRANCH  17  18
ATOM     18  C   UNL     1      -6.266  -2.963   0.254  1.00  0.00    -0.000 C 
BRANCH  18  19
ATOM     19  C   UNL     1      -7.722  -3.035  -0.239  1.00  0.00    -0.003 C 
ATOM     20  C   UNL     1      -8.495  -4.216   0.350  1.00  0.00     0.004 C 
ENDBRANCH  18  19
ENDBRANCH  17  18
ENDBRANCH  16  17
ENDBRANCH  15  16
ENDBRANCH  14  15
ENDBRANCH  13  14
ENDBRANCH  12  13
ENDBRANCH   1  12
TORSDOF 16
ENDMDL
MODEL 8
REMARK VINA RESULT:    -4.227      5.707     11.459
REMARK INTER + INTRA:         -10.150
REMARK INTER:                  -8.070
REMARK INTRA:                  -2.081
REMARK UNBOUND:                -1.969
REMARK SMILES CCCCCCCCCCCCCCCCCC(=O)[O-]
REMARK SMILES IDX 10 1 11 2 12 3 13 4 14 5 15 6 16 7 17 8 18 9 19 10 20 11
REMARK SMILES IDX 9 12 8 13 7 14 6 15 5 16 4 17 3 18 2 19 1 20
REMARK H PARENT
REMARK Flexibility Score: inf
ROOT
ATOM      1  C   UNL     1      -0.807   1.838  -9.923  1.00  0.00     0.000 C 
ENDROOT
BRANCH   1   2
ATOM      2  C   UNL     1      -0.303   1.377  -8.543  1.00  0.00     0.000 C 
BRANCH   2   3
ATOM      3  C   UNL     1      -1.453   1.014  -7.589  1.00  0.00     0.000 C 
BRANCH   3   4
ATOM      4  C   UNL     1      -1.651   2.062  -6.479  1.00  0.00     0.000 C 
BRANCH   4   5
ATOM      5  C   UNL     1      -2.458   3.282  -6.952  1.00  0.00     0.000 C 
BRANCH   5   6
ATOM      6  C   UNL     1      -3.977   3.045  -6.888  1.00  0.00     0.000 C 
BRANCH   6   7
ATOM      7  C   UNL     1      -4.388   2.173  -5.691  1.00  0.00     0.006 C 
BRANCH   7   8
ATOM      8  C   UNL     1      -5.366   1.056  -6.081  1.00  0.00     0.053 C 
BRANCH   8   9
ATOM      9  C   UNL     1      -4.700  -0.280  -5.973  1.00  0.00     0.041 C 
ATOM     10  O   UNL     1      -5.082  -1.239  -6.694  1.00  0.00    -0.550 OA
ATOM     11  O   UNL     1      -3.688  -0.479  -5.043  1.00  0.00    -0.550 OA
ENDBRANCH   8   9
ENDBRANCH   7   8
ENDBRANCH   6   7
ENDBRANCH   5   6
ENDBRANCH   4   5
ENDBRANCH   3   4
ENDBRANCH   2   3
ENDBRANCH   1   2
BRANCH   1  12
ATOM     12  C   UNL     1      -0.363   3.268 -10.266  1.00  0.00     0.000 C 
BRANCH  12  13
ATOM     13  C   UNL     1      -1.547   4.200 -10.566  1.00  0.00    -0.000 C 
BRANCH  13  14
ATOM     14  C   UNL     1      -2.759   3.404 -11.064  1.00  0.00    -0.000 C 
BRANCH  14  15
ATOM     15  C   UNL     1      -2.759   3.300 -12.593  1.00  0.00    -0.000 C 
BRANCH  15  16
ATOM     16  C   UNL     1      -4.091   3.783 -13.179  1.00  0.00    -0.000 C 
BRANCH  16  17
ATOM     17  C   UNL     1      -3.948   5.184 -13.790  1.00  0.00    -0.000 C 
BRANCH  17  18
ATOM     18  C   UNL     1      -2.481   5.605 -13.992  1.00  0.00    -0.000 C 
BRANCH  18  19
ATOM     19  C   UNL     1      -2.039   6.829 -13.170  1.00  0.00    -0.003 C 
ATOM     20  C   UNL     1      -3.092   7.280 -12.157  1.00  0.00     0.004 C 
ENDBRANCH  18  19
ENDBRANCH  17  18
ENDBRANCH  16  17
ENDBRANCH  15  16
ENDBRANCH  14  15
ENDBRANCH  13  14
ENDBRANCH  12  13
ENDBRANCH   1  12
TORSDOF 16
ENDMDL
MODEL 9
REMARK VINA RESULT:    -4.194      4.212     10.058
REMARK INTER + INTRA:         -10.086
REMARK INTER:                  -8.561
REMARK INTRA:                  -1.524
REMARK UNBOUND:                -1.969
REMARK SMILES CCCCCCCCCCCCCCCCCC(=O)[O-]
REMARK SMILES IDX 10 1 11 2 12 3 13 4 14 5 15 6 16 7 17 8 18 9 19 10 20 11
REMARK SMILES IDX 9 12 8 13 7 14 6 15 5 16 4 17 3 18 2 19 1 20
REMARK H PARENT
REMARK Flexibility Score: inf
ROOT
ATOM      1  C   UNL     1      -2.924   3.365  -7.594  1.00  0.00     0.000 C 
ENDROOT
BRANCH   1   2
ATOM      2  C   UNL     1      -4.314   3.056  -7.010  1.00  0.00     0.000 C 
BRANCH   2   3
ATOM      3  C   UNL     1      -4.236   2.231  -5.715  1.00  0.00     0.000 C 
BRANCH   3   4
ATOM      4  C   UNL     1      -5.006   0.902  -5.815  1.00  0.00     0.000 C 
BRANCH   4   5
ATOM      5  C   UNL     1      -4.075  -0.317  -5.911  1.00  0.00     0.000 C 
BRANCH   5   6
ATOM      6  C   UNL     1      -4.741  -1.514  -6.610  1.00  0.00     0.000 C 
BRANCH   6   7
ATOM      7  C   UNL     1      -5.433  -2.465  -5.620  1.00  0.00     0.006 C 
BRANCH   7   8
ATOM      8  C   UNL     1      -4.465  -3.480  -4.998  1.00  0.00     0.053 C 
BRANCH   8   9
ATOM      9  C   UNL     1      -4.456  -3.346  -3.508  1.00  0.00     0.041 C 
ATOM     10  O   UNL     1      -3.781  -2.436  -2.957  1.00  0.00    -0.550 OA
ATOM     11  O   UNL     1      -5.154  -4.255  -2.724  1.00  0.00    -0.550 OA
ENDBRANCH   8   9
ENDBRANCH   7   8
ENDBRANCH   6   7
ENDBRANCH   5   6
ENDBRANCH   4   5
ENDBRANCH   3   4
ENDBRANCH   2   3
ENDBRANCH   1   2
BRANCH   1  12
ATOM     12  C   UNL     1      -1.831   2.436  -7.042  1.00  0.00     0.000 C 
BRANCH  12  13
ATOM     13  C   UNL     1      -1.378   1.383  -8.065  1.00  0.00    -0.000 C 
BRANCH  13  14
ATOM     14  C   UNL     1      -0.365   1.976  -9.051  1.00  0.00    -0.000 C 
BRANCH  14  15
ATOM     15  C   UNL     1      -1.001   2.197 -10.428  1.00  0.00    -0.000 C 
BRANCH  15  16
ATOM     16  C   UNL     1      -0.534   3.520 -11.045  1.00  0.00    -0.000 C 
BRANCH  16  17
ATOM     17  C   UNL     1      -1.731   4.389 -11.458  1.00  0.00    -0.000 C 
BRANCH  17  18
ATOM     18  C   UNL     1      -3.071   3.637 -11.388  1.00  0.00    -0.000 C 
BRANCH  18  19
ATOM     19  C   UNL     1      -3.671   3.254 -12.753  1.00  0.00    -0.003 C 
ATOM     20  C   UNL     1      -4.102   4.467 -13.577  1.00  0.00     0.004 C 
ENDBRANCH  18  19
ENDBRANCH  17  18
ENDBRANCH  16  17
ENDBRANCH  15  16
ENDBRANCH  14  15
ENDBRANCH  13  14
ENDBRANCH  12  13
ENDBRANCH   1  12
TORSDOF 16
ENDMDL
