MODEL 1
REMARK VINA RESULT:    -4.452      0.000      0.000
REMARK INTER + INTRA:          -9.345
REMARK INTER:                  -7.576
REMARK INTRA:                  -1.769
REMARK UNBOUND:                -1.769
REMARK SMILES CCCCCCCCCCCCCC(=O)[O-]
REMARK SMILES IDX 8 1 9 2 10 3 11 4 12 5 13 6 14 7 15 8 16 9 7 10 6 11 5 12
REMARK SMILES IDX 4 13 3 14 2 15 1 16
REMARK H PARENT
REMARK Flexibility Score: inf
ROOT
ATOM      1  C   UNL     1      21.514  -5.627  34.296  1.00  0.00     0.000 C 
ENDROOT
BRANCH   1   2
ATOM      2  C   UNL     1      22.436  -5.297  33.109  1.00  0.00     0.000 C 
BRANCH   2   3
ATOM      3  C   UNL     1      22.454  -6.428  32.059  1.00  0.00     0.000 C 
BRANCH   3   4
ATOM      4  C   UNL     1      22.046  -5.964  30.645  1.00  0.00     0.000 C 
BRANCH   4   5
ATOM      5  C   UNL     1      20.655  -6.437  30.188  1.00  0.00     0.006 C 
BRANCH   5   6
ATOM      6  C   UNL     1      19.519  -5.576  30.757  1.00  0.00     0.053 C 
BRANCH   6   7
ATOM      7  C   UNL     1      18.708  -6.365  31.736  1.00  0.00     0.041 C 
ATOM      8  O   UNL     1      17.623  -5.904  32.179  1.00  0.00    -0.550 OA
ATOM      9  O   UNL     1      19.175  -7.589  32.198  1.00  0.00    -0.550 OA
ENDBRANCH   6   7
ENDBRANCH   5   6
ENDBRANCH   4   5
ENDBRANCH   3   4
ENDBRANCH   2   3
ENDBRANCH   1   2
BRANCH   1  10
ATOM     10  C   UNL     1      20.400  -4.582  34.496  1.00  0.00     0.000 C 
BRANCH  10  11
ATOM     11  C   UNL     1      20.418  -3.425  33.478  1.00  0.00    -0.000 C 
BRANCH  11  12
ATOM     12  C   UNL     1      19.489  -2.263  33.877  1.00  0.00    -0.000 C 
BRANCH  12  13
ATOM     13  C   UNL     1      20.009  -1.485  35.097  1.00  0.00    -0.000 C 
BRANCH  13  14
ATOM     14  C   UNL     1      21.475  -1.049  34.939  1.00  0.00    -0.000 C 
BRANCH  14  15
ATOM     15  C   UNL     1      22.322  -1.542  36.118  1.00  0.00    -0.003 C 
ATOM     16  C   UNL     1      23.325  -2.601  35.670  1.00  0.00     0.004 C 
ENDBRANCH  14  15
ENDBRANCH  13  14
ENDBRANCH  12  13
ENDBRANCH  11  12
ENDBRANCH  10  11
ENDBRANCH   1  10
TORSDOF 12
ENDMDL
MODEL 2
REMARK VINA RESULT:    -4.355     12.208     13.632
REMARK INTER + INTRA:          -9.179
REMARK INTER:                  -8.681
REMARK INTRA:                  -0.498
REMARK UNBOUND:                -1.769
REMARK SMILES CCCCCCCCCCCCCC(=O)[O-]
REMARK SMILES IDX 8 1 9 2 10 3 11 4 12 5 13 6 14 7 15 8 16 9 7 10 6 11 5 12
REMARK SMILES IDX 4 13 3 14 2 15 1 16
REMARK H PARENT
REMARK Flexibility Score: inf
ROOT
ATOM      1  C   UNL     1      14.868   1.088  41.721  1.00  0.00     0.000 C 
ENDROOT
BRANCH   1   2
ATOM      2  C   UNL     1      14.537   2.495  41.195  1.00  0.00     0.000 C 
BRANCH   2   3
ATOM      3  C   UNL     1      13.065   2.614  40.746  1.00  0.00     0.000 C 
BRANCH   3   4
ATOM      4  C   UNL     1      12.901   2.917  39.242  1.00  0.00     0.000 C 
BRANCH   4   5
ATOM      5  C   UNL     1      12.305   4.299  38.924  1.00  0.00     0.006 C 
BRANCH   5   6
ATOM      6  C   UNL     1      12.274   5.228  40.145  1.00  0.00     0.053 C 
BRANCH   6   7
ATOM      7  C   UNL     1      12.031   6.641  39.719  1.00  0.00     0.041 C 
ATOM      8  O   UNL     1      12.967   7.324  39.224  1.00  0.00    -0.550 OA
ATOM      9  O   UNL     1      10.783   7.221  39.912  1.00  0.00    -0.550 OA
ENDBRANCH   6   7
ENDBRANCH   5   6
ENDBRANCH   4   5
ENDBRANCH   3   4
ENDBRANCH   2   3
ENDBRANCH   1   2
BRANCH   1  10
ATOM     10  C   UNL     1      15.350   1.095  43.184  1.00  0.00     0.000 C 
BRANCH  10  11
ATOM     11  C   UNL     1      16.109  -0.175  43.613  1.00  0.00    -0.000 C 
BRANCH  11  12
ATOM     12  C   UNL     1      16.341  -0.247  45.135  1.00  0.00    -0.000 C 
BRANCH  12  13
ATOM     13  C   UNL     1      17.801  -0.571  45.493  1.00  0.00    -0.000 C 
BRANCH  13  14
ATOM     14  C   UNL     1      18.639  -0.964  44.265  1.00  0.00    -0.000 C 
BRANCH  14  15
ATOM     15  C   UNL     1      20.078  -0.454  44.399  1.00  0.00    -0.003 C 
ATOM     16  C   UNL     1      20.393   0.593  43.334  1.00  0.00     0.004 C 
ENDBRANCH  14  15
ENDBRANCH  13  14
ENDBRANCH  12  13
ENDBRANCH  11  12
ENDBRANCH  10  11
ENDBRANCH   1  10
TORSDOF 12
ENDMDL
MODEL 3
REMARK VINA RESULT:    -4.336      1.775      3.189
REMARK INTER + INTRA:          -9.147
REMARK INTER:                  -7.791
REMARK INTRA:                  -1.356
REMARK UNBOUND:                -1.769
REMARK SMILES CCCCCCCCCCCCCC(=O)[O-]
REMARK SMILES IDX 8 1 9 2 10 3 11 4 12 5 13 6 14 7 15 8 16 9 7 10 6 11 5 12
REMARK SMILES IDX 4 13 3 14 2 15 1 16
REMARK H PARENT
REMARK Flexibility Score: inf
ROOT
ATOM      1  C   UNL     1      20.671  -3.695  34.589  1.00  0.00     0.000 C 
ENDROOT
BRANCH   1   2
ATOM      2  C   UNL     1      20.243  -2.573  33.628  1.00  0.00     0.000 C 
BRANCH   2   3
ATOM      3  C   UNL     1      19.137  -3.036  32.655  1.00  0.00     0.000 C 
BRANCH   3   4
ATOM      4  C   UNL     1      19.682  -3.675  31.361  1.00  0.00     0.000 C 
BRANCH   4   5
ATOM      5  C   UNL     1      19.180  -5.104  31.087  1.00  0.00     0.006 C 
BRANCH   5   6
ATOM      6  C   UNL     1      20.303  -6.051  30.641  1.00  0.00     0.053 C 
BRANCH   6   7
ATOM      7  C   UNL     1      21.303  -6.226  31.739  1.00  0.00     0.041 C 
ATOM      8  O   UNL     1      20.980  -6.815  32.805  1.00  0.00    -0.550 OA
ATOM      9  O   UNL     1      22.580  -5.694  31.608  1.00  0.00    -0.550 OA
ENDBRANCH   6   7
ENDBRANCH   5   6
ENDBRANCH   4   5
ENDBRANCH   3   4
ENDBRANCH   2   3
ENDBRANCH   1   2
BRANCH   1  10
ATOM     10  C   UNL     1      22.196  -3.903  34.622  1.00  0.00     0.000 C 
BRANCH  10  11
ATOM     11  C   UNL     1      22.893  -3.335  35.874  1.00  0.00    -0.000 C 
BRANCH  11  12
ATOM     12  C   UNL     1      23.121  -1.813  35.792  1.00  0.00    -0.000 C 
BRANCH  12  13
ATOM     13  C   UNL     1      22.314  -1.039  36.847  1.00  0.00    -0.000 C 
BRANCH  13  14
ATOM     14  C   UNL     1      21.555   0.157  36.251  1.00  0.00    -0.000 C 
BRANCH  14  15
ATOM     15  C   UNL     1      21.945   0.377  34.785  1.00  0.00    -0.003 C 
ATOM     16  C   UNL     1      22.499   1.782  34.566  1.00  0.00     0.004 C 
ENDBRANCH  14  15
ENDBRANCH  13  14
ENDBRANCH  12  13
ENDBRANCH  11  12
ENDBRANCH  10  11
ENDBRANCH   1  10
TORSDOF 12
ENDMDL
MODEL 4
REMARK VINA RESULT:    -4.333      3.174      5.904
REMARK INTER + INTRA:          -9.143
REMARK INTER:                  -7.339
REMARK INTRA:                  -1.803
REMARK UNBOUND:                -1.769
REMARK SMILES CCCCCCCCCCCCCC(=O)[O-]
REMARK SMILES IDX 8 1 9 2 10 3 11 4 12 5 13 6 14 7 15 8 16 9 7 10 6 11 5 12
REMARK SMILES IDX 4 13 3 14 2 15 1 16
REMARK H PARENT
REMARK Flexibility Score: inf
ROOT
ATOM      1  C   UNL     1      19.174  -4.381  31.031  1.00  0.00     0.000 C 
ENDROOT
BRANCH   1   2
ATOM      2  C   UNL     1      19.507  -3.145  31.885  1.00  0.00     0.000 C 
BRANCH   2   3
ATOM      3  C   UNL     1      18.603  -3.043  33.132  1.00  0.00     0.000 C 
BRANCH   3   4
ATOM      4  C   UNL     1      19.356  -2.602  34.405  1.00  0.00     0.000 C 
BRANCH   4   5
ATOM      5  C   UNL     1      20.722  -1.941  34.149  1.00  0.00     0.006 C 
BRANCH   5   6
ATOM      6  C   UNL     1      21.742  -2.237  35.259  1.00  0.00     0.053 C 
BRANCH   6   7
ATOM      7  C   UNL     1      22.322  -0.962  35.785  1.00  0.00     0.041 C 
ATOM      8  O   UNL     1      22.198   0.108  35.132  1.00  0.00    -0.550 OA
ATOM      9  O   UNL     1      23.043  -0.965  36.972  1.00  0.00    -0.550 OA
ENDBRANCH   6   7
ENDBRANCH   5   6
ENDBRANCH   4   5
ENDBRANCH   3   4
ENDBRANCH   2   3
ENDBRANCH   1   2
BRANCH   1  10
ATOM     10  C   UNL     1      20.298  -4.745  30.043  1.00  0.00     0.000 C 
BRANCH  10  11
ATOM     11  C   UNL     1      20.894  -6.152  30.243  1.00  0.00    -0.000 C 
BRANCH  11  12
ATOM     12  C   UNL     1      22.371  -6.119  30.680  1.00  0.00    -0.000 C 
BRANCH  12  13
ATOM     13  C   UNL     1      22.558  -6.515  32.154  1.00  0.00    -0.000 C 
BRANCH  13  14
ATOM     14  C   UNL     1      22.306  -5.344  33.118  1.00  0.00    -0.000 C 
BRANCH  14  15
ATOM     15  C   UNL     1      21.345  -5.756  34.239  1.00  0.00    -0.003 C 
ATOM     16  C   UNL     1      20.432  -6.894  33.792  1.00  0.00     0.004 C 
ENDBRANCH  14  15
ENDBRANCH  13  14
ENDBRANCH  12  13
ENDBRANCH  11  12
ENDBRANCH  10  11
ENDBRANCH   1  10
TORSDOF 12
ENDMDL
MODEL 5
REMARK VINA RESULT:    -4.325      3.018      5.446
REMARK INTER + INTRA:          -9.129
REMARK INTER:                  -7.309
REMARK INTRA:                  -1.820
REMARK UNBOUND:                -1.769
REMARK SMILES CCCCCCCCCCCCCC(=O)[O-]
REMARK SMILES IDX 8 1 9 2 10 3 11 4 12 5 13 6 14 7 15 8 16 9 7 10 6 11 5 12
REMARK SMILES IDX 4 13 3 14 2 15 1 16
REMARK H PARENT
REMARK Flexibility Score: inf
ROOT
ATOM      1  C   UNL     1      21.363  -5.763  30.370  1.00  0.00     0.000 C 
ENDROOT
BRANCH   1   2
ATOM      2  C   UNL     1      21.760  -6.465  31.680  1.00  0.00     0.000 C 
BRANCH   2   3
ATOM      3  C   UNL     1      22.623  -5.559  32.584  1.00  0.00     0.000 C 
BRANCH   3   4
ATOM      4  C   UNL     1      22.046  -5.376  34.004  1.00  0.00     0.000 C 
BRANCH   4   5
ATOM      5  C   UNL     1      21.751  -3.918  34.397  1.00  0.00     0.006 C 
BRANCH   5   6
ATOM      6  C   UNL     1      22.821  -3.324  35.324  1.00  0.00     0.053 C 
BRANCH   6   7
ATOM      7  C   UNL     1      22.495  -1.901  35.650  1.00  0.00     0.041 C 
ATOM      8  O   UNL     1      21.638  -1.275  34.971  1.00  0.00    -0.550 OA
ATOM      9  O   UNL     1      23.174  -1.249  36.672  1.00  0.00    -0.550 OA
ENDBRANCH   6   7
ENDBRANCH   5   6
ENDBRANCH   4   5
ENDBRANCH   3   4
ENDBRANCH   2   3
ENDBRANCH   1   2
BRANCH   1  10
ATOM     10  C   UNL     1      19.906  -5.262  30.379  1.00  0.00     0.000 C 
BRANCH  10  11
ATOM     11  C   UNL     1      19.708  -3.882  31.035  1.00  0.00    -0.000 C 
BRANCH  11  12
ATOM     12  C   UNL     1      18.740  -3.922  32.232  1.00  0.00    -0.000 C 
BRANCH  12  13
ATOM     13  C   UNL     1      17.771  -5.114  32.166  1.00  0.00    -0.000 C 
BRANCH  13  14
ATOM     14  C   UNL     1      17.676  -5.874  33.499  1.00  0.00    -0.000 C 
BRANCH  14  15
ATOM     15  C   UNL     1      18.722  -6.992  33.567  1.00  0.00    -0.003 C 
ATOM     16  C   UNL     1      18.479  -8.040  32.485  1.00  0.00     0.004 C 
ENDBRANCH  14  15
ENDBRANCH  13  14
ENDBRANCH  12  13
ENDBRANCH  11  12
ENDBRANCH  10  11
ENDBRANCH   1  10
TORSDOF 12
ENDMDL
MODEL 6
REMARK VINA RESULT:    -4.324     14.910     17.809
REMARK INTER + INTRA:          -9.127
REMARK INTER:                  -7.646
REMARK INTRA:                  -1.481
REMARK UNBOUND:                -1.769
REMARK SMILES CCCCCCCCCCCCCC(=O)[O-]
REMARK SMILES IDX 8 1 9 2 10 3 11 4 12 5 13 6 14 7 15 8 16 9 7 10 6 11 5 12
REMARK SMILES IDX 4 13 3 14 2 15 1 16
REMARK H PARENT
REMARK Flexibility Score: inf
ROOT
ATOM      1  C   UNL     1      26.960   7.543  43.885  1.00  0.00     0.000 C 
ENDROOT
BRANCH   1   2
ATOM      2  C   UNL     1      27.400   7.119  45.297  1.00  0.00     0.000 C 
BRANCH   2   3
ATOM      3  C   UNL     1      26.247   6.467  46.090  1.00  0.00     0.000 C 
BRANCH   3   4
ATOM      4  C   UNL     1      24.850   6.971  45.675  1.00  0.00     0.000 C 
BRANCH   4   5
ATOM      5  C   UNL     1      24.210   7.974  46.651  1.00  0.00     0.006 C 
BRANCH   5   6
ATOM      6  C   UNL     1      23.265   8.962  45.952  1.00  0.00     0.053 C 
BRANCH   6   7
ATOM      7  C   UNL     1      21.855   8.737  46.398  1.00  0.00     0.041 C 
ATOM      8  O   UNL     1      21.468   9.165  47.517  1.00  0.00    -0.550 OA
ATOM      9  O   UNL     1      20.981   8.011  45.599  1.00  0.00    -0.550 OA
ENDBRANCH   6   7
ENDBRANCH   5   6
ENDBRANCH   4   5
ENDBRANCH   3   4
ENDBRANCH   2   3
ENDBRANCH   1   2
BRANCH   1  10
ATOM     10  C   UNL     1      28.142   7.967  42.993  1.00  0.00     0.000 C 
BRANCH  10  11
ATOM     11  C   UNL     1      29.385   7.065  43.107  1.00  0.00    -0.000 C 
BRANCH  11  12
ATOM     12  C   UNL     1      29.648   6.244  41.830  1.00  0.00    -0.000 C 
BRANCH  12  13
ATOM     13  C   UNL     1      29.372   4.744  42.026  1.00  0.00    -0.000 C 
BRANCH  13  14
ATOM     14  C   UNL     1      29.222   4.359  43.506  1.00  0.00    -0.000 C 
BRANCH  14  15
ATOM     15  C   UNL     1      27.848   3.733  43.772  1.00  0.00    -0.003 C 
ATOM     16  C   UNL     1      26.897   3.975  42.603  1.00  0.00     0.004 C 
ENDBRANCH  14  15
ENDBRANCH  13  14
ENDBRANCH  12  13
ENDBRANCH  11  12
ENDBRANCH  10  11
ENDBRANCH   1  10
TORSDOF 12
ENDMDL
MODEL 7
REMARK VINA RESULT:    -4.316      2.013      4.183
REMARK INTER + INTRA:          -9.113
REMARK INTER:                  -7.471
REMARK INTRA:                  -1.642
REMARK UNBOUND:                -1.769
REMARK SMILES CCCCCCCCCCCCCC(=O)[O-]
REMARK SMILES IDX 8 1 9 2 10 3 11 4 12 5 13 6 14 7 15 8 16 9 7 10 6 11 5 12
REMARK SMILES IDX 4 13 3 14 2 15 1 16
REMARK H PARENT
REMARK Flexibility Score: inf
ROOT
ATOM      1  C   UNL     1      20.081  -5.763  29.875  1.00  0.00     0.000 C 
ENDROOT
BRANCH   1   2
ATOM      2  C   UNL     1      19.348  -4.845  30.868  1.00  0.00     0.000 C 
BRANCH   2   3
ATOM      3  C   UNL     1      18.597  -5.648  31.953  1.00  0.00     0.000 C 
BRANCH   3   4
ATOM      4  C   UNL     1      18.656  -7.175  31.741  1.00  0.00     0.000 C 
BRANCH   4   5
ATOM      5  C   UNL     1      18.694  -8.004  33.036  1.00  0.00     0.006 C 
BRANCH   5   6
ATOM      6  C   UNL     1      17.393  -8.782  33.281  1.00  0.00     0.053 C 
BRANCH   6   7
ATOM      7  C   UNL     1      16.566  -8.097  34.323  1.00  0.00     0.041 C 
ATOM      8  O   UNL     1      15.461  -8.587  34.678  1.00  0.00    -0.550 OA
ATOM      9  O   UNL     1      16.991  -6.892  34.867  1.00  0.00    -0.550 OA
ENDBRANCH   6   7
ENDBRANCH   5   6
ENDBRANCH   4   5
ENDBRANCH   3   4
ENDBRANCH   2   3
ENDBRANCH   1   2
BRANCH   1  10
ATOM     10  C   UNL     1      21.614  -5.643  29.970  1.00  0.00     0.000 C 
BRANCH  10  11
ATOM     11  C   UNL     1      22.259  -6.531  31.051  1.00  0.00    -0.000 C 
BRANCH  11  12
ATOM     12  C   UNL     1      22.612  -5.753  32.333  1.00  0.00    -0.000 C 
BRANCH  12  13
ATOM     13  C   UNL     1      21.853  -6.272  33.565  1.00  0.00    -0.000 C 
BRANCH  13  14
ATOM     14  C   UNL     1      22.019  -5.359  34.791  1.00  0.00    -0.000 C 
BRANCH  14  15
ATOM     15  C   UNL     1      21.921  -3.883  34.390  1.00  0.00    -0.003 C 
ATOM     16  C   UNL     1      20.467  -3.459  34.199  1.00  0.00     0.004 C 
ENDBRANCH  14  15
ENDBRANCH  13  14
ENDBRANCH  12  13
ENDBRANCH  11  12
ENDBRANCH  10  11
ENDBRANCH   1  10
TORSDOF 12
ENDMDL
MODEL 8
REMARK VINA RESULT:    -4.305      3.154      5.473
REMARK INTER + INTRA:          -9.094
REMARK INTER:                  -7.329
REMARK INTRA:                  -1.765
REMARK UNBOUND:                -1.769
REMARK SMILES CCCCCCCCCCCCCC(=O)[O-]
REMARK SMILES IDX 8 1 9 2 10 3 11 4 12 5 13 6 14 7 15 8 16 9 7 10 6 11 5 12
REMARK SMILES IDX 4 13 3 14 2 15 1 16
REMARK H PARENT
REMARK Flexibility Score: inf
ROOT
ATOM      1  C   UNL     1      22.630  -6.282  32.490  1.00  0.00     0.000 C 
ENDROOT
BRANCH   1   2
ATOM      2  C   UNL     1      21.497  -6.707  33.442  1.00  0.00     0.000 C 
BRANCH   2   3
ATOM      3  C   UNL     1      21.381  -5.764  34.659  1.00  0.00     0.000 C 
BRANCH   3   4
ATOM      4  C   UNL     1      22.593  -4.827  34.832  1.00  0.00     0.000 C 
BRANCH   4   5
ATOM      5  C   UNL     1      22.449  -3.786  35.956  1.00  0.00     0.006 C 
BRANCH   5   6
ATOM      6  C   UNL     1      23.390  -2.586  35.779  1.00  0.00     0.053 C 
BRANCH   6   7
ATOM      7  C   UNL     1      22.748  -1.339  36.299  1.00  0.00     0.041 C 
ATOM      8  O   UNL     1      22.303  -1.299  37.477  1.00  0.00    -0.550 OA
ATOM      9  O   UNL     1      22.596  -0.237  35.467  1.00  0.00    -0.550 OA
ENDBRANCH   6   7
ENDBRANCH   5   6
ENDBRANCH   4   5
ENDBRANCH   3   4
ENDBRANCH   2   3
ENDBRANCH   1   2
BRANCH   1  10
ATOM     10  C   UNL     1      22.122  -5.922  31.081  1.00  0.00     0.000 C 
BRANCH  10  11
ATOM     11  C   UNL     1      20.672  -6.355  30.794  1.00  0.00    -0.000 C 
BRANCH  11  12
ATOM     12  C   UNL     1      19.717  -5.159  30.611  1.00  0.00    -0.000 C 
BRANCH  12  13
ATOM     13  C   UNL     1      18.520  -5.208  31.574  1.00  0.00    -0.000 C 
BRANCH  13  14
ATOM     14  C   UNL     1      18.617  -4.157  32.692  1.00  0.00    -0.000 C 
BRANCH  14  15
ATOM     15  C   UNL     1      19.621  -3.059  32.324  1.00  0.00    -0.003 C 
ATOM     16  C   UNL     1      20.153  -2.358  33.571  1.00  0.00     0.004 C 
ENDBRANCH  14  15
ENDBRANCH  13  14
ENDBRANCH  12  13
ENDBRANCH  11  12
ENDBRANCH  10  11
ENDBRANCH   1  10
TORSDOF 12
ENDMDL
MODEL 9
REMARK VINA RESULT:    -4.291      4.388      6.738
REMARK INTER + INTRA:          -9.070
REMARK INTER:                  -7.808
REMARK INTRA:                  -1.262
REMARK UNBOUND:                -1.769
REMARK SMILES CCCCCCCCCCCCCC(=O)[O-]
REMARK SMILES IDX 8 1 9 2 10 3 11 4 12 5 13 6 14 7 15 8 16 9 7 10 6 11 5 12
REMARK SMILES IDX 4 13 3 14 2 15 1 16
REMARK H PARENT
REMARK Flexibility Score: inf
ROOT
ATOM      1  C   UNL     1      21.190  -6.047  34.623  1.00  0.00     0.000 C 
ENDROOT
BRANCH   1   2
ATOM      2  C   UNL     1      22.250  -4.947  34.805  1.00  0.00     0.000 C 
BRANCH   2   3
ATOM      3  C   UNL     1      22.596  -4.718  36.292  1.00  0.00     0.000 C 
BRANCH   3   4
ATOM      4  C   UNL     1      22.558  -6.007  37.140  1.00  0.00     0.000 C 
BRANCH   4   5
ATOM      5  C   UNL     1      22.424  -5.778  38.656  1.00  0.00     0.006 C 
BRANCH   5   6
ATOM      6  C   UNL     1      22.853  -6.999  39.481  1.00  0.00     0.053 C 
BRANCH   6   7
ATOM      7  C   UNL     1      24.263  -6.840  39.954  1.00  0.00     0.041 C 
ATOM      8  O   UNL     1      24.708  -5.698  40.246  1.00  0.00    -0.550 OA
ATOM      9  O   UNL     1      25.102  -7.945  40.026  1.00  0.00    -0.550 OA
ENDBRANCH   6   7
ENDBRANCH   5   6
ENDBRANCH   4   5
ENDBRANCH   3   4
ENDBRANCH   2   3
ENDBRANCH   1   2
BRANCH   1  10
ATOM     10  C   UNL     1      21.419  -6.894  33.357  1.00  0.00     0.000 C 
BRANCH  10  11
ATOM     11  C   UNL     1      22.614  -6.445  32.495  1.00  0.00    -0.000 C 
BRANCH  11  12
ATOM     12  C   UNL     1      22.217  -6.129  31.040  1.00  0.00    -0.000 C 
BRANCH  12  13
ATOM     13  C   UNL     1      20.692  -6.102  30.839  1.00  0.00    -0.000 C 
BRANCH  13  14
ATOM     14  C   UNL     1      20.157  -4.687  30.566  1.00  0.00    -0.000 C 
BRANCH  14  15
ATOM     15  C   UNL     1      19.242  -4.220  31.703  1.00  0.00    -0.003 C 
ATOM     16  C   UNL     1      19.919  -3.147  32.551  1.00  0.00     0.004 C 
ENDBRANCH  14  15
ENDBRANCH  13  14
ENDBRANCH  12  13
ENDBRANCH  11  12
ENDBRANCH  10  11
ENDBRANCH   1  10
TORSDOF 12
ENDMDL
