MODEL 1
REMARK VINA RESULT:    85.739      0.000      0.000
REMARK INTER + INTRA:          93.213
REMARK INTER:                  93.257
REMARK INTRA:                  -0.045
REMARK UNBOUND:                -0.045
REMARK SMILES C[C@@H]1[C@H](C)CC[C@]2(C(=O)[O-])CC[C@@]3(C)C(=CC[C@H]4[C@@]5(C)CC[C@H](O)C(C)(C)[C@H]5CC[C@]43C)[C@H]12
REMARK SMILES IDX 7 1 6 2 11 3 33 4 5 5 12 6 15 7 2 8 3 9 13 10 16 11 1 12
REMARK SMILES IDX 4 13 14 14 31 15 17 16 18 17 30 18 32 19 19 20 29 21 28 22
REMARK SMILES IDX 21 23 20 24 25 25 22 26 23 27 26 28 27 29 8 30 9 31 10 32
REMARK SMILES IDX 24 33
REMARK H PARENT 24 34
REMARK Flexibility Score: inf
ROOT
ATOM      1  C   UNL     1      27.005  12.986 123.110  1.00  0.00     0.017 C 
ATOM      2  C   UNL     1      26.465  13.873 124.287  1.00  0.00     0.014 C 
ATOM      3  C   UNL     1      25.979  12.880 121.950  1.00  0.00     0.014 C 
ATOM      4  C   UNL     1      27.313  11.560 123.644  1.00  0.00     0.030 C 
ATOM      5  C   UNL     1      27.019  13.508 125.690  1.00  0.00     0.004 C 
ATOM      6  C   UNL     1      24.685  12.129 122.297  1.00  0.00     0.013 C 
ATOM      7  C   UNL     1      25.988  10.863 124.058  1.00  0.00    -0.063 C 
ATOM      8  C   UNL     1      28.508  11.628 124.665  1.00  0.00    -0.003 C 
ATOM      9  C   UNL     1      28.406  12.822 125.682  1.00  0.00    -0.011 C 
ATOM     10  C   UNL     1      24.872  10.730 122.999  1.00  0.00    -0.006 C 
ATOM     11  C   UNL     1      25.842  10.325 125.280  1.00  0.00    -0.027 C 
ATOM     12  C   UNL     1      29.001  10.255 125.190  1.00  0.00     0.008 C 
ATOM     13  C   UNL     1      28.832  12.471 127.115  1.00  0.00     0.008 C 
ATOM     14  C   UNL     1      25.399   9.724 121.925  1.00  0.00     0.017 C 
ATOM     15  C   UNL     1      23.459  10.211 123.622  1.00  0.00    -0.020 C 
ATOM     16  C   UNL     1      24.668   9.533 125.747  1.00  0.00     0.032 C 
ATOM     17  C   UNL     1      23.710   9.029 124.632  1.00  0.00     0.006 C 
ATOM     18  C   UNL     1      22.704  11.330 124.413  1.00  0.00     0.008 C 
ATOM     19  C   UNL     1      22.537   9.784 122.435  1.00  0.00     0.012 C 
ATOM     20  C   UNL     1      22.373   8.335 125.213  1.00  0.00    -0.025 C 
ATOM     21  C   UNL     1      21.712  10.862 125.515  1.00  0.00     0.005 C 
ATOM     22  C   UNL     1      21.195   9.391 125.430  1.00  0.00     0.003 C 
ATOM     23  C   UNL     1      22.664   7.526 126.535  1.00  0.00     0.010 C 
ATOM     24  C   UNL     1      21.907   7.248 124.182  1.00  0.00     0.012 C 
ATOM     25  C   UNL     1      20.202   9.033 126.619  1.00  0.00    -0.006 C 
ATOM     26  C   UNL     1      22.407   8.290 127.839  1.00  0.00     0.033 C 
ATOM     27  C   UNL     1      20.974   8.850 127.974  1.00  0.00     0.120 C 
ATOM     28  C   UNL     1      19.143  10.158 126.807  1.00  0.00     0.014 C 
ATOM     29  C   UNL     1      19.375   7.756 126.274  1.00  0.00     0.014 C 
ENDROOT
BRANCH   1  30
ATOM     30  C   UNL     1      28.263  13.605 122.492  1.00  0.00     0.048 C 
ATOM     31  O   UNL     1      29.114  12.904 121.882  1.00  0.00    -0.550 OA
ATOM     32  O   UNL     1      28.492  14.972 122.616  1.00  0.00    -0.550 OA
ENDBRANCH   1  30
BRANCH  27  33
ATOM     33  O   UNL     1      20.244   8.037 128.864  1.00  0.00    -0.393 OA
ATOM     34  H   UNL     1      19.928   7.248 128.351  1.00  0.00     0.210 HD
ENDBRANCH  27  33
TORSDOF 2
ENDMDL
