MODEL 1
REMARK VINA RESULT:    -4.262      0.000      0.000
REMARK INTER + INTRA:          -9.801
REMARK INTER:                  -7.751
REMARK INTRA:                  -2.050
REMARK UNBOUND:                -2.050
REMARK SMILES CCCCCCCCCCCCCCCC(=O)[O-]
REMARK SMILES IDX 9 1 10 2 11 3 12 4 13 5 14 6 15 7 16 8 17 9 18 10 8 11 7 12
REMARK SMILES IDX 6 13 5 14 4 15 3 16 2 17 1 18
REMARK H PARENT
REMARK Flexibility Score: inf
ROOT
ATOM      1  C   UNL     1       8.358  -4.699 -33.405  1.00  0.00     0.000 C 
ENDROOT
BRANCH   1   2
ATOM      2  C   UNL     1       7.276  -3.685 -32.989  1.00  0.00     0.000 C 
BRANCH   2   3
ATOM      3  C   UNL     1       6.281  -3.302 -34.100  1.00  0.00     0.000 C 
BRANCH   3   4
ATOM      4  C   UNL     1       6.842  -3.526 -35.514  1.00  0.00     0.000 C 
BRANCH   4   5
ATOM      5  C   UNL     1       7.448  -2.237 -36.115  1.00  0.00     0.000 C 
BRANCH   5   6
ATOM      6  C   UNL     1       8.985  -2.272 -36.227  1.00  0.00     0.006 C 
BRANCH   6   7
ATOM      7  C   UNL     1       9.716  -1.774 -34.972  1.00  0.00     0.053 C 
BRANCH   7   8
ATOM      8  C   UNL     1      11.039  -1.155 -35.307  1.00  0.00     0.041 C 
ATOM      9  O   UNL     1      11.598  -1.403 -36.408  1.00  0.00    -0.550 OA
ATOM     10  O   UNL     1      11.666  -0.318 -34.393  1.00  0.00    -0.550 OA
ENDBRANCH   7   8
ENDBRANCH   6   7
ENDBRANCH   5   6
ENDBRANCH   4   5
ENDBRANCH   3   4
ENDBRANCH   2   3
ENDBRANCH   1   2
BRANCH   1  11
ATOM     11  C   UNL     1       8.134  -6.095 -32.806  1.00  0.00     0.000 C 
BRANCH  11  12
ATOM     12  C   UNL     1       7.288  -6.018 -31.530  1.00  0.00    -0.000 C 
BRANCH  12  13
ATOM     13  C   UNL     1       6.035  -6.897 -31.646  1.00  0.00    -0.000 C 
BRANCH  13  14
ATOM     14  C   UNL     1       5.327  -6.752 -33.006  1.00  0.00    -0.000 C 
BRANCH  14  15
ATOM     15  C   UNL     1       5.003  -8.080 -33.720  1.00  0.00    -0.000 C 
BRANCH  15  16
ATOM     16  C   UNL     1       5.934  -8.435 -34.893  1.00  0.00    -0.000 C 
BRANCH  16  17
ATOM     17  C   UNL     1       6.153  -7.260 -35.857  1.00  0.00    -0.003 C 
ATOM     18  C   UNL     1       7.630  -7.104 -36.208  1.00  0.00     0.004 C 
ENDBRANCH  16  17
ENDBRANCH  15  16
ENDBRANCH  14  15
ENDBRANCH  13  14
ENDBRANCH  12  13
ENDBRANCH  11  12
ENDBRANCH   1  11
TORSDOF 14
ENDMDL
MODEL 2
REMARK VINA RESULT:    -4.254      2.682      4.429
REMARK INTER + INTRA:          -9.785
REMARK INTER:                  -7.601
REMARK INTRA:                  -2.184
REMARK UNBOUND:                -2.050
REMARK SMILES CCCCCCCCCCCCCCCC(=O)[O-]
REMARK SMILES IDX 9 1 10 2 11 3 12 4 13 5 14 6 15 7 16 8 17 9 18 10 8 11 7 12
REMARK SMILES IDX 6 13 5 14 4 15 3 16 2 17 1 18
REMARK H PARENT
REMARK Flexibility Score: inf
ROOT
ATOM      1  C   UNL     1       5.261  -7.043 -32.825  1.00  0.00     0.000 C 
ENDROOT
BRANCH   1   2
ATOM      2  C   UNL     1       6.195  -7.063 -31.601  1.00  0.00     0.000 C 
BRANCH   2   3
ATOM      3  C   UNL     1       7.194  -5.895 -31.524  1.00  0.00     0.000 C 
BRANCH   3   4
ATOM      4  C   UNL     1       8.310  -5.988 -32.580  1.00  0.00     0.000 C 
BRANCH   4   5
ATOM      5  C   UNL     1       8.186  -4.890 -33.661  1.00  0.00     0.000 C 
BRANCH   5   6
ATOM      6  C   UNL     1       7.098  -3.843 -33.355  1.00  0.00     0.006 C 
BRANCH   6   7
ATOM      7  C   UNL     1       7.085  -2.651 -34.322  1.00  0.00     0.053 C 
BRANCH   7   8
ATOM      8  C   UNL     1       6.355  -2.970 -35.591  1.00  0.00     0.041 C 
ATOM      9  O   UNL     1       6.985  -3.383 -36.600  1.00  0.00    -0.550 OA
ATOM     10  O   UNL     1       4.980  -2.794 -35.666  1.00  0.00    -0.550 OA
ENDBRANCH   7   8
ENDBRANCH   6   7
ENDBRANCH   5   6
ENDBRANCH   4   5
ENDBRANCH   3   4
ENDBRANCH   2   3
ENDBRANCH   1   2
BRANCH   1  11
ATOM     11  C   UNL     1       5.240  -8.376 -33.587  1.00  0.00     0.000 C 
BRANCH  11  12
ATOM     12  C   UNL     1       5.494  -8.160 -35.083  1.00  0.00    -0.000 C 
BRANCH  12  13
ATOM     13  C   UNL     1       5.571  -6.662 -35.416  1.00  0.00    -0.000 C 
BRANCH  13  14
ATOM     14  C   UNL     1       4.359  -6.168 -36.227  1.00  0.00    -0.000 C 
BRANCH  14  15
ATOM     15  C   UNL     1       3.371  -7.268 -36.664  1.00  0.00    -0.000 C 
BRANCH  15  16
ATOM     16  C   UNL     1       1.936  -7.106 -36.130  1.00  0.00    -0.000 C 
BRANCH  16  17
ATOM     17  C   UNL     1       1.707  -7.847 -34.805  1.00  0.00    -0.003 C 
ATOM     18  C   UNL     1       1.854  -9.355 -34.985  1.00  0.00     0.004 C 
ENDBRANCH  16  17
ENDBRANCH  15  16
ENDBRANCH  14  15
ENDBRANCH  13  14
ENDBRANCH  12  13
ENDBRANCH  11  12
ENDBRANCH   1  11
TORSDOF 14
ENDMDL
MODEL 3
REMARK VINA RESULT:    -4.171      2.661      5.321
REMARK INTER + INTRA:          -9.635
REMARK INTER:                  -7.780
REMARK INTRA:                  -1.855
REMARK UNBOUND:                -2.050
REMARK SMILES CCCCCCCCCCCCCCCC(=O)[O-]
REMARK SMILES IDX 9 1 10 2 11 3 12 4 13 5 14 6 15 7 16 8 17 9 18 10 8 11 7 12
REMARK SMILES IDX 6 13 5 14 4 15 3 16 2 17 1 18
REMARK H PARENT
REMARK Flexibility Score: inf
ROOT
ATOM      1  C   UNL     1       7.393  -5.651 -31.722  1.00  0.00     0.000 C 
ENDROOT
BRANCH   1   2
ATOM      2  C   UNL     1       6.451  -6.857 -31.550  1.00  0.00     0.000 C 
BRANCH   2   3
ATOM      3  C   UNL     1       5.239  -6.879 -32.499  1.00  0.00     0.000 C 
BRANCH   3   4
ATOM      4  C   UNL     1       5.385  -7.904 -33.637  1.00  0.00     0.000 C 
BRANCH   4   5
ATOM      5  C   UNL     1       4.381  -7.651 -34.785  1.00  0.00     0.000 C 
BRANCH   5   6
ATOM      6  C   UNL     1       4.994  -6.909 -35.988  1.00  0.00     0.006 C 
BRANCH   6   7
ATOM      7  C   UNL     1       5.956  -7.762 -36.827  1.00  0.00     0.053 C 
BRANCH   7   8
ATOM      8  C   UNL     1       7.362  -7.249 -36.757  1.00  0.00     0.041 C 
ATOM      9  O   UNL     1       8.124  -7.607 -35.820  1.00  0.00    -0.550 OA
ATOM     10  O   UNL     1       7.826  -6.360 -37.717  1.00  0.00    -0.550 OA
ENDBRANCH   7   8
ENDBRANCH   6   7
ENDBRANCH   5   6
ENDBRANCH   4   5
ENDBRANCH   3   4
ENDBRANCH   2   3
ENDBRANCH   1   2
BRANCH   1  11
ATOM     11  C   UNL     1       8.293  -5.765 -32.961  1.00  0.00     0.000 C 
BRANCH  11  12
ATOM     12  C   UNL     1       8.242  -4.481 -33.798  1.00  0.00    -0.000 C 
BRANCH  12  13
ATOM     13  C   UNL     1       7.179  -3.514 -33.255  1.00  0.00    -0.000 C 
BRANCH  13  14
ATOM     14  C   UNL     1       6.063  -3.220 -34.274  1.00  0.00    -0.000 C 
BRANCH  14  15
ATOM     15  C   UNL     1       6.357  -3.679 -35.717  1.00  0.00    -0.000 C 
BRANCH  15  16
ATOM     16  C   UNL     1       5.950  -2.680 -36.815  1.00  0.00    -0.000 C 
BRANCH  16  17
ATOM     17  C   UNL     1       7.139  -2.219 -37.671  1.00  0.00    -0.003 C 
ATOM     18  C   UNL     1       8.458  -2.404 -36.925  1.00  0.00     0.004 C 
ENDBRANCH  16  17
ENDBRANCH  15  16
ENDBRANCH  14  15
ENDBRANCH  13  14
ENDBRANCH  12  13
ENDBRANCH  11  12
ENDBRANCH   1  11
TORSDOF 14
ENDMDL
MODEL 4
REMARK VINA RESULT:    -4.171      1.337      2.582
REMARK INTER + INTRA:          -9.635
REMARK INTER:                  -7.892
REMARK INTRA:                  -1.742
REMARK UNBOUND:                -2.050
REMARK SMILES CCCCCCCCCCCCCCCC(=O)[O-]
REMARK SMILES IDX 9 1 10 2 11 3 12 4 13 5 14 6 15 7 16 8 17 9 18 10 8 11 7 12
REMARK SMILES IDX 6 13 5 14 4 15 3 16 2 17 1 18
REMARK H PARENT
REMARK Flexibility Score: inf
ROOT
ATOM      1  C   UNL     1       7.331  -5.755 -31.546  1.00  0.00     0.000 C 
ENDROOT
BRANCH   1   2
ATOM      2  C   UNL     1       8.172  -6.012 -32.810  1.00  0.00     0.000 C 
BRANCH   2   3
ATOM      3  C   UNL     1       8.241  -4.834 -33.799  1.00  0.00     0.000 C 
BRANCH   3   4
ATOM      4  C   UNL     1       7.461  -3.599 -33.317  1.00  0.00     0.000 C 
BRANCH   4   5
ATOM      5  C   UNL     1       7.393  -2.492 -34.393  1.00  0.00     0.000 C 
BRANCH   5   6
ATOM      6  C   UNL     1       8.710  -2.308 -35.172  1.00  0.00     0.006 C 
BRANCH   6   7
ATOM      7  C   UNL     1       9.820  -1.611 -34.372  1.00  0.00     0.053 C 
BRANCH   7   8
ATOM      8  C   UNL     1      11.051  -1.393 -35.198  1.00  0.00     0.041 C 
ATOM      9  O   UNL     1      10.957  -0.975 -36.383  1.00  0.00    -0.550 OA
ATOM     10  O   UNL     1      12.303  -1.672 -34.667  1.00  0.00    -0.550 OA
ENDBRANCH   7   8
ENDBRANCH   6   7
ENDBRANCH   5   6
ENDBRANCH   4   5
ENDBRANCH   3   4
ENDBRANCH   2   3
ENDBRANCH   1   2
BRANCH   1  11
ATOM     11  C   UNL     1       5.971  -6.467 -31.575  1.00  0.00     0.000 C 
BRANCH  11  12
ATOM     12  C   UNL     1       5.975  -7.621 -32.584  1.00  0.00    -0.000 C 
BRANCH  12  13
ATOM     13  C   UNL     1       4.880  -7.427 -33.643  1.00  0.00    -0.000 C 
BRANCH  13  14
ATOM     14  C   UNL     1       5.448  -7.148 -35.047  1.00  0.00    -0.000 C 
BRANCH  14  15
ATOM     15  C   UNL     1       4.741  -6.021 -35.827  1.00  0.00    -0.000 C 
BRANCH  15  16
ATOM     16  C   UNL     1       5.677  -4.959 -36.432  1.00  0.00    -0.000 C 
BRANCH  16  17
ATOM     17  C   UNL     1       4.917  -3.834 -37.149  1.00  0.00    -0.003 C 
ATOM     18  C   UNL     1       4.184  -2.943 -36.151  1.00  0.00     0.004 C 
ENDBRANCH  16  17
ENDBRANCH  15  16
ENDBRANCH  14  15
ENDBRANCH  13  14
ENDBRANCH  12  13
ENDBRANCH  11  12
ENDBRANCH   1  11
TORSDOF 14
ENDMDL
MODEL 5
REMARK VINA RESULT:    -4.147      4.286      6.773
REMARK INTER + INTRA:          -9.591
REMARK INTER:                  -7.602
REMARK INTRA:                  -1.989
REMARK UNBOUND:                -2.050
REMARK SMILES CCCCCCCCCCCCCCCC(=O)[O-]
REMARK SMILES IDX 9 1 10 2 11 3 12 4 13 5 14 6 15 7 16 8 17 9 18 10 8 11 7 12
REMARK SMILES IDX 6 13 5 14 4 15 3 16 2 17 1 18
REMARK H PARENT
REMARK Flexibility Score: inf
ROOT
ATOM      1  C   UNL     1       4.784  -2.801 -36.274  1.00  0.00     0.000 C 
ENDROOT
BRANCH   1   2
ATOM      2  C   UNL     1       4.101  -3.779 -37.248  1.00  0.00     0.000 C 
BRANCH   2   3
ATOM      3  C   UNL     1       4.008  -5.234 -36.752  1.00  0.00     0.000 C 
BRANCH   3   4
ATOM      4  C   UNL     1       5.359  -5.795 -36.277  1.00  0.00     0.000 C 
BRANCH   4   5
ATOM      5  C   UNL     1       5.242  -6.541 -34.929  1.00  0.00     0.000 C 
BRANCH   5   6
ATOM      6  C   UNL     1       5.708  -8.008 -34.993  1.00  0.00     0.006 C 
BRANCH   6   7
ATOM      7  C   UNL     1       4.679  -8.967 -35.609  1.00  0.00     0.053 C 
BRANCH   7   8
ATOM      8  C   UNL     1       3.445  -9.077 -34.767  1.00  0.00     0.041 C 
ATOM      9  O   UNL     1       3.530  -9.398 -33.552  1.00  0.00    -0.550 OA
ATOM     10  O   UNL     1       2.197  -8.844 -35.329  1.00  0.00    -0.550 OA
ENDBRANCH   7   8
ENDBRANCH   6   7
ENDBRANCH   5   6
ENDBRANCH   4   5
ENDBRANCH   3   4
ENDBRANCH   2   3
ENDBRANCH   1   2
BRANCH   1  11
ATOM     11  C   UNL     1       6.228  -2.467 -36.673  1.00  0.00     0.000 C 
BRANCH  11  12
ATOM     12  C   UNL     1       7.162  -2.523 -35.457  1.00  0.00    -0.000 C 
BRANCH  12  13
ATOM     13  C   UNL     1       6.382  -2.874 -34.182  1.00  0.00    -0.000 C 
BRANCH  13  14
ATOM     14  C   UNL     1       7.254  -3.573 -33.122  1.00  0.00    -0.000 C 
BRANCH  14  15
ATOM     15  C   UNL     1       8.189  -4.672 -33.666  1.00  0.00    -0.000 C 
BRANCH  15  16
ATOM     16  C   UNL     1       8.218  -5.971 -32.841  1.00  0.00    -0.000 C 
BRANCH  16  17
ATOM     17  C   UNL     1       7.439  -5.857 -31.522  1.00  0.00    -0.003 C 
ATOM     18  C   UNL     1       6.423  -6.988 -31.383  1.00  0.00     0.004 C 
ENDBRANCH  16  17
ENDBRANCH  15  16
ENDBRANCH  14  15
ENDBRANCH  13  14
ENDBRANCH  12  13
ENDBRANCH  11  12
ENDBRANCH   1  11
TORSDOF 14
ENDMDL
MODEL 6
REMARK VINA RESULT:    -4.118      4.793      7.260
REMARK INTER + INTRA:          -9.539
REMARK INTER:                  -7.439
REMARK INTRA:                  -2.099
REMARK UNBOUND:                -2.050
REMARK SMILES CCCCCCCCCCCCCCCC(=O)[O-]
REMARK SMILES IDX 9 1 10 2 11 3 12 4 13 5 14 6 15 7 16 8 17 9 18 10 8 11 7 12
REMARK SMILES IDX 6 13 5 14 4 15 3 16 2 17 1 18
REMARK H PARENT
REMARK Flexibility Score: inf
ROOT
ATOM      1  C   UNL     1       5.556  -7.818 -35.184  1.00  0.00     0.000 C 
ENDROOT
BRANCH   1   2
ATOM      2  C   UNL     1       5.508  -6.301 -35.449  1.00  0.00     0.000 C 
BRANCH   2   3
ATOM      3  C   UNL     1       4.434  -5.849 -36.456  1.00  0.00     0.000 C 
BRANCH   3   4
ATOM      4  C   UNL     1       3.500  -6.992 -36.891  1.00  0.00     0.000 C 
BRANCH   4   5
ATOM      5  C   UNL     1       2.062  -6.811 -36.353  1.00  0.00     0.000 C 
BRANCH   5   6
ATOM      6  C   UNL     1       1.757  -7.668 -35.110  1.00  0.00     0.006 C 
BRANCH   6   7
ATOM      7  C   UNL     1       1.326  -9.106 -35.430  1.00  0.00     0.053 C 
BRANCH   7   8
ATOM      8  C   UNL     1       2.301 -10.113 -34.899  1.00  0.00     0.041 C 
ATOM      9  O   UNL     1       3.240 -10.534 -35.626  1.00  0.00    -0.550 OA
ATOM     10  O   UNL     1       2.162 -10.601 -33.607  1.00  0.00    -0.550 OA
ENDBRANCH   7   8
ENDBRANCH   6   7
ENDBRANCH   5   6
ENDBRANCH   4   5
ENDBRANCH   3   4
ENDBRANCH   2   3
ENDBRANCH   1   2
BRANCH   1  11
ATOM     11  C   UNL     1       5.348  -8.175 -33.706  1.00  0.00     0.000 C 
BRANCH  11  12
ATOM     12  C   UNL     1       5.250  -6.912 -32.842  1.00  0.00    -0.000 C 
BRANCH  12  13
ATOM     13  C   UNL     1       6.194  -6.998 -31.634  1.00  0.00    -0.000 C 
BRANCH  13  14
ATOM     14  C   UNL     1       7.254  -5.882 -31.623  1.00  0.00    -0.000 C 
BRANCH  14  15
ATOM     15  C   UNL     1       8.313  -5.974 -32.741  1.00  0.00    -0.000 C 
BRANCH  15  16
ATOM     16  C   UNL     1       8.324  -4.794 -33.729  1.00  0.00    -0.000 C 
BRANCH  16  17
ATOM     17  C   UNL     1       7.275  -3.725 -33.390  1.00  0.00    -0.003 C 
ATOM     18  C   UNL     1       7.405  -2.516 -34.313  1.00  0.00     0.004 C 
ENDBRANCH  16  17
ENDBRANCH  15  16
ENDBRANCH  14  15
ENDBRANCH  13  14
ENDBRANCH  12  13
ENDBRANCH  11  12
ENDBRANCH   1  11
TORSDOF 14
ENDMDL
MODEL 7
REMARK VINA RESULT:    -4.094      1.227      2.948
REMARK INTER + INTRA:          -9.495
REMARK INTER:                  -7.669
REMARK INTRA:                  -1.826
REMARK UNBOUND:                -2.050
REMARK SMILES CCCCCCCCCCCCCCCC(=O)[O-]
REMARK SMILES IDX 9 1 10 2 11 3 12 4 13 5 14 6 15 7 16 8 17 9 18 10 8 11 7 12
REMARK SMILES IDX 6 13 5 14 4 15 3 16 2 17 1 18
REMARK H PARENT
REMARK Flexibility Score: inf
ROOT
ATOM      1  C   UNL     1       7.200  -5.208 -36.490  1.00  0.00     0.000 C 
ENDROOT
BRANCH   1   2
ATOM      2  C   UNL     1       6.208  -4.078 -36.158  1.00  0.00     0.000 C 
BRANCH   2   3
ATOM      3  C   UNL     1       6.773  -2.953 -35.273  1.00  0.00     0.000 C 
BRANCH   3   4
ATOM      4  C   UNL     1       8.190  -2.517 -35.686  1.00  0.00     0.000 C 
BRANCH   4   5
ATOM      5  C   UNL     1       9.156  -2.447 -34.482  1.00  0.00     0.000 C 
BRANCH   5   6
ATOM      6  C   UNL     1      10.275  -1.401 -34.649  1.00  0.00     0.006 C 
BRANCH   6   7
ATOM      7  C   UNL     1      11.678  -2.004 -34.809  1.00  0.00     0.053 C 
BRANCH   7   8
ATOM      8  C   UNL     1      12.111  -2.036 -36.243  1.00  0.00     0.041 C 
ATOM      9  O   UNL     1      13.308  -2.289 -36.540  1.00  0.00    -0.550 OA
ATOM     10  O   UNL     1      11.195  -1.768 -37.252  1.00  0.00    -0.550 OA
ENDBRANCH   7   8
ENDBRANCH   6   7
ENDBRANCH   5   6
ENDBRANCH   4   5
ENDBRANCH   3   4
ENDBRANCH   2   3
ENDBRANCH   1   2
BRANCH   1  11
ATOM     11  C   UNL     1       6.609  -6.609 -36.276  1.00  0.00     0.000 C 
BRANCH  11  12
ATOM     12  C   UNL     1       5.153  -6.525 -35.802  1.00  0.00    -0.000 C 
BRANCH  12  13
ATOM     13  C   UNL     1       4.738  -7.813 -35.076  1.00  0.00    -0.000 C 
BRANCH  13  14
ATOM     14  C   UNL     1       5.475  -8.010 -33.739  1.00  0.00    -0.000 C 
BRANCH  14  15
ATOM     15  C   UNL     1       5.263  -6.887 -32.703  1.00  0.00    -0.000 C 
BRANCH  15  16
ATOM     16  C   UNL     1       6.509  -6.514 -31.881  1.00  0.00    -0.000 C 
BRANCH  16  17
ATOM     17  C   UNL     1       7.258  -5.300 -32.451  1.00  0.00    -0.003 C 
ATOM     18  C   UNL     1       8.494  -5.736 -33.233  1.00  0.00     0.004 C 
ENDBRANCH  16  17
ENDBRANCH  15  16
ENDBRANCH  14  15
ENDBRANCH  13  14
ENDBRANCH  12  13
ENDBRANCH  11  12
ENDBRANCH   1  11
TORSDOF 14
ENDMDL
MODEL 8
REMARK VINA RESULT:    -4.069      1.891      3.802
REMARK INTER + INTRA:          -9.450
REMARK INTER:                  -7.283
REMARK INTRA:                  -2.167
REMARK UNBOUND:                -2.050
REMARK SMILES CCCCCCCCCCCCCCCC(=O)[O-]
REMARK SMILES IDX 9 1 10 2 11 3 12 4 13 5 14 6 15 7 16 8 17 9 18 10 8 11 7 12
REMARK SMILES IDX 6 13 5 14 4 15 3 16 2 17 1 18
REMARK H PARENT
REMARK Flexibility Score: inf
ROOT
ATOM      1  C   UNL     1       4.775  -5.873 -36.584  1.00  0.00     0.000 C 
ENDROOT
BRANCH   1   2
ATOM      2  C   UNL     1       3.860  -4.672 -36.890  1.00  0.00     0.000 C 
BRANCH   2   3
ATOM      3  C   UNL     1       4.254  -3.358 -36.191  1.00  0.00     0.000 C 
BRANCH   3   4
ATOM      4  C   UNL     1       4.559  -2.219 -37.179  1.00  0.00     0.000 C 
BRANCH   4   5
ATOM      5  C   UNL     1       6.066  -2.115 -37.506  1.00  0.00     0.000 C 
BRANCH   5   6
ATOM      6  C   UNL     1       6.978  -2.325 -36.282  1.00  0.00     0.006 C 
BRANCH   6   7
ATOM      7  C   UNL     1       8.472  -2.414 -36.622  1.00  0.00     0.053 C 
BRANCH   7   8
ATOM      8  C   UNL     1       9.332  -1.965 -35.479  1.00  0.00     0.041 C 
ATOM      9  O   UNL     1       8.996  -2.220 -34.292  1.00  0.00    -0.550 OA
ATOM     10  O   UNL     1      10.495  -1.248 -35.725  1.00  0.00    -0.550 OA
ENDBRANCH   7   8
ENDBRANCH   6   7
ENDBRANCH   5   6
ENDBRANCH   4   5
ENDBRANCH   3   4
ENDBRANCH   2   3
ENDBRANCH   1   2
BRANCH   1  11
ATOM     11  C   UNL     1       5.855  -6.092 -37.654  1.00  0.00     0.000 C 
BRANCH  11  12
ATOM     12  C   UNL     1       7.258  -5.902 -37.066  1.00  0.00    -0.000 C 
BRANCH  12  13
ATOM     13  C   UNL     1       7.351  -6.510 -35.659  1.00  0.00    -0.000 C 
BRANCH  13  14
ATOM     14  C   UNL     1       7.881  -5.514 -34.611  1.00  0.00    -0.000 C 
BRANCH  14  15
ATOM     15  C   UNL     1       6.848  -5.058 -33.561  1.00  0.00    -0.000 C 
BRANCH  15  16
ATOM     16  C   UNL     1       7.217  -5.377 -32.101  1.00  0.00    -0.000 C 
BRANCH  16  17
ATOM     17  C   UNL     1       6.347  -6.488 -31.496  1.00  0.00    -0.003 C 
ATOM     18  C   UNL     1       5.346  -7.020 -32.518  1.00  0.00     0.004 C 
ENDBRANCH  16  17
ENDBRANCH  15  16
ENDBRANCH  14  15
ENDBRANCH  13  14
ENDBRANCH  12  13
ENDBRANCH  11  12
ENDBRANCH   1  11
TORSDOF 14
ENDMDL
MODEL 9
REMARK VINA RESULT:    -4.041      4.207      6.490
REMARK INTER + INTRA:          -9.398
REMARK INTER:                  -7.111
REMARK INTRA:                  -2.287
REMARK UNBOUND:                -2.050
REMARK SMILES CCCCCCCCCCCCCCCC(=O)[O-]
REMARK SMILES IDX 9 1 10 2 11 3 12 4 13 5 14 6 15 7 16 8 17 9 18 10 8 11 7 12
REMARK SMILES IDX 6 13 5 14 4 15 3 16 2 17 1 18
REMARK H PARENT
REMARK Flexibility Score: inf
ROOT
ATOM      1  C   UNL     1       8.117  -5.474 -33.232  1.00  0.00     0.000 C 
ENDROOT
BRANCH   1   2
ATOM      2  C   UNL     1       7.202  -5.518 -31.994  1.00  0.00     0.000 C 
BRANCH   2   3
ATOM      3  C   UNL     1       6.159  -6.650 -31.994  1.00  0.00     0.000 C 
BRANCH   3   4
ATOM      4  C   UNL     1       5.409  -6.777 -33.331  1.00  0.00     0.000 C 
BRANCH   4   5
ATOM      5  C   UNL     1       5.311  -8.243 -33.811  1.00  0.00     0.000 C 
BRANCH   5   6
ATOM      6  C   UNL     1       4.215  -8.473 -34.870  1.00  0.00     0.006 C 
BRANCH   6   7
ATOM      7  C   UNL     1       2.794  -8.158 -34.381  1.00  0.00     0.053 C 
BRANCH   7   8
ATOM      8  C   UNL     1       1.897  -7.742 -35.507  1.00  0.00     0.041 C 
ATOM      9  O   UNL     1       0.882  -8.428 -35.799  1.00  0.00    -0.550 OA
ATOM     10  O   UNL     1       2.192  -6.604 -36.247  1.00  0.00    -0.550 OA
ENDBRANCH   7   8
ENDBRANCH   6   7
ENDBRANCH   5   6
ENDBRANCH   4   5
ENDBRANCH   3   4
ENDBRANCH   2   3
ENDBRANCH   1   2
BRANCH   1  11
ATOM     11  C   UNL     1       8.379  -4.047 -33.735  1.00  0.00     0.000 C 
BRANCH  11  12
ATOM     12  C   UNL     1       7.099  -3.204 -33.690  1.00  0.00    -0.000 C 
BRANCH  12  13
ATOM     13  C   UNL     1       6.532  -2.990 -35.101  1.00  0.00    -0.000 C 
BRANCH  13  14
ATOM     14  C   UNL     1       5.294  -3.860 -35.386  1.00  0.00    -0.000 C 
BRANCH  14  15
ATOM     15  C   UNL     1       5.477  -4.918 -36.492  1.00  0.00    -0.000 C 
BRANCH  15  16
ATOM     16  C   UNL     1       6.935  -5.175 -36.915  1.00  0.00    -0.000 C 
BRANCH  16  17
ATOM     17  C   UNL     1       7.435  -6.570 -36.511  1.00  0.00    -0.003 C 
ATOM     18  C   UNL     1       6.769  -7.656 -37.350  1.00  0.00     0.004 C 
ENDBRANCH  16  17
ENDBRANCH  15  16
ENDBRANCH  14  15
ENDBRANCH  13  14
ENDBRANCH  12  13
ENDBRANCH  11  12
ENDBRANCH   1  11
TORSDOF 14
ENDMDL
