MODEL 1
REMARK VINA RESULT:    -6.949      0.000      0.000
REMARK INTER + INTRA:          -8.472
REMARK INTER:                  -8.370
REMARK INTRA:                  -0.102
REMARK UNBOUND:                -0.102
REMARK SMILES Oc1cc(O)c2cc(O)c(-c3ccc(O)c(O)c3)[o+]c2c1
REMARK SMILES IDX 10 1 19 2 20 3 21 4 2 5 3 6 4 7 6 8 7 9 8 10 11 11 12 12
REMARK SMILES IDX 13 13 14 14 18 15 16 16 15 17 17 19 9 21 1 23 5 25
REMARK H PARENT 15 18 17 20 9 22 1 24 5 26
REMARK Flexibility Score: inf
ROOT
ATOM      1  C   UNL     1      82.028   1.777  -0.074  1.00  0.00     0.402 A 
ATOM      2  O   UNL     1      82.623   2.642  -0.893  1.00  0.00    -0.202 OA
ATOM      3  C   UNL     1      83.941   2.795  -0.959  1.00  0.00     0.368 A 
ATOM      4  C   UNL     1      84.472   3.734  -1.849  1.00  0.00     0.162 A 
ATOM      5  C   UNL     1      85.855   3.918  -1.938  1.00  0.00     0.128 A 
ATOM      6  C   UNL     1      86.710   3.161  -1.133  1.00  0.00     0.093 A 
ATOM      7  C   UNL     1      86.203   2.215  -0.233  1.00  0.00     0.136 A 
ATOM      8  C   UNL     1      84.800   2.022  -0.142  1.00  0.00     0.125 A 
ATOM      9  C   UNL     1      84.204   1.088   0.721  1.00  0.00     0.078 A 
ATOM     10  C   UNL     1      82.813   0.952   0.753  1.00  0.00     0.223 A 
ENDROOT
BRANCH   1  11
ATOM     11  C   UNL     1      80.550   1.706  -0.085  1.00  0.00     0.087 A 
ATOM     12  C   UNL     1      79.801   2.849   0.235  1.00  0.00     0.022 A 
ATOM     13  C   UNL     1      78.405   2.800   0.250  1.00  0.00     0.051 A 
ATOM     14  C   UNL     1      77.736   1.607  -0.039  1.00  0.00     0.157 A 
ATOM     15  C   UNL     1      79.875   0.501  -0.355  1.00  0.00     0.068 A 
ATOM     16  C   UNL     1      78.474   0.450  -0.338  1.00  0.00     0.158 A 
BRANCH  14  17
ATOM     17  O   UNL     1      76.342   1.589  -0.018  1.00  0.00    -0.504 OA
ATOM     18  H   UNL     1      75.786   2.218  -0.585  1.00  0.00     0.293 HD
ENDBRANCH  14  17
BRANCH  16  19
ATOM     19  O   UNL     1      77.814  -0.747  -0.613  1.00  0.00    -0.504 OA
ATOM     20  H   UNL     1      78.198  -1.431  -1.255  1.00  0.00     0.293 HD
ENDBRANCH  16  19
ENDBRANCH   1  11
BRANCH  10  21
ATOM     21  O   UNL     1      82.223  -0.011   1.572  1.00  0.00    -0.500 OA
ATOM     22  H   UNL     1      81.222  -0.036   1.730  1.00  0.00     0.294 HD
ENDBRANCH  10  21
BRANCH   5  23
ATOM     23  O   UNL     1      86.391   4.851  -2.821  1.00  0.00    -0.507 OA
ATOM     24  H   UNL     1      86.169   5.838  -2.750  1.00  0.00     0.293 HD
ENDBRANCH   5  23
BRANCH   7  25
ATOM     25  O   UNL     1      87.125   1.501   0.538  1.00  0.00    -0.507 OA
ATOM     26  H   UNL     1      86.944   1.155   1.468  1.00  0.00     0.293 HD
ENDBRANCH   7  25
TORSDOF 6
ENDMDL
MODEL 2
REMARK VINA RESULT:    -6.887      1.197      2.882
REMARK INTER + INTRA:          -8.398
REMARK INTER:                  -8.288
REMARK INTRA:                  -0.110
REMARK UNBOUND:                -0.102
REMARK SMILES Oc1cc(O)c2cc(O)c(-c3ccc(O)c(O)c3)[o+]c2c1
REMARK SMILES IDX 10 1 19 2 20 3 21 4 2 5 3 6 4 7 6 8 7 9 8 10 11 11 12 12
REMARK SMILES IDX 13 13 14 14 18 15 16 16 15 17 17 19 9 21 1 23 5 25
REMARK H PARENT 15 18 17 20 9 22 1 24 5 26
REMARK Flexibility Score: inf
ROOT
ATOM      1  C   UNL     1      82.094   1.927  -0.012  1.00  0.00     0.402 A 
ATOM      2  O   UNL     1      82.781   1.137   0.811  1.00  0.00    -0.202 OA
ATOM      3  C   UNL     1      84.106   1.154   0.899  1.00  0.00     0.368 A 
ATOM      4  C   UNL     1      84.739   0.283   1.791  1.00  0.00     0.162 A 
ATOM      5  C   UNL     1      86.133   0.277   1.902  1.00  0.00     0.128 A 
ATOM      6  C   UNL     1      86.896   1.144   1.117  1.00  0.00     0.093 A 
ATOM      7  C   UNL     1      86.287   2.025   0.215  1.00  0.00     0.136 A 
ATOM      8  C   UNL     1      84.873   2.037   0.101  1.00  0.00     0.125 A 
ATOM      9  C   UNL     1      84.175   2.895  -0.765  1.00  0.00     0.078 A 
ATOM     10  C   UNL     1      82.779   2.852  -0.820  1.00  0.00     0.223 A 
ENDROOT
BRANCH   1  11
ATOM     11  C   UNL     1      80.618   1.808  -0.026  1.00  0.00     0.087 A 
ATOM     12  C   UNL     1      79.832   2.922   0.302  1.00  0.00     0.022 A 
ATOM     13  C   UNL     1      78.438   2.828   0.315  1.00  0.00     0.051 A 
ATOM     14  C   UNL     1      77.809   1.616   0.015  1.00  0.00     0.157 A 
ATOM     15  C   UNL     1      79.984   0.583  -0.306  1.00  0.00     0.068 A 
ATOM     16  C   UNL     1      78.586   0.485  -0.292  1.00  0.00     0.158 A 
BRANCH  14  17
ATOM     17  O   UNL     1      76.417   1.551   0.033  1.00  0.00    -0.504 OA
ATOM     18  H   UNL     1      75.905   0.814  -0.438  1.00  0.00     0.293 HD
ENDBRANCH  14  17
BRANCH  16  19
ATOM     19  O   UNL     1      77.966  -0.730  -0.578  1.00  0.00    -0.504 OA
ATOM     20  H   UNL     1      77.427  -1.229   0.121  1.00  0.00     0.293 HD
ENDBRANCH  16  19
ENDBRANCH   1  11
BRANCH  10  21
ATOM     21  O   UNL     1      82.084   3.739  -1.643  1.00  0.00    -0.500 OA
ATOM     22  H   UNL     1      81.201   3.487  -2.071  1.00  0.00     0.294 HD
ENDBRANCH  10  21
BRANCH   5  23
ATOM     23  O   UNL     1      86.770  -0.588   2.789  1.00  0.00    -0.507 OA
ATOM     24  H   UNL     1      86.280  -0.993   3.579  1.00  0.00     0.293 HD
ENDBRANCH   5  23
BRANCH   7  25
ATOM     25  O   UNL     1      87.122   2.857  -0.536  1.00  0.00    -0.507 OA
ATOM     26  H   UNL     1      87.687   2.548  -1.312  1.00  0.00     0.293 HD
ENDBRANCH   7  25
TORSDOF 6
ENDMDL
MODEL 3
REMARK VINA RESULT:    -6.329      7.483      8.903
REMARK INTER + INTRA:          -7.726
REMARK INTER:                  -8.211
REMARK INTRA:                   0.486
REMARK UNBOUND:                -0.102
REMARK SMILES Oc1cc(O)c2cc(O)c(-c3ccc(O)c(O)c3)[o+]c2c1
REMARK SMILES IDX 10 1 19 2 20 3 21 4 2 5 3 6 4 7 6 8 7 9 8 10 11 11 12 12
REMARK SMILES IDX 13 13 14 14 18 15 16 16 15 17 17 19 9 21 1 23 5 25
REMARK H PARENT 15 18 17 20 9 22 1 24 5 26
REMARK Flexibility Score: inf
ROOT
ATOM      1  C   UNL     1      84.736   2.636   7.651  1.00  0.00     0.402 A 
ATOM      2  O   UNL     1      85.110   2.408   6.394  1.00  0.00    -0.202 OA
ATOM      3  C   UNL     1      85.742   1.304   6.010  1.00  0.00     0.368 A 
ATOM      4  C   UNL     1      86.097   1.157   4.666  1.00  0.00     0.162 A 
ATOM      5  C   UNL     1      86.765   0.007   4.234  1.00  0.00     0.128 A 
ATOM      6  C   UNL     1      87.079  -1.000   5.151  1.00  0.00     0.093 A 
ATOM      7  C   UNL     1      86.734  -0.877   6.503  1.00  0.00     0.136 A 
ATOM      8  C   UNL     1      86.053   0.288   6.945  1.00  0.00     0.125 A 
ATOM      9  C   UNL     1      85.657   0.491   8.277  1.00  0.00     0.078 A 
ATOM     10  C   UNL     1      84.986   1.663   8.637  1.00  0.00     0.223 A 
ENDROOT
BRANCH   1  11
ATOM     11  C   UNL     1      84.048   3.910   7.956  1.00  0.00     0.087 A 
ATOM     12  C   UNL     1      83.675   4.195   9.279  1.00  0.00     0.022 A 
ATOM     13  C   UNL     1      83.007   5.383   9.587  1.00  0.00     0.051 A 
ATOM     14  C   UNL     1      82.688   6.296   8.578  1.00  0.00     0.157 A 
ATOM     15  C   UNL     1      83.707   4.821   6.940  1.00  0.00     0.068 A 
ATOM     16  C   UNL     1      83.036   6.013   7.246  1.00  0.00     0.158 A 
BRANCH  14  17
ATOM     17  O   UNL     1      82.023   7.475   8.915  1.00  0.00    -0.504 OA
ATOM     18  H   UNL     1      82.482   8.228   9.413  1.00  0.00     0.293 HD
ENDBRANCH  14  17
BRANCH  16  19
ATOM     19  O   UNL     1      82.708   6.913   6.233  1.00  0.00    -0.504 OA
ATOM     20  H   UNL     1      83.163   6.884   5.329  1.00  0.00     0.293 HD
ENDBRANCH  16  19
ENDBRANCH   1  11
BRANCH  10  21
ATOM     21  O   UNL     1      84.547   1.843   9.949  1.00  0.00    -0.500 OA
ATOM     22  H   UNL     1      83.569   1.993  10.168  1.00  0.00     0.294 HD
ENDBRANCH  10  21
BRANCH   5  23
ATOM     23  O   UNL     1      87.122  -0.146   2.897  1.00  0.00    -0.507 OA
ATOM     24  H   UNL     1      86.613  -0.770   2.280  1.00  0.00     0.293 HD
ENDBRANCH   5  23
BRANCH   7  25
ATOM     25  O   UNL     1      87.086  -1.926   7.355  1.00  0.00    -0.507 OA
ATOM     26  H   UNL     1      86.579  -2.178   8.191  1.00  0.00     0.293 HD
ENDBRANCH   7  25
TORSDOF 6
ENDMDL
MODEL 4
REMARK VINA RESULT:    -6.228      6.515      8.148
REMARK INTER + INTRA:          -7.604
REMARK INTER:                  -7.306
REMARK INTRA:                  -0.298
REMARK UNBOUND:                -0.102
REMARK SMILES Oc1cc(O)c2cc(O)c(-c3ccc(O)c(O)c3)[o+]c2c1
REMARK SMILES IDX 10 1 19 2 20 3 21 4 2 5 3 6 4 7 6 8 7 9 8 10 11 11 12 12
REMARK SMILES IDX 13 13 14 14 18 15 16 16 15 17 17 19 9 21 1 23 5 25
REMARK H PARENT 15 18 17 20 9 22 1 24 5 26
REMARK Flexibility Score: inf
ROOT
ATOM      1  C   UNL     1      85.288   0.987  -6.991  1.00  0.00     0.402 A 
ATOM      2  O   UNL     1      85.577   1.426  -5.768  1.00  0.00    -0.202 OA
ATOM      3  C   UNL     1      86.060   2.638  -5.523  1.00  0.00     0.368 A 
ATOM      4  C   UNL     1      86.336   3.007  -4.203  1.00  0.00     0.162 A 
ATOM      5  C   UNL     1      86.848   4.276  -3.917  1.00  0.00     0.128 A 
ATOM      6  C   UNL     1      87.086   5.180  -4.955  1.00  0.00     0.093 A 
ATOM      7  C   UNL     1      86.819   4.835  -6.286  1.00  0.00     0.136 A 
ATOM      8  C   UNL     1      86.296   3.549  -6.581  1.00  0.00     0.125 A 
ATOM      9  C   UNL     1      85.986   3.122  -7.883  1.00  0.00     0.078 A 
ATOM     10  C   UNL     1      85.470   1.840  -8.096  1.00  0.00     0.223 A 
ENDROOT
BRANCH   1  11
ATOM     11  C   UNL     1      84.764  -0.390  -7.135  1.00  0.00     0.087 A 
ATOM     12  C   UNL     1      85.654  -1.475  -7.102  1.00  0.00     0.022 A 
ATOM     13  C   UNL     1      85.184  -2.782  -7.256  1.00  0.00     0.051 A 
ATOM     14  C   UNL     1      83.822  -3.023  -7.460  1.00  0.00     0.157 A 
ATOM     15  C   UNL     1      83.397  -0.634  -7.362  1.00  0.00     0.068 A 
ATOM     16  C   UNL     1      82.924  -1.944  -7.518  1.00  0.00     0.158 A 
BRANCH  14  17
ATOM     17  O   UNL     1      83.382  -4.338  -7.608  1.00  0.00    -0.504 OA
ATOM     18  H   UNL     1      84.019  -5.101  -7.804  1.00  0.00     0.293 HD
ENDBRANCH  14  17
BRANCH  16  19
ATOM     19  O   UNL     1      81.567  -2.178  -7.736  1.00  0.00    -0.504 OA
ATOM     20  H   UNL     1      80.943  -2.431  -6.979  1.00  0.00     0.293 HD
ENDBRANCH  16  19
ENDBRANCH   1  11
BRANCH  10  21
ATOM     21  O   UNL     1      85.114   1.434  -9.382  1.00  0.00    -0.500 OA
ATOM     22  H   UNL     1      85.812   1.190 -10.075  1.00  0.00     0.294 HD
ENDBRANCH  10  21
BRANCH   5  23
ATOM     23  O   UNL     1      87.125   4.650  -2.604  1.00  0.00    -0.507 OA
ATOM     24  H   UNL     1      86.445   4.523  -1.862  1.00  0.00     0.293 HD
ENDBRANCH   5  23
BRANCH   7  25
ATOM     25  O   UNL     1      87.087   5.795  -7.266  1.00  0.00    -0.507 OA
ATOM     26  H   UNL     1      87.460   5.588  -8.180  1.00  0.00     0.293 HD
ENDBRANCH   7  25
TORSDOF 6
ENDMDL
MODEL 5
REMARK VINA RESULT:    -5.938      4.432      7.122
REMARK INTER + INTRA:          -7.255
REMARK INTER:                  -6.907
REMARK INTRA:                  -0.348
REMARK UNBOUND:                -0.102
REMARK SMILES Oc1cc(O)c2cc(O)c(-c3ccc(O)c(O)c3)[o+]c2c1
REMARK SMILES IDX 10 1 19 2 20 3 21 4 2 5 3 6 4 7 6 8 7 9 8 10 11 11 12 12
REMARK SMILES IDX 13 13 14 14 18 15 16 16 15 17 17 19 9 21 1 23 5 25
REMARK H PARENT 15 18 17 20 9 22 1 24 5 26
REMARK Flexibility Score: inf
ROOT
ATOM      1  C   UNL     1      86.012   1.102   2.717  1.00  0.00     0.402 A 
ATOM      2  O   UNL     1      85.709   1.897   3.741  1.00  0.00    -0.202 OA
ATOM      3  C   UNL     1      85.855   1.538   5.011  1.00  0.00     0.368 A 
ATOM      4  C   UNL     1      85.505   2.443   6.018  1.00  0.00     0.162 A 
ATOM      5  C   UNL     1      85.645   2.091   7.364  1.00  0.00     0.128 A 
ATOM      6  C   UNL     1      86.136   0.828   7.704  1.00  0.00     0.093 A 
ATOM      7  C   UNL     1      86.493  -0.097   6.714  1.00  0.00     0.136 A 
ATOM      8  C   UNL     1      86.355   0.257   5.347  1.00  0.00     0.125 A 
ATOM      9  C   UNL     1      86.700  -0.599   4.289  1.00  0.00     0.078 A 
ATOM     10  C   UNL     1      86.540  -0.178   2.966  1.00  0.00     0.223 A 
ENDROOT
BRANCH   1  11
ATOM     11  C   UNL     1      85.796   1.614   1.345  1.00  0.00     0.087 A 
ATOM     12  C   UNL     1      86.832   2.298   0.691  1.00  0.00     0.022 A 
ATOM     13  C   UNL     1      86.643   2.807  -0.596  1.00  0.00     0.051 A 
ATOM     14  C   UNL     1      85.414   2.654  -1.243  1.00  0.00     0.157 A 
ATOM     15  C   UNL     1      84.553   1.479   0.700  1.00  0.00     0.068 A 
ATOM     16  C   UNL     1      84.361   1.990  -0.591  1.00  0.00     0.158 A 
BRANCH  14  17
ATOM     17  O   UNL     1      85.255   3.170  -2.529  1.00  0.00    -0.504 OA
ATOM     18  H   UNL     1      84.470   3.759  -2.779  1.00  0.00     0.293 HD
ENDBRANCH  14  17
BRANCH  16  19
ATOM     19  O   UNL     1      83.128   1.846  -1.226  1.00  0.00    -0.504 OA
ATOM     20  H   UNL     1      82.734   2.586  -1.795  1.00  0.00     0.293 HD
ENDBRANCH  16  19
ENDBRANCH   1  11
BRANCH  10  21
ATOM     21  O   UNL     1      86.930  -1.009   1.915  1.00  0.00    -0.500 OA
ATOM     22  H   UNL     1      87.907  -1.176   1.702  1.00  0.00     0.294 HD
ENDBRANCH  10  21
BRANCH   5  23
ATOM     23  O   UNL     1      85.299   2.987   8.372  1.00  0.00    -0.507 OA
ATOM     24  H   UNL     1      84.634   2.739   9.096  1.00  0.00     0.293 HD
ENDBRANCH   5  23
BRANCH   7  25
ATOM     25  O   UNL     1      86.973  -1.340   7.137  1.00  0.00    -0.507 OA
ATOM     26  H   UNL     1      87.912  -1.673   6.979  1.00  0.00     0.293 HD
ENDBRANCH   7  25
TORSDOF 6
ENDMDL
MODEL 6
REMARK VINA RESULT:    -5.911      7.631      9.005
REMARK INTER + INTRA:          -7.222
REMARK INTER:                  -7.321
REMARK INTRA:                   0.099
REMARK UNBOUND:                -0.102
REMARK SMILES Oc1cc(O)c2cc(O)c(-c3ccc(O)c(O)c3)[o+]c2c1
REMARK SMILES IDX 10 1 19 2 20 3 21 4 2 5 3 6 4 7 6 8 7 9 8 10 11 11 12 12
REMARK SMILES IDX 13 13 14 14 18 15 16 16 15 17 17 19 9 21 1 23 5 25
REMARK H PARENT 15 18 17 20 9 22 1 24 5 26
REMARK Flexibility Score: inf
ROOT
ATOM      1  C   UNL     1      84.200  -0.378  -7.809  1.00  0.00     0.402 A 
ATOM      2  O   UNL     1      84.946   0.162  -6.848  1.00  0.00    -0.202 OA
ATOM      3  C   UNL     1      85.224   1.459  -6.784  1.00  0.00     0.368 A 
ATOM      4  C   UNL     1      86.021   1.933  -5.737  1.00  0.00     0.162 A 
ATOM      5  C   UNL     1      86.332   3.293  -5.646  1.00  0.00     0.128 A 
ATOM      6  C   UNL     1      85.845   4.182  -6.606  1.00  0.00     0.093 A 
ATOM      7  C   UNL     1      85.045   3.734  -7.665  1.00  0.00     0.136 A 
ATOM      8  C   UNL     1      84.724   2.355  -7.760  1.00  0.00     0.125 A 
ATOM      9  C   UNL     1      83.919   1.818  -8.778  1.00  0.00     0.078 A 
ATOM     10  C   UNL     1      83.643   0.447  -8.803  1.00  0.00     0.223 A 
ENDROOT
BRANCH   1  11
ATOM     11  C   UNL     1      83.969  -1.840  -7.777  1.00  0.00     0.087 A 
ATOM     12  C   UNL     1      83.851  -2.495  -6.542  1.00  0.00     0.022 A 
ATOM     13  C   UNL     1      83.653  -3.877  -6.487  1.00  0.00     0.051 A 
ATOM     14  C   UNL     1      83.585  -4.627  -7.664  1.00  0.00     0.157 A 
ATOM     15  C   UNL     1      83.922  -2.601  -8.960  1.00  0.00     0.068 A 
ATOM     16  C   UNL     1      83.725  -3.988  -8.908  1.00  0.00     0.158 A 
BRANCH  14  17
ATOM     17  O   UNL     1      83.385  -6.005  -7.580  1.00  0.00    -0.504 OA
ATOM     18  H   UNL     1      82.682  -6.482  -8.131  1.00  0.00     0.293 HD
ENDBRANCH  14  17
BRANCH  16  19
ATOM     19  O   UNL     1      83.673  -4.733 -10.085  1.00  0.00    -0.504 OA
ATOM     20  H   UNL     1      83.160  -5.605 -10.139  1.00  0.00     0.293 HD
ENDBRANCH  16  19
ENDBRANCH   1  11
BRANCH  10  21
ATOM     21  O   UNL     1      82.802  -0.079  -9.784  1.00  0.00    -0.500 OA
ATOM     22  H   UNL     1      82.481   0.481 -10.566  1.00  0.00     0.294 HD
ENDBRANCH  10  21
BRANCH   5  23
ATOM     23  O   UNL     1      87.125   3.771  -4.606  1.00  0.00    -0.507 OA
ATOM     24  H   UNL     1      87.197   3.277  -3.723  1.00  0.00     0.293 HD
ENDBRANCH   5  23
BRANCH   7  25
ATOM     25  O   UNL     1      84.601   4.687  -8.585  1.00  0.00    -0.507 OA
ATOM     26  H   UNL     1      84.213   5.585  -8.335  1.00  0.00     0.293 HD
ENDBRANCH   7  25
TORSDOF 6
ENDMDL
MODEL 7
REMARK VINA RESULT:    -5.834      3.923      6.511
REMARK INTER + INTRA:          -7.129
REMARK INTER:                  -6.780
REMARK INTRA:                  -0.349
REMARK UNBOUND:                -0.102
REMARK SMILES Oc1cc(O)c2cc(O)c(-c3ccc(O)c(O)c3)[o+]c2c1
REMARK SMILES IDX 10 1 19 2 20 3 21 4 2 5 3 6 4 7 6 8 7 9 8 10 11 11 12 12
REMARK SMILES IDX 13 13 14 14 18 15 16 16 15 17 17 19 9 21 1 23 5 25
REMARK H PARENT 15 18 17 20 9 22 1 24 5 26
REMARK Flexibility Score: inf
ROOT
ATOM      1  C   UNL     1      86.093   2.534  -2.506  1.00  0.00     0.402 A 
ATOM      2  O   UNL     1      85.963   1.744  -3.570  1.00  0.00    -0.202 OA
ATOM      3  C   UNL     1      86.091   2.177  -4.819  1.00  0.00     0.368 A 
ATOM      4  C   UNL     1      85.933   1.271  -5.872  1.00  0.00     0.162 A 
ATOM      5  C   UNL     1      86.060   1.699  -7.197  1.00  0.00     0.128 A 
ATOM      6  C   UNL     1      86.345   3.040  -7.469  1.00  0.00     0.093 A 
ATOM      7  C   UNL     1      86.508   3.967  -6.433  1.00  0.00     0.136 A 
ATOM      8  C   UNL     1      86.383   3.536  -5.086  1.00  0.00     0.125 A 
ATOM      9  C   UNL     1      86.543   4.392  -3.984  1.00  0.00     0.078 A 
ATOM     10  C   UNL     1      86.409   3.894  -2.685  1.00  0.00     0.223 A 
ENDROOT
BRANCH   1  11
ATOM     11  C   UNL     1      85.917   1.935  -1.164  1.00  0.00     0.087 A 
ATOM     12  C   UNL     1      86.976   1.224  -0.580  1.00  0.00     0.022 A 
ATOM     13  C   UNL     1      86.826   0.633   0.678  1.00  0.00     0.051 A 
ATOM     14  C   UNL     1      85.612   0.731   1.363  1.00  0.00     0.157 A 
ATOM     15  C   UNL     1      84.689   2.014  -0.481  1.00  0.00     0.068 A 
ATOM     16  C   UNL     1      84.535   1.421   0.780  1.00  0.00     0.158 A 
BRANCH  14  17
ATOM     17  O   UNL     1      85.491   0.133   2.617  1.00  0.00    -0.504 OA
ATOM     18  H   UNL     1      85.237   0.662   3.443  1.00  0.00     0.293 HD
ENDBRANCH  14  17
BRANCH  16  19
ATOM     19  O   UNL     1      83.317   1.509   1.452  1.00  0.00    -0.504 OA
ATOM     20  H   UNL     1      82.513   0.962   1.168  1.00  0.00     0.293 HD
ENDBRANCH  16  19
ENDBRANCH   1  11
BRANCH  10  21
ATOM     21  O   UNL     1      86.618   4.732  -1.589  1.00  0.00    -0.500 OA
ATOM     22  H   UNL     1      86.108   4.611  -0.722  1.00  0.00     0.294 HD
ENDBRANCH  10  21
BRANCH   5  23
ATOM     23  O   UNL     1      85.903   0.803  -8.250  1.00  0.00    -0.507 OA
ATOM     24  H   UNL     1      86.653   0.181  -8.534  1.00  0.00     0.293 HD
ENDBRANCH   5  23
BRANCH   7  25
ATOM     25  O   UNL     1      86.789   5.289  -6.790  1.00  0.00    -0.507 OA
ATOM     26  H   UNL     1      86.176   6.070  -6.613  1.00  0.00     0.293 HD
ENDBRANCH   7  25
TORSDOF 6
ENDMDL
MODEL 8
REMARK VINA RESULT:    -5.622      8.465     10.191
REMARK INTER + INTRA:          -6.874
REMARK INTER:                  -6.739
REMARK INTRA:                  -0.134
REMARK UNBOUND:                -0.102
REMARK SMILES Oc1cc(O)c2cc(O)c(-c3ccc(O)c(O)c3)[o+]c2c1
REMARK SMILES IDX 10 1 19 2 20 3 21 4 2 5 3 6 4 7 6 8 7 9 8 10 11 11 12 12
REMARK SMILES IDX 13 13 14 14 18 15 16 16 15 17 17 19 9 21 1 23 5 25
REMARK H PARENT 15 18 17 20 9 22 1 24 5 26
REMARK Flexibility Score: inf
ROOT
ATOM      1  C   UNL     1      84.070  -2.288  -7.556  1.00  0.00     0.402 A 
ATOM      2  O   UNL     1      84.308  -2.752  -6.331  1.00  0.00    -0.202 OA
ATOM      3  C   UNL     1      84.197  -4.034  -6.002  1.00  0.00     0.368 A 
ATOM      4  C   UNL     1      84.465  -4.425  -4.687  1.00  0.00     0.162 A 
ATOM      5  C   UNL     1      84.353  -5.767  -4.312  1.00  0.00     0.128 A 
ATOM      6  C   UNL     1      83.970  -6.722  -5.257  1.00  0.00     0.093 A 
ATOM      7  C   UNL     1      83.696  -6.357  -6.581  1.00  0.00     0.136 A 
ATOM      8  C   UNL     1      83.811  -4.996  -6.967  1.00  0.00     0.125 A 
ATOM      9  C   UNL     1      83.569  -4.541  -8.273  1.00  0.00     0.078 A 
ATOM     10  C   UNL     1      83.707  -3.184  -8.579  1.00  0.00     0.223 A 
ENDROOT
BRANCH   1  11
ATOM     11  C   UNL     1      84.219  -0.835  -7.795  1.00  0.00     0.087 A 
ATOM     12  C   UNL     1      85.415  -0.194  -7.436  1.00  0.00     0.022 A 
ATOM     13  C   UNL     1      85.570   1.180  -7.634  1.00  0.00     0.051 A 
ATOM     14  C   UNL     1      84.529   1.937  -8.180  1.00  0.00     0.157 A 
ATOM     15  C   UNL     1      83.166  -0.068  -8.325  1.00  0.00     0.068 A 
ATOM     16  C   UNL     1      83.319   1.312  -8.523  1.00  0.00     0.158 A 
BRANCH  14  17
ATOM     17  O   UNL     1      84.713   3.306  -8.369  1.00  0.00    -0.504 OA
ATOM     18  H   UNL     1      84.389   3.784  -9.201  1.00  0.00     0.293 HD
ENDBRANCH  14  17
BRANCH  16  19
ATOM     19  O   UNL     1      82.272   2.063  -9.055  1.00  0.00    -0.504 OA
ATOM     20  H   UNL     1      81.315   1.932  -8.749  1.00  0.00     0.293 HD
ENDBRANCH  16  19
ENDBRANCH   1  11
BRANCH  10  21
ATOM     21  O   UNL     1      83.517  -2.739  -9.887  1.00  0.00    -0.500 OA
ATOM     22  H   UNL     1      82.596  -2.506 -10.242  1.00  0.00     0.294 HD
ENDBRANCH  10  21
BRANCH   5  23
ATOM     23  O   UNL     1      84.618  -6.163  -3.004  1.00  0.00    -0.507 OA
ATOM     24  H   UNL     1      84.244  -7.027  -2.625  1.00  0.00     0.293 HD
ENDBRANCH   5  23
BRANCH   7  25
ATOM     25  O   UNL     1      83.317  -7.372  -7.464  1.00  0.00    -0.507 OA
ATOM     26  H   UNL     1      82.413  -7.821  -7.463  1.00  0.00     0.293 HD
ENDBRANCH   7  25
TORSDOF 6
ENDMDL
MODEL 9
REMARK VINA RESULT:    -5.499      8.412     10.315
REMARK INTER + INTRA:          -6.726
REMARK INTER:                  -6.493
REMARK INTRA:                  -0.233
REMARK UNBOUND:                -0.102
REMARK SMILES Oc1cc(O)c2cc(O)c(-c3ccc(O)c(O)c3)[o+]c2c1
REMARK SMILES IDX 10 1 19 2 20 3 21 4 2 5 3 6 4 7 6 8 7 9 8 10 11 11 12 12
REMARK SMILES IDX 13 13 14 14 18 15 16 16 15 17 17 19 9 21 1 23 5 25
REMARK H PARENT 15 18 17 20 9 22 1 24 5 26
REMARK Flexibility Score: inf
ROOT
ATOM      1  C   UNL     1      83.896   6.030   7.029  1.00  0.00     0.402 A 
ATOM      2  O   UNL     1      84.486   4.882   6.702  1.00  0.00    -0.202 OA
ATOM      3  C   UNL     1      84.248   3.735   7.328  1.00  0.00     0.368 A 
ATOM      4  C   UNL     1      84.920   2.582   6.913  1.00  0.00     0.162 A 
ATOM      5  C   UNL     1      84.692   1.362   7.556  1.00  0.00     0.128 A 
ATOM      6  C   UNL     1      83.787   1.295   8.619  1.00  0.00     0.093 A 
ATOM      7  C   UNL     1      83.101   2.436   9.054  1.00  0.00     0.136 A 
ATOM      8  C   UNL     1      83.328   3.676   8.402  1.00  0.00     0.125 A 
ATOM      9  C   UNL     1      82.676   4.867   8.761  1.00  0.00     0.078 A 
ATOM     10  C   UNL     1      82.948   6.051   8.069  1.00  0.00     0.223 A 
ENDROOT
BRANCH   1  11
ATOM     11  C   UNL     1      84.253   7.244   6.261  1.00  0.00     0.087 A 
ATOM     12  C   UNL     1      83.318   7.801   5.375  1.00  0.00     0.022 A 
ATOM     13  C   UNL     1      83.640   8.935   4.626  1.00  0.00     0.051 A 
ATOM     14  C   UNL     1      84.904   9.521   4.739  1.00  0.00     0.157 A 
ATOM     15  C   UNL     1      85.531   7.823   6.358  1.00  0.00     0.068 A 
ATOM     16  C   UNL     1      85.857   8.960   5.605  1.00  0.00     0.158 A 
BRANCH  14  17
ATOM     17  O   UNL     1      85.197  10.654   3.980  1.00  0.00    -0.504 OA
ATOM     18  H   UNL     1      84.472  11.232   3.573  1.00  0.00     0.293 HD
ENDBRANCH  14  17
BRANCH  16  19
ATOM     19  O   UNL     1      87.125   9.531   5.712  1.00  0.00    -0.504 OA
ATOM     20  H   UNL     1      87.836   9.136   6.316  1.00  0.00     0.293 HD
ENDBRANCH  16  19
ENDBRANCH   1  11
BRANCH  10  21
ATOM     21  O   UNL     1      82.264   7.223   8.391  1.00  0.00    -0.500 OA
ATOM     22  H   UNL     1      82.668   7.927   8.998  1.00  0.00     0.294 HD
ENDBRANCH  10  21
BRANCH   5  23
ATOM     23  O   UNL     1      85.358   0.209   7.149  1.00  0.00    -0.507 OA
ATOM     24  H   UNL     1      86.364   0.118   7.238  1.00  0.00     0.293 HD
ENDBRANCH   5  23
BRANCH   7  25
ATOM     25  O   UNL     1      82.215   2.286  10.125  1.00  0.00    -0.507 OA
ATOM     26  H   UNL     1      81.953   1.399  10.529  1.00  0.00     0.293 HD
ENDBRANCH   7  25
TORSDOF 6
ENDMDL
