MODEL 1
REMARK VINA RESULT:    -7.138      0.000      0.000
REMARK INTER + INTRA:          -9.003
REMARK INTER:                  -8.599
REMARK INTRA:                  -0.404
REMARK UNBOUND:                -0.404
REMARK SMILES O=c1c(O)c(-c2ccc(O)cc2O)oc2cc(O)cc(O)c12
REMARK SMILES IDX 5 1 3 2 2 3 1 4 22 5 20 6 19 7 17 8 16 9 15 10 14 11 6 12
REMARK SMILES IDX 8 13 7 14 9 15 11 16 12 17 10 18 13 20 4 22 21 24 18 26
REMARK H PARENT 10 19 13 21 4 23 21 25 18 27
REMARK Flexibility Score: inf
ROOT
ATOM      1  C   UNL     1      24.722   3.960  13.629  1.00  0.00     0.184 A 
ATOM      2  C   UNL     1      23.672   3.099  13.982  1.00  0.00     0.208 A 
ATOM      3  C   UNL     1      23.609   2.603  15.294  1.00  0.00     0.238 A 
ATOM      4  O   UNL     1      22.625   1.891  15.623  1.00  0.00    -0.285 OA
ATOM      5  C   UNL     1      24.628   2.933  16.221  1.00  0.00     0.111 A 
ATOM      6  C   UNL     1      24.690   2.455  17.565  1.00  0.00     0.134 A 
ATOM      7  C   UNL     1      25.689   2.933  18.422  1.00  0.00     0.093 A 
ATOM      8  C   UNL     1      26.664   3.824  17.969  1.00  0.00     0.123 A 
ATOM      9  C   UNL     1      26.645   4.255  16.645  1.00  0.00     0.094 A 
ATOM     10  C   UNL     1      25.640   3.825  15.774  1.00  0.00     0.146 A 
ATOM     11  O   UNL     1      25.647   4.279  14.526  1.00  0.00    -0.451 OA
ENDROOT
BRANCH   1  12
ATOM     12  C   UNL     1      24.842   4.522  12.268  1.00  0.00     0.063 A 
ATOM     13  C   UNL     1      25.854   4.415  10.059  1.00  0.00     0.047 A 
ATOM     14  C   UNL     1      25.711   3.906  11.353  1.00  0.00     0.020 A 
ATOM     15  C   UNL     1      25.141   5.552   9.668  1.00  0.00     0.119 A 
ATOM     16  C   UNL     1      24.289   6.187  10.581  1.00  0.00     0.093 A 
ATOM     17  C   UNL     1      24.145   5.685  11.884  1.00  0.00     0.130 A 
BRANCH  15  18
ATOM     18  O   UNL     1      25.289   6.045   8.374  1.00  0.00    -0.508 OA
ATOM     19  H   UNL     1      24.970   6.972   8.121  1.00  0.00     0.293 HD
ENDBRANCH  15  18
BRANCH  17  20
ATOM     20  O   UNL     1      23.332   6.355  12.799  1.00  0.00    -0.507 OA
ATOM     21  H   UNL     1      22.813   7.186  12.540  1.00  0.00     0.293 HD
ENDBRANCH  17  20
ENDBRANCH   1  12
BRANCH   2  22
ATOM     22  O   UNL     1      22.719   2.730  13.027  1.00  0.00    -0.502 OA
ATOM     23  H   UNL     1      22.924   2.080  12.278  1.00  0.00     0.293 HD
ENDBRANCH   2  22
BRANCH   6  24
ATOM     24  O   UNL     1      23.821   1.498  18.096  1.00  0.00    -0.507 OA
ATOM     25  H   UNL     1      24.059   0.841  18.824  1.00  0.00     0.293 HD
ENDBRANCH   6  24
BRANCH   8  26
ATOM     26  O   UNL     1      27.663   4.281  18.825  1.00  0.00    -0.508 OA
ATOM     27  H   UNL     1      27.568   5.152  19.334  1.00  0.00     0.293 HD
ENDBRANCH   8  26
TORSDOF 6
ENDMDL
MODEL 2
REMARK VINA RESULT:    -7.072      1.630      3.478
REMARK INTER + INTRA:          -8.923
REMARK INTER:                  -8.524
REMARK INTRA:                  -0.399
REMARK UNBOUND:                -0.404
REMARK SMILES O=c1c(O)c(-c2ccc(O)cc2O)oc2cc(O)cc(O)c12
REMARK SMILES IDX 5 1 3 2 2 3 1 4 22 5 20 6 19 7 17 8 16 9 15 10 14 11 6 12
REMARK SMILES IDX 8 13 7 14 9 15 11 16 12 17 10 18 13 20 4 22 21 24 18 26
REMARK H PARENT 10 19 13 21 4 23 21 25 18 27
REMARK Flexibility Score: inf
ROOT
ATOM      1  C   UNL     1      24.068   3.571  13.211  1.00  0.00     0.184 A 
ATOM      2  C   UNL     1      24.870   3.761  14.346  1.00  0.00     0.208 A 
ATOM      3  C   UNL     1      24.553   3.071  15.527  1.00  0.00     0.238 A 
ATOM      4  O   UNL     1      25.318   3.188  16.518  1.00  0.00    -0.285 OA
ATOM      5  C   UNL     1      23.404   2.242  15.571  1.00  0.00     0.111 A 
ATOM      6  C   UNL     1      22.961   1.529  16.726  1.00  0.00     0.134 A 
ATOM      7  C   UNL     1      21.871   0.657  16.623  1.00  0.00     0.093 A 
ATOM      8  C   UNL     1      21.168   0.519  15.423  1.00  0.00     0.123 A 
ATOM      9  C   UNL     1      21.558   1.252  14.305  1.00  0.00     0.094 A 
ATOM     10  C   UNL     1      22.666   2.102  14.366  1.00  0.00     0.146 A 
ATOM     11  O   UNL     1      23.015   2.765  13.270  1.00  0.00    -0.451 OA
ENDROOT
BRANCH   1  12
ATOM     12  C   UNL     1      24.352   4.261  11.936  1.00  0.00     0.063 A 
ATOM     13  C   UNL     1      25.782   4.516   9.986  1.00  0.00     0.047 A 
ATOM     14  C   UNL     1      25.481   3.880  11.194  1.00  0.00     0.020 A 
ATOM     15  C   UNL     1      24.968   5.547   9.511  1.00  0.00     0.119 A 
ATOM     16  C   UNL     1      23.852   5.950  10.256  1.00  0.00     0.093 A 
ATOM     17  C   UNL     1      23.546   5.321  11.473  1.00  0.00     0.130 A 
BRANCH  15  18
ATOM     18  O   UNL     1      25.278   6.169   8.304  1.00  0.00    -0.508 OA
ATOM     19  H   UNL     1      26.033   6.840   8.232  1.00  0.00     0.293 HD
ENDBRANCH  15  18
BRANCH  17  20
ATOM     20  O   UNL     1      22.461   5.765  12.229  1.00  0.00    -0.507 OA
ATOM     21  H   UNL     1      21.936   5.136  12.825  1.00  0.00     0.293 HD
ENDBRANCH  17  20
ENDBRANCH   1  12
BRANCH   2  22
ATOM     22  O   UNL     1      25.956   4.640  14.297  1.00  0.00    -0.502 OA
ATOM     23  H   UNL     1      25.890   5.560  13.879  1.00  0.00     0.293 HD
ENDBRANCH   2  22
BRANCH   6  24
ATOM     24  O   UNL     1      23.534   1.659  17.995  1.00  0.00    -0.507 OA
ATOM     25  H   UNL     1      24.203   1.019  18.395  1.00  0.00     0.293 HD
ENDBRANCH   6  24
BRANCH   8  26
ATOM     26  O   UNL     1      20.074  -0.339  15.335  1.00  0.00    -0.508 OA
ATOM     27  H   UNL     1      19.147   0.006  15.113  1.00  0.00     0.293 HD
ENDBRANCH   8  26
TORSDOF 6
ENDMDL
MODEL 3
REMARK VINA RESULT:    -7.044      4.670      7.816
REMARK INTER + INTRA:          -8.889
REMARK INTER:                  -8.480
REMARK INTRA:                  -0.409
REMARK UNBOUND:                -0.404
REMARK SMILES O=c1c(O)c(-c2ccc(O)cc2O)oc2cc(O)cc(O)c12
REMARK SMILES IDX 5 1 3 2 2 3 1 4 22 5 20 6 19 7 17 8 16 9 15 10 14 11 6 12
REMARK SMILES IDX 8 13 7 14 9 15 11 16 12 17 10 18 13 20 4 22 21 24 18 26
REMARK H PARENT 10 19 13 21 4 23 21 25 18 27
REMARK Flexibility Score: inf
ROOT
ATOM      1  C   UNL     1      24.747   1.714   8.338  1.00  0.00     0.184 A 
ATOM      2  C   UNL     1      25.407   2.598   7.471  1.00  0.00     0.208 A 
ATOM      3  C   UNL     1      25.412   3.969   7.771  1.00  0.00     0.238 A 
ATOM      4  O   UNL     1      26.067   4.747   7.031  1.00  0.00    -0.285 OA
ATOM      5  C   UNL     1      24.708   4.444   8.906  1.00  0.00     0.111 A 
ATOM      6  C   UNL     1      24.608   5.818   9.283  1.00  0.00     0.134 A 
ATOM      7  C   UNL     1      23.974   6.159  10.484  1.00  0.00     0.093 A 
ATOM      8  C   UNL     1      23.383   5.183  11.291  1.00  0.00     0.123 A 
ATOM      9  C   UNL     1      23.427   3.846  10.904  1.00  0.00     0.094 A 
ATOM     10  C   UNL     1      24.085   3.469   9.730  1.00  0.00     0.146 A 
ATOM     11  O   UNL     1      24.122   2.181   9.411  1.00  0.00    -0.451 OA
ENDROOT
BRANCH   1  12
ATOM     12  C   UNL     1      24.712   0.259   8.084  1.00  0.00     0.063 A 
ATOM     13  C   UNL     1      25.749  -1.923   8.358  1.00  0.00     0.047 A 
ATOM     14  C   UNL     1      25.748  -0.544   8.586  1.00  0.00     0.020 A 
ATOM     15  C   UNL     1      24.724  -2.515   7.617  1.00  0.00     0.119 A 
ATOM     16  C   UNL     1      23.696  -1.719   7.093  1.00  0.00     0.093 A 
ATOM     17  C   UNL     1      23.691  -0.332   7.311  1.00  0.00     0.130 A 
BRANCH  15  18
ATOM     18  O   UNL     1      24.735  -3.891   7.403  1.00  0.00    -0.508 OA
ATOM     19  H   UNL     1      24.099  -4.509   7.893  1.00  0.00     0.293 HD
ENDBRANCH  15  18
BRANCH  17  20
ATOM     20  O   UNL     1      22.691   0.456   6.742  1.00  0.00    -0.507 OA
ATOM     21  H   UNL     1      22.027   0.074   6.078  1.00  0.00     0.293 HD
ENDBRANCH  17  20
ENDBRANCH   1  12
BRANCH   2  22
ATOM     22  O   UNL     1      26.033   2.112   6.319  1.00  0.00    -0.502 OA
ATOM     23  H   UNL     1      25.542   1.556   5.629  1.00  0.00     0.293 HD
ENDBRANCH   2  22
BRANCH   6  24
ATOM     24  O   UNL     1      25.085   6.880   8.509  1.00  0.00    -0.507 OA
ATOM     25  H   UNL     1      25.483   7.730   8.877  1.00  0.00     0.293 HD
ENDBRANCH   6  24
BRANCH   8  26
ATOM     26  O   UNL     1      22.739   5.535  12.475  1.00  0.00    -0.508 OA
ATOM     27  H   UNL     1      21.827   5.976  12.473  1.00  0.00     0.293 HD
ENDBRANCH   8  26
TORSDOF 6
ENDMDL
MODEL 4
REMARK VINA RESULT:    -6.788      2.211      6.707
REMARK INTER + INTRA:          -8.581
REMARK INTER:                  -8.168
REMARK INTRA:                  -0.413
REMARK UNBOUND:                -0.404
REMARK SMILES O=c1c(O)c(-c2ccc(O)cc2O)oc2cc(O)cc(O)c12
REMARK SMILES IDX 5 1 3 2 2 3 1 4 22 5 20 6 19 7 17 8 16 9 15 10 14 11 6 12
REMARK SMILES IDX 8 13 7 14 9 15 11 16 12 17 10 18 13 20 4 22 21 24 18 26
REMARK H PARENT 10 19 13 21 4 23 21 25 18 27
REMARK Flexibility Score: inf
ROOT
ATOM      1  C   UNL     1      23.864   3.762  12.896  1.00  0.00     0.184 A 
ATOM      2  C   UNL     1      23.096   4.731  12.233  1.00  0.00     0.208 A 
ATOM      3  C   UNL     1      23.589   5.297  11.047  1.00  0.00     0.238 A 
ATOM      4  O   UNL     1      22.863   6.110  10.419  1.00  0.00    -0.285 OA
ATOM      5  C   UNL     1      24.871   4.926  10.570  1.00  0.00     0.111 A 
ATOM      6  C   UNL     1      25.491   5.467   9.403  1.00  0.00     0.134 A 
ATOM      7  C   UNL     1      26.717   4.947   8.969  1.00  0.00     0.093 A 
ATOM      8  C   UNL     1      27.375   3.950   9.693  1.00  0.00     0.123 A 
ATOM      9  C   UNL     1      26.805   3.455  10.863  1.00  0.00     0.094 A 
ATOM     10  C   UNL     1      25.564   3.926  11.302  1.00  0.00     0.146 A 
ATOM     11  O   UNL     1      25.048   3.409  12.411  1.00  0.00    -0.451 OA
ENDROOT
BRANCH   1  12
ATOM     12  C   UNL     1      23.399   3.122  14.143  1.00  0.00     0.063 A 
ATOM     13  C   UNL     1      23.426   3.046  16.574  1.00  0.00     0.047 A 
ATOM     14  C   UNL     1      23.841   3.631  15.375  1.00  0.00     0.020 A 
ATOM     15  C   UNL     1      22.575   1.938  16.558  1.00  0.00     0.119 A 
ATOM     16  C   UNL     1      22.146   1.408  15.334  1.00  0.00     0.093 A 
ATOM     17  C   UNL     1      22.564   1.986  14.125  1.00  0.00     0.130 A 
BRANCH  15  18
ATOM     18  O   UNL     1      22.165   1.368  17.761  1.00  0.00    -0.508 OA
ATOM     19  H   UNL     1      21.421   1.776  18.315  1.00  0.00     0.293 HD
ENDBRANCH  15  18
BRANCH  17  20
ATOM     20  O   UNL     1      22.171   1.419  12.913  1.00  0.00    -0.507 OA
ATOM     21  H   UNL     1      21.550   0.619  12.877  1.00  0.00     0.293 HD
ENDBRANCH  17  20
ENDBRANCH   1  12
BRANCH   2  22
ATOM     22  O   UNL     1      21.866   5.132  12.764  1.00  0.00    -0.502 OA
ATOM     23  H   UNL     1      21.231   5.741  12.262  1.00  0.00     0.293 HD
ENDBRANCH   2  22
BRANCH   6  24
ATOM     24  O   UNL     1      24.965   6.524   8.655  1.00  0.00    -0.507 OA
ATOM     25  H   UNL     1      24.023   6.566   8.297  1.00  0.00     0.293 HD
ENDBRANCH   6  24
BRANCH   8  26
ATOM     26  O   UNL     1      28.602   3.451   9.262  1.00  0.00    -0.508 OA
ATOM     27  H   UNL     1      29.445   4.013   9.299  1.00  0.00     0.293 HD
ENDBRANCH   8  26
TORSDOF 6
ENDMDL
MODEL 5
REMARK VINA RESULT:    -6.711      2.242      7.068
REMARK INTER + INTRA:          -8.489
REMARK INTER:                  -8.096
REMARK INTRA:                  -0.393
REMARK UNBOUND:                -0.404
REMARK SMILES O=c1c(O)c(-c2ccc(O)cc2O)oc2cc(O)cc(O)c12
REMARK SMILES IDX 5 1 3 2 2 3 1 4 22 5 20 6 19 7 17 8 16 9 15 10 14 11 6 12
REMARK SMILES IDX 8 13 7 14 9 15 11 16 12 17 10 18 13 20 4 22 21 24 18 26
REMARK H PARENT 10 19 13 21 4 23 21 25 18 27
REMARK Flexibility Score: inf
ROOT
ATOM      1  C   UNL     1      23.998   3.373  13.132  1.00  0.00     0.184 A 
ATOM      2  C   UNL     1      25.335   3.123  12.787  1.00  0.00     0.208 A 
ATOM      3  C   UNL     1      25.854   3.694  11.615  1.00  0.00     0.238 A 
ATOM      4  O   UNL     1      27.073   3.527  11.350  1.00  0.00    -0.285 OA
ATOM      5  C   UNL     1      25.012   4.463  10.774  1.00  0.00     0.111 A 
ATOM      6  C   UNL     1      25.418   5.055   9.539  1.00  0.00     0.134 A 
ATOM      7  C   UNL     1      24.528   5.883   8.845  1.00  0.00     0.093 A 
ATOM      8  C   UNL     1      23.226   6.092   9.307  1.00  0.00     0.123 A 
ATOM      9  C   UNL     1      22.803   5.475  10.482  1.00  0.00     0.094 A 
ATOM     10  C   UNL     1      23.679   4.673  11.218  1.00  0.00     0.146 A 
ATOM     11  O   UNL     1      23.240   4.123  12.343  1.00  0.00    -0.451 OA
ENDROOT
BRANCH   1  12
ATOM     12  C   UNL     1      23.394   2.808  14.356  1.00  0.00     0.063 A 
ATOM     13  C   UNL     1      23.281   2.760  16.785  1.00  0.00     0.047 A 
ATOM     14  C   UNL     1      23.828   3.277  15.606  1.00  0.00     0.020 A 
ATOM     15  C   UNL     1      22.306   1.761  16.729  1.00  0.00     0.119 A 
ATOM     16  C   UNL     1      21.883   1.271  15.486  1.00  0.00     0.093 A 
ATOM     17  C   UNL     1      22.431   1.780  14.299  1.00  0.00     0.130 A 
BRANCH  15  18
ATOM     18  O   UNL     1      21.767   1.259  17.911  1.00  0.00    -0.508 OA
ATOM     19  H   UNL     1      22.076   1.588  18.817  1.00  0.00     0.293 HD
ENDBRANCH  15  18
BRANCH  17  20
ATOM     20  O   UNL     1      22.038   1.249  13.070  1.00  0.00    -0.507 OA
ATOM     21  H   UNL     1      21.522   1.800  12.394  1.00  0.00     0.293 HD
ENDBRANCH  17  20
ENDBRANCH   1  12
BRANCH   2  22
ATOM     22  O   UNL     1      26.125   2.301  13.596  1.00  0.00    -0.502 OA
ATOM     23  H   UNL     1      26.272   2.488  14.581  1.00  0.00     0.293 HD
ENDBRANCH   2  22
BRANCH   6  24
ATOM     24  O   UNL     1      26.664   4.843   8.941  1.00  0.00    -0.507 OA
ATOM     25  H   UNL     1      27.225   5.558   8.504  1.00  0.00     0.293 HD
ENDBRANCH   6  24
BRANCH   8  26
ATOM     26  O   UNL     1      22.342   6.904   8.600  1.00  0.00    -0.508 OA
ATOM     27  H   UNL     1      22.607   7.831   8.290  1.00  0.00     0.293 HD
ENDBRANCH   8  26
TORSDOF 6
ENDMDL
MODEL 6
REMARK VINA RESULT:    -6.675      4.421      8.449
REMARK INTER + INTRA:          -8.446
REMARK INTER:                  -8.059
REMARK INTRA:                  -0.387
REMARK UNBOUND:                -0.404
REMARK SMILES O=c1c(O)c(-c2ccc(O)cc2O)oc2cc(O)cc(O)c12
REMARK SMILES IDX 5 1 3 2 2 3 1 4 22 5 20 6 19 7 17 8 16 9 15 10 14 11 6 12
REMARK SMILES IDX 8 13 7 14 9 15 11 16 12 17 10 18 13 20 4 22 21 24 18 26
REMARK H PARENT 10 19 13 21 4 23 21 25 18 27
REMARK Flexibility Score: inf
ROOT
ATOM      1  C   UNL     1      26.564   4.958   8.551  1.00  0.00     0.184 A 
ATOM      2  C   UNL     1      26.420   4.540   7.220  1.00  0.00     0.208 A 
ATOM      3  C   UNL     1      27.523   4.625   6.356  1.00  0.00     0.238 A 
ATOM      4  O   UNL     1      27.409   4.180   5.185  1.00  0.00    -0.285 OA
ATOM      5  C   UNL     1      28.741   5.180   6.822  1.00  0.00     0.111 A 
ATOM      6  C   UNL     1      29.912   5.356   6.023  1.00  0.00     0.134 A 
ATOM      7  C   UNL     1      31.091   5.818   6.620  1.00  0.00     0.093 A 
ATOM      8  C   UNL     1      31.127   6.169   7.972  1.00  0.00     0.123 A 
ATOM      9  C   UNL     1      29.976   6.053   8.746  1.00  0.00     0.094 A 
ATOM     10  C   UNL     1      28.793   5.560   8.190  1.00  0.00     0.146 A 
ATOM     11  O   UNL     1      27.726   5.445   8.971  1.00  0.00    -0.451 OA
ENDROOT
BRANCH   1  12
ATOM     12  C   UNL     1      25.445   4.887   9.513  1.00  0.00     0.063 A 
ATOM     13  C   UNL     1      24.286   3.659  11.263  1.00  0.00     0.047 A 
ATOM     14  C   UNL     1      25.336   3.762  10.346  1.00  0.00     0.020 A 
ATOM     15  C   UNL     1      23.326   4.671  11.350  1.00  0.00     0.119 A 
ATOM     16  C   UNL     1      23.414   5.787  10.507  1.00  0.00     0.093 A 
ATOM     17  C   UNL     1      24.462   5.895   9.579  1.00  0.00     0.130 A 
BRANCH  15  18
ATOM     18  O   UNL     1      22.288   4.558  12.272  1.00  0.00    -0.508 OA
ATOM     19  H   UNL     1      21.614   3.804  12.221  1.00  0.00     0.293 HD
ENDBRANCH  15  18
BRANCH  17  20
ATOM     20  O   UNL     1      24.510   6.986   8.711  1.00  0.00    -0.507 OA
ATOM     21  H   UNL     1      25.156   7.016   7.931  1.00  0.00     0.293 HD
ENDBRANCH  17  20
ENDBRANCH   1  12
BRANCH   2  22
ATOM     22  O   UNL     1      25.187   4.063   6.766  1.00  0.00    -0.502 OA
ATOM     23  H   UNL     1      24.356   4.643   6.744  1.00  0.00     0.293 HD
ENDBRANCH   2  22
BRANCH   6  24
ATOM     24  O   UNL     1      29.963   5.121   4.646  1.00  0.00    -0.507 OA
ATOM     25  H   UNL     1      30.654   4.551   4.183  1.00  0.00     0.293 HD
ENDBRANCH   6  24
BRANCH   8  26
ATOM     26  O   UNL     1      32.301   6.644   8.552  1.00  0.00    -0.508 OA
ATOM     27  H   UNL     1      33.107   6.893   7.991  1.00  0.00     0.293 HD
ENDBRANCH   8  26
TORSDOF 6
ENDMDL
MODEL 7
REMARK VINA RESULT:    -6.532      5.475      8.856
REMARK INTER + INTRA:          -8.272
REMARK INTER:                  -7.962
REMARK INTRA:                  -0.311
REMARK UNBOUND:                -0.404
REMARK SMILES O=c1c(O)c(-c2ccc(O)cc2O)oc2cc(O)cc(O)c12
REMARK SMILES IDX 5 1 3 2 2 3 1 4 22 5 20 6 19 7 17 8 16 9 15 10 14 11 6 12
REMARK SMILES IDX 8 13 7 14 9 15 11 16 12 17 10 18 13 20 4 22 21 24 18 26
REMARK H PARENT 10 19 13 21 4 23 21 25 18 27
REMARK Flexibility Score: inf
ROOT
ATOM      1  C   UNL     1      24.946   0.717   7.495  1.00  0.00     0.184 A 
ATOM      2  C   UNL     1      25.980   1.122   6.637  1.00  0.00     0.208 A 
ATOM      3  C   UNL     1      26.525   2.407   6.786  1.00  0.00     0.238 A 
ATOM      4  O   UNL     1      27.500   2.736   6.062  1.00  0.00    -0.285 OA
ATOM      5  C   UNL     1      25.991   3.290   7.756  1.00  0.00     0.111 A 
ATOM      6  C   UNL     1      26.435   4.630   7.967  1.00  0.00     0.134 A 
ATOM      7  C   UNL     1      25.903   5.375   9.027  1.00  0.00     0.093 A 
ATOM      8  C   UNL     1      24.899   4.851   9.845  1.00  0.00     0.123 A 
ATOM      9  C   UNL     1      24.420   3.565   9.613  1.00  0.00     0.094 A 
ATOM     10  C   UNL     1      24.957   2.782   8.587  1.00  0.00     0.146 A 
ATOM     11  O   UNL     1      24.485   1.553   8.417  1.00  0.00    -0.451 OA
ENDROOT
BRANCH   1  12
ATOM     12  C   UNL     1      24.335  -0.624   7.396  1.00  0.00     0.063 A 
ATOM     13  C   UNL     1      22.385  -1.986   6.890  1.00  0.00     0.047 A 
ATOM     14  C   UNL     1      22.996  -0.733   6.988  1.00  0.00     0.020 A 
ATOM     15  C   UNL     1      23.098  -3.144   7.210  1.00  0.00     0.119 A 
ATOM     16  C   UNL     1      24.428  -3.044   7.640  1.00  0.00     0.093 A 
ATOM     17  C   UNL     1      25.047  -1.789   7.747  1.00  0.00     0.130 A 
BRANCH  15  18
ATOM     18  O   UNL     1      22.478  -4.386   7.103  1.00  0.00    -0.508 OA
ATOM     19  H   UNL     1      21.894  -4.620   6.309  1.00  0.00     0.293 HD
ENDBRANCH  15  18
BRANCH  17  20
ATOM     20  O   UNL     1      26.355  -1.700   8.224  1.00  0.00    -0.507 OA
ATOM     21  H   UNL     1      27.151  -1.692   7.596  1.00  0.00     0.293 HD
ENDBRANCH  17  20
ENDBRANCH   1  12
BRANCH   2  22
ATOM     22  O   UNL     1      26.440   0.257   5.639  1.00  0.00    -0.502 OA
ATOM     23  H   UNL     1      26.845   0.593   4.774  1.00  0.00     0.293 HD
ENDBRANCH   2  22
BRANCH   6  24
ATOM     24  O   UNL     1      27.368   5.283   7.156  1.00  0.00    -0.507 OA
ATOM     25  H   UNL     1      27.447   6.284   7.056  1.00  0.00     0.293 HD
ENDBRANCH   6  24
BRANCH   8  26
ATOM     26  O   UNL     1      24.365   5.607  10.886  1.00  0.00    -0.508 OA
ATOM     27  H   UNL     1      23.966   6.524  10.725  1.00  0.00     0.293 HD
ENDBRANCH   8  26
TORSDOF 6
ENDMDL
MODEL 8
REMARK VINA RESULT:    -6.499      1.836      2.038
REMARK INTER + INTRA:          -8.233
REMARK INTER:                  -7.830
REMARK INTRA:                  -0.403
REMARK UNBOUND:                -0.404
REMARK SMILES O=c1c(O)c(-c2ccc(O)cc2O)oc2cc(O)cc(O)c12
REMARK SMILES IDX 5 1 3 2 2 3 1 4 22 5 20 6 19 7 17 8 16 9 15 10 14 11 6 12
REMARK SMILES IDX 8 13 7 14 9 15 11 16 12 17 10 18 13 20 4 22 21 24 18 26
REMARK H PARENT 10 19 13 21 4 23 21 25 18 27
REMARK Flexibility Score: inf
ROOT
ATOM      1  C   UNL     1      23.473   3.316  13.750  1.00  0.00     0.184 A 
ATOM      2  C   UNL     1      22.777   2.102  13.648  1.00  0.00     0.208 A 
ATOM      3  C   UNL     1      22.403   1.430  14.822  1.00  0.00     0.238 A 
ATOM      4  O   UNL     1      21.716   0.381  14.725  1.00  0.00    -0.285 OA
ATOM      5  C   UNL     1      22.779   1.955  16.083  1.00  0.00     0.111 A 
ATOM      6  C   UNL     1      22.492   1.338  17.339  1.00  0.00     0.134 A 
ATOM      7  C   UNL     1      22.820   2.004  18.526  1.00  0.00     0.093 A 
ATOM      8  C   UNL     1      23.481   3.234  18.505  1.00  0.00     0.123 A 
ATOM      9  C   UNL     1      23.814   3.819  17.286  1.00  0.00     0.094 A 
ATOM     10  C   UNL     1      23.467   3.198  16.083  1.00  0.00     0.146 A 
ATOM     11  O   UNL     1      23.785   3.802  14.945  1.00  0.00    -0.451 OA
ENDROOT
BRANCH   1  12
ATOM     12  C   UNL     1      23.888   4.075  12.553  1.00  0.00     0.063 A 
ATOM     13  C   UNL     1      25.554   4.488  10.830  1.00  0.00     0.047 A 
ATOM     14  C   UNL     1      25.126   3.784  11.959  1.00  0.00     0.020 A 
ATOM     15  C   UNL     1      24.757   5.499  10.288  1.00  0.00     0.119 A 
ATOM     16  C   UNL     1      23.529   5.813  10.887  1.00  0.00     0.093 A 
ATOM     17  C   UNL     1      23.096   5.115  12.025  1.00  0.00     0.130 A 
BRANCH  15  18
ATOM     18  O   UNL     1      25.192   6.189   9.159  1.00  0.00    -0.508 OA
ATOM     19  H   UNL     1      25.883   5.796   8.531  1.00  0.00     0.293 HD
ENDBRANCH  15  18
BRANCH  17  20
ATOM     20  O   UNL     1      21.896   5.471  12.642  1.00  0.00    -0.507 OA
ATOM     21  H   UNL     1      21.744   6.403  13.009  1.00  0.00     0.293 HD
ENDBRANCH  17  20
ENDBRANCH   1  12
BRANCH   2  22
ATOM     22  O   UNL     1      22.483   1.568  12.390  1.00  0.00    -0.502 OA
ATOM     23  H   UNL     1      21.795   1.982  11.772  1.00  0.00     0.293 HD
ENDBRANCH   2  22
BRANCH   6  24
ATOM     24  O   UNL     1      21.915   0.072  17.476  1.00  0.00    -0.507 OA
ATOM     25  H   UNL     1      21.019  -0.198  17.100  1.00  0.00     0.293 HD
ENDBRANCH   6  24
BRANCH   8  26
ATOM     26  O   UNL     1      23.819   3.880  19.692  1.00  0.00    -0.508 OA
ATOM     27  H   UNL     1      24.710   3.720  20.148  1.00  0.00     0.293 HD
ENDBRANCH   8  26
TORSDOF 6
ENDMDL
MODEL 9
REMARK VINA RESULT:    -6.484      2.189      7.422
REMARK INTER + INTRA:          -8.215
REMARK INTER:                  -7.797
REMARK INTRA:                  -0.418
REMARK UNBOUND:                -0.404
REMARK SMILES O=c1c(O)c(-c2ccc(O)cc2O)oc2cc(O)cc(O)c12
REMARK SMILES IDX 5 1 3 2 2 3 1 4 22 5 20 6 19 7 17 8 16 9 15 10 14 11 6 12
REMARK SMILES IDX 8 13 7 14 9 15 11 16 12 17 10 18 13 20 4 22 21 24 18 26
REMARK H PARENT 10 19 13 21 4 23 21 25 18 27
REMARK Flexibility Score: inf
ROOT
ATOM      1  C   UNL     1      24.147   3.376  11.799  1.00  0.00     0.184 A 
ATOM      2  C   UNL     1      25.104   2.686  11.040  1.00  0.00     0.208 A 
ATOM      3  C   UNL     1      25.243   2.993   9.677  1.00  0.00     0.238 A 
ATOM      4  O   UNL     1      26.152   2.424   9.020  1.00  0.00    -0.285 OA
ATOM      5  C   UNL     1      24.384   3.949   9.080  1.00  0.00     0.111 A 
ATOM      6  C   UNL     1      24.405   4.309   7.698  1.00  0.00     0.134 A 
ATOM      7  C   UNL     1      23.579   5.343   7.242  1.00  0.00     0.093 A 
ATOM      8  C   UNL     1      22.688   5.989   8.103  1.00  0.00     0.123 A 
ATOM      9  C   UNL     1      22.621   5.608   9.440  1.00  0.00     0.094 A 
ATOM     10  C   UNL     1      23.459   4.605   9.935  1.00  0.00     0.146 A 
ATOM     11  O   UNL     1      23.376   4.289  11.222  1.00  0.00    -0.451 OA
ENDROOT
BRANCH   1  12
ATOM     12  C   UNL     1      23.956   3.106  13.239  1.00  0.00     0.063 A 
ATOM     13  C   UNL     1      22.753   1.919  14.987  1.00  0.00     0.047 A 
ATOM     14  C   UNL     1      22.965   2.193  13.633  1.00  0.00     0.020 A 
ATOM     15  C   UNL     1      23.518   2.561  15.964  1.00  0.00     0.119 A 
ATOM     16  C   UNL     1      24.495   3.491  15.581  1.00  0.00     0.093 A 
ATOM     17  C   UNL     1      24.709   3.776  14.224  1.00  0.00     0.130 A 
BRANCH  15  18
ATOM     18  O   UNL     1      23.300   2.275  17.309  1.00  0.00    -0.508 OA
ATOM     19  H   UNL     1      23.055   1.342  17.619  1.00  0.00     0.293 HD
ENDBRANCH  15  18
BRANCH  17  20
ATOM     20  O   UNL     1      25.649   4.741  13.858  1.00  0.00    -0.507 OA
ATOM     21  H   UNL     1      26.551   4.804  14.315  1.00  0.00     0.293 HD
ENDBRANCH  17  20
ENDBRANCH   1  12
BRANCH   2  22
ATOM     22  O   UNL     1      25.890   1.696  11.637  1.00  0.00    -0.502 OA
ATOM     23  H   UNL     1      26.541   1.898  12.387  1.00  0.00     0.293 HD
ENDBRANCH   2  22
BRANCH   6  24
ATOM     24  O   UNL     1      25.191   3.670   6.734  1.00  0.00    -0.507 OA
ATOM     25  H   UNL     1      26.140   3.921   6.503  1.00  0.00     0.293 HD
ENDBRANCH   6  24
BRANCH   8  26
ATOM     26  O   UNL     1      21.858   7.005   7.635  1.00  0.00    -0.508 OA
ATOM     27  H   UNL     1      20.986   7.233   8.098  1.00  0.00     0.293 HD
ENDBRANCH   8  26
TORSDOF 6
ENDMDL
