MODEL 1
REMARK VINA RESULT:    -5.707      0.000      0.000
REMARK INTER + INTRA:          -6.040
REMARK INTER:                  -6.040
REMARK INTRA:                   0.000
REMARK UNBOUND:                 0.000
REMARK SMILES O=c1ccc2cc(O)c(O)cc2o1
REMARK SMILES IDX 4 1 3 2 2 3 1 4 13 5 12 6 11 7 9 8 7 9 6 10 5 11 8 12 10 14
REMARK H PARENT 8 13 10 15
REMARK Flexibility Score: inf
ROOT
ATOM      1  C   UNL     1      19.231  -1.357 -18.742  1.00  0.00     0.019 A 
ATOM      2  C   UNL     1      19.048  -0.868 -17.448  1.00  0.00     0.094 A 
ATOM      3  C   UNL     1      19.686   0.319 -17.076  1.00  0.00     0.336 A 
ATOM      4  O   UNL     1      19.533   0.776 -15.913  1.00  0.00    -0.246 OA
ATOM      5  O   UNL     1      20.456   0.971 -17.944  1.00  0.00    -0.423 OA
ATOM      6  C   UNL     1      20.657   0.539 -19.187  1.00  0.00     0.142 A 
ATOM      7  C   UNL     1      21.477   1.267 -20.055  1.00  0.00     0.098 A 
ATOM      8  C   UNL     1      21.693   0.820 -21.364  1.00  0.00     0.161 A 
ATOM      9  C   UNL     1      21.084  -0.366 -21.812  1.00  0.00     0.158 A 
ATOM     10  C   UNL     1      20.261  -1.100 -20.943  1.00  0.00     0.062 A 
ATOM     11  C   UNL     1      20.045  -0.651 -19.634  1.00  0.00     0.022 A 
ENDROOT
BRANCH   9  12
ATOM     12  O   UNL     1      21.299  -0.812 -23.114  1.00  0.00    -0.504 OA
ATOM     13  H   UNL     1      21.299  -0.173 -23.901  1.00  0.00     0.293 HD
ENDBRANCH   9  12
BRANCH   8  14
ATOM     14  O   UNL     1      22.517   1.568 -22.206  1.00  0.00    -0.504 OA
ATOM     15  H   UNL     1      22.254   1.788 -23.159  1.00  0.00     0.293 HD
ENDBRANCH   8  14
TORSDOF 2
ENDMDL
MODEL 2
REMARK VINA RESULT:    -5.400      1.037      4.504
REMARK INTER + INTRA:          -5.716
REMARK INTER:                  -5.716
REMARK INTRA:                   0.000
REMARK UNBOUND:                 0.000
REMARK SMILES O=c1ccc2cc(O)c(O)cc2o1
REMARK SMILES IDX 4 1 3 2 2 3 1 4 13 5 12 6 11 7 9 8 7 9 6 10 5 11 8 12 10 14
REMARK H PARENT 8 13 10 15
REMARK Flexibility Score: inf
ROOT
ATOM      1  C   UNL     1      20.255  -1.054 -21.402  1.00  0.00     0.019 A 
ATOM      2  C   UNL     1      21.039  -0.414 -22.362  1.00  0.00     0.094 A 
ATOM      3  C   UNL     1      21.810   0.689 -21.981  1.00  0.00     0.336 A 
ATOM      4  O   UNL     1      22.524   1.280 -22.834  1.00  0.00    -0.246 OA
ATOM      5  O   UNL     1      21.794   1.121 -20.723  1.00  0.00    -0.423 OA
ATOM      6  C   UNL     1      21.060   0.539 -19.776  1.00  0.00     0.142 A 
ATOM      7  C   UNL     1      21.084   1.037 -18.470  1.00  0.00     0.098 A 
ATOM      8  C   UNL     1      20.316   0.431 -17.469  1.00  0.00     0.161 A 
ATOM      9  C   UNL     1      19.515  -0.685 -17.775  1.00  0.00     0.158 A 
ATOM     10  C   UNL     1      19.488  -1.187 -19.085  1.00  0.00     0.062 A 
ATOM     11  C   UNL     1      20.258  -0.580 -20.086  1.00  0.00     0.022 A 
ENDROOT
BRANCH   9  12
ATOM     12  O   UNL     1      18.750  -1.288 -16.779  1.00  0.00    -0.504 OA
ATOM     13  H   UNL     1      18.732  -2.295 -16.659  1.00  0.00     0.293 HD
ENDBRANCH   9  12
BRANCH   8  14
ATOM     14  O   UNL     1      20.361   0.951 -16.175  1.00  0.00    -0.504 OA
ATOM     15  H   UNL     1      19.722   1.673 -15.863  1.00  0.00     0.293 HD
ENDBRANCH   8  14
TORSDOF 2
ENDMDL
MODEL 3
REMARK VINA RESULT:    -5.350      1.107      2.256
REMARK INTER + INTRA:          -5.662
REMARK INTER:                  -5.662
REMARK INTRA:                   0.000
REMARK UNBOUND:                 0.000
REMARK SMILES O=c1ccc2cc(O)c(O)cc2o1
REMARK SMILES IDX 4 1 3 2 2 3 1 4 13 5 12 6 11 7 9 8 7 9 6 10 5 11 8 12 10 14
REMARK H PARENT 8 13 10 15
REMARK Flexibility Score: inf
ROOT
ATOM      1  C   UNL     1      20.617   0.968 -17.665  1.00  0.00     0.019 A 
ATOM      2  C   UNL     1      19.800   0.260 -16.784  1.00  0.00     0.094 A 
ATOM      3  C   UNL     1      19.125  -0.875 -17.248  1.00  0.00     0.336 A 
ATOM      4  O   UNL     1      18.383  -1.527 -16.468  1.00  0.00    -0.246 OA
ATOM      5  O   UNL     1      19.261  -1.270 -18.511  1.00  0.00    -0.423 OA
ATOM      6  C   UNL     1      20.031  -0.623 -19.384  1.00  0.00     0.142 A 
ATOM      7  C   UNL     1      20.137  -1.086 -20.699  1.00  0.00     0.098 A 
ATOM      8  C   UNL     1      20.944  -0.412 -21.623  1.00  0.00     0.161 A 
ATOM      9  C   UNL     1      21.654   0.737 -21.230  1.00  0.00     0.158 A 
ATOM     10  C   UNL     1      21.550   1.205 -19.911  1.00  0.00     0.062 A 
ATOM     11  C   UNL     1      20.742   0.529 -18.988  1.00  0.00     0.022 A 
ENDROOT
BRANCH   9  12
ATOM     12  O   UNL     1      22.457   1.409 -22.149  1.00  0.00    -0.504 OA
ATOM     13  H   UNL     1      23.267   0.968 -22.569  1.00  0.00     0.293 HD
ENDBRANCH   9  12
BRANCH   8  14
ATOM     14  O   UNL     1      21.027  -0.898 -22.928  1.00  0.00    -0.504 OA
ATOM     15  H   UNL     1      21.860  -1.357 -23.279  1.00  0.00     0.293 HD
ENDBRANCH   8  14
TORSDOF 2
ENDMDL
MODEL 4
REMARK VINA RESULT:    -5.278     16.618     18.145
REMARK INTER + INTRA:          -5.587
REMARK INTER:                  -5.587
REMARK INTRA:                   0.000
REMARK UNBOUND:                 0.000
REMARK SMILES O=c1ccc2cc(O)c(O)cc2o1
REMARK SMILES IDX 4 1 3 2 2 3 1 4 13 5 12 6 11 7 9 8 7 9 6 10 5 11 8 12 10 14
REMARK H PARENT 8 13 10 15
REMARK Flexibility Score: inf
ROOT
ATOM      1  C   UNL     1      10.181  -7.414 -10.103  1.00  0.00     0.019 A 
ATOM      2  C   UNL     1       9.378  -8.108 -11.008  1.00  0.00     0.094 A 
ATOM      3  C   UNL     1       8.014  -8.250 -10.733  1.00  0.00     0.336 A 
ATOM      4  O   UNL     1       7.273  -8.873 -11.538  1.00  0.00    -0.246 OA
ATOM      5  O   UNL     1       7.492  -7.731  -9.624  1.00  0.00    -0.423 OA
ATOM      6  C   UNL     1       8.223  -7.062  -8.735  1.00  0.00     0.142 A 
ATOM      7  C   UNL     1       7.619  -6.537  -7.588  1.00  0.00     0.098 A 
ATOM      8  C   UNL     1       8.380  -5.832  -6.648  1.00  0.00     0.161 A 
ATOM      9  C   UNL     1       9.759  -5.648  -6.856  1.00  0.00     0.158 A 
ATOM     10  C   UNL     1      10.369  -6.173  -8.006  1.00  0.00     0.062 A 
ATOM     11  C   UNL     1       9.606  -6.878  -8.946  1.00  0.00     0.022 A 
ENDROOT
BRANCH   9  12
ATOM     12  O   UNL     1      10.517  -4.947  -5.920  1.00  0.00    -0.504 OA
ATOM     13  H   UNL     1      11.299  -4.364  -6.200  1.00  0.00     0.293 HD
ENDBRANCH   9  12
BRANCH   8  14
ATOM     14  O   UNL     1       7.748  -5.322  -5.513  1.00  0.00    -0.504 OA
ATOM     15  H   UNL     1       7.757  -4.334  -5.291  1.00  0.00     0.293 HD
ENDBRANCH   8  14
TORSDOF 2
ENDMDL
MODEL 5
REMARK VINA RESULT:    -5.223     16.138     17.820
REMARK INTER + INTRA:          -5.528
REMARK INTER:                  -5.528
REMARK INTRA:                   0.000
REMARK UNBOUND:                 0.000
REMARK SMILES O=c1ccc2cc(O)c(O)cc2o1
REMARK SMILES IDX 4 1 3 2 2 3 1 4 13 5 12 6 11 7 9 8 7 9 6 10 5 11 8 12 10 14
REMARK H PARENT 8 13 10 15
REMARK Flexibility Score: inf
ROOT
ATOM      1  C   UNL     1       7.711  -8.011  -9.864  1.00  0.00     0.019 A 
ATOM      2  C   UNL     1       8.447  -8.560 -10.914  1.00  0.00     0.094 A 
ATOM      3  C   UNL     1       9.825  -8.328 -10.969  1.00  0.00     0.336 A 
ATOM      4  O   UNL     1      10.506  -8.815 -11.910  1.00  0.00    -0.246 OA
ATOM      5  O   UNL     1      10.423  -7.594 -10.035  1.00  0.00    -0.423 OA
ATOM      6  C   UNL     1       9.758  -7.052  -9.016  1.00  0.00     0.142 A 
ATOM      7  C   UNL     1      10.440  -6.291  -8.063  1.00  0.00     0.098 A 
ATOM      8  C   UNL     1       9.748  -5.718  -6.989  1.00  0.00     0.161 A 
ATOM      9  C   UNL     1       8.360  -5.908  -6.865  1.00  0.00     0.158 A 
ATOM     10  C   UNL     1       7.671  -6.671  -7.821  1.00  0.00     0.062 A 
ATOM     11  C   UNL     1       8.365  -7.244  -8.895  1.00  0.00     0.022 A 
ENDROOT
BRANCH   9  12
ATOM     12  O   UNL     1       7.670  -5.337  -5.797  1.00  0.00    -0.504 OA
ATOM     13  H   UNL     1       7.357  -4.373  -5.821  1.00  0.00     0.293 HD
ENDBRANCH   9  12
BRANCH   8  14
ATOM     14  O   UNL     1      10.457  -4.963  -6.054  1.00  0.00    -0.504 OA
ATOM     15  H   UNL     1      11.381  -5.231  -5.735  1.00  0.00     0.293 HD
ENDBRANCH   8  14
TORSDOF 2
ENDMDL
MODEL 6
REMARK VINA RESULT:    -5.080     17.155     19.548
REMARK INTER + INTRA:          -5.377
REMARK INTER:                  -5.377
REMARK INTRA:                   0.000
REMARK UNBOUND:                 0.000
REMARK SMILES O=c1ccc2cc(O)c(O)cc2o1
REMARK SMILES IDX 4 1 3 2 2 3 1 4 13 5 12 6 11 7 9 8 7 9 6 10 5 11 8 12 10 14
REMARK H PARENT 8 13 10 15
REMARK Flexibility Score: inf
ROOT
ATOM      1  C   UNL     1       7.876  -9.031  -8.318  1.00  0.00     0.019 A 
ATOM      2  C   UNL     1       8.099  -8.699  -9.654  1.00  0.00     0.094 A 
ATOM      3  C   UNL     1       8.323  -7.360  -9.991  1.00  0.00     0.336 A 
ATOM      4  O   UNL     1       8.526  -7.040 -11.192  1.00  0.00    -0.246 OA
ATOM      5  O   UNL     1       8.323  -6.418  -9.051  1.00  0.00    -0.423 OA
ATOM      6  C   UNL     1       8.115  -6.693  -7.765  1.00  0.00     0.142 A 
ATOM      7  C   UNL     1       8.127  -5.662  -6.820  1.00  0.00     0.098 A 
ATOM      8  C   UNL     1       7.909  -5.942  -5.466  1.00  0.00     0.161 A 
ATOM      9  C   UNL     1       7.677  -7.265  -5.050  1.00  0.00     0.158 A 
ATOM     10  C   UNL     1       7.664  -8.303  -5.995  1.00  0.00     0.062 A 
ATOM     11  C   UNL     1       7.882  -8.021  -7.350  1.00  0.00     0.022 A 
ENDROOT
BRANCH   9  12
ATOM     12  O   UNL     1       7.460  -7.545  -3.702  1.00  0.00    -0.504 OA
ATOM     13  H   UNL     1       6.601  -7.275  -3.235  1.00  0.00     0.293 HD
ENDBRANCH   9  12
BRANCH   8  14
ATOM     14  O   UNL     1       7.927  -4.891  -4.548  1.00  0.00    -0.504 OA
ATOM     15  H   UNL     1       7.629  -3.955  -4.796  1.00  0.00     0.293 HD
ENDBRANCH   8  14
TORSDOF 2
ENDMDL
MODEL 7
REMARK VINA RESULT:    -5.047     16.012     17.451
REMARK INTER + INTRA:          -5.342
REMARK INTER:                  -5.342
REMARK INTRA:                   0.000
REMARK UNBOUND:                 0.000
REMARK SMILES O=c1ccc2cc(O)c(O)cc2o1
REMARK SMILES IDX 4 1 3 2 2 3 1 4 13 5 12 6 11 7 9 8 7 9 6 10 5 11 8 12 10 14
REMARK H PARENT 8 13 10 15
REMARK Flexibility Score: inf
ROOT
ATOM      1  C   UNL     1       8.226  -8.139  -8.295  1.00  0.00     0.019 A 
ATOM      2  C   UNL     1       8.135  -7.755  -6.957  1.00  0.00     0.094 A 
ATOM      3  C   UNL     1       7.946  -6.404  -6.651  1.00  0.00     0.336 A 
ATOM      4  O   UNL     1       7.862  -6.038  -5.449  1.00  0.00    -0.246 OA
ATOM      5  O   UNL     1       7.856  -5.498  -7.623  1.00  0.00    -0.423 OA
ATOM      6  C   UNL     1       7.937  -5.822  -8.911  1.00  0.00     0.142 A 
ATOM      7  C   UNL     1       7.834  -4.828  -9.889  1.00  0.00     0.098 A 
ATOM      8  C   UNL     1       7.918  -5.160 -11.246  1.00  0.00     0.161 A 
ATOM      9  C   UNL     1       8.107  -6.500 -11.632  1.00  0.00     0.158 A 
ATOM     10  C   UNL     1       8.212  -7.501 -10.654  1.00  0.00     0.062 A 
ATOM     11  C   UNL     1       8.127  -7.167  -9.296  1.00  0.00     0.022 A 
ENDROOT
BRANCH   9  12
ATOM     12  O   UNL     1       8.192  -6.831 -12.983  1.00  0.00    -0.504 OA
ATOM     13  H   UNL     1       7.570  -7.513 -13.403  1.00  0.00     0.293 HD
ENDBRANCH   9  12
BRANCH   8  14
ATOM     14  O   UNL     1       7.812  -4.145 -12.198  1.00  0.00    -0.504 OA
ATOM     15  H   UNL     1       7.543  -4.332 -13.157  1.00  0.00     0.293 HD
ENDBRANCH   8  14
TORSDOF 2
ENDMDL
MODEL 8
REMARK VINA RESULT:    -4.942     15.968     17.558
REMARK INTER + INTRA:          -5.230
REMARK INTER:                  -5.230
REMARK INTRA:                   0.000
REMARK UNBOUND:                 0.000
REMARK SMILES O=c1ccc2cc(O)c(O)cc2o1
REMARK SMILES IDX 4 1 3 2 2 3 1 4 13 5 12 6 11 7 9 8 7 9 6 10 5 11 8 12 10 14
REMARK H PARENT 8 13 10 15
REMARK Flexibility Score: inf
ROOT
ATOM      1  C   UNL     1       7.863  -5.505  -7.621  1.00  0.00     0.019 A 
ATOM      2  C   UNL     1       7.960  -6.557  -6.710  1.00  0.00     0.094 A 
ATOM      3  C   UNL     1       8.115  -7.860  -7.193  1.00  0.00     0.336 A 
ATOM      4  O   UNL     1       8.205  -8.822  -6.385  1.00  0.00    -0.246 OA
ATOM      5  O   UNL     1       8.168  -8.092  -8.502  1.00  0.00    -0.423 OA
ATOM      6  C   UNL     1       8.079  -7.118  -9.405  1.00  0.00     0.142 A 
ATOM      7  C   UNL     1       8.141  -7.422 -10.769  1.00  0.00     0.098 A 
ATOM      8  C   UNL     1       8.049  -6.404 -11.725  1.00  0.00     0.161 A 
ATOM      9  C   UNL     1       7.892  -5.067 -11.316  1.00  0.00     0.158 A 
ATOM     10  C   UNL     1       7.829  -4.758  -9.948  1.00  0.00     0.062 A 
ATOM     11  C   UNL     1       7.922  -5.778  -8.992  1.00  0.00     0.022 A 
ENDROOT
BRANCH   9  12
ATOM     12  O   UNL     1       7.800  -4.053 -12.266  1.00  0.00    -0.504 OA
ATOM     13  H   UNL     1       8.537  -3.366 -12.384  1.00  0.00     0.293 HD
ENDBRANCH   9  12
BRANCH   8  14
ATOM     14  O   UNL     1       8.114  -6.739 -13.077  1.00  0.00    -0.504 OA
ATOM     15  H   UNL     1       8.962  -7.091 -13.504  1.00  0.00     0.293 HD
ENDBRANCH   8  14
TORSDOF 2
ENDMDL
MODEL 9
REMARK VINA RESULT:    -4.936     17.430     19.576
REMARK INTER + INTRA:          -5.225
REMARK INTER:                  -5.225
REMARK INTRA:                   0.000
REMARK UNBOUND:                 0.000
REMARK SMILES O=c1ccc2cc(O)c(O)cc2o1
REMARK SMILES IDX 4 1 3 2 2 3 1 4 13 5 12 6 11 7 9 8 7 9 6 10 5 11 8 12 10 14
REMARK H PARENT 8 13 10 15
REMARK Flexibility Score: inf
ROOT
ATOM      1  C   UNL     1       8.262  -5.911  -9.193  1.00  0.00     0.019 A 
ATOM      2  C   UNL     1       8.237  -6.834 -10.239  1.00  0.00     0.094 A 
ATOM      3  C   UNL     1       8.033  -8.186  -9.945  1.00  0.00     0.336 A 
ATOM      4  O   UNL     1       8.008  -9.034 -10.876  1.00  0.00    -0.246 OA
ATOM      5  O   UNL     1       7.867  -8.585  -8.687  1.00  0.00    -0.423 OA
ATOM      6  C   UNL     1       7.883  -7.738  -7.660  1.00  0.00     0.142 A 
ATOM      7  C   UNL     1       7.701  -8.215  -6.358  1.00  0.00     0.098 A 
ATOM      8  C   UNL     1       7.717  -7.331  -5.273  1.00  0.00     0.161 A 
ATOM      9  C   UNL     1       7.916  -5.955  -5.489  1.00  0.00     0.158 A 
ATOM     10  C   UNL     1       8.099  -5.472  -6.794  1.00  0.00     0.062 A 
ATOM     11  C   UNL     1       8.083  -6.359  -7.879  1.00  0.00     0.022 A 
ENDROOT
BRANCH   9  12
ATOM     12  O   UNL     1       7.933  -5.075  -4.409  1.00  0.00    -0.504 OA
ATOM     13  H   UNL     1       8.607  -4.320  -4.350  1.00  0.00     0.293 HD
ENDBRANCH   9  12
BRANCH   8  14
ATOM     14  O   UNL     1       7.533  -7.838  -3.986  1.00  0.00    -0.504 OA
ATOM     15  H   UNL     1       6.981  -7.352  -3.290  1.00  0.00     0.293 HD
ENDBRANCH   8  14
TORSDOF 2
ENDMDL
