MODEL 1
REMARK VINA RESULT:    35.970      0.000      0.000
REMARK INTER + INTRA:          43.455
REMARK INTER:                  43.330
REMARK INTRA:                   0.125
REMARK UNBOUND:                 0.125
REMARK SMILES O=c1c(O)c(-c2ccc(O)c(O)c2)oc2cc(O)cc(O)c12
REMARK SMILES IDX 5 1 3 2 2 3 1 4 22 5 20 6 19 7 17 8 16 9 15 10 14 11 6 12
REMARK SMILES IDX 7 13 8 14 9 15 13 16 11 17 10 18 12 20 4 22 21 24 18 26
REMARK H PARENT 10 19 12 21 4 23 21 25 18 27
REMARK Flexibility Score: inf
ROOT
ATOM      1  C   UNL     1      10.832   9.160  16.503  1.00  0.00     0.180 A 
ATOM      2  C   UNL     1      10.741   7.760  16.590  1.00  0.00     0.208 A 
ATOM      3  C   UNL     1       9.564   7.125  16.162  1.00  0.00     0.238 A 
ATOM      4  O   UNL     1       9.468   5.877  16.293  1.00  0.00    -0.285 OA
ATOM      5  C   UNL     1       8.499   7.896  15.638  1.00  0.00     0.111 A 
ATOM      6  C   UNL     1       7.276   7.355  15.137  1.00  0.00     0.134 A 
ATOM      7  C   UNL     1       6.241   8.220  14.764  1.00  0.00     0.093 A 
ATOM      8  C   UNL     1       6.407   9.607  14.811  1.00  0.00     0.123 A 
ATOM      9  C   UNL     1       7.618  10.143  15.241  1.00  0.00     0.094 A 
ATOM     10  C   UNL     1       8.656   9.307  15.656  1.00  0.00     0.146 A 
ATOM     11  O   UNL     1       9.790   9.860  16.069  1.00  0.00    -0.452 OA
ENDROOT
BRANCH   1  12
ATOM     12  C   UNL     1      12.049   9.898  16.912  1.00  0.00     0.025 A 
ATOM     13  C   UNL     1      11.921  11.151  17.532  1.00  0.00     0.016 A 
ATOM     14  C   UNL     1      13.056  11.873  17.906  1.00  0.00     0.051 A 
ATOM     15  C   UNL     1      14.334  11.365  17.654  1.00  0.00     0.157 A 
ATOM     16  C   UNL     1      13.334   9.397  16.640  1.00  0.00     0.062 A 
ATOM     17  C   UNL     1      14.475  10.122  17.014  1.00  0.00     0.158 A 
BRANCH  15  18
ATOM     18  O   UNL     1      15.449  12.107  18.042  1.00  0.00    -0.504 OA
ATOM     19  H   UNL     1      15.739  12.942  17.547  1.00  0.00     0.293 HD
ENDBRANCH  15  18
BRANCH  17  20
ATOM     20  O   UNL     1      15.746   9.616  16.746  1.00  0.00    -0.504 OA
ATOM     21  H   UNL     1      15.903   8.625  16.595  1.00  0.00     0.293 HD
ENDBRANCH  17  20
ENDBRANCH   1  12
BRANCH   2  22
ATOM     22  O   UNL     1      11.796   7.020  17.131  1.00  0.00    -0.502 OA
ATOM     23  H   UNL     1      11.985   6.062  16.859  1.00  0.00     0.293 HD
ENDBRANCH   2  22
BRANCH   6  24
ATOM     24  O   UNL     1       7.042   5.988  14.963  1.00  0.00    -0.507 OA
ATOM     25  H   UNL     1       6.245   5.490  15.328  1.00  0.00     0.293 HD
ENDBRANCH   6  24
BRANCH   8  26
ATOM     26  O   UNL     1       5.375  10.460  14.422  1.00  0.00    -0.508 OA
ATOM     27  H   UNL     1       4.407  10.165  14.445  1.00  0.00     0.293 HD
ENDBRANCH   8  26
TORSDOF 6
ENDMDL
