MODEL 1
REMARK VINA RESULT:    -3.707      0.000      0.000
REMARK INTER + INTRA:          -7.420
REMARK INTER:                  -5.874
REMARK INTRA:                  -1.545
REMARK UNBOUND:                -1.545
REMARK SMILES CCCCCCCCCCCC(=O)[O-]
REMARK SMILES IDX 7 1 8 2 9 3 10 4 11 5 12 6 13 7 14 8 6 9 5 10 4 11 3 12 2 13
REMARK SMILES IDX 1 14
REMARK H PARENT
REMARK Flexibility Score: inf
ROOT
ATOM      1  C   UNL     1      32.495   8.227  28.242  1.00  0.00     0.000 C 
ENDROOT
BRANCH   1   2
ATOM      2  C   UNL     1      31.613   9.276  27.553  1.00  0.00     0.000 C 
BRANCH   2   3
ATOM      3  C   UNL     1      30.150   9.147  28.003  1.00  0.00     0.000 C 
BRANCH   3   4
ATOM      4  C   UNL     1      29.449  10.508  28.138  1.00  0.00     0.006 C 
BRANCH   4   5
ATOM      5  C   UNL     1      28.796  10.703  29.512  1.00  0.00     0.053 C 
BRANCH   5   6
ATOM      6  C   UNL     1      29.577  11.684  30.327  1.00  0.00     0.041 C 
ATOM      7  O   UNL     1      29.397  11.761  31.571  1.00  0.00    -0.550 OA
ATOM      8  O   UNL     1      30.540  12.481  29.721  1.00  0.00    -0.550 OA
ENDBRANCH   5   6
ENDBRANCH   4   5
ENDBRANCH   3   4
ENDBRANCH   2   3
ENDBRANCH   1   2
BRANCH   1   9
ATOM      9  C   UNL     1      33.409   8.879  29.290  1.00  0.00     0.000 C 
BRANCH   9  10
ATOM     10  C   UNL     1      33.174   8.329  30.706  1.00  0.00    -0.000 C 
BRANCH  10  11
ATOM     11  C   UNL     1      32.104   9.116  31.477  1.00  0.00    -0.000 C 
BRANCH  11  12
ATOM     12  C   UNL     1      30.790   8.324  31.554  1.00  0.00    -0.000 C 
BRANCH  12  13
ATOM     13  C   UNL     1      30.998   6.814  31.367  1.00  0.00    -0.003 C 
ATOM     14  C   UNL     1      30.096   6.222  30.284  1.00  0.00     0.004 C 
ENDBRANCH  12  13
ENDBRANCH  11  12
ENDBRANCH  10  11
ENDBRANCH   9  10
ENDBRANCH   1   9
TORSDOF 10
ENDMDL
MODEL 2
REMARK VINA RESULT:    -3.635      1.784      2.993
REMARK INTER + INTRA:          -7.305
REMARK INTER:                  -5.937
REMARK INTRA:                  -1.367
REMARK UNBOUND:                -1.545
REMARK SMILES CCCCCCCCCCCC(=O)[O-]
REMARK SMILES IDX 7 1 8 2 9 3 10 4 11 5 12 6 13 7 14 8 6 9 5 10 4 11 3 12 2 13
REMARK SMILES IDX 1 14
REMARK H PARENT
REMARK Flexibility Score: inf
ROOT
ATOM      1  C   UNL     1      30.287   7.511  29.457  1.00  0.00     0.000 C 
ENDROOT
BRANCH   1   2
ATOM      2  C   UNL     1      31.564   7.880  28.693  1.00  0.00     0.000 C 
BRANCH   2   3
ATOM      3  C   UNL     1      31.563   9.366  28.303  1.00  0.00     0.000 C 
BRANCH   3   4
ATOM      4  C   UNL     1      30.911  10.258  29.371  1.00  0.00     0.006 C 
BRANCH   4   5
ATOM      5  C   UNL     1      30.264  11.515  28.776  1.00  0.00     0.053 C 
BRANCH   5   6
ATOM      6  C   UNL     1      28.901  11.198  28.246  1.00  0.00     0.041 C 
ATOM      7  O   UNL     1      27.909  11.170  29.021  1.00  0.00    -0.550 OA
ATOM      8  O   UNL     1      28.717  10.983  26.886  1.00  0.00    -0.550 OA
ENDBRANCH   5   6
ENDBRANCH   4   5
ENDBRANCH   3   4
ENDBRANCH   2   3
ENDBRANCH   1   2
BRANCH   1   9
ATOM      9  C   UNL     1      30.615   6.703  30.721  1.00  0.00     0.000 C 
BRANCH   9  10
ATOM     10  C   UNL     1      31.024   7.594  31.904  1.00  0.00    -0.000 C 
BRANCH  10  11
ATOM     11  C   UNL     1      32.468   7.345  32.363  1.00  0.00    -0.000 C 
BRANCH  11  12
ATOM     12  C   UNL     1      33.360   8.555  32.049  1.00  0.00    -0.000 C 
BRANCH  12  13
ATOM     13  C   UNL     1      34.443   8.236  31.006  1.00  0.00    -0.003 C 
ATOM     14  C   UNL     1      34.778   9.432  30.116  1.00  0.00     0.004 C 
ENDBRANCH  12  13
ENDBRANCH  11  12
ENDBRANCH  10  11
ENDBRANCH   9  10
ENDBRANCH   1   9
TORSDOF 10
ENDMDL
MODEL 3
REMARK VINA RESULT:    -3.596      1.675      2.154
REMARK INTER + INTRA:          -7.244
REMARK INTER:                  -5.993
REMARK INTRA:                  -1.251
REMARK UNBOUND:                -1.545
REMARK SMILES CCCCCCCCCCCC(=O)[O-]
REMARK SMILES IDX 7 1 8 2 9 3 10 4 11 5 12 6 13 7 14 8 6 9 5 10 4 11 3 12 2 13
REMARK SMILES IDX 1 14
REMARK H PARENT
REMARK Flexibility Score: inf
ROOT
ATOM      1  C   UNL     1      33.244   9.215  29.664  1.00  0.00     0.000 C 
ENDROOT
BRANCH   1   2
ATOM      2  C   UNL     1      32.744   8.507  28.398  1.00  0.00     0.000 C 
BRANCH   2   3
ATOM      3  C   UNL     1      31.337   8.991  28.016  1.00  0.00     0.000 C 
BRANCH   3   4
ATOM      4  C   UNL     1      30.679   9.831  29.122  1.00  0.00     0.006 C 
BRANCH   4   5
ATOM      5  C   UNL     1      30.285  11.234  28.644  1.00  0.00     0.053 C 
BRANCH   5   6
ATOM      6  C   UNL     1      28.900  11.224  28.080  1.00  0.00     0.041 C 
ATOM      7  O   UNL     1      28.722  11.145  26.835  1.00  0.00    -0.550 OA
ATOM      8  O   UNL     1      27.802  11.252  28.931  1.00  0.00    -0.550 OA
ENDBRANCH   5   6
ENDBRANCH   4   5
ENDBRANCH   3   4
ENDBRANCH   2   3
ENDBRANCH   1   2
BRANCH   1   9
ATOM      9  C   UNL     1      34.580   8.622  30.135  1.00  0.00     0.000 C 
BRANCH   9  10
ATOM     10  C   UNL     1      34.468   7.919  31.497  1.00  0.00    -0.000 C 
BRANCH  10  11
ATOM     11  C   UNL     1      33.220   8.346  32.284  1.00  0.00    -0.000 C 
BRANCH  11  12
ATOM     12  C   UNL     1      32.269   7.157  32.492  1.00  0.00    -0.000 C 
BRANCH  12  13
ATOM     13  C   UNL     1      30.895   7.378  31.842  1.00  0.00    -0.003 C 
ATOM     14  C   UNL     1      30.607   6.386  30.716  1.00  0.00     0.004 C 
ENDBRANCH  12  13
ENDBRANCH  11  12
ENDBRANCH  10  11
ENDBRANCH   9  10
ENDBRANCH   1   9
TORSDOF 10
ENDMDL
MODEL 4
REMARK VINA RESULT:    -3.580      2.562      4.529
REMARK INTER + INTRA:          -7.218
REMARK INTER:                  -5.814
REMARK INTRA:                  -1.404
REMARK UNBOUND:                -1.545
REMARK SMILES CCCCCCCCCCCC(=O)[O-]
REMARK SMILES IDX 7 1 8 2 9 3 10 4 11 5 12 6 13 7 14 8 6 9 5 10 4 11 3 12 2 13
REMARK SMILES IDX 1 14
REMARK H PARENT
REMARK Flexibility Score: inf
ROOT
ATOM      1  C   UNL     1      29.548  11.175  28.221  1.00  0.00     0.000 C 
ENDROOT
BRANCH   1   2
ATOM      2  C   UNL     1      29.973   9.790  27.717  1.00  0.00     0.000 C 
BRANCH   2   3
ATOM      3  C   UNL     1      31.423   9.479  28.116  1.00  0.00     0.000 C 
BRANCH   3   4
ATOM      4  C   UNL     1      31.540   8.225  28.996  1.00  0.00     0.006 C 
BRANCH   4   5
ATOM      5  C   UNL     1      30.253   7.390  29.009  1.00  0.00     0.053 C 
BRANCH   5   6
ATOM      6  C   UNL     1      30.279   6.408  30.136  1.00  0.00     0.041 C 
ATOM      7  O   UNL     1      29.651   5.320  30.044  1.00  0.00    -0.550 OA
ATOM      8  O   UNL     1      31.037   6.671  31.270  1.00  0.00    -0.550 OA
ENDBRANCH   5   6
ENDBRANCH   4   5
ENDBRANCH   3   4
ENDBRANCH   2   3
ENDBRANCH   1   2
BRANCH   1   9
ATOM      9  C   UNL     1      28.179  11.112  28.915  1.00  0.00     0.000 C 
BRANCH   9  10
ATOM     10  C   UNL     1      28.202  11.722  30.325  1.00  0.00    -0.000 C 
BRANCH  10  11
ATOM     11  C   UNL     1      29.622  11.835  30.900  1.00  0.00    -0.000 C 
BRANCH  11  12
ATOM     12  C   UNL     1      29.858  10.780  31.991  1.00  0.00    -0.000 C 
BRANCH  12  13
ATOM     13  C   UNL     1      31.293  10.233  31.984  1.00  0.00    -0.003 C 
ATOM     14  C   UNL     1      32.291  11.196  31.342  1.00  0.00     0.004 C 
ENDBRANCH  12  13
ENDBRANCH  11  12
ENDBRANCH  10  11
ENDBRANCH   9  10
ENDBRANCH   1   9
TORSDOF 10
ENDMDL
MODEL 5
REMARK VINA RESULT:    -3.558      1.448      2.398
REMARK INTER + INTRA:          -7.184
REMARK INTER:                  -5.603
REMARK INTRA:                  -1.580
REMARK UNBOUND:                -1.545
REMARK SMILES CCCCCCCCCCCC(=O)[O-]
REMARK SMILES IDX 7 1 8 2 9 3 10 4 11 5 12 6 13 7 14 8 6 9 5 10 4 11 3 12 2 13
REMARK SMILES IDX 1 14
REMARK H PARENT
REMARK Flexibility Score: inf
ROOT
ATOM      1  C   UNL     1      31.319   7.817  29.088  1.00  0.00     0.000 C 
ENDROOT
BRANCH   1   2
ATOM      2  C   UNL     1      30.102   8.705  28.800  1.00  0.00     0.000 C 
BRANCH   2   3
ATOM      3  C   UNL     1      30.460   9.826  27.813  1.00  0.00     0.000 C 
BRANCH   3   4
ATOM      4  C   UNL     1      30.015  11.212  28.305  1.00  0.00     0.006 C 
BRANCH   4   5
ATOM      5  C   UNL     1      28.553  11.234  28.767  1.00  0.00     0.053 C 
BRANCH   5   6
ATOM      6  C   UNL     1      28.386  12.160  29.930  1.00  0.00     0.041 C 
ATOM      7  O   UNL     1      29.211  13.093  30.120  1.00  0.00    -0.550 OA
ATOM      8  O   UNL     1      27.294  12.025  30.777  1.00  0.00    -0.550 OA
ENDBRANCH   5   6
ENDBRANCH   4   5
ENDBRANCH   3   4
ENDBRANCH   2   3
ENDBRANCH   1   2
BRANCH   1   9
ATOM      9  C   UNL     1      32.585   8.389  28.432  1.00  0.00     0.000 C 
BRANCH   9  10
ATOM     10  C   UNL     1      33.645   8.813  29.461  1.00  0.00    -0.000 C 
BRANCH  10  11
ATOM     11  C   UNL     1      33.033   9.212  30.812  1.00  0.00    -0.000 C 
BRANCH  11  12
ATOM     12  C   UNL     1      32.966  10.740  30.954  1.00  0.00    -0.000 C 
BRANCH  12  13
ATOM     13  C   UNL     1      31.687  11.212  31.662  1.00  0.00    -0.003 C 
ATOM     14  C   UNL     1      30.772  10.056  32.064  1.00  0.00     0.004 C 
ENDBRANCH  12  13
ENDBRANCH  11  12
ENDBRANCH  10  11
ENDBRANCH   9  10
ENDBRANCH   1   9
TORSDOF 10
ENDMDL
MODEL 6
REMARK VINA RESULT:    -3.555      2.570      4.464
REMARK INTER + INTRA:          -7.178
REMARK INTER:                  -5.602
REMARK INTRA:                  -1.576
REMARK UNBOUND:                -1.545
REMARK SMILES CCCCCCCCCCCC(=O)[O-]
REMARK SMILES IDX 7 1 8 2 9 3 10 4 11 5 12 6 13 7 14 8 6 9 5 10 4 11 3 12 2 13
REMARK SMILES IDX 1 14
REMARK H PARENT
REMARK Flexibility Score: inf
ROOT
ATOM      1  C   UNL     1      32.215  10.059  31.481  1.00  0.00     0.000 C 
ENDROOT
BRANCH   1   2
ATOM      2  C   UNL     1      33.017   9.465  30.317  1.00  0.00     0.000 C 
BRANCH   2   3
ATOM      3  C   UNL     1      32.168   9.404  29.038  1.00  0.00     0.000 C 
BRANCH   3   4
ATOM      4  C   UNL     1      31.736   7.973  28.682  1.00  0.00     0.006 C 
BRANCH   4   5
ATOM      5  C   UNL     1      30.309   7.654  29.145  1.00  0.00     0.053 C 
BRANCH   5   6
ATOM      6  C   UNL     1      30.319   6.528  30.130  1.00  0.00     0.041 C 
ATOM      7  O   UNL     1      29.678   5.471  29.892  1.00  0.00    -0.550 OA
ATOM      8  O   UNL     1      31.077   6.626  31.290  1.00  0.00    -0.550 OA
ENDBRANCH   5   6
ENDBRANCH   4   5
ENDBRANCH   3   4
ENDBRANCH   2   3
ENDBRANCH   1   2
BRANCH   1   9
ATOM      9  C   UNL     1      32.080  11.583  31.336  1.00  0.00     0.000 C 
BRANCH   9  10
ATOM     10  C   UNL     1      30.622  12.035  31.160  1.00  0.00    -0.000 C 
BRANCH  10  11
ATOM     11  C   UNL     1      29.623  10.874  31.281  1.00  0.00    -0.000 C 
BRANCH  11  12
ATOM     12  C   UNL     1      28.658  10.853  30.086  1.00  0.00    -0.000 C 
BRANCH  12  13
ATOM     13  C   UNL     1      29.176  11.673  28.895  1.00  0.00    -0.003 C 
ATOM     14  C   UNL     1      29.048  10.931  27.565  1.00  0.00     0.004 C 
ENDBRANCH  12  13
ENDBRANCH  11  12
ENDBRANCH  10  11
ENDBRANCH   9  10
ENDBRANCH   1   9
TORSDOF 10
ENDMDL
MODEL 7
REMARK VINA RESULT:    -3.505      1.517      2.685
REMARK INTER + INTRA:          -7.099
REMARK INTER:                  -5.801
REMARK INTRA:                  -1.298
REMARK UNBOUND:                -1.545
REMARK SMILES CCCCCCCCCCCC(=O)[O-]
REMARK SMILES IDX 7 1 8 2 9 3 10 4 11 5 12 6 13 7 14 8 6 9 5 10 4 11 3 12 2 13
REMARK SMILES IDX 1 14
REMARK H PARENT
REMARK Flexibility Score: inf
ROOT
ATOM      1  C   UNL     1      32.891   9.880  31.347  1.00  0.00     0.000 C 
ENDROOT
BRANCH   1   2
ATOM      2  C   UNL     1      32.589  11.381  31.434  1.00  0.00     0.000 C 
BRANCH   2   3
ATOM      3  C   UNL     1      31.294  11.726  30.683  1.00  0.00     0.000 C 
BRANCH   3   4
ATOM      4  C   UNL     1      30.036  11.228  31.411  1.00  0.00     0.006 C 
BRANCH   4   5
ATOM      5  C   UNL     1      28.928  10.791  30.445  1.00  0.00     0.053 C 
BRANCH   5   6
ATOM      6  C   UNL     1      28.492  11.943  29.595  1.00  0.00     0.041 C 
ATOM      7  O   UNL     1      28.185  13.042  30.127  1.00  0.00    -0.550 OA
ATOM      8  O   UNL     1      28.471  11.818  28.212  1.00  0.00    -0.550 OA
ENDBRANCH   5   6
ENDBRANCH   4   5
ENDBRANCH   3   4
ENDBRANCH   2   3
ENDBRANCH   1   2
BRANCH   1   9
ATOM      9  C   UNL     1      33.666   9.548  30.063  1.00  0.00     0.000 C 
BRANCH   9  10
ATOM     10  C   UNL     1      33.001   8.433  29.241  1.00  0.00    -0.000 C 
BRANCH  10  11
ATOM     11  C   UNL     1      31.902   8.961  28.306  1.00  0.00    -0.000 C 
BRANCH  11  12
ATOM     12  C   UNL     1      30.610   8.144  28.463  1.00  0.00    -0.000 C 
BRANCH  12  13
ATOM     13  C   UNL     1      30.472   7.517  29.858  1.00  0.00    -0.003 C 
ATOM     14  C   UNL     1      29.774   6.158  29.830  1.00  0.00     0.004 C 
ENDBRANCH  12  13
ENDBRANCH  11  12
ENDBRANCH  10  11
ENDBRANCH   9  10
ENDBRANCH   1   9
TORSDOF 10
ENDMDL
MODEL 8
REMARK VINA RESULT:    -3.456      2.970      5.260
REMARK INTER + INTRA:          -7.021
REMARK INTER:                  -5.843
REMARK INTRA:                  -1.178
REMARK UNBOUND:                -1.545
REMARK SMILES CCCCCCCCCCCC(=O)[O-]
REMARK SMILES IDX 7 1 8 2 9 3 10 4 11 5 12 6 13 7 14 8 6 9 5 10 4 11 3 12 2 13
REMARK SMILES IDX 1 14
REMARK H PARENT
REMARK Flexibility Score: inf
ROOT
ATOM      1  C   UNL     1      30.614   6.595  30.532  1.00  0.00     0.000 C 
ENDROOT
BRANCH   1   2
ATOM      2  C   UNL     1      31.117   6.936  31.939  1.00  0.00     0.000 C 
BRANCH   2   3
ATOM      3  C   UNL     1      31.945   8.230  31.929  1.00  0.00     0.000 C 
BRANCH   3   4
ATOM      4  C   UNL     1      33.456   7.966  31.826  1.00  0.00     0.006 C 
BRANCH   4   5
ATOM      5  C   UNL     1      34.089   8.629  30.597  1.00  0.00     0.053 C 
BRANCH   5   6
ATOM      6  C   UNL     1      35.569   8.410  30.590  1.00  0.00     0.041 C 
ATOM      7  O   UNL     1      36.055   7.349  31.063  1.00  0.00    -0.550 OA
ATOM      8  O   UNL     1      36.409   9.357  30.017  1.00  0.00    -0.550 OA
ENDBRANCH   5   6
ENDBRANCH   4   5
ENDBRANCH   3   4
ENDBRANCH   2   3
ENDBRANCH   1   2
BRANCH   1   9
ATOM      9  C   UNL     1      30.208   7.865  29.770  1.00  0.00     0.000 C 
BRANCH   9  10
ATOM     10  C   UNL     1      30.919   7.995  28.413  1.00  0.00    -0.000 C 
BRANCH  10  11
ATOM     11  C   UNL     1      31.386   9.429  28.124  1.00  0.00    -0.000 C 
BRANCH  11  12
ATOM     12  C   UNL     1      30.812  10.412  29.155  1.00  0.00    -0.000 C 
BRANCH  12  13
ATOM     13  C   UNL     1      29.971  11.523  28.508  1.00  0.00    -0.003 C 
ATOM     14  C   UNL     1      28.895  10.980  27.568  1.00  0.00     0.004 C 
ENDBRANCH  12  13
ENDBRANCH  11  12
ENDBRANCH  10  11
ENDBRANCH   9  10
ENDBRANCH   1   9
TORSDOF 10
ENDMDL
MODEL 9
REMARK VINA RESULT:    -3.413      1.394      2.734
REMARK INTER + INTRA:          -6.953
REMARK INTER:                  -5.663
REMARK INTRA:                  -1.291
REMARK UNBOUND:                -1.545
REMARK SMILES CCCCCCCCCCCC(=O)[O-]
REMARK SMILES IDX 7 1 8 2 9 3 10 4 11 5 12 6 13 7 14 8 6 9 5 10 4 11 3 12 2 13
REMARK SMILES IDX 1 14
REMARK H PARENT
REMARK Flexibility Score: inf
ROOT
ATOM      1  C   UNL     1      29.499  10.491  27.368  1.00  0.00     0.000 C 
ENDROOT
BRANCH   1   2
ATOM      2  C   UNL     1      28.424  11.307  28.095  1.00  0.00     0.000 C 
BRANCH   2   3
ATOM      3  C   UNL     1      28.454  11.034  29.606  1.00  0.00     0.000 C 
BRANCH   3   4
ATOM      4  C   UNL     1      28.946  12.243  30.417  1.00  0.00     0.006 C 
BRANCH   4   5
ATOM      5  C   UNL     1      30.432  12.144  30.783  1.00  0.00     0.053 C 
BRANCH   5   6
ATOM      6  C   UNL     1      30.592  11.887  32.248  1.00  0.00     0.041 C 
ATOM      7  O   UNL     1      31.387  12.585  32.931  1.00  0.00    -0.550 OA
ATOM      8  O   UNL     1      29.828  10.908  32.870  1.00  0.00    -0.550 OA
ENDBRANCH   5   6
ENDBRANCH   4   5
ENDBRANCH   3   4
ENDBRANCH   2   3
ENDBRANCH   1   2
BRANCH   1   9
ATOM      9  C   UNL     1      29.930   9.277  28.206  1.00  0.00     0.000 C 
BRANCH   9  10
ATOM     10  C   UNL     1      31.457   9.134  28.299  1.00  0.00    -0.000 C 
BRANCH  10  11
ATOM     11  C   UNL     1      31.945   8.922  29.740  1.00  0.00    -0.000 C 
BRANCH  11  12
ATOM     12  C   UNL     1      30.817   8.373  30.626  1.00  0.00    -0.000 C 
BRANCH  12  13
ATOM     13  C   UNL     1      30.900   6.851  30.813  1.00  0.00    -0.003 C 
ATOM     14  C   UNL     1      29.806   6.101  30.052  1.00  0.00     0.004 C 
ENDBRANCH  12  13
ENDBRANCH  11  12
ENDBRANCH  10  11
ENDBRANCH   9  10
ENDBRANCH   1   9
TORSDOF 10
ENDMDL
