MODEL 1
REMARK VINA RESULT:    -5.315      0.000      0.000
REMARK INTER + INTRA:          -6.241
REMARK INTER:                  -6.092
REMARK INTRA:                  -0.149
REMARK UNBOUND:                -0.149
REMARK SMILES O=C([O-])C=Cc1ccc(O)cc1
REMARK SMILES IDX 6 1 7 2 12 3 8 4 11 5 9 6 5 7 4 8 2 9 1 10 3 11 10 12
REMARK H PARENT 10 13
REMARK Flexibility Score: inf
ROOT
ATOM      1  C   UNL     1     -15.392 -10.730 -15.487  1.00  0.00    -0.025 A 
ATOM      2  C   UNL     1     -16.291 -11.039 -16.528  1.00  0.00     0.012 A 
ATOM      3  C   UNL     1     -15.900 -10.525 -14.193  1.00  0.00     0.012 A 
ATOM      4  C   UNL     1     -17.666 -11.113 -16.279  1.00  0.00     0.047 A 
ATOM      5  C   UNL     1     -17.274 -10.599 -13.947  1.00  0.00     0.047 A 
ATOM      6  C   UNL     1     -18.160 -10.891 -14.988  1.00  0.00     0.115 A 
ENDROOT
BRANCH   1   7
ATOM      7  C   UNL     1     -13.926 -10.650 -15.696  1.00  0.00     0.010 C 
ATOM      8  C   UNL     1     -13.090  -9.999 -14.873  1.00  0.00     0.025 C 
BRANCH   8   9
ATOM      9  C   UNL     1     -11.637  -9.951 -15.106  1.00  0.00     0.064 C 
ATOM     10  O   UNL     1     -10.820 -10.292 -14.209  1.00  0.00    -0.545 OA
ATOM     11  O   UNL     1     -11.157  -9.523 -16.337  1.00  0.00    -0.545 OA
ENDBRANCH   8   9
ENDBRANCH   1   7
BRANCH   6  12
ATOM     12  O   UNL     1     -19.527 -10.962 -14.728  1.00  0.00    -0.508 OA
ATOM     13  H   UNL     1     -20.210 -10.609 -15.387  1.00  0.00     0.293 HD
ENDBRANCH   6  12
TORSDOF 3
ENDMDL
MODEL 2
REMARK VINA RESULT:    -5.191      0.713      1.542
REMARK INTER + INTRA:          -6.098
REMARK INTER:                  -5.965
REMARK INTRA:                  -0.133
REMARK UNBOUND:                -0.149
REMARK SMILES O=C([O-])C=Cc1ccc(O)cc1
REMARK SMILES IDX 6 1 7 2 12 3 8 4 11 5 9 6 5 7 4 8 2 9 1 10 3 11 10 12
REMARK H PARENT 10 13
REMARK Flexibility Score: inf
ROOT
ATOM      1  C   UNL     1     -15.459 -10.396 -15.729  1.00  0.00    -0.025 A 
ATOM      2  C   UNL     1     -15.978  -9.896 -14.517  1.00  0.00     0.012 A 
ATOM      3  C   UNL     1     -16.322 -11.077 -16.605  1.00  0.00     0.012 A 
ATOM      4  C   UNL     1     -17.322 -10.099 -14.185  1.00  0.00     0.047 A 
ATOM      5  C   UNL     1     -17.664 -11.278 -16.270  1.00  0.00     0.047 A 
ATOM      6  C   UNL     1     -18.167 -10.793 -15.059  1.00  0.00     0.115 A 
ENDROOT
BRANCH   1   7
ATOM      7  C   UNL     1     -14.046 -10.199 -16.134  1.00  0.00     0.010 C 
ATOM      8  C   UNL     1     -12.997 -10.586 -15.393  1.00  0.00     0.025 C 
BRANCH   8   9
ATOM      9  C   UNL     1     -11.607 -10.384 -15.834  1.00  0.00     0.064 C 
ATOM     10  O   UNL     1     -10.764  -9.812 -15.092  1.00  0.00    -0.545 OA
ATOM     11  O   UNL     1     -11.216 -10.834 -17.088  1.00  0.00    -0.545 OA
ENDBRANCH   8   9
ENDBRANCH   1   7
BRANCH   6  12
ATOM     12  O   UNL     1     -19.507 -11.000 -14.738  1.00  0.00    -0.508 OA
ATOM     13  H   UNL     1     -20.202 -10.277 -14.878  1.00  0.00     0.293 HD
ENDBRANCH   6  12
TORSDOF 3
ENDMDL
MODEL 3
REMARK VINA RESULT:    -5.109     12.469     13.222
REMARK INTER + INTRA:          -6.005
REMARK INTER:                  -5.853
REMARK INTRA:                  -0.152
REMARK UNBOUND:                -0.149
REMARK SMILES O=C([O-])C=Cc1ccc(O)cc1
REMARK SMILES IDX 6 1 7 2 12 3 8 4 11 5 9 6 5 7 4 8 2 9 1 10 3 11 10 12
REMARK H PARENT 10 13
REMARK Flexibility Score: inf
ROOT
ATOM      1  C   UNL     1     -10.131 -18.912  -6.925  1.00  0.00    -0.025 A 
ATOM      2  C   UNL     1     -11.366 -18.332  -7.280  1.00  0.00     0.012 A 
ATOM      3  C   UNL     1     -10.124 -19.994  -6.029  1.00  0.00     0.012 A 
ATOM      4  C   UNL     1     -12.559 -18.811  -6.727  1.00  0.00     0.047 A 
ATOM      5  C   UNL     1     -11.318 -20.471  -5.478  1.00  0.00     0.047 A 
ATOM      6  C   UNL     1     -12.537 -19.880  -5.823  1.00  0.00     0.115 A 
ENDROOT
BRANCH   1   7
ATOM      7  C   UNL     1      -8.840 -18.449  -7.489  1.00  0.00     0.010 C 
ATOM      8  C   UNL     1      -7.660 -19.027  -7.223  1.00  0.00     0.025 C 
BRANCH   8   9
ATOM      9  C   UNL     1      -6.399 -18.546  -7.812  1.00  0.00     0.064 C 
ATOM     10  O   UNL     1      -6.212 -18.563  -9.058  1.00  0.00    -0.545 OA
ATOM     11  O   UNL     1      -5.397 -18.063  -6.979  1.00  0.00    -0.545 OA
ENDBRANCH   8   9
ENDBRANCH   1   7
BRANCH   6  12
ATOM     12  O   UNL     1     -13.718 -20.366  -5.267  1.00  0.00    -0.508 OA
ATOM     13  H   UNL     1     -14.415 -19.742  -4.878  1.00  0.00     0.293 HD
ENDBRANCH   6  12
TORSDOF 3
ENDMDL
MODEL 4
REMARK VINA RESULT:    -5.081     12.481     13.246
REMARK INTER + INTRA:          -5.972
REMARK INTER:                  -5.833
REMARK INTRA:                  -0.139
REMARK UNBOUND:                -0.149
REMARK SMILES O=C([O-])C=Cc1ccc(O)cc1
REMARK SMILES IDX 6 1 7 2 12 3 8 4 11 5 9 6 5 7 4 8 2 9 1 10 3 11 10 12
REMARK H PARENT 10 13
REMARK Flexibility Score: inf
ROOT
ATOM      1  C   UNL     1     -10.204 -19.038  -6.886  1.00  0.00    -0.025 A 
ATOM      2  C   UNL     1     -10.225 -20.090  -5.947  1.00  0.00     0.012 A 
ATOM      3  C   UNL     1     -11.418 -18.427  -7.245  1.00  0.00     0.012 A 
ATOM      4  C   UNL     1     -11.436 -20.531  -5.404  1.00  0.00     0.047 A 
ATOM      5  C   UNL     1     -12.627 -18.871  -6.701  1.00  0.00     0.047 A 
ATOM      6  C   UNL     1     -12.640 -19.924  -5.782  1.00  0.00     0.115 A 
ENDROOT
BRANCH   1   7
ATOM      7  C   UNL     1      -8.948 -18.525  -7.484  1.00  0.00     0.010 C 
ATOM      8  C   UNL     1      -7.739 -19.057  -7.249  1.00  0.00     0.025 C 
BRANCH   8   9
ATOM      9  C   UNL     1      -6.513 -18.527  -7.869  1.00  0.00     0.064 C 
ATOM     10  O   UNL     1      -6.350 -18.554  -9.119  1.00  0.00    -0.545 OA
ATOM     11  O   UNL     1      -5.519 -17.986  -7.065  1.00  0.00    -0.545 OA
ENDBRANCH   8   9
ENDBRANCH   1   7
BRANCH   6  12
ATOM     12  O   UNL     1     -13.852 -20.356  -5.248  1.00  0.00    -0.508 OA
ATOM     13  H   UNL     1     -14.610 -20.671  -5.842  1.00  0.00     0.293 HD
ENDBRANCH   6  12
TORSDOF 3
ENDMDL
MODEL 5
REMARK VINA RESULT:    -5.047     12.571     13.249
REMARK INTER + INTRA:          -5.934
REMARK INTER:                  -5.784
REMARK INTRA:                  -0.150
REMARK UNBOUND:                -0.149
REMARK SMILES O=C([O-])C=Cc1ccc(O)cc1
REMARK SMILES IDX 6 1 7 2 12 3 8 4 11 5 9 6 5 7 4 8 2 9 1 10 3 11 10 12
REMARK H PARENT 10 13
REMARK Flexibility Score: inf
ROOT
ATOM      1  C   UNL     1     -12.491 -21.081  -8.812  1.00  0.00    -0.025 A 
ATOM      2  C   UNL     1     -13.637 -20.727  -8.070  1.00  0.00     0.012 A 
ATOM      3  C   UNL     1     -11.292 -20.386  -8.579  1.00  0.00     0.012 A 
ATOM      4  C   UNL     1     -13.583 -19.684  -7.138  1.00  0.00     0.047 A 
ATOM      5  C   UNL     1     -11.242 -19.344  -7.648  1.00  0.00     0.047 A 
ATOM      6  C   UNL     1     -12.386 -18.989  -6.927  1.00  0.00     0.115 A 
ENDROOT
BRANCH   1   7
ATOM      7  C   UNL     1     -12.491 -22.184  -9.803  1.00  0.00     0.010 C 
ATOM      8  C   UNL     1     -11.599 -22.292 -10.799  1.00  0.00     0.025 C 
BRANCH   8   9
ATOM      9  C   UNL     1     -11.624 -23.409 -11.758  1.00  0.00     0.064 C 
ATOM     10  O   UNL     1     -11.261 -23.250 -12.954  1.00  0.00    -0.545 OA
ATOM     11  O   UNL     1     -12.054 -24.661 -11.337  1.00  0.00    -0.545 OA
ENDBRANCH   8   9
ENDBRANCH   1   7
BRANCH   6  12
ATOM     12  O   UNL     1     -12.321 -17.949  -6.002  1.00  0.00    -0.508 OA
ATOM     13  H   UNL     1     -12.504 -16.990  -6.271  1.00  0.00     0.293 HD
ENDBRANCH   6  12
TORSDOF 3
ENDMDL
MODEL 6
REMARK VINA RESULT:    -4.993     12.224     13.568
REMARK INTER + INTRA:          -5.872
REMARK INTER:                  -5.721
REMARK INTRA:                  -0.151
REMARK UNBOUND:                -0.149
REMARK SMILES O=C([O-])C=Cc1ccc(O)cc1
REMARK SMILES IDX 6 1 7 2 12 3 8 4 11 5 9 6 5 7 4 8 2 9 1 10 3 11 10 12
REMARK H PARENT 10 13
REMARK Flexibility Score: inf
ROOT
ATOM      1  C   UNL     1     -14.732 -20.330  -7.635  1.00  0.00    -0.025 A 
ATOM      2  C   UNL     1     -13.810 -20.686  -8.641  1.00  0.00     0.012 A 
ATOM      3  C   UNL     1     -14.246 -19.981  -6.364  1.00  0.00     0.012 A 
ATOM      4  C   UNL     1     -12.439 -20.716  -8.366  1.00  0.00     0.047 A 
ATOM      5  C   UNL     1     -12.875 -20.013  -6.092  1.00  0.00     0.047 A 
ATOM      6  C   UNL     1     -11.968 -20.382  -7.090  1.00  0.00     0.115 A 
ENDROOT
BRANCH   1   7
ATOM      7  C   UNL     1     -16.194 -20.272  -7.877  1.00  0.00     0.010 C 
ATOM      8  C   UNL     1     -17.056 -19.620  -7.082  1.00  0.00     0.025 C 
BRANCH   8   9
ATOM      9  C   UNL     1     -18.501 -19.575  -7.360  1.00  0.00     0.064 C 
ATOM     10  O   UNL     1     -19.348 -19.810  -6.456  1.00  0.00    -0.545 OA
ATOM     11  O   UNL     1     -18.941 -19.266  -8.641  1.00  0.00    -0.545 OA
ENDBRANCH   8   9
ENDBRANCH   1   7
BRANCH   6  12
ATOM     12  O   UNL     1     -10.605 -20.408  -6.806  1.00  0.00    -0.508 OA
ATOM     13  H   UNL     1     -10.125 -21.276  -6.599  1.00  0.00     0.293 HD
ENDBRANCH   6  12
TORSDOF 3
ENDMDL
MODEL 7
REMARK VINA RESULT:    -4.941     12.511     13.133
REMARK INTER + INTRA:          -5.813
REMARK INTER:                  -5.667
REMARK INTRA:                  -0.146
REMARK UNBOUND:                -0.149
REMARK SMILES O=C([O-])C=Cc1ccc(O)cc1
REMARK SMILES IDX 6 1 7 2 12 3 8 4 11 5 9 6 5 7 4 8 2 9 1 10 3 11 10 12
REMARK H PARENT 10 13
REMARK Flexibility Score: inf
ROOT
ATOM      1  C   UNL     1     -10.984 -20.000  -6.800  1.00  0.00    -0.025 A 
ATOM      2  C   UNL     1     -11.681 -20.387  -5.636  1.00  0.00     0.012 A 
ATOM      3  C   UNL     1     -11.720 -19.581  -7.921  1.00  0.00     0.012 A 
ATOM      4  C   UNL     1     -13.079 -20.377  -5.611  1.00  0.00     0.047 A 
ATOM      5  C   UNL     1     -13.118 -19.572  -7.893  1.00  0.00     0.047 A 
ATOM      6  C   UNL     1     -13.801 -19.971  -6.741  1.00  0.00     0.115 A 
ENDROOT
BRANCH   1   7
ATOM      7  C   UNL     1      -9.503 -19.983  -6.875  1.00  0.00     0.010 C 
ATOM      8  C   UNL     1      -8.797 -18.996  -7.446  1.00  0.00     0.025 C 
BRANCH   8   9
ATOM      9  C   UNL     1      -7.326 -19.007  -7.492  1.00  0.00     0.064 C 
ATOM     10  O   UNL     1      -6.700 -18.554  -8.488  1.00  0.00    -0.545 OA
ATOM     11  O   UNL     1      -6.613 -19.526  -6.419  1.00  0.00    -0.545 OA
ENDBRANCH   8   9
ENDBRANCH   1   7
BRANCH   6  12
ATOM     12  O   UNL     1     -15.194 -19.957  -6.727  1.00  0.00    -0.508 OA
ATOM     13  H   UNL     1     -15.728 -19.639  -7.528  1.00  0.00     0.293 HD
ENDBRANCH   6  12
TORSDOF 3
ENDMDL
MODEL 8
REMARK VINA RESULT:    -4.844      2.044      2.735
REMARK INTER + INTRA:          -5.701
REMARK INTER:                  -5.565
REMARK INTRA:                  -0.136
REMARK UNBOUND:                -0.149
REMARK SMILES O=C([O-])C=Cc1ccc(O)cc1
REMARK SMILES IDX 6 1 7 2 12 3 8 4 11 5 9 6 5 7 4 8 2 9 1 10 3 11 10 12
REMARK H PARENT 10 13
REMARK Flexibility Score: inf
ROOT
ATOM      1  C   UNL     1     -13.814 -10.199 -15.319  1.00  0.00    -0.025 A 
ATOM      2  C   UNL     1     -14.864 -11.046 -14.907  1.00  0.00     0.012 A 
ATOM      3  C   UNL     1     -13.918  -8.820 -15.066  1.00  0.00     0.012 A 
ATOM      4  C   UNL     1     -15.997 -10.516 -14.281  1.00  0.00     0.047 A 
ATOM      5  C   UNL     1     -15.052  -8.294 -14.441  1.00  0.00     0.047 A 
ATOM      6  C   UNL     1     -16.095  -9.138 -14.049  1.00  0.00     0.115 A 
ENDROOT
BRANCH   1   7
ATOM      7  C   UNL     1     -12.587 -10.710 -15.976  1.00  0.00     0.010 C 
ATOM      8  C   UNL     1     -11.593 -11.328 -15.322  1.00  0.00     0.025 C 
BRANCH   8   9
ATOM      9  C   UNL     1     -10.393 -11.832 -16.010  1.00  0.00     0.064 C 
ATOM     10  O   UNL     1      -9.966 -11.286 -17.063  1.00  0.00    -0.545 OA
ATOM     11  O   UNL     1      -9.718 -12.929 -15.491  1.00  0.00    -0.545 OA
ENDBRANCH   8   9
ENDBRANCH   1   7
BRANCH   6  12
ATOM     12  O   UNL     1     -17.219  -8.600 -13.426  1.00  0.00    -0.508 OA
ATOM     13  H   UNL     1     -17.507  -7.643 -13.590  1.00  0.00     0.293 HD
ENDBRANCH   6  12
TORSDOF 3
ENDMDL
MODEL 9
REMARK VINA RESULT:    -4.782     16.037     16.477
REMARK INTER + INTRA:          -5.630
REMARK INTER:                  -5.477
REMARK INTRA:                  -0.153
REMARK UNBOUND:                -0.149
REMARK SMILES O=C([O-])C=Cc1ccc(O)cc1
REMARK SMILES IDX 6 1 7 2 12 3 8 4 11 5 9 6 5 7 4 8 2 9 1 10 3 11 10 12
REMARK H PARENT 10 13
REMARK Flexibility Score: inf
ROOT
ATOM      1  C   UNL     1      -9.934 -25.925 -12.893  1.00  0.00    -0.025 A 
ATOM      2  C   UNL     1     -10.632 -26.731 -13.816  1.00  0.00     0.012 A 
ATOM      3  C   UNL     1     -10.466 -24.670 -12.553  1.00  0.00     0.012 A 
ATOM      4  C   UNL     1     -11.820 -26.275 -14.399  1.00  0.00     0.047 A 
ATOM      5  C   UNL     1     -11.653 -24.217 -13.137  1.00  0.00     0.047 A 
ATOM      6  C   UNL     1     -12.331 -25.016 -14.062  1.00  0.00     0.115 A 
ENDROOT
BRANCH   1   7
ATOM      7  C   UNL     1      -8.678 -26.366 -12.239  1.00  0.00     0.010 C 
ATOM      8  C   UNL     1      -8.154 -25.773 -11.156  1.00  0.00     0.025 C 
BRANCH   8   9
ATOM      9  C   UNL     1      -6.910 -26.246 -10.526  1.00  0.00     0.064 C 
ATOM     10  O   UNL     1      -6.014 -26.820 -11.201  1.00  0.00    -0.545 OA
ATOM     11  O   UNL     1      -6.718 -26.054  -9.164  1.00  0.00    -0.545 OA
ENDBRANCH   8   9
ENDBRANCH   1   7
BRANCH   6  12
ATOM     12  O   UNL     1     -13.512 -24.551 -14.636  1.00  0.00    -0.508 OA
ATOM     13  H   UNL     1     -13.812 -23.590 -14.525  1.00  0.00     0.293 HD
ENDBRANCH   6  12
TORSDOF 3
ENDMDL
