MODEL 1
REMARK VINA RESULT:    -7.893      0.000      0.000
REMARK INTER + INTRA:          -9.570
REMARK INTER:                  -9.277
REMARK INTRA:                  -0.293
REMARK UNBOUND:                -0.293
REMARK SMILES O=c1cc(-c2ccc(O)c(O)c2)oc2cc(O)cc(O)c12
REMARK SMILES IDX 4 1 3 2 2 3 1 4 21 5 19 6 18 7 16 8 15 9 14 10 13 11 5 12
REMARK SMILES IDX 6 13 7 14 8 15 12 16 10 17 9 18 11 20 20 22 17 24
REMARK H PARENT 9 19 11 21 20 23 17 25
REMARK Flexibility Score: inf
ROOT
ATOM      1  C   UNL     1      61.680 151.867   3.274  1.00  0.00     0.138 A 
ATOM      2  C   UNL     1      63.070 151.808   3.097  1.00  0.00     0.100 A 
ATOM      3  C   UNL     1      63.837 150.989   3.925  1.00  0.00     0.197 A 
ATOM      4  O   UNL     1      65.087 151.005   3.783  1.00  0.00    -0.289 OA
ATOM      5  C   UNL     1      63.205 150.200   4.917  1.00  0.00     0.107 A 
ATOM      6  C   UNL     1      63.881 149.298   5.790  1.00  0.00     0.134 A 
ATOM      7  C   UNL     1      63.166 148.658   6.810  1.00  0.00     0.093 A 
ATOM      8  C   UNL     1      61.788 148.841   6.947  1.00  0.00     0.123 A 
ATOM      9  C   UNL     1      61.109 149.678   6.065  1.00  0.00     0.094 A 
ATOM     10  C   UNL     1      61.800 150.358   5.060  1.00  0.00     0.146 A 
ATOM     11  O   UNL     1      61.118 151.158   4.249  1.00  0.00    -0.456 OA
ENDROOT
BRANCH   1  12
ATOM     12  C   UNL     1      60.816 152.721   2.421  1.00  0.00     0.021 A 
ATOM     13  C   UNL     1      59.533 153.075   2.872  1.00  0.00     0.016 A 
ATOM     14  C   UNL     1      58.698 153.872   2.084  1.00  0.00     0.051 A 
ATOM     15  C   UNL     1      59.123 154.319   0.831  1.00  0.00     0.157 A 
ATOM     16  C   UNL     1      61.235 153.163   1.151  1.00  0.00     0.062 A 
ATOM     17  C   UNL     1      60.397 153.962   0.359  1.00  0.00     0.158 A 
BRANCH  15  18
ATOM     18  O   UNL     1      58.268 155.114   0.068  1.00  0.00    -0.504 OA
ATOM     19  H   UNL     1      57.434 155.535   0.458  1.00  0.00     0.293 HD
ENDBRANCH  15  18
BRANCH  17  20
ATOM     20  O   UNL     1      60.823 154.395  -0.895  1.00  0.00    -0.504 OA
ATOM     21  H   UNL     1      60.210 154.371  -1.702  1.00  0.00     0.293 HD
ENDBRANCH  17  20
ENDBRANCH   1  12
BRANCH   6  22
ATOM     22  O   UNL     1      65.239 148.979   5.685  1.00  0.00    -0.507 OA
ATOM     23  H   UNL     1      65.825 149.205   4.898  1.00  0.00     0.293 HD
ENDBRANCH   6  22
BRANCH   8  24
ATOM     24  O   UNL     1      61.081 148.187   7.956  1.00  0.00    -0.508 OA
ATOM     25  H   UNL     1      61.238 148.398   8.934  1.00  0.00     0.293 HD
ENDBRANCH   8  24
TORSDOF 5
ENDMDL
MODEL 2
REMARK VINA RESULT:    -7.335      1.358      2.775
REMARK INTER + INTRA:          -8.914
REMARK INTER:                  -8.603
REMARK INTRA:                  -0.312
REMARK UNBOUND:                -0.293
REMARK SMILES O=c1cc(-c2ccc(O)c(O)c2)oc2cc(O)cc(O)c12
REMARK SMILES IDX 4 1 3 2 2 3 1 4 21 5 19 6 18 7 16 8 15 9 14 10 13 11 5 12
REMARK SMILES IDX 6 13 7 14 8 15 12 16 10 17 9 18 11 20 20 22 17 24
REMARK H PARENT 9 19 11 21 20 23 17 25
REMARK Flexibility Score: inf
ROOT
ATOM      1  C   UNL     1      60.517 152.277   4.257  1.00  0.00     0.138 A 
ATOM      2  C   UNL     1      59.953 151.929   5.493  1.00  0.00     0.100 A 
ATOM      3  C   UNL     1      60.620 151.033   6.328  1.00  0.00     0.197 A 
ATOM      4  O   UNL     1      60.059 150.693   7.402  1.00  0.00    -0.289 OA
ATOM      5  C   UNL     1      61.873 150.505   5.937  1.00  0.00     0.107 A 
ATOM      6  C   UNL     1      62.662 149.615   6.725  1.00  0.00     0.134 A 
ATOM      7  C   UNL     1      63.831 149.067   6.184  1.00  0.00     0.093 A 
ATOM      8  C   UNL     1      64.271 149.424   4.907  1.00  0.00     0.123 A 
ATOM      9  C   UNL     1      63.537 150.333   4.151  1.00  0.00     0.094 A 
ATOM     10  C   UNL     1      62.347 150.871   4.648  1.00  0.00     0.146 A 
ATOM     11  O   UNL     1      61.668 151.724   3.889  1.00  0.00    -0.456 OA
ENDROOT
BRANCH   1  12
ATOM     12  C   UNL     1      59.851 153.226   3.330  1.00  0.00     0.021 A 
ATOM     13  C   UNL     1      58.895 154.127   3.831  1.00  0.00     0.016 A 
ATOM     14  C   UNL     1      58.249 155.024   2.977  1.00  0.00     0.051 A 
ATOM     15  C   UNL     1      58.536 155.032   1.610  1.00  0.00     0.157 A 
ATOM     16  C   UNL     1      60.127 153.228   1.949  1.00  0.00     0.062 A 
ATOM     17  C   UNL     1      59.477 154.127   1.091  1.00  0.00     0.158 A 
BRANCH  15  18
ATOM     18  O   UNL     1      57.875 155.939   0.783  1.00  0.00    -0.504 OA
ATOM     19  H   UNL     1      57.107 155.662   0.184  1.00  0.00     0.293 HD
ENDBRANCH  15  18
BRANCH  17  20
ATOM     20  O   UNL     1      59.759 154.122  -0.274  1.00  0.00    -0.504 OA
ATOM     21  H   UNL     1      59.416 153.389  -0.884  1.00  0.00     0.293 HD
ENDBRANCH  17  20
ENDBRANCH   1  12
BRANCH   6  22
ATOM     22  O   UNL     1      62.357 149.260   8.043  1.00  0.00    -0.507 OA
ATOM     23  H   UNL     1      62.116 148.331   8.349  1.00  0.00     0.293 HD
ENDBRANCH   6  22
BRANCH   8  24
ATOM     24  O   UNL     1      65.445 148.884   4.383  1.00  0.00    -0.508 OA
ATOM     25  H   UNL     1      65.497 148.561   3.425  1.00  0.00     0.293 HD
ENDBRANCH   8  24
TORSDOF 5
ENDMDL
MODEL 3
REMARK VINA RESULT:    -7.105      1.576      7.349
REMARK INTER + INTRA:          -8.644
REMARK INTER:                  -8.381
REMARK INTRA:                  -0.263
REMARK UNBOUND:                -0.293
REMARK SMILES O=c1cc(-c2ccc(O)c(O)c2)oc2cc(O)cc(O)c12
REMARK SMILES IDX 4 1 3 2 2 3 1 4 21 5 19 6 18 7 16 8 15 9 14 10 13 11 5 12
REMARK SMILES IDX 6 13 7 14 8 15 12 16 10 17 9 18 11 20 20 22 17 24
REMARK H PARENT 9 19 11 21 20 23 17 25
REMARK Flexibility Score: inf
ROOT
ATOM      1  C   UNL     1      61.832 151.730   3.866  1.00  0.00     0.138 A 
ATOM      2  C   UNL     1      60.717 152.199   4.575  1.00  0.00     0.100 A 
ATOM      3  C   UNL     1      59.807 153.049   3.947  1.00  0.00     0.197 A 
ATOM      4  O   UNL     1      58.851 153.504   4.628  1.00  0.00    -0.289 OA
ATOM      5  C   UNL     1      59.998 153.407   2.591  1.00  0.00     0.107 A 
ATOM      6  C   UNL     1      59.114 154.234   1.836  1.00  0.00     0.134 A 
ATOM      7  C   UNL     1      59.467 154.615   0.535  1.00  0.00     0.093 A 
ATOM      8  C   UNL     1      60.642 154.148  -0.058  1.00  0.00     0.123 A 
ATOM      9  C   UNL     1      61.485 153.297   0.651  1.00  0.00     0.094 A 
ATOM     10  C   UNL     1      61.179 152.927   1.963  1.00  0.00     0.146 A 
ATOM     11  O   UNL     1      62.017 152.125   2.610  1.00  0.00    -0.456 OA
ENDROOT
BRANCH   1  12
ATOM     12  C   UNL     1      62.831 150.823   4.485  1.00  0.00     0.021 A 
ATOM     13  C   UNL     1      64.137 151.287   4.715  1.00  0.00     0.016 A 
ATOM     14  C   UNL     1      65.097 150.451   5.289  1.00  0.00     0.051 A 
ATOM     15  C   UNL     1      64.775 149.136   5.633  1.00  0.00     0.157 A 
ATOM     16  C   UNL     1      62.514 149.492   4.821  1.00  0.00     0.062 A 
ATOM     17  C   UNL     1      63.479 148.652   5.396  1.00  0.00     0.158 A 
BRANCH  15  18
ATOM     18  O   UNL     1      65.755 148.325   6.206  1.00  0.00    -0.504 OA
ATOM     19  H   UNL     1      65.540 147.651   6.931  1.00  0.00     0.293 HD
ENDBRANCH  15  18
BRANCH  17  20
ATOM     20  O   UNL     1      63.154 147.336   5.726  1.00  0.00    -0.504 OA
ATOM     21  H   UNL     1      62.721 147.102   6.611  1.00  0.00     0.293 HD
ENDBRANCH  17  20
ENDBRANCH   1  12
BRANCH   6  22
ATOM     22  O   UNL     1      57.875 154.684   2.304  1.00  0.00    -0.507 OA
ATOM     23  H   UNL     1      57.700 155.024   3.236  1.00  0.00     0.293 HD
ENDBRANCH   6  22
BRANCH   8  24
ATOM     24  O   UNL     1      60.977 154.520  -1.359  1.00  0.00    -0.508 OA
ATOM     25  H   UNL     1      61.112 155.492  -1.614  1.00  0.00     0.293 HD
ENDBRANCH   8  24
TORSDOF 5
ENDMDL
MODEL 4
REMARK VINA RESULT:    -6.889      2.446      6.896
REMARK INTER + INTRA:          -8.390
REMARK INTER:                  -8.127
REMARK INTRA:                  -0.263
REMARK UNBOUND:                -0.293
REMARK SMILES O=c1cc(-c2ccc(O)c(O)c2)oc2cc(O)cc(O)c12
REMARK SMILES IDX 4 1 3 2 2 3 1 4 21 5 19 6 18 7 16 8 15 9 14 10 13 11 5 12
REMARK SMILES IDX 6 13 7 14 8 15 12 16 10 17 9 18 11 20 20 22 17 24
REMARK H PARENT 9 19 11 21 20 23 17 25
REMARK Flexibility Score: inf
ROOT
ATOM      1  C   UNL     1      61.461 152.011   4.412  1.00  0.00     0.138 A 
ATOM      2  C   UNL     1      60.973 152.103   3.101  1.00  0.00     0.100 A 
ATOM      3  C   UNL     1      59.944 152.999   2.809  1.00  0.00     0.197 A 
ATOM      4  O   UNL     1      59.485 153.014   1.637  1.00  0.00    -0.289 OA
ATOM      5  C   UNL     1      59.420 153.827   3.830  1.00  0.00     0.107 A 
ATOM      6  C   UNL     1      58.399 154.805   3.640  1.00  0.00     0.134 A 
ATOM      7  C   UNL     1      57.880 155.485   4.749  1.00  0.00     0.093 A 
ATOM      8  C   UNL     1      58.388 155.266   6.031  1.00  0.00     0.123 A 
ATOM      9  C   UNL     1      59.423 154.353   6.220  1.00  0.00     0.094 A 
ATOM     10  C   UNL     1      59.938 153.633   5.139  1.00  0.00     0.146 A 
ATOM     11  O   UNL     1      60.914 152.761   5.364  1.00  0.00    -0.456 OA
ENDROOT
BRANCH   1  12
ATOM     12  C   UNL     1      62.555 151.076   4.778  1.00  0.00     0.021 A 
ATOM     13  C   UNL     1      63.885 151.531   4.769  1.00  0.00     0.016 A 
ATOM     14  C   UNL     1      64.932 150.668   5.102  1.00  0.00     0.051 A 
ATOM     15  C   UNL     1      64.673 149.338   5.438  1.00  0.00     0.157 A 
ATOM     16  C   UNL     1      62.300 149.730   5.103  1.00  0.00     0.062 A 
ATOM     17  C   UNL     1      63.351 148.864   5.436  1.00  0.00     0.158 A 
BRANCH  15  18
ATOM     18  O   UNL     1      65.740 148.501   5.766  1.00  0.00    -0.504 OA
ATOM     19  H   UNL     1      66.689 148.844   5.846  1.00  0.00     0.293 HD
ENDBRANCH  15  18
BRANCH  17  20
ATOM     20  O   UNL     1      63.087 147.533   5.759  1.00  0.00    -0.504 OA
ATOM     21  H   UNL     1      62.505 147.284   6.549  1.00  0.00     0.293 HD
ENDBRANCH  17  20
ENDBRANCH   1  12
BRANCH   6  22
ATOM     22  O   UNL     1      57.881 155.161   2.391  1.00  0.00    -0.507 OA
ATOM     23  H   UNL     1      57.542 156.078   2.147  1.00  0.00     0.293 HD
ENDBRANCH   6  22
BRANCH   8  24
ATOM     24  O   UNL     1      57.875 155.959   7.127  1.00  0.00    -0.508 OA
ATOM     25  H   UNL     1      57.779 156.967   7.118  1.00  0.00     0.293 HD
ENDBRANCH   8  24
TORSDOF 5
ENDMDL
MODEL 5
REMARK VINA RESULT:    -6.802      2.327      7.176
REMARK INTER + INTRA:          -8.288
REMARK INTER:                  -8.023
REMARK INTRA:                  -0.265
REMARK UNBOUND:                -0.293
REMARK SMILES O=c1cc(-c2ccc(O)c(O)c2)oc2cc(O)cc(O)c12
REMARK SMILES IDX 4 1 3 2 2 3 1 4 21 5 19 6 18 7 16 8 15 9 14 10 13 11 5 12
REMARK SMILES IDX 6 13 7 14 8 15 12 16 10 17 9 18 11 20 20 22 17 24
REMARK H PARENT 9 19 11 21 20 23 17 25
REMARK Flexibility Score: inf
ROOT
ATOM      1  C   UNL     1      61.601 152.219   5.228  1.00  0.00     0.138 A 
ATOM      2  C   UNL     1      61.219 153.046   6.294  1.00  0.00     0.100 A 
ATOM      3  C   UNL     1      60.215 153.996   6.104  1.00  0.00     0.197 A 
ATOM      4  O   UNL     1      59.937 154.765   7.061  1.00  0.00    -0.289 OA
ATOM      5  C   UNL     1      59.569 154.098   4.849  1.00  0.00     0.107 A 
ATOM      6  C   UNL     1      58.505 155.001   4.553  1.00  0.00     0.134 A 
ATOM      7  C   UNL     1      58.023 155.093   3.242  1.00  0.00     0.093 A 
ATOM      8  C   UNL     1      58.524 154.270   2.230  1.00  0.00     0.123 A 
ATOM      9  C   UNL     1      59.526 153.347   2.521  1.00  0.00     0.094 A 
ATOM     10  C   UNL     1      60.053 153.257   3.812  1.00  0.00     0.146 A 
ATOM     11  O   UNL     1      61.017 152.373   4.044  1.00  0.00    -0.456 OA
ENDROOT
BRANCH   1  12
ATOM     12  C   UNL     1      62.663 151.192   5.374  1.00  0.00     0.021 A 
ATOM     13  C   UNL     1      64.012 151.585   5.362  1.00  0.00     0.016 A 
ATOM     14  C   UNL     1      65.029 150.636   5.490  1.00  0.00     0.051 A 
ATOM     15  C   UNL     1      64.720 149.281   5.621  1.00  0.00     0.157 A 
ATOM     16  C   UNL     1      62.356 149.822   5.492  1.00  0.00     0.062 A 
ATOM     17  C   UNL     1      63.377 148.870   5.619  1.00  0.00     0.158 A 
BRANCH  15  18
ATOM     18  O   UNL     1      65.757 148.357   5.747  1.00  0.00    -0.504 OA
ATOM     19  H   UNL     1      65.672 147.403   5.418  1.00  0.00     0.293 HD
ENDBRANCH  15  18
BRANCH  17  20
ATOM     20  O   UNL     1      63.062 147.517   5.738  1.00  0.00    -0.504 OA
ATOM     21  H   UNL     1      62.235 147.124   5.303  1.00  0.00     0.293 HD
ENDBRANCH  17  20
ENDBRANCH   1  12
BRANCH   6  22
ATOM     22  O   UNL     1      57.875 155.806   5.508  1.00  0.00    -0.507 OA
ATOM     23  H   UNL     1      58.339 156.496   6.077  1.00  0.00     0.293 HD
ENDBRANCH   6  22
BRANCH   8  24
ATOM     24  O   UNL     1      58.027 154.358   0.931  1.00  0.00    -0.508 OA
ATOM     25  H   UNL     1      57.230 153.809   0.631  1.00  0.00     0.293 HD
ENDBRANCH   8  24
TORSDOF 5
ENDMDL
MODEL 6
REMARK VINA RESULT:    -6.202      1.476      3.096
REMARK INTER + INTRA:          -7.582
REMARK INTER:                  -7.287
REMARK INTRA:                  -0.296
REMARK UNBOUND:                -0.293
REMARK SMILES O=c1cc(-c2ccc(O)c(O)c2)oc2cc(O)cc(O)c12
REMARK SMILES IDX 4 1 3 2 2 3 1 4 21 5 19 6 18 7 16 8 15 9 14 10 13 11 5 12
REMARK SMILES IDX 6 13 7 14 8 15 12 16 10 17 9 18 11 20 20 22 17 24
REMARK H PARENT 9 19 11 21 20 23 17 25
REMARK Flexibility Score: inf
ROOT
ATOM      1  C   UNL     1      60.515 152.251   3.929  1.00  0.00     0.138 A 
ATOM      2  C   UNL     1      59.636 152.475   4.999  1.00  0.00     0.100 A 
ATOM      3  C   UNL     1      59.860 151.839   6.220  1.00  0.00     0.197 A 
ATOM      4  O   UNL     1      59.020 152.011   7.142  1.00  0.00    -0.289 OA
ATOM      5  C   UNL     1      60.988 150.999   6.381  1.00  0.00     0.107 A 
ATOM      6  C   UNL     1      61.339 150.333   7.593  1.00  0.00     0.134 A 
ATOM      7  C   UNL     1      62.413 149.435   7.600  1.00  0.00     0.093 A 
ATOM      8  C   UNL     1      63.186 149.226   6.455  1.00  0.00     0.123 A 
ATOM      9  C   UNL     1      62.885 149.913   5.282  1.00  0.00     0.094 A 
ATOM     10  C   UNL     1      61.797 150.789   5.232  1.00  0.00     0.146 A 
ATOM     11  O   UNL     1      61.535 151.414   4.090  1.00  0.00    -0.456 OA
ENDROOT
BRANCH   1  12
ATOM     12  C   UNL     1      60.324 152.901   2.608  1.00  0.00     0.021 A 
ATOM     13  C   UNL     1      61.328 152.790   1.632  1.00  0.00     0.016 A 
ATOM     14  C   UNL     1      61.175 153.399   0.384  1.00  0.00     0.051 A 
ATOM     15  C   UNL     1      60.026 154.137   0.092  1.00  0.00     0.157 A 
ATOM     16  C   UNL     1      59.173 153.658   2.315  1.00  0.00     0.062 A 
ATOM     17  C   UNL     1      59.020 154.270   1.063  1.00  0.00     0.158 A 
BRANCH  15  18
ATOM     18  O   UNL     1      59.902 154.733  -1.162  1.00  0.00    -0.504 OA
ATOM     19  H   UNL     1      59.574 155.685  -1.276  1.00  0.00     0.293 HD
ENDBRANCH  15  18
BRANCH  17  20
ATOM     20  O   UNL     1      57.875 155.015   0.783  1.00  0.00    -0.504 OA
ATOM     21  H   UNL     1      57.060 154.984   1.384  1.00  0.00     0.293 HD
ENDBRANCH  17  20
ENDBRANCH   1  12
BRANCH   6  22
ATOM     22  O   UNL     1      60.686 150.535   8.813  1.00  0.00    -0.507 OA
ATOM     23  H   UNL     1      59.861 150.040   9.114  1.00  0.00     0.293 HD
ENDBRANCH   6  22
BRANCH   8  24
ATOM     24  O   UNL     1      64.263 148.342   6.476  1.00  0.00    -0.508 OA
ATOM     25  H   UNL     1      64.229 147.454   5.988  1.00  0.00     0.293 HD
ENDBRANCH   8  24
TORSDOF 5
ENDMDL
MODEL 7
REMARK VINA RESULT:    -5.912      2.748      3.490
REMARK INTER + INTRA:          -7.242
REMARK INTER:                  -6.977
REMARK INTRA:                  -0.265
REMARK UNBOUND:                -0.293
REMARK SMILES O=c1cc(-c2ccc(O)c(O)c2)oc2cc(O)cc(O)c12
REMARK SMILES IDX 4 1 3 2 2 3 1 4 21 5 19 6 18 7 16 8 15 9 14 10 13 11 5 12
REMARK SMILES IDX 6 13 7 14 8 15 12 16 10 17 9 18 11 20 20 22 17 24
REMARK H PARENT 9 19 11 21 20 23 17 25
REMARK Flexibility Score: inf
ROOT
ATOM      1  C   UNL     1      60.236 152.033   5.378  1.00  0.00     0.138 A 
ATOM      2  C   UNL     1      61.494 151.663   4.882  1.00  0.00     0.100 A 
ATOM      3  C   UNL     1      62.003 150.396   5.168  1.00  0.00     0.197 A 
ATOM      4  O   UNL     1      63.160 150.116   4.761  1.00  0.00    -0.289 OA
ATOM      5  C   UNL     1      61.235 149.484   5.931  1.00  0.00     0.107 A 
ATOM      6  C   UNL     1      61.635 148.153   6.250  1.00  0.00     0.134 A 
ATOM      7  C   UNL     1      60.844 147.381   7.110  1.00  0.00     0.093 A 
ATOM      8  C   UNL     1      59.636 147.872   7.612  1.00  0.00     0.123 A 
ATOM      9  C   UNL     1      59.210 149.151   7.263  1.00  0.00     0.094 A 
ATOM     10  C   UNL     1      59.995 149.959   6.436  1.00  0.00     0.146 A 
ATOM     11  O   UNL     1      59.559 151.178   6.139  1.00  0.00    -0.456 OA
ENDROOT
BRANCH   1  12
ATOM     12  C   UNL     1      59.646 153.368   5.104  1.00  0.00     0.021 A 
ATOM     13  C   UNL     1      58.961 153.586   3.897  1.00  0.00     0.016 A 
ATOM     14  C   UNL     1      58.404 154.836   3.612  1.00  0.00     0.051 A 
ATOM     15  C   UNL     1      58.529 155.889   4.520  1.00  0.00     0.157 A 
ATOM     16  C   UNL     1      59.782 154.437   6.011  1.00  0.00     0.062 A 
ATOM     17  C   UNL     1      59.224 155.692   5.725  1.00  0.00     0.158 A 
BRANCH  15  18
ATOM     18  O   UNL     1      57.962 157.125   4.208  1.00  0.00    -0.504 OA
ATOM     19  H   UNL     1      58.246 157.658   3.395  1.00  0.00     0.293 HD
ENDBRANCH  15  18
BRANCH  17  20
ATOM     20  O   UNL     1      59.362 156.743   6.630  1.00  0.00    -0.504 OA
ATOM     21  H   UNL     1      60.188 157.330   6.640  1.00  0.00     0.293 HD
ENDBRANCH  17  20
ENDBRANCH   1  12
BRANCH   6  22
ATOM     22  O   UNL     1      62.779 147.536   5.733  1.00  0.00    -0.507 OA
ATOM     23  H   UNL     1      62.776 146.726   5.133  1.00  0.00     0.293 HD
ENDBRANCH   6  22
BRANCH   8  24
ATOM     24  O   UNL     1      58.847 147.091   8.455  1.00  0.00    -0.508 OA
ATOM     25  H   UNL     1      59.059 146.997   9.441  1.00  0.00     0.293 HD
ENDBRANCH   8  24
TORSDOF 5
ENDMDL
MODEL 8
REMARK VINA RESULT:    -5.780      2.441      7.627
REMARK INTER + INTRA:          -7.087
REMARK INTER:                  -6.809
REMARK INTRA:                  -0.277
REMARK UNBOUND:                -0.293
REMARK SMILES O=c1cc(-c2ccc(O)c(O)c2)oc2cc(O)cc(O)c12
REMARK SMILES IDX 4 1 3 2 2 3 1 4 21 5 19 6 18 7 16 8 15 9 14 10 13 11 5 12
REMARK SMILES IDX 6 13 7 14 8 15 12 16 10 17 9 18 11 20 20 22 17 24
REMARK H PARENT 9 19 11 21 20 23 17 25
REMARK Flexibility Score: inf
ROOT
ATOM      1  C   UNL     1      59.478 152.404   5.644  1.00  0.00     0.138 A 
ATOM      2  C   UNL     1      59.135 153.603   6.285  1.00  0.00     0.100 A 
ATOM      3  C   UNL     1      58.792 154.719   5.521  1.00  0.00     0.197 A 
ATOM      4  O   UNL     1      58.549 155.798   6.123  1.00  0.00    -0.289 OA
ATOM      5  C   UNL     1      58.765 154.626   4.109  1.00  0.00     0.107 A 
ATOM      6  C   UNL     1      58.392 155.686   3.231  1.00  0.00     0.134 A 
ATOM      7  C   UNL     1      58.515 155.512   1.847  1.00  0.00     0.093 A 
ATOM      8  C   UNL     1      58.939 154.295   1.309  1.00  0.00     0.123 A 
ATOM      9  C   UNL     1      59.254 153.235   2.156  1.00  0.00     0.094 A 
ATOM     10  C   UNL     1      59.176 153.389   3.543  1.00  0.00     0.146 A 
ATOM     11  O   UNL     1      59.499 152.359   4.316  1.00  0.00    -0.456 OA
ENDROOT
BRANCH   1  12
ATOM     12  C   UNL     1      59.850 151.186   6.407  1.00  0.00     0.021 A 
ATOM     13  C   UNL     1      58.926 150.622   7.303  1.00  0.00     0.016 A 
ATOM     14  C   UNL     1      59.256 149.481   8.039  1.00  0.00     0.051 A 
ATOM     15  C   UNL     1      60.513 148.889   7.902  1.00  0.00     0.157 A 
ATOM     16  C   UNL     1      61.123 150.594   6.283  1.00  0.00     0.062 A 
ATOM     17  C   UNL     1      61.454 149.449   7.022  1.00  0.00     0.158 A 
BRANCH  15  18
ATOM     18  O   UNL     1      60.813 147.750   8.648  1.00  0.00    -0.504 OA
ATOM     19  H   UNL     1      60.380 147.565   9.545  1.00  0.00     0.293 HD
ENDBRANCH  15  18
BRANCH  17  20
ATOM     20  O   UNL     1      62.715 148.871   6.889  1.00  0.00    -0.504 OA
ATOM     21  H   UNL     1      63.403 149.239   6.243  1.00  0.00     0.293 HD
ENDBRANCH  17  20
ENDBRANCH   1  12
BRANCH   6  22
ATOM     22  O   UNL     1      57.875 156.912   3.663  1.00  0.00    -0.507 OA
ATOM     23  H   UNL     1      57.934 157.263   4.606  1.00  0.00     0.293 HD
ENDBRANCH   6  22
BRANCH   8  24
ATOM     24  O   UNL     1      59.044 154.126  -0.071  1.00  0.00    -0.508 OA
ATOM     25  H   UNL     1      59.539 154.794  -0.650  1.00  0.00     0.293 HD
ENDBRANCH   8  24
TORSDOF 5
ENDMDL
MODEL 9
REMARK VINA RESULT:    -5.619      3.135      3.687
REMARK INTER + INTRA:          -6.897
REMARK INTER:                  -6.622
REMARK INTRA:                  -0.275
REMARK UNBOUND:                -0.293
REMARK SMILES O=c1cc(-c2ccc(O)c(O)c2)oc2cc(O)cc(O)c12
REMARK SMILES IDX 4 1 3 2 2 3 1 4 21 5 19 6 18 7 16 8 15 9 14 10 13 11 5 12
REMARK SMILES IDX 6 13 7 14 8 15 12 16 10 17 9 18 11 20 20 22 17 24
REMARK H PARENT 9 19 11 21 20 23 17 25
REMARK Flexibility Score: inf
ROOT
ATOM      1  C   UNL     1      61.734 152.484   5.876  1.00  0.00     0.138 A 
ATOM      2  C   UNL     1      63.107 152.618   5.623  1.00  0.00     0.100 A 
ATOM      3  C   UNL     1      63.884 151.479   5.414  1.00  0.00     0.197 A 
ATOM      4  O   UNL     1      65.124 151.627   5.251  1.00  0.00    -0.289 OA
ATOM      5  C   UNL     1      63.278 150.200   5.428  1.00  0.00     0.107 A 
ATOM      6  C   UNL     1      63.964 148.972   5.187  1.00  0.00     0.134 A 
ATOM      7  C   UNL     1      63.282 147.759   5.342  1.00  0.00     0.093 A 
ATOM      8  C   UNL     1      61.924 147.732   5.669  1.00  0.00     0.123 A 
ATOM      9  C   UNL     1      61.232 148.927   5.853  1.00  0.00     0.094 A 
ATOM     10  C   UNL     1      61.893 150.153   5.741  1.00  0.00     0.146 A 
ATOM     11  O   UNL     1      61.200 151.269   5.939  1.00  0.00    -0.456 OA
ENDROOT
BRANCH   1  12
ATOM     12  C   UNL     1      60.861 153.663   6.105  1.00  0.00     0.021 A 
ATOM     13  C   UNL     1      61.094 154.491   7.216  1.00  0.00     0.016 A 
ATOM     14  C   UNL     1      60.281 155.601   7.457  1.00  0.00     0.051 A 
ATOM     15  C   UNL     1      59.216 155.897   6.603  1.00  0.00     0.157 A 
ATOM     16  C   UNL     1      59.777 153.957   5.254  1.00  0.00     0.062 A 
ATOM     17  C   UNL     1      58.960 155.070   5.498  1.00  0.00     0.158 A 
BRANCH  15  18
ATOM     18  O   UNL     1      58.422 157.012   6.870  1.00  0.00    -0.504 OA
ATOM     19  H   UNL     1      58.176 157.682   6.151  1.00  0.00     0.293 HD
ENDBRANCH  15  18
BRANCH  17  20
ATOM     20  O   UNL     1      57.891 155.353   4.648  1.00  0.00    -0.504 OA
ATOM     21  H   UNL     1      57.049 155.805   4.986  1.00  0.00     0.293 HD
ENDBRANCH  17  20
ENDBRANCH   1  12
BRANCH   6  22
ATOM     22  O   UNL     1      65.297 148.891   4.772  1.00  0.00    -0.507 OA
ATOM     23  H   UNL     1      65.748 148.051   4.445  1.00  0.00     0.293 HD
ENDBRANCH   6  22
BRANCH   8  24
ATOM     24  O   UNL     1      61.250 146.520   5.806  1.00  0.00    -0.508 OA
ATOM     25  H   UNL     1      60.294 146.407   5.491  1.00  0.00     0.293 HD
ENDBRANCH   8  24
TORSDOF 5
ENDMDL
