MODEL 1
REMARK VINA RESULT:    -8.398      0.000      0.000
REMARK INTER + INTRA:         -10.425
REMARK INTER:                 -10.116
REMARK INTRA:                  -0.309
REMARK UNBOUND:                -0.309
REMARK SMILES O=c1c(O)c(-c2ccc(O)c(O)c2)oc2cc(O)cc(O)c12
REMARK SMILES IDX 5 1 3 2 2 3 1 4 22 5 20 6 19 7 17 8 16 9 15 10 14 11 6 12
REMARK SMILES IDX 7 13 8 14 9 15 13 16 11 17 10 18 12 20 4 22 21 24 18 26
REMARK H PARENT 10 19 12 21 4 23 21 25 18 27
REMARK Flexibility Score: inf
ROOT
ATOM      1  C   UNL     1      38.929  25.403  39.147  1.00  0.00     0.180 A 
ATOM      2  C   UNL     1      39.871  25.058  40.132  1.00  0.00     0.208 A 
ATOM      3  C   UNL     1      39.759  25.628  41.411  1.00  0.00     0.238 A 
ATOM      4  O   UNL     1      40.647  25.373  42.264  1.00  0.00    -0.285 OA
ATOM      5  C   UNL     1      38.676  26.490  41.705  1.00  0.00     0.111 A 
ATOM      6  C   UNL     1      38.438  27.090  42.979  1.00  0.00     0.134 A 
ATOM      7  C   UNL     1      37.394  28.012  43.125  1.00  0.00     0.093 A 
ATOM      8  C   UNL     1      36.540  28.308  42.059  1.00  0.00     0.123 A 
ATOM      9  C   UNL     1      36.730  27.688  40.827  1.00  0.00     0.094 A 
ATOM     10  C   UNL     1      37.786  26.792  40.640  1.00  0.00     0.146 A 
ATOM     11  O   UNL     1      37.944  26.240  39.444  1.00  0.00    -0.452 OA
ENDROOT
BRANCH   1  12
ATOM     12  C   UNL     1      38.990  24.854  37.773  1.00  0.00     0.025 A 
ATOM     13  C   UNL     1      38.113  23.823  37.403  1.00  0.00     0.016 A 
ATOM     14  C   UNL     1      38.137  23.305  36.106  1.00  0.00     0.051 A 
ATOM     15  C   UNL     1      39.025  23.817  35.156  1.00  0.00     0.157 A 
ATOM     16  C   UNL     1      39.867  25.384  36.810  1.00  0.00     0.062 A 
ATOM     17  C   UNL     1      39.891  24.867  35.507  1.00  0.00     0.158 A 
BRANCH  15  18
ATOM     18  O   UNL     1      39.028  23.279  33.869  1.00  0.00    -0.504 OA
ATOM     19  H   UNL     1      39.872  23.218  33.313  1.00  0.00     0.293 HD
ENDBRANCH  15  18
BRANCH  17  20
ATOM     20  O   UNL     1      40.769  25.393  34.560  1.00  0.00    -0.504 OA
ATOM     21  H   UNL     1      41.755  25.161  34.564  1.00  0.00     0.293 HD
ENDBRANCH  17  20
ENDBRANCH   1  12
BRANCH   2  22
ATOM     22  O   UNL     1      40.889  24.144  39.844  1.00  0.00    -0.502 OA
ATOM     23  H   UNL     1      41.667  23.982  40.471  1.00  0.00     0.293 HD
ENDBRANCH   2  22
BRANCH   6  24
ATOM     24  O   UNL     1      39.174  26.799  44.132  1.00  0.00    -0.507 OA
ATOM     25  H   UNL     1      40.085  26.367  44.141  1.00  0.00     0.293 HD
ENDBRANCH   6  24
BRANCH   8  26
ATOM     26  O   UNL     1      35.493  29.213  42.219  1.00  0.00    -0.508 OA
ATOM     27  H   UNL     1      35.485  30.104  41.738  1.00  0.00     0.293 HD
ENDBRANCH   8  26
TORSDOF 6
ENDMDL
MODEL 2
REMARK VINA RESULT:    -8.356      0.586      1.442
REMARK INTER + INTRA:         -10.375
REMARK INTER:                 -10.114
REMARK INTRA:                  -0.261
REMARK UNBOUND:                -0.309
REMARK SMILES O=c1c(O)c(-c2ccc(O)c(O)c2)oc2cc(O)cc(O)c12
REMARK SMILES IDX 5 1 3 2 2 3 1 4 22 5 20 6 19 7 17 8 16 9 15 10 14 11 6 12
REMARK SMILES IDX 7 13 8 14 9 15 13 16 11 17 10 18 12 20 4 22 21 24 18 26
REMARK H PARENT 10 19 12 21 4 23 21 25 18 27
REMARK Flexibility Score: inf
ROOT
ATOM      1  C   UNL     1      38.930  25.389  38.996  1.00  0.00     0.180 A 
ATOM      2  C   UNL     1      39.868  25.005  39.970  1.00  0.00     0.208 A 
ATOM      3  C   UNL     1      39.761  25.536  41.266  1.00  0.00     0.238 A 
ATOM      4  O   UNL     1      40.646  25.246  42.111  1.00  0.00    -0.285 OA
ATOM      5  C   UNL     1      38.686  26.400  41.586  1.00  0.00     0.111 A 
ATOM      6  C   UNL     1      38.453  26.963  42.878  1.00  0.00     0.134 A 
ATOM      7  C   UNL     1      37.418  27.890  43.052  1.00  0.00     0.093 A 
ATOM      8  C   UNL     1      36.568  28.227  41.996  1.00  0.00     0.123 A 
ATOM      9  C   UNL     1      36.753  27.643  40.745  1.00  0.00     0.094 A 
ATOM     10  C   UNL     1      37.800  26.743  40.531  1.00  0.00     0.146 A 
ATOM     11  O   UNL     1      37.953  26.226  39.318  1.00  0.00    -0.452 OA
ENDROOT
BRANCH   1  12
ATOM     12  C   UNL     1      38.986  24.882  37.606  1.00  0.00     0.025 A 
ATOM     13  C   UNL     1      39.966  25.376  36.731  1.00  0.00     0.016 A 
ATOM     14  C   UNL     1      40.051  24.896  35.421  1.00  0.00     0.051 A 
ATOM     15  C   UNL     1      39.171  23.908  34.971  1.00  0.00     0.157 A 
ATOM     16  C   UNL     1      38.115  23.872  37.159  1.00  0.00     0.062 A 
ATOM     17  C   UNL     1      38.202  23.388  35.845  1.00  0.00     0.158 A 
BRANCH  15  18
ATOM     18  O   UNL     1      39.279  23.450  33.658  1.00  0.00    -0.504 OA
ATOM     19  H   UNL     1      39.343  24.083  32.870  1.00  0.00     0.293 HD
ENDBRANCH  15  18
BRANCH  17  20
ATOM     20  O   UNL     1      37.330  22.391  35.407  1.00  0.00    -0.504 OA
ATOM     21  H   UNL     1      37.661  21.590  34.882  1.00  0.00     0.293 HD
ENDBRANCH  17  20
ENDBRANCH   1  12
BRANCH   2  22
ATOM     22  O   UNL     1      40.877  24.090  39.654  1.00  0.00    -0.502 OA
ATOM     23  H   UNL     1      40.932  23.173  40.081  1.00  0.00     0.293 HD
ENDBRANCH   2  22
BRANCH   6  24
ATOM     24  O   UNL     1      39.186  26.628  44.022  1.00  0.00    -0.507 OA
ATOM     25  H   UNL     1      39.443  27.274  44.752  1.00  0.00     0.293 HD
ENDBRANCH   6  24
BRANCH   8  26
ATOM     26  O   UNL     1      35.530  29.137  42.182  1.00  0.00    -0.508 OA
ATOM     27  H   UNL     1      34.614  28.840  42.496  1.00  0.00     0.293 HD
ENDBRANCH   8  26
TORSDOF 6
ENDMDL
MODEL 3
REMARK VINA RESULT:    -7.642      2.276      7.655
REMARK INTER + INTRA:          -9.515
REMARK INTER:                  -9.440
REMARK INTRA:                  -0.075
REMARK UNBOUND:                -0.309
REMARK SMILES O=c1c(O)c(-c2ccc(O)c(O)c2)oc2cc(O)cc(O)c12
REMARK SMILES IDX 5 1 3 2 2 3 1 4 22 5 20 6 19 7 17 8 16 9 15 10 14 11 6 12
REMARK SMILES IDX 7 13 8 14 9 15 13 16 11 17 10 18 12 20 4 22 21 24 18 26
REMARK H PARENT 10 19 12 21 4 23 21 25 18 27
REMARK Flexibility Score: inf
ROOT
ATOM      1  C   UNL     1      36.984  28.177  42.685  1.00  0.00     0.180 A 
ATOM      2  C   UNL     1      38.003  27.635  43.487  1.00  0.00     0.208 A 
ATOM      3  C   UNL     1      38.872  26.682  42.933  1.00  0.00     0.238 A 
ATOM      4  O   UNL     1      39.733  26.146  43.677  1.00  0.00    -0.285 OA
ATOM      5  C   UNL     1      38.748  26.325  41.569  1.00  0.00     0.111 A 
ATOM      6  C   UNL     1      39.601  25.403  40.889  1.00  0.00     0.134 A 
ATOM      7  C   UNL     1      39.318  25.045  39.565  1.00  0.00     0.093 A 
ATOM      8  C   UNL     1      38.249  25.624  38.876  1.00  0.00     0.123 A 
ATOM      9  C   UNL     1      37.443  26.564  39.512  1.00  0.00     0.094 A 
ATOM     10  C   UNL     1      37.678  26.914  40.844  1.00  0.00     0.146 A 
ATOM     11  O   UNL     1      36.872  27.799  41.419  1.00  0.00    -0.452 OA
ENDROOT
BRANCH   1  12
ATOM     12  C   UNL     1      36.021  29.176  43.203  1.00  0.00     0.025 A 
ATOM     13  C   UNL     1      35.832  30.378  42.504  1.00  0.00     0.016 A 
ATOM     14  C   UNL     1      34.914  31.326  42.962  1.00  0.00     0.051 A 
ATOM     15  C   UNL     1      34.159  31.081  44.113  1.00  0.00     0.157 A 
ATOM     16  C   UNL     1      35.246  28.921  44.349  1.00  0.00     0.062 A 
ATOM     17  C   UNL     1      34.321  29.871  44.808  1.00  0.00     0.158 A 
BRANCH  15  18
ATOM     18  O   UNL     1      33.251  32.046  44.548  1.00  0.00    -0.504 OA
ATOM     19  H   UNL     1      33.533  32.996  44.758  1.00  0.00     0.293 HD
ENDBRANCH  15  18
BRANCH  17  20
ATOM     20  O   UNL     1      33.562  29.614  45.949  1.00  0.00    -0.504 OA
ATOM     21  H   UNL     1      33.672  30.162  46.794  1.00  0.00     0.293 HD
ENDBRANCH  17  20
ENDBRANCH   1  12
BRANCH   2  22
ATOM     22  O   UNL     1      38.157  28.058  44.811  1.00  0.00    -0.502 OA
ATOM     23  H   UNL     1      38.035  29.023  45.091  1.00  0.00     0.293 HD
ENDBRANCH   2  22
BRANCH   6  24
ATOM     24  O   UNL     1      40.747  24.833  41.454  1.00  0.00    -0.507 OA
ATOM     25  H   UNL     1      41.674  25.224  41.396  1.00  0.00     0.293 HD
ENDBRANCH   6  24
BRANCH   8  26
ATOM     26  O   UNL     1      37.984  25.275  37.553  1.00  0.00    -0.508 OA
ATOM     27  H   UNL     1      38.643  25.476  36.810  1.00  0.00     0.293 HD
ENDBRANCH   8  26
TORSDOF 6
ENDMDL
MODEL 4
REMARK VINA RESULT:    -6.783      4.215      7.766
REMARK INTER + INTRA:          -8.481
REMARK INTER:                  -8.365
REMARK INTRA:                  -0.116
REMARK UNBOUND:                -0.309
REMARK SMILES O=c1c(O)c(-c2ccc(O)c(O)c2)oc2cc(O)cc(O)c12
REMARK SMILES IDX 5 1 3 2 2 3 1 4 22 5 20 6 19 7 17 8 16 9 15 10 14 11 6 12
REMARK SMILES IDX 7 13 8 14 9 15 13 16 11 17 10 18 12 20 4 22 21 24 18 26
REMARK H PARENT 10 19 12 21 4 23 21 25 18 27
REMARK Flexibility Score: inf
ROOT
ATOM      1  C   UNL     1      35.682  30.072  43.031  1.00  0.00     0.180 A 
ATOM      2  C   UNL     1      34.772  30.162  44.099  1.00  0.00     0.208 A 
ATOM      3  C   UNL     1      33.933  31.285  44.185  1.00  0.00     0.238 A 
ATOM      4  O   UNL     1      33.174  31.395  45.182  1.00  0.00    -0.285 OA
ATOM      5  C   UNL     1      33.974  32.275  43.174  1.00  0.00     0.111 A 
ATOM      6  C   UNL     1      33.138  33.432  43.135  1.00  0.00     0.134 A 
ATOM      7  C   UNL     1      33.341  34.398  42.142  1.00  0.00     0.093 A 
ATOM      8  C   UNL     1      34.307  34.218  41.148  1.00  0.00     0.123 A 
ATOM      9  C   UNL     1      35.090  33.067  41.145  1.00  0.00     0.094 A 
ATOM     10  C   UNL     1      34.937  32.103  42.145  1.00  0.00     0.146 A 
ATOM     11  O   UNL     1      35.720  31.031  42.116  1.00  0.00    -0.452 OA
ENDROOT
BRANCH   1  12
ATOM     12  C   UNL     1      36.608  28.926  42.881  1.00  0.00     0.025 A 
ATOM     13  C   UNL     1      37.545  28.660  43.890  1.00  0.00     0.016 A 
ATOM     14  C   UNL     1      38.414  27.572  43.780  1.00  0.00     0.051 A 
ATOM     15  C   UNL     1      38.350  26.725  42.669  1.00  0.00     0.157 A 
ATOM     16  C   UNL     1      36.529  28.061  41.774  1.00  0.00     0.062 A 
ATOM     17  C   UNL     1      37.399  26.966  41.663  1.00  0.00     0.158 A 
BRANCH  15  18
ATOM     18  O   UNL     1      39.231  25.647  42.585  1.00  0.00    -0.504 OA
ATOM     19  H   UNL     1      39.611  25.330  41.701  1.00  0.00     0.293 HD
ENDBRANCH  15  18
BRANCH  17  20
ATOM     20  O   UNL     1      37.319  26.117  40.560  1.00  0.00    -0.504 OA
ATOM     21  H   UNL     1      36.637  25.369  40.514  1.00  0.00     0.293 HD
ENDBRANCH  17  20
ENDBRANCH   1  12
BRANCH   2  22
ATOM     22  O   UNL     1      34.692  29.137  45.046  1.00  0.00    -0.502 OA
ATOM     23  H   UNL     1      35.511  28.750  45.498  1.00  0.00     0.293 HD
ENDBRANCH   2  22
BRANCH   6  24
ATOM     24  O   UNL     1      32.085  33.668  44.025  1.00  0.00    -0.507 OA
ATOM     25  H   UNL     1      31.717  32.992  44.676  1.00  0.00     0.293 HD
ENDBRANCH   6  24
BRANCH   8  26
ATOM     26  O   UNL     1      34.490  35.177  40.154  1.00  0.00    -0.508 OA
ATOM     27  H   UNL     1      33.935  36.024  40.125  1.00  0.00     0.293 HD
ENDBRANCH   8  26
TORSDOF 6
ENDMDL
MODEL 5
REMARK VINA RESULT:    -6.727      4.316      7.936
REMARK INTER + INTRA:          -8.413
REMARK INTER:                  -8.220
REMARK INTRA:                  -0.193
REMARK UNBOUND:                -0.309
REMARK SMILES O=c1c(O)c(-c2ccc(O)c(O)c2)oc2cc(O)cc(O)c12
REMARK SMILES IDX 5 1 3 2 2 3 1 4 22 5 20 6 19 7 17 8 16 9 15 10 14 11 6 12
REMARK SMILES IDX 7 13 8 14 9 15 13 16 11 17 10 18 12 20 4 22 21 24 18 26
REMARK H PARENT 10 19 12 21 4 23 21 25 18 27
REMARK Flexibility Score: inf
ROOT
ATOM      1  C   UNL     1      35.644  30.280  43.321  1.00  0.00     0.180 A 
ATOM      2  C   UNL     1      35.613  31.441  42.529  1.00  0.00     0.208 A 
ATOM      3  C   UNL     1      34.778  32.504  42.910  1.00  0.00     0.238 A 
ATOM      4  O   UNL     1      34.700  33.509  42.157  1.00  0.00    -0.285 OA
ATOM      5  C   UNL     1      34.026  32.415  44.106  1.00  0.00     0.111 A 
ATOM      6  C   UNL     1      33.180  33.448  44.613  1.00  0.00     0.134 A 
ATOM      7  C   UNL     1      32.402  33.208  45.752  1.00  0.00     0.093 A 
ATOM      8  C   UNL     1      32.486  31.995  46.439  1.00  0.00     0.123 A 
ATOM      9  C   UNL     1      33.349  31.000  45.985  1.00  0.00     0.094 A 
ATOM     10  C   UNL     1      34.110  31.196  44.830  1.00  0.00     0.146 A 
ATOM     11  O   UNL     1      34.903  30.214  44.419  1.00  0.00    -0.452 OA
ENDROOT
BRANCH   1  12
ATOM     12  C   UNL     1      36.489  29.114  42.977  1.00  0.00     0.025 A 
ATOM     13  C   UNL     1      37.508  28.717  43.856  1.00  0.00     0.016 A 
ATOM     14  C   UNL     1      38.303  27.607  43.562  1.00  0.00     0.051 A 
ATOM     15  C   UNL     1      38.084  26.867  42.396  1.00  0.00     0.157 A 
ATOM     16  C   UNL     1      36.254  28.356  41.815  1.00  0.00     0.062 A 
ATOM     17  C   UNL     1      37.050  27.240  41.520  1.00  0.00     0.158 A 
BRANCH  15  18
ATOM     18  O   UNL     1      38.894  25.765  42.128  1.00  0.00    -0.504 OA
ATOM     19  H   UNL     1      38.957  24.977  42.760  1.00  0.00     0.293 HD
ENDBRANCH  15  18
BRANCH  17  20
ATOM     20  O   UNL     1      36.815  26.498  40.363  1.00  0.00    -0.504 OA
ATOM     21  H   UNL     1      36.194  25.697  40.363  1.00  0.00     0.293 HD
ENDBRANCH  17  20
ENDBRANCH   1  12
BRANCH   2  22
ATOM     22  O   UNL     1      36.422  31.540  41.392  1.00  0.00    -0.502 OA
ATOM     23  H   UNL     1      36.469  30.809  40.694  1.00  0.00     0.293 HD
ENDBRANCH   2  22
BRANCH   6  24
ATOM     24  O   UNL     1      33.087  34.728  44.056  1.00  0.00    -0.507 OA
ATOM     25  H   UNL     1      33.065  34.927  43.068  1.00  0.00     0.293 HD
ENDBRANCH   6  24
BRANCH   8  26
ATOM     26  O   UNL     1      31.721  31.771  47.582  1.00  0.00    -0.508 OA
ATOM     27  H   UNL     1      31.545  32.507  48.254  1.00  0.00     0.293 HD
ENDBRANCH   8  26
TORSDOF 6
ENDMDL
MODEL 6
REMARK VINA RESULT:    -6.671      4.345      7.931
REMARK INTER + INTRA:          -8.345
REMARK INTER:                  -8.036
REMARK INTRA:                  -0.309
REMARK UNBOUND:                -0.309
REMARK SMILES O=c1c(O)c(-c2ccc(O)c(O)c2)oc2cc(O)cc(O)c12
REMARK SMILES IDX 5 1 3 2 2 3 1 4 22 5 20 6 19 7 17 8 16 9 15 10 14 11 6 12
REMARK SMILES IDX 7 13 8 14 9 15 13 16 11 17 10 18 12 20 4 22 21 24 18 26
REMARK H PARENT 10 19 12 21 4 23 21 25 18 27
REMARK Flexibility Score: inf
ROOT
ATOM      1  C   UNL     1      35.943  30.136  43.817  1.00  0.00     0.180 A 
ATOM      2  C   UNL     1      34.709  30.013  44.477  1.00  0.00     0.208 A 
ATOM      3  C   UNL     1      34.148  31.146  45.090  1.00  0.00     0.238 A 
ATOM      4  O   UNL     1      33.081  31.013  45.742  1.00  0.00    -0.285 OA
ATOM      5  C   UNL     1      34.801  32.398  44.985  1.00  0.00     0.111 A 
ATOM      6  C   UNL     1      34.303  33.622  45.528  1.00  0.00     0.134 A 
ATOM      7  C   UNL     1      35.086  34.780  45.456  1.00  0.00     0.093 A 
ATOM      8  C   UNL     1      36.322  34.774  44.805  1.00  0.00     0.123 A 
ATOM      9  C   UNL     1      36.793  33.599  44.224  1.00  0.00     0.094 A 
ATOM     10  C   UNL     1      36.051  32.418  44.313  1.00  0.00     0.146 A 
ATOM     11  O   UNL     1      36.547  31.316  43.764  1.00  0.00    -0.452 OA
ENDROOT
BRANCH   1  12
ATOM     12  C   UNL     1      36.603  28.984  43.160  1.00  0.00     0.025 A 
ATOM     13  C   UNL     1      36.227  28.625  41.857  1.00  0.00     0.016 A 
ATOM     14  C   UNL     1      36.850  27.556  41.209  1.00  0.00     0.051 A 
ATOM     15  C   UNL     1      37.868  26.839  41.846  1.00  0.00     0.157 A 
ATOM     16  C   UNL     1      37.642  28.277  43.792  1.00  0.00     0.062 A 
ATOM     17  C   UNL     1      38.271  27.205  43.142  1.00  0.00     0.158 A 
BRANCH  15  18
ATOM     18  O   UNL     1      38.471  25.776  41.176  1.00  0.00    -0.504 OA
ATOM     19  H   UNL     1      38.467  25.703  40.166  1.00  0.00     0.293 HD
ENDBRANCH  15  18
BRANCH  17  20
ATOM     20  O   UNL     1      39.295  26.504  43.778  1.00  0.00    -0.504 OA
ATOM     21  H   UNL     1      39.830  25.792  43.294  1.00  0.00     0.293 HD
ENDBRANCH  17  20
ENDBRANCH   1  12
BRANCH   2  22
ATOM     22  O   UNL     1      34.042  28.784  44.503  1.00  0.00    -0.502 OA
ATOM     23  H   UNL     1      33.064  28.702  44.749  1.00  0.00     0.293 HD
ENDBRANCH   2  22
BRANCH   6  24
ATOM     24  O   UNL     1      33.044  33.760  46.122  1.00  0.00    -0.507 OA
ATOM     25  H   UNL     1      32.178  33.429  45.724  1.00  0.00     0.293 HD
ENDBRANCH   6  24
BRANCH   8  26
ATOM     26  O   UNL     1      37.087  35.935  44.722  1.00  0.00    -0.508 OA
ATOM     27  H   UNL     1      38.085  35.901  44.550  1.00  0.00     0.293 HD
ENDBRANCH   8  26
TORSDOF 6
ENDMDL
MODEL 7
REMARK VINA RESULT:    -6.662      8.174     12.570
REMARK INTER + INTRA:          -8.335
REMARK INTER:                  -8.118
REMARK INTRA:                  -0.217
REMARK UNBOUND:                -0.309
REMARK SMILES O=c1c(O)c(-c2ccc(O)c(O)c2)oc2cc(O)cc(O)c12
REMARK SMILES IDX 5 1 3 2 2 3 1 4 22 5 20 6 19 7 17 8 16 9 15 10 14 11 6 12
REMARK SMILES IDX 7 13 8 14 9 15 13 16 11 17 10 18 12 20 4 22 21 24 18 26
REMARK H PARENT 10 19 12 21 4 23 21 25 18 27
REMARK Flexibility Score: inf
ROOT
ATOM      1  C   UNL     1      36.509  33.953  46.553  1.00  0.00     0.180 A 
ATOM      2  C   UNL     1      35.240  33.491  46.941  1.00  0.00     0.208 A 
ATOM      3  C   UNL     1      34.447  32.810  46.004  1.00  0.00     0.238 A 
ATOM      4  O   UNL     1      33.284  32.465  46.336  1.00  0.00    -0.285 OA
ATOM      5  C   UNL     1      34.954  32.550  44.708  1.00  0.00     0.111 A 
ATOM      6  C   UNL     1      34.256  31.831  43.691  1.00  0.00     0.134 A 
ATOM      7  C   UNL     1      34.813  31.727  42.411  1.00  0.00     0.093 A 
ATOM      8  C   UNL     1      36.072  32.262  42.128  1.00  0.00     0.123 A 
ATOM      9  C   UNL     1      36.786  32.919  43.127  1.00  0.00     0.094 A 
ATOM     10  C   UNL     1      36.240  33.071  44.404  1.00  0.00     0.146 A 
ATOM     11  O   UNL     1      36.945  33.723  45.321  1.00  0.00    -0.452 OA
ENDROOT
BRANCH   1  12
ATOM     12  C   UNL     1      37.397  34.690  47.480  1.00  0.00     0.025 A 
ATOM     13  C   UNL     1      38.020  34.002  48.533  1.00  0.00     0.016 A 
ATOM     14  C   UNL     1      38.878  34.672  49.407  1.00  0.00     0.051 A 
ATOM     15  C   UNL     1      39.141  36.034  49.235  1.00  0.00     0.157 A 
ATOM     16  C   UNL     1      37.679  36.056  47.295  1.00  0.00     0.062 A 
ATOM     17  C   UNL     1      38.543  36.730  48.170  1.00  0.00     0.158 A 
BRANCH  15  18
ATOM     18  O   UNL     1      40.001  36.678  50.125  1.00  0.00    -0.504 OA
ATOM     19  H   UNL     1      40.161  36.333  51.063  1.00  0.00     0.293 HD
ENDBRANCH  15  18
BRANCH  17  20
ATOM     20  O   UNL     1      38.812  38.086  47.984  1.00  0.00    -0.504 OA
ATOM     21  H   UNL     1      38.510  38.783  48.654  1.00  0.00     0.293 HD
ENDBRANCH  17  20
ENDBRANCH   1  12
BRANCH   2  22
ATOM     22  O   UNL     1      34.788  33.690  48.249  1.00  0.00    -0.502 OA
ATOM     23  H   UNL     1      34.180  34.458  48.504  1.00  0.00     0.293 HD
ENDBRANCH   2  22
BRANCH   6  24
ATOM     24  O   UNL     1      33.033  31.181  43.891  1.00  0.00    -0.507 OA
ATOM     25  H   UNL     1      32.823  30.570  44.665  1.00  0.00     0.293 HD
ENDBRANCH   6  24
BRANCH   8  26
ATOM     26  O   UNL     1      36.627  32.139  40.855  1.00  0.00    -0.508 OA
ATOM     27  H   UNL     1      37.499  32.592  40.612  1.00  0.00     0.293 HD
ENDBRANCH   8  26
TORSDOF 6
ENDMDL
MODEL 8
REMARK VINA RESULT:    -6.560      7.475     11.504
REMARK INTER + INTRA:          -8.212
REMARK INTER:                  -7.971
REMARK INTRA:                  -0.242
REMARK UNBOUND:                -0.309
REMARK SMILES O=c1c(O)c(-c2ccc(O)c(O)c2)oc2cc(O)cc(O)c12
REMARK SMILES IDX 5 1 3 2 2 3 1 4 22 5 20 6 19 7 17 8 16 9 15 10 14 11 6 12
REMARK SMILES IDX 7 13 8 14 9 15 13 16 11 17 10 18 12 20 4 22 21 24 18 26
REMARK H PARENT 10 19 12 21 4 23 21 25 18 27
REMARK Flexibility Score: inf
ROOT
ATOM      1  C   UNL     1      35.596  33.483  46.112  1.00  0.00     0.180 A 
ATOM      2  C   UNL     1      34.515  34.306  46.472  1.00  0.00     0.208 A 
ATOM      3  C   UNL     1      34.670  35.205  47.540  1.00  0.00     0.238 A 
ATOM      4  O   UNL     1      33.677  35.886  47.904  1.00  0.00    -0.285 OA
ATOM      5  C   UNL     1      35.920  35.309  48.197  1.00  0.00     0.111 A 
ATOM      6  C   UNL     1      36.205  36.217  49.263  1.00  0.00     0.134 A 
ATOM      7  C   UNL     1      37.445  36.157  49.909  1.00  0.00     0.093 A 
ATOM      8  C   UNL     1      38.435  35.265  49.487  1.00  0.00     0.123 A 
ATOM      9  C   UNL     1      38.187  34.413  48.414  1.00  0.00     0.094 A 
ATOM     10  C   UNL     1      36.945  34.424  47.773  1.00  0.00     0.146 A 
ATOM     11  O   UNL     1      36.744  33.580  46.768  1.00  0.00    -0.452 OA
ENDROOT
BRANCH   1  12
ATOM     12  C   UNL     1      35.504  32.501  45.007  1.00  0.00     0.025 A 
ATOM     13  C   UNL     1      36.260  32.701  43.842  1.00  0.00     0.016 A 
ATOM     14  C   UNL     1      36.206  31.778  42.796  1.00  0.00     0.051 A 
ATOM     15  C   UNL     1      35.410  30.634  42.902  1.00  0.00     0.157 A 
ATOM     16  C   UNL     1      34.719  31.340  45.122  1.00  0.00     0.062 A 
ATOM     17  C   UNL     1      34.666  30.410  44.073  1.00  0.00     0.158 A 
BRANCH  15  18
ATOM     18  O   UNL     1      35.374  29.730  41.840  1.00  0.00    -0.504 OA
ATOM     19  H   UNL     1      35.995  28.932  41.791  1.00  0.00     0.293 HD
ENDBRANCH  15  18
BRANCH  17  20
ATOM     20  O   UNL     1      33.880  29.263  44.192  1.00  0.00    -0.504 OA
ATOM     21  H   UNL     1      32.981  29.283  44.657  1.00  0.00     0.293 HD
ENDBRANCH  17  20
ENDBRANCH   1  12
BRANCH   2  22
ATOM     22  O   UNL     1      33.314  34.244  45.760  1.00  0.00    -0.502 OA
ATOM     23  H   UNL     1      32.968  33.384  45.351  1.00  0.00     0.293 HD
ENDBRANCH   2  22
BRANCH   6  24
ATOM     24  O   UNL     1      35.321  37.207  49.705  1.00  0.00    -0.507 OA
ATOM     25  H   UNL     1      35.394  37.695  50.584  1.00  0.00     0.293 HD
ENDBRANCH   6  24
BRANCH   8  26
ATOM     26  O   UNL     1      39.673  35.225  50.125  1.00  0.00    -0.508 OA
ATOM     27  H   UNL     1      39.817  35.655  51.030  1.00  0.00     0.293 HD
ENDBRANCH   8  26
TORSDOF 6
ENDMDL
