MODEL 1
REMARK VINA RESULT:    -6.605      0.000      0.000
REMARK INTER + INTRA:          -8.059
REMARK INTER:                  -7.763
REMARK INTRA:                  -0.297
REMARK UNBOUND:                -0.297
REMARK SMILES O=c1c(O)c(-c2ccc(O)cc2)oc2cc(O)cc(O)c12
REMARK SMILES IDX 5 1 3 2 2 3 1 4 21 5 19 6 18 7 16 8 15 9 14 10 13 11 6 12
REMARK SMILES IDX 7 13 8 14 9 15 12 16 11 17 10 18 4 20 20 22 17 24
REMARK H PARENT 10 19 4 21 20 23 17 25
REMARK Flexibility Score: inf
ROOT
ATOM      1  C   UNL     1      -0.888  24.942  28.896  1.00  0.00     0.180 A 
ATOM      2  C   UNL     1      -0.288  23.763  28.421  1.00  0.00     0.208 A 
ATOM      3  C   UNL     1       1.083  23.772  28.116  1.00  0.00     0.238 A 
ATOM      4  O   UNL     1       1.602  22.728  27.641  1.00  0.00    -0.285 OA
ATOM      5  C   UNL     1       1.838  24.954  28.302  1.00  0.00     0.111 A 
ATOM      6  C   UNL     1       3.241  25.065  28.063  1.00  0.00     0.134 A 
ATOM      7  C   UNL     1       3.861  26.318  28.157  1.00  0.00     0.093 A 
ATOM      8  C   UNL     1       3.140  27.450  28.544  1.00  0.00     0.123 A 
ATOM      9  C   UNL     1       1.783  27.340  28.837  1.00  0.00     0.094 A 
ATOM     10  C   UNL     1       1.130  26.111  28.718  1.00  0.00     0.146 A 
ATOM     11  O   UNL     1      -0.167  26.052  28.996  1.00  0.00    -0.452 OA
ENDROOT
BRANCH   1  12
ATOM     12  C   UNL     1      -2.321  25.004  29.262  1.00  0.00     0.021 A 
ATOM     13  C   UNL     1      -2.766  24.641  30.547  1.00  0.00     0.016 A 
ATOM     14  C   UNL     1      -4.122  24.731  30.878  1.00  0.00     0.047 A 
ATOM     15  C   UNL     1      -5.047  25.199  29.935  1.00  0.00     0.115 A 
ATOM     16  C   UNL     1      -3.253  25.492  28.331  1.00  0.00     0.016 A 
ATOM     17  C   UNL     1      -4.609  25.580  28.664  1.00  0.00     0.047 A 
BRANCH  15  18
ATOM     18  O   UNL     1      -6.400  25.292  30.253  1.00  0.00    -0.508 OA
ATOM     19  H   UNL     1      -6.710  25.461  31.204  1.00  0.00     0.293 HD
ENDBRANCH  15  18
ENDBRANCH   1  12
BRANCH   2  20
ATOM     20  O   UNL     1      -1.057  22.612  28.224  1.00  0.00    -0.502 OA
ATOM     21  H   UNL     1      -0.935  21.774  28.779  1.00  0.00     0.293 HD
ENDBRANCH   2  20
BRANCH   6  22
ATOM     22  O   UNL     1       4.070  23.981  27.761  1.00  0.00    -0.507 OA
ATOM     23  H   UNL     1       5.042  23.911  28.019  1.00  0.00     0.293 HD
ENDBRANCH   6  22
BRANCH   8  24
ATOM     24  O   UNL     1       3.768  28.689  28.650  1.00  0.00    -0.508 OA
ATOM     25  H   UNL     1       4.753  28.804  28.444  1.00  0.00     0.293 HD
ENDBRANCH   8  24
TORSDOF 5
ENDMDL
MODEL 2
REMARK VINA RESULT:    -6.254      1.858      7.179
REMARK INTER + INTRA:          -7.647
REMARK INTER:                  -7.370
REMARK INTRA:                  -0.277
REMARK UNBOUND:                -0.297
REMARK SMILES O=c1c(O)c(-c2ccc(O)cc2)oc2cc(O)cc(O)c12
REMARK SMILES IDX 5 1 3 2 2 3 1 4 21 5 19 6 18 7 16 8 15 9 14 10 13 11 6 12
REMARK SMILES IDX 7 13 8 14 9 15 12 16 11 17 10 18 4 20 20 22 17 24
REMARK H PARENT 10 19 4 21 20 23 17 25
REMARK Flexibility Score: inf
ROOT
ATOM      1  C   UNL     1      -1.750  24.487  29.259  1.00  0.00     0.180 A 
ATOM      2  C   UNL     1      -2.726  25.098  28.452  1.00  0.00     0.208 A 
ATOM      3  C   UNL     1      -4.024  25.264  28.961  1.00  0.00     0.238 A 
ATOM      4  O   UNL     1      -4.906  25.762  28.214  1.00  0.00    -0.285 OA
ATOM      5  C   UNL     1      -4.326  24.832  30.274  1.00  0.00     0.111 A 
ATOM      6  C   UNL     1      -5.597  24.986  30.906  1.00  0.00     0.134 A 
ATOM      7  C   UNL     1      -5.820  24.405  32.161  1.00  0.00     0.093 A 
ATOM      8  C   UNL     1      -4.798  23.731  32.834  1.00  0.00     0.123 A 
ATOM      9  C   UNL     1      -3.538  23.626  32.251  1.00  0.00     0.094 A 
ATOM     10  C   UNL     1      -3.295  24.165  30.986  1.00  0.00     0.146 A 
ATOM     11  O   UNL     1      -2.082  24.033  30.462  1.00  0.00    -0.452 OA
ENDROOT
BRANCH   1  12
ATOM     12  C   UNL     1      -0.355  24.300  28.802  1.00  0.00     0.021 A 
ATOM     13  C   UNL     1       0.067  23.095  28.210  1.00  0.00     0.016 A 
ATOM     14  C   UNL     1       1.384  22.949  27.763  1.00  0.00     0.047 A 
ATOM     15  C   UNL     1       2.292  24.009  27.890  1.00  0.00     0.115 A 
ATOM     16  C   UNL     1       0.557  25.364  28.906  1.00  0.00     0.016 A 
ATOM     17  C   UNL     1       1.874  25.215  28.459  1.00  0.00     0.047 A 
BRANCH  15  18
ATOM     18  O   UNL     1       3.607  23.875  27.450  1.00  0.00    -0.508 OA
ATOM     19  H   UNL     1       4.370  24.360  27.908  1.00  0.00     0.293 HD
ENDBRANCH  15  18
ENDBRANCH   1  12
BRANCH   2  20
ATOM     20  O   UNL     1      -2.412  25.497  27.150  1.00  0.00    -0.502 OA
ATOM     21  H   UNL     1      -2.909  25.148  26.339  1.00  0.00     0.293 HD
ENDBRANCH   2  20
BRANCH   6  22
ATOM     22  O   UNL     1      -6.655  25.719  30.361  1.00  0.00    -0.507 OA
ATOM     23  H   UNL     1      -7.429  25.319  29.853  1.00  0.00     0.293 HD
ENDBRANCH   6  22
BRANCH   8  24
ATOM     24  O   UNL     1      -5.025  23.169  34.088  1.00  0.00    -0.508 OA
ATOM     25  H   UNL     1      -4.975  23.723  34.935  1.00  0.00     0.293 HD
ENDBRANCH   8  24
TORSDOF 5
ENDMDL
MODEL 3
REMARK VINA RESULT:    -6.188      2.501      6.755
REMARK INTER + INTRA:          -7.570
REMARK INTER:                  -7.300
REMARK INTRA:                  -0.271
REMARK UNBOUND:                -0.297
REMARK SMILES O=c1c(O)c(-c2ccc(O)cc2)oc2cc(O)cc(O)c12
REMARK SMILES IDX 5 1 3 2 2 3 1 4 21 5 19 6 18 7 16 8 15 9 14 10 13 11 6 12
REMARK SMILES IDX 7 13 8 14 9 15 12 16 11 17 10 18 4 20 20 22 17 24
REMARK H PARENT 10 19 4 21 20 23 17 25
REMARK Flexibility Score: inf
ROOT
ATOM      1  C   UNL     1       2.462  26.777  28.795  1.00  0.00     0.180 A 
ATOM      2  C   UNL     1       2.553  26.613  27.402  1.00  0.00     0.208 A 
ATOM      3  C   UNL     1       1.606  25.808  26.748  1.00  0.00     0.238 A 
ATOM      4  O   UNL     1       1.725  25.622  25.509  1.00  0.00    -0.285 OA
ATOM      5  C   UNL     1       0.572  25.192  27.491  1.00  0.00     0.111 A 
ATOM      6  C   UNL     1      -0.464  24.389  26.927  1.00  0.00     0.134 A 
ATOM      7  C   UNL     1      -1.360  23.722  27.772  1.00  0.00     0.093 A 
ATOM      8  C   UNL     1      -1.297  23.881  29.158  1.00  0.00     0.123 A 
ATOM      9  C   UNL     1      -0.326  24.710  29.715  1.00  0.00     0.094 A 
ATOM     10  C   UNL     1       0.604  25.360  28.900  1.00  0.00     0.146 A 
ATOM     11  O   UNL     1       1.520  26.132  29.473  1.00  0.00    -0.452 OA
ENDROOT
BRANCH   1  12
ATOM     12  C   UNL     1       3.408  27.628  29.552  1.00  0.00     0.021 A 
ATOM     13  C   UNL     1       3.072  28.943  29.927  1.00  0.00     0.016 A 
ATOM     14  C   UNL     1       3.972  29.720  30.663  1.00  0.00     0.047 A 
ATOM     15  C   UNL     1       5.211  29.189  31.045  1.00  0.00     0.115 A 
ATOM     16  C   UNL     1       4.643  27.098  29.958  1.00  0.00     0.016 A 
ATOM     17  C   UNL     1       5.543  27.878  30.693  1.00  0.00     0.047 A 
BRANCH  15  18
ATOM     18  O   UNL     1       6.116  29.954  31.777  1.00  0.00    -0.508 OA
ATOM     19  H   UNL     1       5.809  30.725  32.360  1.00  0.00     0.293 HD
ENDBRANCH  15  18
ENDBRANCH   1  12
BRANCH   2  20
ATOM     20  O   UNL     1       3.595  27.213  26.690  1.00  0.00    -0.502 OA
ATOM     21  H   UNL     1       3.740  28.215  26.678  1.00  0.00     0.293 HD
ENDBRANCH   2  20
BRANCH   6  22
ATOM     22  O   UNL     1      -0.673  24.238  25.553  1.00  0.00    -0.507 OA
ATOM     23  H   UNL     1      -1.023  23.400  25.113  1.00  0.00     0.293 HD
ENDBRANCH   6  22
BRANCH   8  24
ATOM     24  O   UNL     1      -2.201  23.226  29.990  1.00  0.00    -0.508 OA
ATOM     25  H   UNL     1      -1.896  22.541  30.671  1.00  0.00     0.293 HD
ENDBRANCH   8  24
TORSDOF 5
ENDMDL
MODEL 4
REMARK VINA RESULT:    -6.025      2.176      3.297
REMARK INTER + INTRA:          -7.378
REMARK INTER:                  -7.123
REMARK INTRA:                  -0.255
REMARK UNBOUND:                -0.297
REMARK SMILES O=c1c(O)c(-c2ccc(O)cc2)oc2cc(O)cc(O)c12
REMARK SMILES IDX 5 1 3 2 2 3 1 4 21 5 19 6 18 7 16 8 15 9 14 10 13 11 6 12
REMARK SMILES IDX 7 13 8 14 9 15 12 16 11 17 10 18 4 20 20 22 17 24
REMARK H PARENT 10 19 4 21 20 23 17 25
REMARK Flexibility Score: inf
ROOT
ATOM      1  C   UNL     1      -1.717  24.701  29.420  1.00  0.00     0.180 A 
ATOM      2  C   UNL     1      -2.205  25.507  28.377  1.00  0.00     0.208 A 
ATOM      3  C   UNL     1      -1.345  25.848  27.321  1.00  0.00     0.238 A 
ATOM      4  O   UNL     1      -1.773  26.613  26.417  1.00  0.00    -0.285 OA
ATOM      5  C   UNL     1      -0.014  25.368  27.313  1.00  0.00     0.111 A 
ATOM      6  C   UNL     1       0.931  25.617  26.273  1.00  0.00     0.134 A 
ATOM      7  C   UNL     1       2.259  25.201  26.432  1.00  0.00     0.093 A 
ATOM      8  C   UNL     1       2.659  24.487  27.564  1.00  0.00     0.123 A 
ATOM      9  C   UNL     1       1.730  24.187  28.556  1.00  0.00     0.094 A 
ATOM     10  C   UNL     1       0.407  24.619  28.443  1.00  0.00     0.146 A 
ATOM     11  O   UNL     1      -0.444  24.322  29.417  1.00  0.00    -0.452 OA
ENDROOT
BRANCH   1  12
ATOM     12  C   UNL     1      -2.569  24.280  30.555  1.00  0.00     0.021 A 
ATOM     13  C   UNL     1      -3.110  22.982  30.623  1.00  0.00     0.016 A 
ATOM     14  C   UNL     1      -3.892  22.599  31.718  1.00  0.00     0.047 A 
ATOM     15  C   UNL     1      -4.131  23.500  32.763  1.00  0.00     0.115 A 
ATOM     16  C   UNL     1      -2.795  25.170  31.619  1.00  0.00     0.016 A 
ATOM     17  C   UNL     1      -3.579  24.784  32.711  1.00  0.00     0.047 A 
BRANCH  15  18
ATOM     18  O   UNL     1      -4.909  23.130  33.857  1.00  0.00    -0.508 OA
ATOM     19  H   UNL     1      -4.491  22.920  34.757  1.00  0.00     0.293 HD
ENDBRANCH  15  18
ENDBRANCH   1  12
BRANCH   2  20
ATOM     20  O   UNL     1      -3.517  25.989  28.416  1.00  0.00    -0.502 OA
ATOM     21  H   UNL     1      -4.199  25.766  27.701  1.00  0.00     0.293 HD
ENDBRANCH   2  20
BRANCH   6  22
ATOM     22  O   UNL     1       0.614  26.240  25.062  1.00  0.00    -0.507 OA
ATOM     23  H   UNL     1       0.684  25.803  24.156  1.00  0.00     0.293 HD
ENDBRANCH   6  22
BRANCH   8  24
ATOM     24  O   UNL     1       3.979  24.064  27.707  1.00  0.00    -0.508 OA
ATOM     25  H   UNL     1       4.363  23.819  28.611  1.00  0.00     0.293 HD
ENDBRANCH   8  24
TORSDOF 5
ENDMDL
MODEL 5
REMARK VINA RESULT:    -5.899      3.325      4.077
REMARK INTER + INTRA:          -7.231
REMARK INTER:                  -6.978
REMARK INTRA:                  -0.253
REMARK UNBOUND:                -0.297
REMARK SMILES O=c1c(O)c(-c2ccc(O)cc2)oc2cc(O)cc(O)c12
REMARK SMILES IDX 5 1 3 2 2 3 1 4 21 5 19 6 18 7 16 8 15 9 14 10 13 11 6 12
REMARK SMILES IDX 7 13 8 14 9 15 12 16 11 17 10 18 4 20 20 22 17 24
REMARK H PARENT 10 19 4 21 20 23 17 25
REMARK Flexibility Score: inf
ROOT
ATOM      1  C   UNL     1      -0.777  25.352  27.406  1.00  0.00     0.180 A 
ATOM      2  C   UNL     1       0.609  25.229  27.208  1.00  0.00     0.208 A 
ATOM      3  C   UNL     1       1.270  26.177  26.411  1.00  0.00     0.238 A 
ATOM      4  O   UNL     1       2.502  26.030  26.194  1.00  0.00    -0.285 OA
ATOM      5  C   UNL     1       0.541  27.244  25.834  1.00  0.00     0.111 A 
ATOM      6  C   UNL     1       1.115  28.283  25.042  1.00  0.00     0.134 A 
ATOM      7  C   UNL     1       0.279  29.216  24.415  1.00  0.00     0.093 A 
ATOM      8  C   UNL     1      -1.104  29.184  24.604  1.00  0.00     0.123 A 
ATOM      9  C   UNL     1      -1.668  28.209  25.423  1.00  0.00     0.094 A 
ATOM     10  C   UNL     1      -0.864  27.244  26.034  1.00  0.00     0.146 A 
ATOM     11  O   UNL     1      -1.444  26.326  26.797  1.00  0.00    -0.452 OA
ENDROOT
BRANCH   1  12
ATOM     12  C   UNL     1      -1.539  24.407  28.252  1.00  0.00     0.021 A 
ATOM     13  C   UNL     1      -1.910  23.134  27.779  1.00  0.00     0.016 A 
ATOM     14  C   UNL     1      -2.608  22.248  28.605  1.00  0.00     0.047 A 
ATOM     15  C   UNL     1      -2.932  22.616  29.917  1.00  0.00     0.115 A 
ATOM     16  C   UNL     1      -1.849  24.759  29.576  1.00  0.00     0.016 A 
ATOM     17  C   UNL     1      -2.550  23.871  30.400  1.00  0.00     0.047 A 
BRANCH  15  18
ATOM     18  O   UNL     1      -3.629  21.743  30.749  1.00  0.00    -0.508 OA
ATOM     19  H   UNL     1      -3.144  21.102  31.369  1.00  0.00     0.293 HD
ENDBRANCH  15  18
ENDBRANCH   1  12
BRANCH   2  20
ATOM     20  O   UNL     1       1.307  24.155  27.768  1.00  0.00    -0.502 OA
ATOM     21  H   UNL     1       1.618  24.151  28.732  1.00  0.00     0.293 HD
ENDBRANCH   2  20
BRANCH   6  22
ATOM     22  O   UNL     1       2.490  28.460  24.865  1.00  0.00    -0.507 OA
ATOM     23  H   UNL     1       2.964  28.428  23.975  1.00  0.00     0.293 HD
ENDBRANCH   6  22
BRANCH   8  24
ATOM     24  O   UNL     1      -1.926  30.125  23.988  1.00  0.00    -0.508 OA
ATOM     25  H   UNL     1      -1.591  31.053  23.757  1.00  0.00     0.293 HD
ENDBRANCH   8  24
TORSDOF 5
ENDMDL
MODEL 6
REMARK VINA RESULT:    -5.877      2.934      6.076
REMARK INTER + INTRA:          -7.205
REMARK INTER:                  -7.018
REMARK INTRA:                  -0.187
REMARK UNBOUND:                -0.297
REMARK SMILES O=c1c(O)c(-c2ccc(O)cc2)oc2cc(O)cc(O)c12
REMARK SMILES IDX 5 1 3 2 2 3 1 4 21 5 19 6 18 7 16 8 15 9 14 10 13 11 6 12
REMARK SMILES IDX 7 13 8 14 9 15 12 16 11 17 10 18 4 20 20 22 17 24
REMARK H PARENT 10 19 4 21 20 23 17 25
REMARK Flexibility Score: inf
ROOT
ATOM      1  C   UNL     1      -0.631  25.464  27.297  1.00  0.00     0.180 A 
ATOM      2  C   UNL     1      -1.121  24.217  26.875  1.00  0.00     0.208 A 
ATOM      3  C   UNL     1      -1.814  23.411  27.792  1.00  0.00     0.238 A 
ATOM      4  O   UNL     1      -2.203  22.272  27.422  1.00  0.00    -0.285 OA
ATOM      5  C   UNL     1      -2.020  23.868  29.116  1.00  0.00     0.111 A 
ATOM      6  C   UNL     1      -2.742  23.152  30.117  1.00  0.00     0.134 A 
ATOM      7  C   UNL     1      -2.773  23.641  31.429  1.00  0.00     0.093 A 
ATOM      8  C   UNL     1      -2.162  24.853  31.761  1.00  0.00     0.123 A 
ATOM      9  C   UNL     1      -1.505  25.587  30.777  1.00  0.00     0.094 A 
ATOM     10  C   UNL     1      -1.427  25.109  29.467  1.00  0.00     0.146 A 
ATOM     11  O   UNL     1      -0.782  25.836  28.563  1.00  0.00    -0.452 OA
ENDROOT
BRANCH   1  12
ATOM     12  C   UNL     1       0.087  26.380  26.382  1.00  0.00     0.021 A 
ATOM     13  C   UNL     1      -0.487  27.594  25.961  1.00  0.00     0.016 A 
ATOM     14  C   UNL     1       0.221  28.455  25.116  1.00  0.00     0.047 A 
ATOM     15  C   UNL     1       1.513  28.121  24.692  1.00  0.00     0.115 A 
ATOM     16  C   UNL     1       1.392  26.063  25.969  1.00  0.00     0.016 A 
ATOM     17  C   UNL     1       2.097  26.926  25.122  1.00  0.00     0.047 A 
BRANCH  15  18
ATOM     18  O   UNL     1       2.227  28.969  23.849  1.00  0.00    -0.508 OA
ATOM     19  H   UNL     1       1.962  29.097  22.878  1.00  0.00     0.293 HD
ENDBRANCH  15  18
ENDBRANCH   1  12
BRANCH   2  20
ATOM     20  O   UNL     1      -0.887  23.775  25.569  1.00  0.00    -0.502 OA
ATOM     21  H   UNL     1      -1.501  24.007  24.798  1.00  0.00     0.293 HD
ENDBRANCH   2  20
BRANCH   6  22
ATOM     22  O   UNL     1      -3.464  21.981  29.871  1.00  0.00    -0.507 OA
ATOM     23  H   UNL     1      -3.449  21.468  29.003  1.00  0.00     0.293 HD
ENDBRANCH   6  22
BRANCH   8  24
ATOM     24  O   UNL     1      -2.210  25.338  33.065  1.00  0.00    -0.508 OA
ATOM     25  H   UNL     1      -1.949  24.762  33.856  1.00  0.00     0.293 HD
ENDBRANCH   8  24
TORSDOF 5
ENDMDL
MODEL 7
REMARK VINA RESULT:    -5.762      2.798      6.922
REMARK INTER + INTRA:          -7.069
REMARK INTER:                  -6.781
REMARK INTRA:                  -0.288
REMARK UNBOUND:                -0.297
REMARK SMILES O=c1c(O)c(-c2ccc(O)cc2)oc2cc(O)cc(O)c12
REMARK SMILES IDX 5 1 3 2 2 3 1 4 21 5 19 6 18 7 16 8 15 9 14 10 13 11 6 12
REMARK SMILES IDX 7 13 8 14 9 15 12 16 11 17 10 18 4 20 20 22 17 24
REMARK H PARENT 10 19 4 21 20 23 17 25
REMARK Flexibility Score: inf
ROOT
ATOM      1  C   UNL     1      -2.157  25.090  29.235  1.00  0.00     0.180 A 
ATOM      2  C   UNL     1      -1.648  24.337  30.308  1.00  0.00     0.208 A 
ATOM      3  C   UNL     1      -2.514  23.960  31.346  1.00  0.00     0.238 A 
ATOM      4  O   UNL     1      -2.041  23.332  32.330  1.00  0.00    -0.285 OA
ATOM      5  C   UNL     1      -3.880  24.328  31.293  1.00  0.00     0.111 A 
ATOM      6  C   UNL     1      -4.855  23.966  32.270  1.00  0.00     0.134 A 
ATOM      7  C   UNL     1      -6.149  24.495  32.183  1.00  0.00     0.093 A 
ATOM      8  C   UNL     1      -6.520  25.319  31.118  1.00  0.00     0.123 A 
ATOM      9  C   UNL     1      -5.592  25.630  30.129  1.00  0.00     0.094 A 
ATOM     10  C   UNL     1      -4.283  25.147  30.206  1.00  0.00     0.146 A 
ATOM     11  O   UNL     1      -3.427  25.476  29.247  1.00  0.00    -0.452 OA
ENDROOT
BRANCH   1  12
ATOM     12  C   UNL     1      -1.312  25.503  28.092  1.00  0.00     0.021 A 
ATOM     13  C   UNL     1      -1.055  24.632  27.017  1.00  0.00     0.016 A 
ATOM     14  C   UNL     1      -0.274  25.053  25.936  1.00  0.00     0.047 A 
ATOM     15  C   UNL     1       0.248  26.352  25.909  1.00  0.00     0.115 A 
ATOM     16  C   UNL     1      -0.802  26.812  28.046  1.00  0.00     0.016 A 
ATOM     17  C   UNL     1      -0.019  27.230  26.964  1.00  0.00     0.047 A 
BRANCH  15  18
ATOM     18  O   UNL     1       1.028  26.783  24.838  1.00  0.00    -0.508 OA
ATOM     19  H   UNL     1       1.323  27.750  24.752  1.00  0.00     0.293 HD
ENDBRANCH  15  18
ENDBRANCH   1  12
BRANCH   2  20
ATOM     20  O   UNL     1      -0.291  24.003  30.352  1.00  0.00    -0.502 OA
ATOM     21  H   UNL     1       0.298  24.224  31.145  1.00  0.00     0.293 HD
ENDBRANCH   2  20
BRANCH   6  22
ATOM     22  O   UNL     1      -4.615  23.076  33.321  1.00  0.00    -0.507 OA
ATOM     23  H   UNL     1      -5.306  22.462  33.724  1.00  0.00     0.293 HD
ENDBRANCH   6  22
BRANCH   8  24
ATOM     24  O   UNL     1      -7.814  25.828  31.032  1.00  0.00    -0.508 OA
ATOM     25  H   UNL     1      -8.096  26.435  30.272  1.00  0.00     0.293 HD
ENDBRANCH   8  24
TORSDOF 5
ENDMDL
MODEL 8
REMARK VINA RESULT:    -5.685      2.785      7.012
REMARK INTER + INTRA:          -6.978
REMARK INTER:                  -6.679
REMARK INTRA:                  -0.300
REMARK UNBOUND:                -0.297
REMARK SMILES O=c1c(O)c(-c2ccc(O)cc2)oc2cc(O)cc(O)c12
REMARK SMILES IDX 5 1 3 2 2 3 1 4 21 5 19 6 18 7 16 8 15 9 14 10 13 11 6 12
REMARK SMILES IDX 7 13 8 14 9 15 12 16 11 17 10 18 4 20 20 22 17 24
REMARK H PARENT 10 19 4 21 20 23 17 25
REMARK Flexibility Score: inf
ROOT
ATOM      1  C   UNL     1       2.398  27.417  29.123  1.00  0.00     0.180 A 
ATOM      2  C   UNL     1       2.045  28.190  28.004  1.00  0.00     0.208 A 
ATOM      3  C   UNL     1       1.019  27.735  27.159  1.00  0.00     0.238 A 
ATOM      4  O   UNL     1       0.744  28.405  26.129  1.00  0.00    -0.285 OA
ATOM      5  C   UNL     1       0.351  26.522  27.451  1.00  0.00     0.111 A 
ATOM      6  C   UNL     1      -0.729  25.987  26.687  1.00  0.00     0.134 A 
ATOM      7  C   UNL     1      -1.229  24.715  26.993  1.00  0.00     0.093 A 
ATOM      8  C   UNL     1      -0.731  23.988  28.077  1.00  0.00     0.123 A 
ATOM      9  C   UNL     1       0.282  24.528  28.865  1.00  0.00     0.094 A 
ATOM     10  C   UNL     1       0.826  25.778  28.563  1.00  0.00     0.146 A 
ATOM     11  O   UNL     1       1.798  26.251  29.333  1.00  0.00    -0.452 OA
ENDROOT
BRANCH   1  12
ATOM     12  C   UNL     1       3.451  27.841  30.073  1.00  0.00     0.021 A 
ATOM     13  C   UNL     1       3.155  28.666  31.175  1.00  0.00     0.016 A 
ATOM     14  C   UNL     1       4.162  29.035  32.073  1.00  0.00     0.047 A 
ATOM     15  C   UNL     1       5.472  28.573  31.890  1.00  0.00     0.115 A 
ATOM     16  C   UNL     1       4.763  27.366  29.911  1.00  0.00     0.016 A 
ATOM     17  C   UNL     1       5.768  27.737  30.810  1.00  0.00     0.047 A 
BRANCH  15  18
ATOM     18  O   UNL     1       6.483  28.934  32.778  1.00  0.00    -0.508 OA
ATOM     19  H   UNL     1       7.413  28.536  32.711  1.00  0.00     0.293 HD
ENDBRANCH  15  18
ENDBRANCH   1  12
BRANCH   2  20
ATOM     20  O   UNL     1       2.732  29.373  27.721  1.00  0.00    -0.502 OA
ATOM     21  H   UNL     1       3.165  29.937  28.442  1.00  0.00     0.293 HD
ENDBRANCH   2  20
BRANCH   6  22
ATOM     22  O   UNL     1      -1.360  26.670  25.643  1.00  0.00    -0.507 OA
ATOM     23  H   UNL     1      -0.912  26.943  24.781  1.00  0.00     0.293 HD
ENDBRANCH   6  22
BRANCH   8  24
ATOM     24  O   UNL     1      -1.245  22.730  28.384  1.00  0.00    -0.508 OA
ATOM     25  H   UNL     1      -0.882  21.889  27.951  1.00  0.00     0.293 HD
ENDBRANCH   8  24
TORSDOF 5
ENDMDL
MODEL 9
REMARK VINA RESULT:    -5.589      2.432      3.254
REMARK INTER + INTRA:          -6.866
REMARK INTER:                  -6.577
REMARK INTRA:                  -0.289
REMARK UNBOUND:                -0.297
REMARK SMILES O=c1c(O)c(-c2ccc(O)cc2)oc2cc(O)cc(O)c12
REMARK SMILES IDX 5 1 3 2 2 3 1 4 21 5 19 6 18 7 16 8 15 9 14 10 13 11 6 12
REMARK SMILES IDX 7 13 8 14 9 15 12 16 11 17 10 18 4 20 20 22 17 24
REMARK H PARENT 10 19 4 21 20 23 17 25
REMARK Flexibility Score: inf
ROOT
ATOM      1  C   UNL     1      -1.487  25.702  28.816  1.00  0.00     0.180 A 
ATOM      2  C   UNL     1      -2.172  26.292  27.739  1.00  0.00     0.208 A 
ATOM      3  C   UNL     1      -1.431  26.913  26.720  1.00  0.00     0.238 A 
ATOM      4  O   UNL     1      -2.052  27.486  25.787  1.00  0.00    -0.285 OA
ATOM      5  C   UNL     1      -0.018  26.924  26.783  1.00  0.00     0.111 A 
ATOM      6  C   UNL     1       0.833  27.489  25.787  1.00  0.00     0.134 A 
ATOM      7  C   UNL     1       2.213  27.559  26.015  1.00  0.00     0.093 A 
ATOM      8  C   UNL     1       2.779  27.024  27.175  1.00  0.00     0.123 A 
ATOM      9  C   UNL     1       1.963  26.417  28.126  1.00  0.00     0.094 A 
ATOM     10  C   UNL     1       0.579  26.364  27.943  1.00  0.00     0.146 A 
ATOM     11  O   UNL     1      -0.164  25.787  28.879  1.00  0.00    -0.452 OA
ENDROOT
BRANCH   1  12
ATOM     12  C   UNL     1      -2.196  25.007  29.914  1.00  0.00     0.021 A 
ATOM     13  C   UNL     1      -2.635  25.701  31.058  1.00  0.00     0.016 A 
ATOM     14  C   UNL     1      -3.325  25.029  32.072  1.00  0.00     0.047 A 
ATOM     15  C   UNL     1      -3.596  23.660  31.950  1.00  0.00     0.115 A 
ATOM     16  C   UNL     1      -2.492  23.639  29.792  1.00  0.00     0.016 A 
ATOM     17  C   UNL     1      -3.181  22.969  30.808  1.00  0.00     0.047 A 
BRANCH  15  18
ATOM     18  O   UNL     1      -4.281  22.979  32.954  1.00  0.00    -0.508 OA
ATOM     19  H   UNL     1      -3.834  22.251  33.500  1.00  0.00     0.293 HD
ENDBRANCH  15  18
ENDBRANCH   1  12
BRANCH   2  20
ATOM     20  O   UNL     1      -3.569  26.289  27.708  1.00  0.00    -0.502 OA
ATOM     21  H   UNL     1      -4.130  25.925  28.469  1.00  0.00     0.293 HD
ENDBRANCH   2  20
BRANCH   6  22
ATOM     22  O   UNL     1       0.381  27.967  24.553  1.00  0.00    -0.507 OA
ATOM     23  H   UNL     1       0.935  28.510  23.909  1.00  0.00     0.293 HD
ENDBRANCH   6  22
BRANCH   8  24
ATOM     24  O   UNL     1       4.154  27.084  27.386  1.00  0.00    -0.508 OA
ATOM     25  H   UNL     1       4.621  27.957  27.602  1.00  0.00     0.293 HD
ENDBRANCH   8  24
TORSDOF 5
ENDMDL
