MODEL 1
REMARK VINA RESULT:    -4.575      0.000      0.000
REMARK INTER + INTRA:         -13.573
REMARK INTER:                  -9.924
REMARK INTRA:                  -3.649
REMARK UNBOUND:                -3.649
REMARK SMILES CCCCCCCCCCCCCCCCCCCCCC(=O)[O-]
REMARK SMILES IDX 12 1 11 2 10 3 9 4 8 5 7 6 6 7 5 8 4 9 3 10 2 11 1 12 13 13
REMARK SMILES IDX 14 14 15 15 16 16 17 17 18 18 19 19 20 20 21 21 22 22 23 23
REMARK SMILES IDX 24 24
REMARK H PARENT
REMARK Flexibility Score: inf
ROOT
ATOM      1  C   UNL     1      46.878 -39.515  -0.703  1.00  0.00     0.000 C 
ENDROOT
BRANCH   1   2
ATOM      2  C   UNL     1      45.600 -40.238  -1.173  1.00  0.00     0.000 C 
BRANCH   2   3
ATOM      3  C   UNL     1      44.595 -39.354  -1.931  1.00  0.00     0.000 C 
BRANCH   3   4
ATOM      4  C   UNL     1      44.294 -39.878  -3.347  1.00  0.00    -0.000 C 
BRANCH   4   5
ATOM      5  C   UNL     1      44.544 -38.816  -4.430  1.00  0.00    -0.000 C 
BRANCH   5   6
ATOM      6  C   UNL     1      46.012 -38.761  -4.877  1.00  0.00    -0.000 C 
BRANCH   6   7
ATOM      7  C   UNL     1      46.523 -37.313  -4.897  1.00  0.00    -0.000 C 
BRANCH   7   8
ATOM      8  C   UNL     1      46.651 -36.712  -3.487  1.00  0.00    -0.000 C 
BRANCH   8   9
ATOM      9  C   UNL     1      47.880 -35.799  -3.347  1.00  0.00    -0.000 C 
BRANCH   9  10
ATOM     10  C   UNL     1      48.087 -35.297  -1.909  1.00  0.00    -0.000 C 
BRANCH  10  11
ATOM     11  C   UNL     1      48.975 -36.232  -1.075  1.00  0.00    -0.003 C 
ATOM     12  C   UNL     1      48.774 -35.992   0.419  1.00  0.00     0.004 C 
ENDBRANCH  10  11
ENDBRANCH   9  10
ENDBRANCH   8   9
ENDBRANCH   7   8
ENDBRANCH   6   7
ENDBRANCH   5   6
ENDBRANCH   4   5
ENDBRANCH   3   4
ENDBRANCH   2   3
ENDBRANCH   1   2
BRANCH   1  13
ATOM     13  C   UNL     1      48.079 -39.691  -1.656  1.00  0.00     0.000 C 
BRANCH  13  14
ATOM     14  C   UNL     1      47.848 -40.816  -2.681  1.00  0.00     0.000 C 
BRANCH  14  15
ATOM     15  C   UNL     1      49.136 -41.232  -3.408  1.00  0.00     0.000 C 
BRANCH  15  16
ATOM     16  C   UNL     1      49.094 -40.924  -4.912  1.00  0.00     0.000 C 
BRANCH  16  17
ATOM     17  C   UNL     1      50.222 -39.959  -5.308  1.00  0.00     0.000 C 
BRANCH  17  18
ATOM     18  C   UNL     1      49.966 -38.523  -4.802  1.00  0.00     0.000 C 
BRANCH  18  19
ATOM     19  C   UNL     1      50.872 -38.112  -3.628  1.00  0.00     0.000 C 
BRANCH  19  20
ATOM     20  C   UNL     1      52.285 -38.711  -3.725  1.00  0.00     0.006 C 
BRANCH  20  21
ATOM     21  C   UNL     1      52.563 -39.728  -2.609  1.00  0.00     0.053 C 
BRANCH  21  22
ATOM     22  C   UNL     1      54.009 -39.746  -2.218  1.00  0.00     0.041 C 
ATOM     23  O   UNL     1      54.676 -38.677  -2.207  1.00  0.00    -0.550 OA
ATOM     24  O   UNL     1      54.616 -40.940  -1.847  1.00  0.00    -0.550 OA
ENDBRANCH  21  22
ENDBRANCH  20  21
ENDBRANCH  19  20
ENDBRANCH  18  19
ENDBRANCH  17  18
ENDBRANCH  16  17
ENDBRANCH  15  16
ENDBRANCH  14  15
ENDBRANCH  13  14
ENDBRANCH   1  13
TORSDOF 20
ENDMDL
MODEL 2
REMARK VINA RESULT:    -4.476      1.524      3.649
REMARK INTER + INTRA:         -13.359
REMARK INTER:                 -10.220
REMARK INTRA:                  -3.139
REMARK UNBOUND:                -3.649
REMARK SMILES CCCCCCCCCCCCCCCCCCCCCC(=O)[O-]
REMARK SMILES IDX 12 1 11 2 10 3 9 4 8 5 7 6 6 7 5 8 4 9 3 10 2 11 1 12 13 13
REMARK SMILES IDX 14 14 15 15 16 16 17 17 18 18 19 19 20 20 21 21 22 22 23 23
REMARK SMILES IDX 24 24
REMARK H PARENT
REMARK Flexibility Score: inf
ROOT
ATOM      1  C   UNL     1      48.367 -36.466  -5.170  1.00  0.00     0.000 C 
ENDROOT
BRANCH   1   2
ATOM      2  C   UNL     1      47.134 -35.541  -5.191  1.00  0.00     0.000 C 
BRANCH   2   3
ATOM      3  C   UNL     1      46.193 -35.739  -6.392  1.00  0.00     0.000 C 
BRANCH   3   4
ATOM      4  C   UNL     1      45.427 -37.074  -6.332  1.00  0.00    -0.000 C 
BRANCH   4   5
ATOM      5  C   UNL     1      44.659 -37.249  -5.011  1.00  0.00    -0.000 C 
BRANCH   5   6
ATOM      6  C   UNL     1      44.772 -38.673  -4.446  1.00  0.00    -0.000 C 
BRANCH   6   7
ATOM      7  C   UNL     1      46.056 -39.356  -4.942  1.00  0.00    -0.000 C 
BRANCH   7   8
ATOM      8  C   UNL     1      46.633 -40.344  -3.915  1.00  0.00    -0.000 C 
BRANCH   8   9
ATOM      9  C   UNL     1      46.142 -40.059  -2.485  1.00  0.00    -0.000 C 
BRANCH   9  10
ATOM     10  C   UNL     1      47.234 -39.446  -1.594  1.00  0.00    -0.000 C 
BRANCH  10  11
ATOM     11  C   UNL     1      47.311 -37.917  -1.715  1.00  0.00    -0.003 C 
ATOM     12  C   UNL     1      48.757 -37.452  -1.872  1.00  0.00     0.004 C 
ENDBRANCH  10  11
ENDBRANCH   9  10
ENDBRANCH   8   9
ENDBRANCH   7   8
ENDBRANCH   6   7
ENDBRANCH   5   6
ENDBRANCH   4   5
ENDBRANCH   3   4
ENDBRANCH   2   3
ENDBRANCH   1   2
BRANCH   1  13
ATOM     13  C   UNL     1      49.683 -35.759  -5.558  1.00  0.00     0.000 C 
BRANCH  13  14
ATOM     14  C   UNL     1      50.802 -36.761  -5.895  1.00  0.00     0.000 C 
BRANCH  14  15
ATOM     15  C   UNL     1      50.706 -38.057  -5.076  1.00  0.00     0.000 C 
BRANCH  15  16
ATOM     16  C   UNL     1      50.521 -39.303  -5.956  1.00  0.00     0.000 C 
BRANCH  16  17
ATOM     17  C   UNL     1      49.954 -40.474  -5.138  1.00  0.00     0.000 C 
BRANCH  17  18
ATOM     18  C   UNL     1      50.359 -40.399  -3.651  1.00  0.00     0.000 C 
BRANCH  18  19
ATOM     19  C   UNL     1      50.980 -41.700  -3.114  1.00  0.00     0.000 C 
BRANCH  19  20
ATOM     20  C   UNL     1      52.281 -41.463  -2.328  1.00  0.00     0.006 C 
BRANCH  20  21
ATOM     21  C   UNL     1      52.764 -40.009  -2.432  1.00  0.00     0.053 C 
BRANCH  21  22
ATOM     22  C   UNL     1      54.232 -39.888  -2.156  1.00  0.00     0.041 C 
ATOM     23  O   UNL     1      54.799 -38.766  -2.226  1.00  0.00    -0.550 OA
ATOM     24  O   UNL     1      54.970 -41.012  -1.803  1.00  0.00    -0.550 OA
ENDBRANCH  21  22
ENDBRANCH  20  21
ENDBRANCH  19  20
ENDBRANCH  18  19
ENDBRANCH  17  18
ENDBRANCH  16  17
ENDBRANCH  15  16
ENDBRANCH  14  15
ENDBRANCH  13  14
ENDBRANCH   1  13
TORSDOF 20
ENDMDL
MODEL 3
REMARK VINA RESULT:    -4.373      2.782      6.395
REMARK INTER + INTRA:         -13.135
REMARK INTER:                 -10.399
REMARK INTRA:                  -2.736
REMARK UNBOUND:                -3.649
REMARK SMILES CCCCCCCCCCCCCCCCCCCCCC(=O)[O-]
REMARK SMILES IDX 12 1 11 2 10 3 9 4 8 5 7 6 6 7 5 8 4 9 3 10 2 11 1 12 13 13
REMARK SMILES IDX 14 14 15 15 16 16 17 17 18 18 19 19 20 20 21 21 22 22 23 23
REMARK SMILES IDX 24 24
REMARK H PARENT
REMARK Flexibility Score: inf
ROOT
ATOM      1  C   UNL     1      48.955 -36.107  -4.397  1.00  0.00     0.000 C 
ENDROOT
BRANCH   1   2
ATOM      2  C   UNL     1      49.732 -36.880  -3.313  1.00  0.00     0.000 C 
BRANCH   2   3
ATOM      3  C   UNL     1      50.512 -38.104  -3.822  1.00  0.00     0.000 C 
BRANCH   3   4
ATOM      4  C   UNL     1      49.967 -38.643  -5.158  1.00  0.00    -0.000 C 
BRANCH   4   5
ATOM      5  C   UNL     1      50.194 -40.155  -5.315  1.00  0.00    -0.000 C 
BRANCH   5   6
ATOM      6  C   UNL     1      49.063 -40.990  -4.697  1.00  0.00    -0.000 C 
BRANCH   6   7
ATOM      7  C   UNL     1      49.558 -41.743  -3.453  1.00  0.00    -0.000 C 
BRANCH   7   8
ATOM      8  C   UNL     1      51.083 -41.941  -3.450  1.00  0.00    -0.000 C 
BRANCH   8   9
ATOM      9  C   UNL     1      51.785 -41.079  -2.387  1.00  0.00    -0.000 C 
BRANCH   9  10
ATOM     10  C   UNL     1      53.006 -41.779  -1.768  1.00  0.00    -0.000 C 
BRANCH  10  11
ATOM     11  C   UNL     1      54.298 -40.962  -1.915  1.00  0.00    -0.003 C 
ATOM     12  C   UNL     1      53.990 -39.482  -2.124  1.00  0.00     0.004 C 
ENDBRANCH  10  11
ENDBRANCH   9  10
ENDBRANCH   8   9
ENDBRANCH   7   8
ENDBRANCH   6   7
ENDBRANCH   5   6
ENDBRANCH   4   5
ENDBRANCH   3   4
ENDBRANCH   2   3
ENDBRANCH   1   2
BRANCH   1  13
ATOM     13  C   UNL     1      47.443 -35.987  -4.115  1.00  0.00     0.000 C 
BRANCH  13  14
ATOM     14  C   UNL     1      46.786 -34.863  -4.937  1.00  0.00     0.000 C 
BRANCH  14  15
ATOM     15  C   UNL     1      46.127 -35.376  -6.226  1.00  0.00     0.000 C 
BRANCH  15  16
ATOM     16  C   UNL     1      45.937 -36.900  -6.230  1.00  0.00     0.000 C 
BRANCH  16  17
ATOM     17  C   UNL     1      44.492 -37.275  -5.863  1.00  0.00     0.000 C 
BRANCH  17  18
ATOM     18  C   UNL     1      44.427 -38.503  -4.929  1.00  0.00     0.000 C 
BRANCH  18  19
ATOM     19  C   UNL     1      45.803 -39.118  -4.623  1.00  0.00     0.000 C 
BRANCH  19  20
ATOM     20  C   UNL     1      45.862 -39.794  -3.243  1.00  0.00     0.006 C 
BRANCH  20  21
ATOM     21  C   UNL     1      46.927 -39.165  -2.334  1.00  0.00     0.053 C 
BRANCH  21  22
ATOM     22  C   UNL     1      46.692 -39.493  -0.891  1.00  0.00     0.041 C 
ATOM     23  O   UNL     1      46.930 -38.634   0.000  1.00  0.00    -0.550 OA
ATOM     24  O   UNL     1      46.193 -40.739  -0.530  1.00  0.00    -0.550 OA
ENDBRANCH  21  22
ENDBRANCH  20  21
ENDBRANCH  19  20
ENDBRANCH  18  19
ENDBRANCH  17  18
ENDBRANCH  16  17
ENDBRANCH  15  16
ENDBRANCH  14  15
ENDBRANCH  13  14
ENDBRANCH   1  13
TORSDOF 20
ENDMDL
MODEL 4
REMARK VINA RESULT:    -4.301      1.444      3.537
REMARK INTER + INTRA:         -12.978
REMARK INTER:                  -9.998
REMARK INTRA:                  -2.980
REMARK UNBOUND:                -3.649
REMARK SMILES CCCCCCCCCCCCCCCCCCCCCC(=O)[O-]
REMARK SMILES IDX 12 1 11 2 10 3 9 4 8 5 7 6 6 7 5 8 4 9 3 10 2 11 1 12 13 13
REMARK SMILES IDX 14 14 15 15 16 16 17 17 18 18 19 19 20 20 21 21 22 22 23 23
REMARK SMILES IDX 24 24
REMARK H PARENT
REMARK Flexibility Score: inf
ROOT
ATOM      1  C   UNL     1      45.201 -39.915  -0.568  1.00  0.00     0.000 C 
ENDROOT
BRANCH   1   2
ATOM      2  C   UNL     1      46.573 -39.689   0.098  1.00  0.00     0.000 C 
BRANCH   2   3
ATOM      3  C   UNL     1      47.324 -38.431  -0.371  1.00  0.00     0.000 C 
BRANCH   3   4
ATOM      4  C   UNL     1      47.913 -37.620   0.798  1.00  0.00    -0.000 C 
BRANCH   4   5
ATOM      5  C   UNL     1      47.212 -36.263   0.981  1.00  0.00    -0.000 C 
BRANCH   5   6
ATOM      6  C   UNL     1      47.995 -35.104   0.346  1.00  0.00    -0.000 C 
BRANCH   6   7
ATOM      7  C   UNL     1      47.103 -34.307  -0.619  1.00  0.00    -0.000 C 
BRANCH   7   8
ATOM      8  C   UNL     1      47.643 -34.309  -2.059  1.00  0.00    -0.000 C 
BRANCH   8   9
ATOM      9  C   UNL     1      48.946 -35.115  -2.196  1.00  0.00    -0.000 C 
BRANCH   9  10
ATOM     10  C   UNL     1      48.754 -36.426  -2.976  1.00  0.00    -0.000 C 
BRANCH  10  11
ATOM     11  C   UNL     1      49.970 -37.359  -2.880  1.00  0.00    -0.003 C 
ATOM     12  C   UNL     1      50.617 -37.558  -4.248  1.00  0.00     0.004 C 
ENDBRANCH  10  11
ENDBRANCH   9  10
ENDBRANCH   8   9
ENDBRANCH   7   8
ENDBRANCH   6   7
ENDBRANCH   5   6
ENDBRANCH   4   5
ENDBRANCH   3   4
ENDBRANCH   2   3
ENDBRANCH   1   2
BRANCH   1  13
ATOM     13  C   UNL     1      45.077 -39.282  -1.970  1.00  0.00     0.000 C 
BRANCH  13  14
ATOM     14  C   UNL     1      45.610 -40.211  -3.076  1.00  0.00     0.000 C 
BRANCH  14  15
ATOM     15  C   UNL     1      46.459 -39.468  -4.118  1.00  0.00     0.000 C 
BRANCH  15  16
ATOM     16  C   UNL     1      47.776 -40.191  -4.435  1.00  0.00     0.000 C 
BRANCH  16  17
ATOM     17  C   UNL     1      48.507 -40.596  -3.146  1.00  0.00     0.000 C 
BRANCH  17  18
ATOM     18  C   UNL     1      49.338 -41.885  -3.326  1.00  0.00     0.000 C 
BRANCH  18  19
ATOM     19  C   UNL     1      50.793 -41.625  -3.754  1.00  0.00     0.000 C 
BRANCH  19  20
ATOM     20  C   UNL     1      51.590 -40.828  -2.708  1.00  0.00     0.006 C 
BRANCH  20  21
ATOM     21  C   UNL     1      52.657 -41.687  -2.013  1.00  0.00     0.053 C 
BRANCH  21  22
ATOM     22  C   UNL     1      53.972 -40.977  -1.921  1.00  0.00     0.041 C 
ATOM     23  O   UNL     1      55.041 -41.634  -1.812  1.00  0.00    -0.550 OA
ATOM     24  O   UNL     1      54.021 -39.589  -1.977  1.00  0.00    -0.550 OA
ENDBRANCH  21  22
ENDBRANCH  20  21
ENDBRANCH  19  20
ENDBRANCH  18  19
ENDBRANCH  17  18
ENDBRANCH  16  17
ENDBRANCH  15  16
ENDBRANCH  14  15
ENDBRANCH  13  14
ENDBRANCH   1  13
TORSDOF 20
ENDMDL
MODEL 5
REMARK VINA RESULT:    -4.268      3.051      5.225
REMARK INTER + INTRA:         -12.907
REMARK INTER:                  -9.140
REMARK INTRA:                  -3.767
REMARK UNBOUND:                -3.649
REMARK SMILES CCCCCCCCCCCCCCCCCCCCCC(=O)[O-]
REMARK SMILES IDX 12 1 11 2 10 3 9 4 8 5 7 6 6 7 5 8 4 9 3 10 2 11 1 12 13 13
REMARK SMILES IDX 14 14 15 15 16 16 17 17 18 18 19 19 20 20 21 21 22 22 23 23
REMARK SMILES IDX 24 24
REMARK H PARENT
REMARK Flexibility Score: inf
ROOT
ATOM      1  C   UNL     1      51.392 -38.386  -3.705  1.00  0.00     0.000 C 
ENDROOT
BRANCH   1   2
ATOM      2  C   UNL     1      51.602 -38.339  -5.232  1.00  0.00     0.000 C 
BRANCH   2   3
ATOM      3  C   UNL     1      50.872 -37.193  -5.954  1.00  0.00     0.000 C 
BRANCH   3   4
ATOM      4  C   UNL     1      49.671 -36.657  -5.154  1.00  0.00    -0.000 C 
BRANCH   4   5
ATOM      5  C   UNL     1      49.168 -35.306  -5.687  1.00  0.00    -0.000 C 
BRANCH   5   6
ATOM      6  C   UNL     1      47.829 -35.424  -6.429  1.00  0.00    -0.000 C 
BRANCH   6   7
ATOM      7  C   UNL     1      46.654 -35.133  -5.483  1.00  0.00    -0.000 C 
BRANCH   7   8
ATOM      8  C   UNL     1      46.066 -36.411  -4.861  1.00  0.00    -0.000 C 
BRANCH   8   9
ATOM      9  C   UNL     1      45.922 -36.308  -3.334  1.00  0.00    -0.000 C 
BRANCH   9  10
ATOM     10  C   UNL     1      47.175 -35.727  -2.658  1.00  0.00    -0.000 C 
BRANCH  10  11
ATOM     11  C   UNL     1      48.030 -36.801  -1.968  1.00  0.00    -0.003 C 
ATOM     12  C   UNL     1      49.178 -36.168  -1.185  1.00  0.00     0.004 C 
ENDBRANCH  10  11
ENDBRANCH   9  10
ENDBRANCH   8   9
ENDBRANCH   7   8
ENDBRANCH   6   7
ENDBRANCH   5   6
ENDBRANCH   4   5
ENDBRANCH   3   4
ENDBRANCH   2   3
ENDBRANCH   1   2
BRANCH   1  13
ATOM     13  C   UNL     1      52.308 -39.393  -2.980  1.00  0.00     0.000 C 
BRANCH  13  14
ATOM     14  C   UNL     1      51.733 -40.821  -3.002  1.00  0.00     0.000 C 
BRANCH  14  15
ATOM     15  C   UNL     1      50.215 -40.855  -2.771  1.00  0.00     0.000 C 
BRANCH  15  16
ATOM     16  C   UNL     1      49.470 -41.677  -3.833  1.00  0.00     0.000 C 
BRANCH  16  17
ATOM     17  C   UNL     1      48.809 -40.761  -4.875  1.00  0.00     0.000 C 
BRANCH  17  18
ATOM     18  C   UNL     1      47.862 -39.729  -4.227  1.00  0.00     0.000 C 
BRANCH  18  19
ATOM     19  C   UNL     1      46.386 -40.164  -4.222  1.00  0.00     0.000 C 
BRANCH  19  20
ATOM     20  C   UNL     1      45.691 -39.908  -2.875  1.00  0.00     0.006 C 
BRANCH  20  21
ATOM     21  C   UNL     1      46.613 -40.200  -1.682  1.00  0.00     0.053 C 
BRANCH  21  22
ATOM     22  C   UNL     1      45.939 -39.915  -0.374  1.00  0.00     0.041 C 
ATOM     23  O   UNL     1      45.736 -38.725  -0.012  1.00  0.00    -0.550 OA
ATOM     24  O   UNL     1      45.519 -40.963   0.437  1.00  0.00    -0.550 OA
ENDBRANCH  21  22
ENDBRANCH  20  21
ENDBRANCH  19  20
ENDBRANCH  18  19
ENDBRANCH  17  18
ENDBRANCH  16  17
ENDBRANCH  15  16
ENDBRANCH  14  15
ENDBRANCH  13  14
ENDBRANCH   1  13
TORSDOF 20
ENDMDL
MODEL 6
REMARK VINA RESULT:    -4.253      2.806      5.325
REMARK INTER + INTRA:         -12.875
REMARK INTER:                  -8.972
REMARK INTRA:                  -3.903
REMARK UNBOUND:                -3.649
REMARK SMILES CCCCCCCCCCCCCCCCCCCCCC(=O)[O-]
REMARK SMILES IDX 12 1 11 2 10 3 9 4 8 5 7 6 6 7 5 8 4 9 3 10 2 11 1 12 13 13
REMARK SMILES IDX 14 14 15 15 16 16 17 17 18 18 19 19 20 20 21 21 22 22 23 23
REMARK SMILES IDX 24 24
REMARK H PARENT
REMARK Flexibility Score: inf
ROOT
ATOM      1  C   UNL     1      51.584 -40.327  -3.281  1.00  0.00     0.000 C 
ENDROOT
BRANCH   1   2
ATOM      2  C   UNL     1      51.918 -38.826  -3.398  1.00  0.00     0.000 C 
BRANCH   2   3
ATOM      3  C   UNL     1      51.138 -38.070  -4.488  1.00  0.00     0.000 C 
BRANCH   3   4
ATOM      4  C   UNL     1      51.330 -38.682  -5.888  1.00  0.00    -0.000 C 
BRANCH   4   5
ATOM      5  C   UNL     1      51.737 -37.632  -6.935  1.00  0.00    -0.000 C 
BRANCH   5   6
ATOM      6  C   UNL     1      51.613 -36.194  -6.409  1.00  0.00    -0.000 C 
BRANCH   6   7
ATOM      7  C   UNL     1      50.477 -35.448  -7.125  1.00  0.00    -0.000 C 
BRANCH   7   8
ATOM      8  C   UNL     1      49.740 -34.466  -6.198  1.00  0.00    -0.000 C 
BRANCH   8   9
ATOM      9  C   UNL     1      48.994 -35.181  -5.059  1.00  0.00    -0.000 C 
BRANCH   9  10
ATOM     10  C   UNL     1      48.092 -36.319  -5.564  1.00  0.00    -0.000 C 
BRANCH  10  11
ATOM     11  C   UNL     1      46.598 -36.028  -5.360  1.00  0.00    -0.003 C 
ATOM     12  C   UNL     1      46.393 -34.743  -4.562  1.00  0.00     0.004 C 
ENDBRANCH  10  11
ENDBRANCH   9  10
ENDBRANCH   8   9
ENDBRANCH   7   8
ENDBRANCH   6   7
ENDBRANCH   5   6
ENDBRANCH   4   5
ENDBRANCH   3   4
ENDBRANCH   2   3
ENDBRANCH   1   2
BRANCH   1  13
ATOM     13  C   UNL     1      50.163 -40.610  -2.750  1.00  0.00     0.000 C 
BRANCH  13  14
ATOM     14  C   UNL     1      49.493 -41.786  -3.483  1.00  0.00     0.000 C 
BRANCH  14  15
ATOM     15  C   UNL     1      48.772 -41.353  -4.768  1.00  0.00     0.000 C 
BRANCH  15  16
ATOM     16  C   UNL     1      48.005 -40.033  -4.603  1.00  0.00     0.000 C 
BRANCH  16  17
ATOM     17  C   UNL     1      46.589 -40.284  -4.061  1.00  0.00     0.000 C 
BRANCH  17  18
ATOM     18  C   UNL     1      46.408 -39.735  -2.629  1.00  0.00     0.000 C 
BRANCH  18  19
ATOM     19  C   UNL     1      46.798 -38.254  -2.482  1.00  0.00     0.000 C 
BRANCH  19  20
ATOM     20  C   UNL     1      47.899 -38.028  -1.432  1.00  0.00     0.006 C 
BRANCH  20  21
ATOM     21  C   UNL     1      48.897 -36.943  -1.862  1.00  0.00     0.053 C 
BRANCH  21  22
ATOM     22  C   UNL     1      48.808 -35.727  -0.991  1.00  0.00     0.041 C 
ATOM     23  O   UNL     1      48.443 -34.624  -1.479  1.00  0.00    -0.550 OA
ATOM     24  O   UNL     1      49.109 -35.816   0.363  1.00  0.00    -0.550 OA
ENDBRANCH  21  22
ENDBRANCH  20  21
ENDBRANCH  19  20
ENDBRANCH  18  19
ENDBRANCH  17  18
ENDBRANCH  16  17
ENDBRANCH  15  16
ENDBRANCH  14  15
ENDBRANCH  13  14
ENDBRANCH   1  13
TORSDOF 20
ENDMDL
MODEL 7
REMARK VINA RESULT:    -4.251      3.642      5.947
REMARK INTER + INTRA:         -12.870
REMARK INTER:                  -8.956
REMARK INTRA:                  -3.913
REMARK UNBOUND:                -3.649
REMARK SMILES CCCCCCCCCCCCCCCCCCCCCC(=O)[O-]
REMARK SMILES IDX 12 1 11 2 10 3 9 4 8 5 7 6 6 7 5 8 4 9 3 10 2 11 1 12 13 13
REMARK SMILES IDX 14 14 15 15 16 16 17 17 18 18 19 19 20 20 21 21 22 22 23 23
REMARK SMILES IDX 24 24
REMARK H PARENT
REMARK Flexibility Score: inf
ROOT
ATOM      1  C   UNL     1      47.370 -39.790  -2.502  1.00  0.00     0.000 C 
ENDROOT
BRANCH   1   2
ATOM      2  C   UNL     1      48.710 -40.506  -2.247  1.00  0.00     0.000 C 
BRANCH   2   3
ATOM      3  C   UNL     1      49.241 -41.332  -3.432  1.00  0.00     0.000 C 
BRANCH   3   4
ATOM      4  C   UNL     1      50.549 -40.764  -4.013  1.00  0.00    -0.000 C 
BRANCH   4   5
ATOM      5  C   UNL     1      50.369 -40.228  -5.443  1.00  0.00    -0.000 C 
BRANCH   5   6
ATOM      6  C   UNL     1      50.178 -38.704  -5.483  1.00  0.00    -0.000 C 
BRANCH   6   7
ATOM      7  C   UNL     1      50.682 -38.057  -4.184  1.00  0.00    -0.000 C 
BRANCH   7   8
ATOM      8  C   UNL     1      49.825 -36.855  -3.752  1.00  0.00    -0.000 C 
BRANCH   8   9
ATOM      9  C   UNL     1      49.883 -36.608  -2.235  1.00  0.00    -0.000 C 
BRANCH   9  10
ATOM     10  C   UNL     1      48.516 -36.230  -1.643  1.00  0.00    -0.000 C 
BRANCH  10  11
ATOM     11  C   UNL     1      48.625 -35.218  -0.493  1.00  0.00    -0.003 C 
ATOM     12  C   UNL     1      47.522 -34.166  -0.582  1.00  0.00     0.004 C 
ENDBRANCH  10  11
ENDBRANCH   9  10
ENDBRANCH   8   9
ENDBRANCH   7   8
ENDBRANCH   6   7
ENDBRANCH   5   6
ENDBRANCH   4   5
ENDBRANCH   3   4
ENDBRANCH   2   3
ENDBRANCH   1   2
BRANCH   1  13
ATOM     13  C   UNL     1      46.614 -40.304  -3.745  1.00  0.00     0.000 C 
BRANCH  13  14
ATOM     14  C   UNL     1      46.564 -39.255  -4.870  1.00  0.00     0.000 C 
BRANCH  14  15
ATOM     15  C   UNL     1      46.300 -37.835  -4.348  1.00  0.00     0.000 C 
BRANCH  15  16
ATOM     16  C   UNL     1      46.656 -36.749  -5.374  1.00  0.00     0.000 C 
BRANCH  16  17
ATOM     17  C   UNL     1      45.785 -35.498  -5.176  1.00  0.00     0.000 C 
BRANCH  17  18
ATOM     18  C   UNL     1      46.498 -34.417  -4.337  1.00  0.00     0.000 C 
BRANCH  18  19
ATOM     19  C   UNL     1      47.841 -33.961  -4.932  1.00  0.00     0.000 C 
BRANCH  19  20
ATOM     20  C   UNL     1      48.719 -33.206  -3.918  1.00  0.00     0.006 C 
BRANCH  20  21
ATOM     21  C   UNL     1      48.518 -31.686  -3.995  1.00  0.00     0.053 C 
BRANCH  21  22
ATOM     22  C   UNL     1      47.620 -31.186  -2.905  1.00  0.00     0.041 C 
ATOM     23  O   UNL     1      46.374 -31.137  -3.084  1.00  0.00    -0.550 OA
ATOM     24  O   UNL     1      48.157 -30.792  -1.685  1.00  0.00    -0.550 OA
ENDBRANCH  21  22
ENDBRANCH  20  21
ENDBRANCH  19  20
ENDBRANCH  18  19
ENDBRANCH  17  18
ENDBRANCH  16  17
ENDBRANCH  15  16
ENDBRANCH  14  15
ENDBRANCH  13  14
ENDBRANCH   1  13
TORSDOF 20
ENDMDL
MODEL 8
REMARK VINA RESULT:    -4.243      2.994      5.724
REMARK INTER + INTRA:         -12.852
REMARK INTER:                  -9.089
REMARK INTRA:                  -3.763
REMARK UNBOUND:                -3.649
REMARK SMILES CCCCCCCCCCCCCCCCCCCCCC(=O)[O-]
REMARK SMILES IDX 12 1 11 2 10 3 9 4 8 5 7 6 6 7 5 8 4 9 3 10 2 11 1 12 13 13
REMARK SMILES IDX 14 14 15 15 16 16 17 17 18 18 19 19 20 20 21 21 22 22 23 23
REMARK SMILES IDX 24 24
REMARK H PARENT
REMARK Flexibility Score: inf
ROOT
ATOM      1  C   UNL     1      51.787 -38.777  -3.395  1.00  0.00     0.000 C 
ENDROOT
BRANCH   1   2
ATOM      2  C   UNL     1      52.150 -40.219  -2.990  1.00  0.00     0.000 C 
BRANCH   2   3
ATOM      3  C   UNL     1      50.985 -41.221  -3.042  1.00  0.00     0.000 C 
BRANCH   3   4
ATOM      4  C   UNL     1      49.653 -40.610  -2.569  1.00  0.00    -0.000 C 
BRANCH   4   5
ATOM      5  C   UNL     1      48.442 -41.203  -3.307  1.00  0.00    -0.000 C 
BRANCH   5   6
ATOM      6  C   UNL     1      48.241 -40.589  -4.701  1.00  0.00    -0.000 C 
BRANCH   6   7
ATOM      7  C   UNL     1      46.879 -39.884  -4.795  1.00  0.00    -0.000 C 
BRANCH   7   8
ATOM      8  C   UNL     1      45.952 -40.231  -3.618  1.00  0.00    -0.000 C 
BRANCH   8   9
ATOM      9  C   UNL     1      45.143 -39.017  -3.130  1.00  0.00    -0.000 C 
BRANCH   9  10
ATOM     10  C   UNL     1      45.467 -38.634  -1.677  1.00  0.00    -0.000 C 
BRANCH  10  11
ATOM     11  C   UNL     1      45.800 -39.851  -0.801  1.00  0.00    -0.003 C 
ATOM     12  C   UNL     1      47.103 -39.636  -0.037  1.00  0.00     0.004 C 
ENDBRANCH  10  11
ENDBRANCH   9  10
ENDBRANCH   8   9
ENDBRANCH   7   8
ENDBRANCH   6   7
ENDBRANCH   5   6
ENDBRANCH   4   5
ENDBRANCH   3   4
ENDBRANCH   2   3
ENDBRANCH   1   2
BRANCH   1  13
ATOM     13  C   UNL     1      51.655 -38.572  -4.919  1.00  0.00     0.000 C 
BRANCH  13  14
ATOM     14  C   UNL     1      50.312 -37.924  -5.303  1.00  0.00     0.000 C 
BRANCH  14  15
ATOM     15  C   UNL     1      49.949 -36.731  -4.406  1.00  0.00     0.000 C 
BRANCH  15  16
ATOM     16  C   UNL     1      48.621 -36.929  -3.662  1.00  0.00     0.000 C 
BRANCH  16  17
ATOM     17  C   UNL     1      48.860 -37.179  -2.165  1.00  0.00     0.000 C 
BRANCH  17  18
ATOM     18  C   UNL     1      49.507 -35.964  -1.467  1.00  0.00     0.000 C 
BRANCH  18  19
ATOM     19  C   UNL     1      48.505 -35.094  -0.688  1.00  0.00     0.000 C 
BRANCH  19  20
ATOM     20  C   UNL     1      47.584 -35.918   0.227  1.00  0.00     0.006 C 
BRANCH  20  21
ATOM     21  C   UNL     1      48.338 -36.515   1.424  1.00  0.00     0.053 C 
BRANCH  21  22
ATOM     22  C   UNL     1      48.021 -35.794   2.699  1.00  0.00     0.041 C 
ATOM     23  O   UNL     1      48.363 -36.288   3.807  1.00  0.00    -0.550 OA
ATOM     24  O   UNL     1      47.367 -34.569   2.663  1.00  0.00    -0.550 OA
ENDBRANCH  21  22
ENDBRANCH  20  21
ENDBRANCH  19  20
ENDBRANCH  18  19
ENDBRANCH  17  18
ENDBRANCH  16  17
ENDBRANCH  15  16
ENDBRANCH  14  15
ENDBRANCH  13  14
ENDBRANCH   1  13
TORSDOF 20
ENDMDL
MODEL 9
REMARK VINA RESULT:    -4.200      3.371      5.595
REMARK INTER + INTRA:         -12.759
REMARK INTER:                  -8.751
REMARK INTRA:                  -4.008
REMARK UNBOUND:                -3.649
REMARK SMILES CCCCCCCCCCCCCCCCCCCCCC(=O)[O-]
REMARK SMILES IDX 12 1 11 2 10 3 9 4 8 5 7 6 6 7 5 8 4 9 3 10 2 11 1 12 13 13
REMARK SMILES IDX 14 14 15 15 16 16 17 17 18 18 19 19 20 20 21 21 22 22 23 23
REMARK SMILES IDX 24 24
REMARK H PARENT
REMARK Flexibility Score: inf
ROOT
ATOM      1  C   UNL     1      50.972 -40.555  -2.994  1.00  0.00     0.000 C 
ENDROOT
BRANCH   1   2
ATOM      2  C   UNL     1      49.521 -41.049  -3.158  1.00  0.00     0.000 C 
BRANCH   2   3
ATOM      3  C   UNL     1      48.980 -41.010  -4.598  1.00  0.00     0.000 C 
BRANCH   3   4
ATOM      4  C   UNL     1      47.654 -40.235  -4.713  1.00  0.00    -0.000 C 
BRANCH   4   5
ATOM      5  C   UNL     1      46.609 -40.708  -3.690  1.00  0.00    -0.000 C 
BRANCH   5   6
ATOM      6  C   UNL     1      45.333 -39.853  -3.710  1.00  0.00    -0.000 C 
BRANCH   6   7
ATOM      7  C   UNL     1      45.438 -38.742  -4.766  1.00  0.00    -0.000 C 
BRANCH   7   8
ATOM      8  C   UNL     1      44.079 -38.090  -5.072  1.00  0.00    -0.000 C 
BRANCH   8   9
ATOM      9  C   UNL     1      44.062 -36.587  -4.744  1.00  0.00    -0.000 C 
BRANCH   9  10
ATOM     10  C   UNL     1      45.044 -36.214  -3.621  1.00  0.00    -0.000 C 
BRANCH  10  11
ATOM     11  C   UNL     1      44.836 -34.784  -3.101  1.00  0.00    -0.003 C 
ATOM     12  C   UNL     1      46.168 -34.133  -2.739  1.00  0.00     0.004 C 
ENDBRANCH  10  11
ENDBRANCH   9  10
ENDBRANCH   8   9
ENDBRANCH   7   8
ENDBRANCH   6   7
ENDBRANCH   5   6
ENDBRANCH   4   5
ENDBRANCH   3   4
ENDBRANCH   2   3
ENDBRANCH   1   2
BRANCH   1  13
ATOM     13  C   UNL     1      51.341 -39.383  -3.927  1.00  0.00     0.000 C 
BRANCH  13  14
ATOM     14  C   UNL     1      50.954 -38.019  -3.327  1.00  0.00     0.000 C 
BRANCH  14  15
ATOM     15  C   UNL     1      50.007 -37.218  -4.233  1.00  0.00     0.000 C 
BRANCH  15  16
ATOM     16  C   UNL     1      48.620 -37.009  -3.608  1.00  0.00     0.000 C 
BRANCH  16  17
ATOM     17  C   UNL     1      48.695 -37.062  -2.074  1.00  0.00     0.000 C 
BRANCH  17  18
ATOM     18  C   UNL     1      47.814 -38.185  -1.485  1.00  0.00     0.000 C 
BRANCH  18  19
ATOM     19  C   UNL     1      47.297 -37.883  -0.068  1.00  0.00     0.000 C 
BRANCH  19  20
ATOM     20  C   UNL     1      45.889 -37.264  -0.065  1.00  0.00     0.006 C 
BRANCH  20  21
ATOM     21  C   UNL     1      44.819 -38.250  -0.555  1.00  0.00     0.053 C 
BRANCH  21  22
ATOM     22  C   UNL     1      44.743 -39.468   0.314  1.00  0.00     0.041 C 
ATOM     23  O   UNL     1      44.799 -40.617  -0.199  1.00  0.00    -0.550 OA
ATOM     24  O   UNL     1      44.630 -39.334   1.693  1.00  0.00    -0.550 OA
ENDBRANCH  21  22
ENDBRANCH  20  21
ENDBRANCH  19  20
ENDBRANCH  18  19
ENDBRANCH  17  18
ENDBRANCH  16  17
ENDBRANCH  15  16
ENDBRANCH  14  15
ENDBRANCH  13  14
ENDBRANCH   1  13
TORSDOF 20
ENDMDL
