MODEL 1
REMARK VINA RESULT:    -4.999      0.000      0.000
REMARK INTER + INTRA:         -12.091
REMARK INTER:                  -9.675
REMARK INTRA:                  -2.415
REMARK UNBOUND:                -2.415
REMARK SMILES CCCCCCCCCCCCCCCCCC(=O)[O-]
REMARK SMILES IDX 10 1 11 2 12 3 13 4 14 5 15 6 16 7 17 8 18 9 19 10 20 11
REMARK SMILES IDX 9 12 8 13 7 14 6 15 5 16 4 17 3 18 2 19 1 20
REMARK H PARENT
REMARK Flexibility Score: inf
ROOT
ATOM      1  C   UNL     1       8.701  10.068  30.778  1.00  0.00     0.000 C 
ENDROOT
BRANCH   1   2
ATOM      2  C   UNL     1       8.782  10.578  29.331  1.00  0.00     0.000 C 
BRANCH   2   3
ATOM      3  C   UNL     1       9.870   9.867  28.512  1.00  0.00     0.000 C 
BRANCH   3   4
ATOM      4  C   UNL     1      10.199   8.494  29.117  1.00  0.00     0.000 C 
BRANCH   4   5
ATOM      5  C   UNL     1      11.304   7.752  28.346  1.00  0.00     0.000 C 
BRANCH   5   6
ATOM      6  C   UNL     1      10.843   7.286  26.956  1.00  0.00     0.000 C 
BRANCH   6   7
ATOM      7  C   UNL     1      10.797   5.752  26.828  1.00  0.00     0.006 C 
BRANCH   7   8
ATOM      8  C   UNL     1       9.403   5.182  26.513  1.00  0.00     0.053 C 
BRANCH   8   9
ATOM      9  C   UNL     1       8.987   4.133  27.497  1.00  0.00     0.041 C 
ATOM     10  O   UNL     1       8.066   4.369  28.323  1.00  0.00    -0.550 OA
ATOM     11  O   UNL     1       9.587   2.880  27.474  1.00  0.00    -0.550 OA
ENDBRANCH   8   9
ENDBRANCH   7   8
ENDBRANCH   6   7
ENDBRANCH   5   6
ENDBRANCH   4   5
ENDBRANCH   3   4
ENDBRANCH   2   3
ENDBRANCH   1   2
BRANCH   1  12
ATOM     12  C   UNL     1       7.981  11.053  31.716  1.00  0.00     0.000 C 
BRANCH  12  13
ATOM     13  C   UNL     1       6.826  10.395  32.487  1.00  0.00    -0.000 C 
BRANCH  13  14
ATOM     14  C   UNL     1       5.446  10.861  31.995  1.00  0.00    -0.000 C 
BRANCH  14  15
ATOM     15  C   UNL     1       4.697   9.775  31.200  1.00  0.00    -0.000 C 
BRANCH  15  16
ATOM     16  C   UNL     1       5.142   9.624  29.734  1.00  0.00    -0.000 C 
BRANCH  16  17
ATOM     17  C   UNL     1       5.143   8.161  29.254  1.00  0.00    -0.000 C 
BRANCH  17  18
ATOM     18  C   UNL     1       6.533   7.710  28.760  1.00  0.00    -0.000 C 
BRANCH  18  19
ATOM     19  C   UNL     1       6.571   7.363  27.262  1.00  0.00    -0.003 C 
ATOM     20  C   UNL     1       7.309   8.403  26.423  1.00  0.00     0.004 C 
ENDBRANCH  18  19
ENDBRANCH  17  18
ENDBRANCH  16  17
ENDBRANCH  15  16
ENDBRANCH  14  15
ENDBRANCH  13  14
ENDBRANCH  12  13
ENDBRANCH   1  12
TORSDOF 16
ENDMDL
MODEL 2
REMARK VINA RESULT:    -4.909      1.299      3.506
REMARK INTER + INTRA:         -11.917
REMARK INTER:                  -9.363
REMARK INTRA:                  -2.554
REMARK UNBOUND:                -2.415
REMARK SMILES CCCCCCCCCCCCCCCCCC(=O)[O-]
REMARK SMILES IDX 10 1 11 2 12 3 13 4 14 5 15 6 16 7 17 8 18 9 19 10 20 11
REMARK SMILES IDX 9 12 8 13 7 14 6 15 5 16 4 17 3 18 2 19 1 20
REMARK H PARENT
REMARK Flexibility Score: inf
ROOT
ATOM      1  C   UNL     1       4.348   9.599  30.855  1.00  0.00     0.000 C 
ENDROOT
BRANCH   1   2
ATOM      2  C   UNL     1       4.716   8.638  29.715  1.00  0.00     0.000 C 
BRANCH   2   3
ATOM      3  C   UNL     1       5.255   9.367  28.476  1.00  0.00     0.000 C 
BRANCH   3   4
ATOM      4  C   UNL     1       6.141   8.436  27.635  1.00  0.00     0.000 C 
BRANCH   4   5
ATOM      5  C   UNL     1       6.683   7.243  28.439  1.00  0.00     0.000 C 
BRANCH   5   6
ATOM      6  C   UNL     1       7.382   6.200  27.551  1.00  0.00     0.000 C 
BRANCH   6   7
ATOM      7  C   UNL     1       7.939   5.011  28.355  1.00  0.00     0.006 C 
BRANCH   7   8
ATOM      8  C   UNL     1       9.471   4.881  28.319  1.00  0.00     0.053 C 
BRANCH   8   9
ATOM      9  C   UNL     1       9.915   3.451  28.307  1.00  0.00     0.041 C 
ATOM     10  O   UNL     1       9.853   2.778  27.244  1.00  0.00    -0.550 OA
ATOM     11  O   UNL     1      10.440   2.874  29.457  1.00  0.00    -0.550 OA
ENDBRANCH   8   9
ENDBRANCH   7   8
ENDBRANCH   6   7
ENDBRANCH   5   6
ENDBRANCH   4   5
ENDBRANCH   3   4
ENDBRANCH   2   3
ENDBRANCH   1   2
BRANCH   1  12
ATOM     12  C   UNL     1       5.409  10.692  31.077  1.00  0.00     0.000 C 
BRANCH  12  13
ATOM     13  C   UNL     1       6.258  10.442  32.333  1.00  0.00    -0.000 C 
BRANCH  13  14
ATOM     14  C   UNL     1       7.757  10.681  32.088  1.00  0.00    -0.000 C 
BRANCH  14  15
ATOM     15  C   UNL     1       8.290   9.930  30.854  1.00  0.00    -0.000 C 
BRANCH  15  16
ATOM     16  C   UNL     1       9.347   8.854  31.158  1.00  0.00    -0.000 C 
BRANCH  16  17
ATOM     17  C   UNL     1       9.926   8.204  29.888  1.00  0.00    -0.000 C 
BRANCH  17  18
ATOM     18  C   UNL     1       9.848   9.142  28.666  1.00  0.00    -0.000 C 
BRANCH  18  19
ATOM     19  C   UNL     1      10.269   8.471  27.347  1.00  0.00    -0.003 C 
ATOM     20  C   UNL     1       9.529   9.023  26.130  1.00  0.00     0.004 C 
ENDBRANCH  18  19
ENDBRANCH  17  18
ENDBRANCH  16  17
ENDBRANCH  15  16
ENDBRANCH  14  15
ENDBRANCH  13  14
ENDBRANCH  12  13
ENDBRANCH   1  12
TORSDOF 16
ENDMDL
MODEL 3
REMARK VINA RESULT:    -4.898      1.461      2.356
REMARK INTER + INTRA:         -11.895
REMARK INTER:                  -9.735
REMARK INTRA:                  -2.160
REMARK UNBOUND:                -2.415
REMARK SMILES CCCCCCCCCCCCCCCCCC(=O)[O-]
REMARK SMILES IDX 10 1 11 2 12 3 13 4 14 5 15 6 16 7 17 8 18 9 19 10 20 11
REMARK SMILES IDX 9 12 8 13 7 14 6 15 5 16 4 17 3 18 2 19 1 20
REMARK H PARENT
REMARK Flexibility Score: inf
ROOT
ATOM      1  C   UNL     1       7.287  10.155  32.095  1.00  0.00     0.000 C 
ENDROOT
BRANCH   1   2
ATOM      2  C   UNL     1       8.431  10.843  31.335  1.00  0.00     0.000 C 
BRANCH   2   3
ATOM      3  C   UNL     1       8.192  10.888  29.818  1.00  0.00     0.000 C 
BRANCH   3   4
ATOM      4  C   UNL     1       9.328  10.182  29.065  1.00  0.00     0.000 C 
BRANCH   4   5
ATOM      5  C   UNL     1       9.669   8.804  29.655  1.00  0.00     0.000 C 
BRANCH   5   6
ATOM      6  C   UNL     1      10.797   8.095  28.887  1.00  0.00     0.000 C 
BRANCH   6   7
ATOM      7  C   UNL     1      10.685   8.281  27.362  1.00  0.00     0.006 C 
BRANCH   7   8
ATOM      8  C   UNL     1      11.650   7.407  26.543  1.00  0.00     0.053 C 
BRANCH   8   9
ATOM      9  C   UNL     1      11.527   5.955  26.889  1.00  0.00     0.041 C 
ATOM     10  O   UNL     1      12.513   5.332  27.365  1.00  0.00    -0.550 OA
ATOM     11  O   UNL     1      10.312   5.301  26.727  1.00  0.00    -0.550 OA
ENDBRANCH   8   9
ENDBRANCH   7   8
ENDBRANCH   6   7
ENDBRANCH   5   6
ENDBRANCH   4   5
ENDBRANCH   3   4
ENDBRANCH   2   3
ENDBRANCH   1   2
BRANCH   1  12
ATOM     12  C   UNL     1       6.139  11.120  32.441  1.00  0.00     0.000 C 
BRANCH  12  13
ATOM     13  C   UNL     1       4.793  10.668  31.853  1.00  0.00    -0.000 C 
BRANCH  13  14
ATOM     14  C   UNL     1       4.914   9.374  31.031  1.00  0.00    -0.000 C 
BRANCH  14  15
ATOM     15  C   UNL     1       3.913   9.313  29.862  1.00  0.00    -0.000 C 
BRANCH  15  16
ATOM     16  C   UNL     1       4.547   9.089  28.478  1.00  0.00    -0.000 C 
BRANCH  16  17
ATOM     17  C   UNL     1       5.837   8.252  28.536  1.00  0.00    -0.000 C 
BRANCH  17  18
ATOM     18  C   UNL     1       6.636   8.318  27.218  1.00  0.00    -0.000 C 
BRANCH  18  19
ATOM     19  C   UNL     1       7.370   7.010  26.875  1.00  0.00    -0.003 C 
ATOM     20  C   UNL     1       6.426   5.883  26.464  1.00  0.00     0.004 C 
ENDBRANCH  18  19
ENDBRANCH  17  18
ENDBRANCH  16  17
ENDBRANCH  15  16
ENDBRANCH  14  15
ENDBRANCH  13  14
ENDBRANCH  12  13
ENDBRANCH   1  12
TORSDOF 16
ENDMDL
MODEL 4
REMARK VINA RESULT:    -4.881      1.164      1.571
REMARK INTER + INTRA:         -11.861
REMARK INTER:                  -9.296
REMARK INTRA:                  -2.565
REMARK UNBOUND:                -2.415
REMARK SMILES CCCCCCCCCCCCCCCCCC(=O)[O-]
REMARK SMILES IDX 10 1 11 2 12 3 13 4 14 5 15 6 16 7 17 8 18 9 19 10 20 11
REMARK SMILES IDX 9 12 8 13 7 14 6 15 5 16 4 17 3 18 2 19 1 20
REMARK H PARENT
REMARK Flexibility Score: inf
ROOT
ATOM      1  C   UNL     1       8.765   9.495  31.712  1.00  0.00     0.000 C 
ENDROOT
BRANCH   1   2
ATOM      2  C   UNL     1       9.359   8.894  30.429  1.00  0.00     0.000 C 
BRANCH   2   3
ATOM      3  C   UNL     1       9.370   9.889  29.259  1.00  0.00     0.000 C 
BRANCH   3   4
ATOM      4  C   UNL     1      10.142   9.316  28.061  1.00  0.00     0.000 C 
BRANCH   4   5
ATOM      5  C   UNL     1      10.887   8.013  28.399  1.00  0.00     0.000 C 
BRANCH   5   6
ATOM      6  C   UNL     1      11.408   7.289  27.147  1.00  0.00     0.000 C 
BRANCH   6   7
ATOM      7  C   UNL     1      10.522   6.098  26.737  1.00  0.00     0.006 C 
BRANCH   7   8
ATOM      8  C   UNL     1       9.925   5.314  27.918  1.00  0.00     0.053 C 
BRANCH   8   9
ATOM      9  C   UNL     1      10.728   4.095  28.248  1.00  0.00     0.041 C 
ATOM     10  O   UNL     1      11.583   4.130  29.173  1.00  0.00    -0.550 OA
ATOM     11  O   UNL     1      10.502   2.906  27.566  1.00  0.00    -0.550 OA
ENDBRANCH   8   9
ENDBRANCH   7   8
ENDBRANCH   6   7
ENDBRANCH   5   6
ENDBRANCH   4   5
ENDBRANCH   3   4
ENDBRANCH   2   3
ENDBRANCH   1   2
BRANCH   1  12
ATOM     12  C   UNL     1       7.724  10.593  31.427  1.00  0.00     0.000 C 
BRANCH  12  13
ATOM     13  C   UNL     1       6.420  10.384  32.212  1.00  0.00    -0.000 C 
BRANCH  13  14
ATOM     14  C   UNL     1       5.242   9.991  31.305  1.00  0.00    -0.000 C 
BRANCH  14  15
ATOM     15  C   UNL     1       5.667   9.743  29.846  1.00  0.00    -0.000 C 
BRANCH  15  16
ATOM     16  C   UNL     1       5.251   8.376  29.274  1.00  0.00    -0.000 C 
BRANCH  16  17
ATOM     17  C   UNL     1       6.419   7.620  28.615  1.00  0.00    -0.000 C 
BRANCH  17  18
ATOM     18  C   UNL     1       6.784   8.201  27.233  1.00  0.00    -0.000 C 
BRANCH  18  19
ATOM     19  C   UNL     1       7.084   7.128  26.173  1.00  0.00    -0.003 C 
ATOM     20  C   UNL     1       6.521   5.755  26.533  1.00  0.00     0.004 C 
ENDBRANCH  18  19
ENDBRANCH  17  18
ENDBRANCH  16  17
ENDBRANCH  15  16
ENDBRANCH  14  15
ENDBRANCH  13  14
ENDBRANCH  12  13
ENDBRANCH   1  12
TORSDOF 16
ENDMDL
MODEL 5
REMARK VINA RESULT:    -4.844      2.655      5.729
REMARK INTER + INTRA:         -11.790
REMARK INTER:                  -8.824
REMARK INTRA:                  -2.966
REMARK UNBOUND:                -2.415
REMARK SMILES CCCCCCCCCCCCCCCCCC(=O)[O-]
REMARK SMILES IDX 10 1 11 2 12 3 13 4 14 5 15 6 16 7 17 8 18 9 19 10 20 11
REMARK SMILES IDX 9 12 8 13 7 14 6 15 5 16 4 17 3 18 2 19 1 20
REMARK H PARENT
REMARK Flexibility Score: inf
ROOT
ATOM      1  C   UNL     1      11.102   4.792  27.947  1.00  0.00     0.000 C 
ENDROOT
BRANCH   1   2
ATOM      2  C   UNL     1      11.763   5.727  26.922  1.00  0.00     0.000 C 
BRANCH   2   3
ATOM      3  C   UNL     1      11.813   7.187  27.397  1.00  0.00     0.000 C 
BRANCH   3   4
ATOM      4  C   UNL     1      11.034   7.361  28.709  1.00  0.00     0.000 C 
BRANCH   4   5
ATOM      5  C   UNL     1      10.552   8.805  28.929  1.00  0.00     0.000 C 
BRANCH   5   6
ATOM      6  C   UNL     1       9.660   8.946  30.174  1.00  0.00     0.000 C 
BRANCH   6   7
ATOM      7  C   UNL     1       8.464   9.890  29.944  1.00  0.00     0.006 C 
BRANCH   7   8
ATOM      8  C   UNL     1       7.526  10.032  31.155  1.00  0.00     0.053 C 
BRANCH   8   9
ATOM      9  C   UNL     1       6.089  10.128  30.745  1.00  0.00     0.041 C 
ATOM     10  O   UNL     1       5.781  10.203  29.526  1.00  0.00    -0.550 OA
ATOM     11  O   UNL     1       5.086  10.091  31.706  1.00  0.00    -0.550 OA
ENDBRANCH   8   9
ENDBRANCH   7   8
ENDBRANCH   6   7
ENDBRANCH   5   6
ENDBRANCH   4   5
ENDBRANCH   3   4
ENDBRANCH   2   3
ENDBRANCH   1   2
BRANCH   1  12
ATOM     12  C   UNL     1       9.928   3.994  27.353  1.00  0.00     0.000 C 
BRANCH  12  13
ATOM     13  C   UNL     1       8.743   3.880  28.324  1.00  0.00    -0.000 C 
BRANCH  13  14
ATOM     14  C   UNL     1       7.569   4.793  27.932  1.00  0.00    -0.000 C 
BRANCH  14  15
ATOM     15  C   UNL     1       7.701   6.216  28.505  1.00  0.00    -0.000 C 
BRANCH  15  16
ATOM     16  C   UNL     1       6.726   7.247  27.907  1.00  0.00    -0.000 C 
BRANCH  16  17
ATOM     17  C   UNL     1       6.939   7.471  26.399  1.00  0.00    -0.000 C 
BRANCH  17  18
ATOM     18  C   UNL     1       8.367   7.959  26.078  1.00  0.00    -0.000 C 
BRANCH  18  19
ATOM     19  C   UNL     1       9.049   7.170  24.948  1.00  0.00    -0.003 C 
ATOM     20  C   UNL     1       8.293   5.900  24.563  1.00  0.00     0.004 C 
ENDBRANCH  18  19
ENDBRANCH  17  18
ENDBRANCH  16  17
ENDBRANCH  15  16
ENDBRANCH  14  15
ENDBRANCH  13  14
ENDBRANCH  12  13
ENDBRANCH   1  12
TORSDOF 16
ENDMDL
MODEL 6
REMARK VINA RESULT:    -4.792      1.737      4.318
REMARK INTER + INTRA:         -11.689
REMARK INTER:                  -9.104
REMARK INTRA:                  -2.586
REMARK UNBOUND:                -2.415
REMARK SMILES CCCCCCCCCCCCCCCCCC(=O)[O-]
REMARK SMILES IDX 10 1 11 2 12 3 13 4 14 5 15 6 16 7 17 8 18 9 19 10 20 11
REMARK SMILES IDX 9 12 8 13 7 14 6 15 5 16 4 17 3 18 2 19 1 20
REMARK H PARENT
REMARK Flexibility Score: inf
ROOT
ATOM      1  C   UNL     1       6.014  10.755  31.019  1.00  0.00     0.000 C 
ENDROOT
BRANCH   1   2
ATOM      2  C   UNL     1       4.715   9.936  31.054  1.00  0.00     0.000 C 
BRANCH   2   3
ATOM      3  C   UNL     1       4.745   8.736  30.096  1.00  0.00     0.000 C 
BRANCH   3   4
ATOM      4  C   UNL     1       4.912   9.202  28.642  1.00  0.00     0.000 C 
BRANCH   4   5
ATOM      5  C   UNL     1       6.022   8.442  27.896  1.00  0.00     0.000 C 
BRANCH   5   6
ATOM      6  C   UNL     1       6.534   7.224  28.682  1.00  0.00     0.000 C 
BRANCH   6   7
ATOM      7  C   UNL     1       7.326   6.239  27.801  1.00  0.00     0.006 C 
BRANCH   7   8
ATOM      8  C   UNL     1       6.677   5.943  26.438  1.00  0.00     0.053 C 
BRANCH   8   9
ATOM      9  C   UNL     1       7.569   6.321  25.296  1.00  0.00     0.041 C 
ATOM     10  O   UNL     1       7.511   7.478  24.803  1.00  0.00    -0.550 OA
ATOM     11  O   UNL     1       8.496   5.409  24.805  1.00  0.00    -0.550 OA
ENDBRANCH   8   9
ENDBRANCH   7   8
ENDBRANCH   6   7
ENDBRANCH   5   6
ENDBRANCH   4   5
ENDBRANCH   3   4
ENDBRANCH   2   3
ENDBRANCH   1   2
BRANCH   1  12
ATOM     12  C   UNL     1       7.010  10.337  32.117  1.00  0.00     0.000 C 
BRANCH  12  13
ATOM     13  C   UNL     1       8.464  10.332  31.621  1.00  0.00    -0.000 C 
BRANCH  13  14
ATOM     14  C   UNL     1       8.568  10.505  30.097  1.00  0.00    -0.000 C 
BRANCH  14  15
ATOM     15  C   UNL     1       9.459   9.439  29.433  1.00  0.00    -0.000 C 
BRANCH  15  16
ATOM     16  C   UNL     1       9.475   9.475  27.895  1.00  0.00    -0.000 C 
BRANCH  16  17
ATOM     17  C   UNL     1      10.268   8.311  27.274  1.00  0.00    -0.000 C 
BRANCH  17  18
ATOM     18  C   UNL     1      11.211   7.639  28.293  1.00  0.00    -0.000 C 
BRANCH  18  19
ATOM     19  C   UNL     1      10.960   6.131  28.464  1.00  0.00    -0.003 C 
ATOM     20  C   UNL     1      11.216   5.332  27.188  1.00  0.00     0.004 C 
ENDBRANCH  18  19
ENDBRANCH  17  18
ENDBRANCH  16  17
ENDBRANCH  15  16
ENDBRANCH  14  15
ENDBRANCH  13  14
ENDBRANCH  12  13
ENDBRANCH   1  12
TORSDOF 16
ENDMDL
MODEL 7
REMARK VINA RESULT:    -4.790      1.509      2.753
REMARK INTER + INTRA:         -11.685
REMARK INTER:                  -9.386
REMARK INTRA:                  -2.299
REMARK UNBOUND:                -2.415
REMARK SMILES CCCCCCCCCCCCCCCCCC(=O)[O-]
REMARK SMILES IDX 10 1 11 2 12 3 13 4 14 5 15 6 16 7 17 8 18 9 19 10 20 11
REMARK SMILES IDX 9 12 8 13 7 14 6 15 5 16 4 17 3 18 2 19 1 20
REMARK H PARENT
REMARK Flexibility Score: inf
ROOT
ATOM      1  C   UNL     1       9.993   9.628  29.004  1.00  0.00     0.000 C 
ENDROOT
BRANCH   1   2
ATOM      2  C   UNL     1      10.075   8.595  27.869  1.00  0.00     0.000 C 
BRANCH   2   3
ATOM      3  C   UNL     1       9.319   9.038  26.608  1.00  0.00     0.000 C 
BRANCH   3   4
ATOM      4  C   UNL     1       9.962   8.443  25.347  1.00  0.00     0.000 C 
BRANCH   4   5
ATOM      5  C   UNL     1       9.088   7.366  24.684  1.00  0.00     0.000 C 
BRANCH   5   6
ATOM      6  C   UNL     1       7.633   7.397  25.180  1.00  0.00     0.000 C 
BRANCH   6   7
ATOM      7  C   UNL     1       7.031   5.989  25.345  1.00  0.00     0.006 C 
BRANCH   7   8
ATOM      8  C   UNL     1       6.540   5.670  26.767  1.00  0.00     0.053 C 
BRANCH   8   9
ATOM      9  C   UNL     1       7.673   5.367  27.699  1.00  0.00     0.041 C 
ATOM     10  O   UNL     1       7.798   6.010  28.774  1.00  0.00    -0.550 OA
ATOM     11  O   UNL     1       8.565   4.344  27.401  1.00  0.00    -0.550 OA
ENDBRANCH   8   9
ENDBRANCH   7   8
ENDBRANCH   6   7
ENDBRANCH   5   6
ENDBRANCH   4   5
ENDBRANCH   3   4
ENDBRANCH   2   3
ENDBRANCH   1   2
BRANCH   1  12
ATOM     12  C   UNL     1       8.958   9.250  30.078  1.00  0.00     0.000 C 
BRANCH  12  13
ATOM     13  C   UNL     1       8.200  10.471  30.621  1.00  0.00    -0.000 C 
BRANCH  13  14
ATOM     14  C   UNL     1       7.876  10.347  32.119  1.00  0.00    -0.000 C 
BRANCH  14  15
ATOM     15  C   UNL     1       6.412  10.694  32.446  1.00  0.00    -0.000 C 
BRANCH  15  16
ATOM     16  C   UNL     1       5.481  10.785  31.224  1.00  0.00    -0.000 C 
BRANCH  16  17
ATOM     17  C   UNL     1       4.432   9.659  31.182  1.00  0.00    -0.000 C 
BRANCH  17  18
ATOM     18  C   UNL     1       4.150   9.178  29.743  1.00  0.00    -0.000 C 
BRANCH  18  19
ATOM     19  C   UNL     1       5.353   8.491  29.076  1.00  0.00    -0.003 C 
ATOM     20  C   UNL     1       5.854   9.230  27.837  1.00  0.00     0.004 C 
ENDBRANCH  18  19
ENDBRANCH  17  18
ENDBRANCH  16  17
ENDBRANCH  15  16
ENDBRANCH  14  15
ENDBRANCH  13  14
ENDBRANCH  12  13
ENDBRANCH   1  12
TORSDOF 16
ENDMDL
MODEL 8
REMARK VINA RESULT:    -4.761      1.847      2.139
REMARK INTER + INTRA:         -11.629
REMARK INTER:                  -9.576
REMARK INTRA:                  -2.053
REMARK UNBOUND:                -2.415
REMARK SMILES CCCCCCCCCCCCCCCCCC(=O)[O-]
REMARK SMILES IDX 10 1 11 2 12 3 13 4 14 5 15 6 16 7 17 8 18 9 19 10 20 11
REMARK SMILES IDX 9 12 8 13 7 14 6 15 5 16 4 17 3 18 2 19 1 20
REMARK H PARENT
REMARK Flexibility Score: inf
ROOT
ATOM      1  C   UNL     1       8.724  10.614  30.598  1.00  0.00     0.000 C 
ENDROOT
BRANCH   1   2
ATOM      2  C   UNL     1       9.002   9.202  30.061  1.00  0.00     0.000 C 
BRANCH   2   3
ATOM      3  C   UNL     1      10.053   9.191  28.941  1.00  0.00     0.000 C 
BRANCH   3   4
ATOM      4  C   UNL     1      10.738   7.819  28.849  1.00  0.00     0.000 C 
BRANCH   4   5
ATOM      5  C   UNL     1      10.069   6.885  27.828  1.00  0.00     0.000 C 
BRANCH   5   6
ATOM      6  C   UNL     1      10.652   7.042  26.414  1.00  0.00     0.000 C 
BRANCH   6   7
ATOM      7  C   UNL     1       9.750   7.881  25.489  1.00  0.00     0.006 C 
BRANCH   7   8
ATOM      8  C   UNL     1       8.242   7.646  25.688  1.00  0.00     0.053 C 
BRANCH   8   9
ATOM      9  C   UNL     1       7.823   6.276  25.252  1.00  0.00     0.041 C 
ATOM     10  O   UNL     1       6.974   5.631  25.922  1.00  0.00    -0.550 OA
ATOM     11  O   UNL     1       8.336   5.730  24.082  1.00  0.00    -0.550 OA
ENDBRANCH   8   9
ENDBRANCH   7   8
ENDBRANCH   6   7
ENDBRANCH   5   6
ENDBRANCH   4   5
ENDBRANCH   3   4
ENDBRANCH   2   3
ENDBRANCH   1   2
BRANCH   1  12
ATOM     12  C   UNL     1       7.691  10.623  31.740  1.00  0.00     0.000 C 
BRANCH  12  13
ATOM     13  C   UNL     1       6.313  11.125  31.283  1.00  0.00    -0.000 C 
BRANCH  13  14
ATOM     14  C   UNL     1       5.157  10.414  32.007  1.00  0.00    -0.000 C 
BRANCH  14  15
ATOM     15  C   UNL     1       4.054   9.934  31.045  1.00  0.00    -0.000 C 
BRANCH  15  16
ATOM     16  C   UNL     1       4.370   8.626  30.299  1.00  0.00    -0.000 C 
BRANCH  16  17
ATOM     17  C   UNL     1       4.391   8.797  28.769  1.00  0.00    -0.000 C 
BRANCH  17  18
ATOM     18  C   UNL     1       5.827   8.904  28.214  1.00  0.00    -0.000 C 
BRANCH  18  19
ATOM     19  C   UNL     1       6.153  10.281  27.612  1.00  0.00    -0.003 C 
ATOM     20  C   UNL     1       5.092  10.773  26.630  1.00  0.00     0.004 C 
ENDBRANCH  18  19
ENDBRANCH  17  18
ENDBRANCH  16  17
ENDBRANCH  15  16
ENDBRANCH  14  15
ENDBRANCH  13  14
ENDBRANCH  12  13
ENDBRANCH   1  12
TORSDOF 16
ENDMDL
MODEL 9
REMARK VINA RESULT:    -4.742      2.527      3.575
REMARK INTER + INTRA:         -11.594
REMARK INTER:                  -8.740
REMARK INTRA:                  -2.854
REMARK UNBOUND:                -2.415
REMARK SMILES CCCCCCCCCCCCCCCCCC(=O)[O-]
REMARK SMILES IDX 10 1 11 2 12 3 13 4 14 5 15 6 16 7 17 8 18 9 19 10 20 11
REMARK SMILES IDX 9 12 8 13 7 14 6 15 5 16 4 17 3 18 2 19 1 20
REMARK H PARENT
REMARK Flexibility Score: inf
ROOT
ATOM      1  C   UNL     1       9.069  10.006  30.396  1.00  0.00     0.000 C 
ENDROOT
BRANCH   1   2
ATOM      2  C   UNL     1       9.712   8.723  29.847  1.00  0.00     0.000 C 
BRANCH   2   3
ATOM      3  C   UNL     1      10.264   8.898  28.425  1.00  0.00     0.000 C 
BRANCH   3   4
ATOM      4  C   UNL     1      10.973   7.620  27.953  1.00  0.00     0.000 C 
BRANCH   4   5
ATOM      5  C   UNL     1      10.974   7.469  26.422  1.00  0.00     0.000 C 
BRANCH   5   6
ATOM      6  C   UNL     1       9.622   7.842  25.792  1.00  0.00     0.000 C 
BRANCH   6   7
ATOM      7  C   UNL     1       8.923   6.639  25.130  1.00  0.00     0.006 C 
BRANCH   7   8
ATOM      8  C   UNL     1       7.600   6.983  24.424  1.00  0.00     0.053 C 
BRANCH   8   9
ATOM      9  C   UNL     1       7.597   6.549  22.991  1.00  0.00     0.041 C 
ATOM     10  O   UNL     1       6.737   7.004  22.192  1.00  0.00    -0.550 OA
ATOM     11  O   UNL     1       8.572   5.674  22.527  1.00  0.00    -0.550 OA
ENDBRANCH   8   9
ENDBRANCH   7   8
ENDBRANCH   6   7
ENDBRANCH   5   6
ENDBRANCH   4   5
ENDBRANCH   3   4
ENDBRANCH   2   3
ENDBRANCH   1   2
BRANCH   1  12
ATOM     12  C   UNL     1       7.541   9.891  30.538  1.00  0.00     0.000 C 
BRANCH  12  13
ATOM     13  C   UNL     1       6.789  10.606  29.405  1.00  0.00    -0.000 C 
BRANCH  13  14
ATOM     14  C   UNL     1       5.838   9.668  28.643  1.00  0.00    -0.000 C 
BRANCH  14  15
ATOM     15  C   UNL     1       6.581   8.698  27.705  1.00  0.00    -0.000 C 
BRANCH  15  16
ATOM     16  C   UNL     1       6.251   7.210  27.921  1.00  0.00    -0.000 C 
BRANCH  16  17
ATOM     17  C   UNL     1       7.389   6.436  28.612  1.00  0.00    -0.000 C 
BRANCH  17  18
ATOM     18  C   UNL     1       7.510   4.989  28.090  1.00  0.00    -0.000 C 
BRANCH  18  19
ATOM     19  C   UNL     1       8.784   4.268  28.564  1.00  0.00    -0.003 C 
ATOM     20  C   UNL     1       9.635   3.735  27.414  1.00  0.00     0.004 C 
ENDBRANCH  18  19
ENDBRANCH  17  18
ENDBRANCH  16  17
ENDBRANCH  15  16
ENDBRANCH  14  15
ENDBRANCH  13  14
ENDBRANCH  12  13
ENDBRANCH   1  12
TORSDOF 16
ENDMDL
