MODEL 1
REMARK VINA RESULT:    -5.305      0.000      0.000
REMARK INTER + INTRA:         -15.288
REMARK INTER:                 -12.127
REMARK INTRA:                  -3.161
REMARK UNBOUND:                -3.161
REMARK SMILES CCCCCCCCCCCCCCCCCCCCCCCC(=O)[O-]
REMARK SMILES IDX 13 1 14 2 15 3 16 4 17 5 18 6 19 7 20 8 21 9 22 10 23 11
REMARK SMILES IDX 24 12 25 13 26 14 12 15 11 16 10 17 9 18 8 19 7 20 6 21 5 22
REMARK SMILES IDX 4 23 3 24 2 25 1 26
REMARK H PARENT
REMARK Flexibility Score: inf
ROOT
ATOM      1  C   UNL     1      18.815 -23.382 -29.274  1.00  0.00     0.000 C 
ENDROOT
BRANCH   1   2
ATOM      2  C   UNL     1      18.545 -21.956 -28.755  1.00  0.00     0.000 C 
BRANCH   2   3
ATOM      3  C   UNL     1      18.188 -21.857 -27.259  1.00  0.00     0.000 C 
BRANCH   3   4
ATOM      4  C   UNL     1      16.752 -22.303 -26.949  1.00  0.00     0.000 C 
BRANCH   4   5
ATOM      5  C   UNL     1      16.742 -23.530 -26.031  1.00  0.00     0.000 C 
BRANCH   5   6
ATOM      6  C   UNL     1      18.057 -23.639 -25.246  1.00  0.00     0.000 C 
BRANCH   6   7
ATOM      7  C   UNL     1      18.696 -25.023 -25.434  1.00  0.00     0.000 C 
BRANCH   7   8
ATOM      8  C   UNL     1      17.928 -25.886 -26.448  1.00  0.00     0.000 C 
BRANCH   8   9
ATOM      9  C   UNL     1      18.826 -26.371 -27.599  1.00  0.00     0.000 C 
BRANCH   9  10
ATOM     10  C   UNL     1      18.163 -27.469 -28.446  1.00  0.00     0.006 C 
BRANCH  10  11
ATOM     11  C   UNL     1      16.722 -27.120 -28.849  1.00  0.00     0.053 C 
BRANCH  11  12
ATOM     12  C   UNL     1      16.301 -27.922 -30.041  1.00  0.00     0.041 C 
ATOM     13  O   UNL     1      15.999 -27.343 -31.119  1.00  0.00    -0.550 OA
ATOM     14  O   UNL     1      16.291 -29.311 -29.979  1.00  0.00    -0.550 OA
ENDBRANCH  11  12
ENDBRANCH  10  11
ENDBRANCH   9  10
ENDBRANCH   8   9
ENDBRANCH   7   8
ENDBRANCH   6   7
ENDBRANCH   5   6
ENDBRANCH   4   5
ENDBRANCH   3   4
ENDBRANCH   2   3
ENDBRANCH   1   2
BRANCH   1  15
ATOM     15  C   UNL     1      17.853 -23.809 -30.396  1.00  0.00     0.000 C 
BRANCH  15  16
ATOM     16  C   UNL     1      16.691 -22.822 -30.586  1.00  0.00     0.000 C 
BRANCH  16  17
ATOM     17  C   UNL     1      15.320 -23.518 -30.638  1.00  0.00     0.000 C 
BRANCH  17  18
ATOM     18  C   UNL     1      14.842 -23.984 -29.253  1.00  0.00    -0.000 C 
BRANCH  18  19
ATOM     19  C   UNL     1      13.432 -23.469 -28.909  1.00  0.00    -0.000 C 
BRANCH  19  20
ATOM     20  C   UNL     1      13.454 -22.323 -27.886  1.00  0.00    -0.000 C 
BRANCH  20  21
ATOM     21  C   UNL     1      12.334 -22.443 -26.838  1.00  0.00    -0.000 C 
BRANCH  21  22
ATOM     22  C   UNL     1      11.831 -21.074 -26.353  1.00  0.00    -0.000 C 
BRANCH  22  23
ATOM     23  C   UNL     1      12.690 -19.906 -26.872  1.00  0.00    -0.000 C 
BRANCH  23  24
ATOM     24  C   UNL     1      12.116 -18.534 -26.489  1.00  0.00    -0.000 C 
BRANCH  24  25
ATOM     25  C   UNL     1      11.699 -18.459 -25.014  1.00  0.00    -0.003 C 
ATOM     26  C   UNL     1      12.916 -18.308 -24.105  1.00  0.00     0.004 C 
ENDBRANCH  24  25
ENDBRANCH  23  24
ENDBRANCH  22  23
ENDBRANCH  21  22
ENDBRANCH  20  21
ENDBRANCH  19  20
ENDBRANCH  18  19
ENDBRANCH  17  18
ENDBRANCH  16  17
ENDBRANCH  15  16
ENDBRANCH   1  15
TORSDOF 22
ENDMDL
MODEL 2
REMARK VINA RESULT:    -5.200      4.290      9.065
REMARK INTER + INTRA:         -15.049
REMARK INTER:                 -12.826
REMARK INTRA:                  -2.222
REMARK UNBOUND:                -3.161
REMARK SMILES CCCCCCCCCCCCCCCCCCCCCCCC(=O)[O-]
REMARK SMILES IDX 13 1 14 2 15 3 16 4 17 5 18 6 19 7 20 8 21 9 22 10 23 11
REMARK SMILES IDX 24 12 25 13 26 14 12 15 11 16 10 17 9 18 8 19 7 20 6 21 5 22
REMARK SMILES IDX 4 23 3 24 2 25 1 26
REMARK H PARENT
REMARK Flexibility Score: inf
ROOT
ATOM      1  C   UNL     1      15.017 -22.602 -27.249  1.00  0.00     0.000 C 
ENDROOT
BRANCH   1   2
ATOM      2  C   UNL     1      13.576 -22.798 -27.757  1.00  0.00     0.000 C 
BRANCH   2   3
ATOM      3  C   UNL     1      12.469 -22.305 -26.804  1.00  0.00     0.000 C 
BRANCH   3   4
ATOM      4  C   UNL     1      11.922 -20.921 -27.178  1.00  0.00     0.000 C 
BRANCH   4   5
ATOM      5  C   UNL     1      12.908 -19.814 -26.786  1.00  0.00     0.000 C 
BRANCH   5   6
ATOM      6  C   UNL     1      12.340 -18.428 -27.123  1.00  0.00     0.000 C 
BRANCH   6   7
ATOM      7  C   UNL     1      10.854 -18.520 -27.500  1.00  0.00     0.000 C 
BRANCH   7   8
ATOM      8  C   UNL     1       9.946 -17.851 -26.455  1.00  0.00     0.000 C 
BRANCH   8   9
ATOM      9  C   UNL     1       8.569 -17.480 -27.032  1.00  0.00     0.000 C 
BRANCH   9  10
ATOM     10  C   UNL     1       8.437 -17.831 -28.522  1.00  0.00     0.006 C 
BRANCH  10  11
ATOM     11  C   UNL     1       8.128 -16.607 -29.397  1.00  0.00     0.053 C 
BRANCH  11  12
ATOM     12  C   UNL     1       8.789 -16.737 -30.734  1.00  0.00     0.041 C 
ATOM     13  O   UNL     1       8.104 -16.652 -31.789  1.00  0.00    -0.550 OA
ATOM     14  O   UNL     1      10.166 -16.902 -30.818  1.00  0.00    -0.550 OA
ENDBRANCH  11  12
ENDBRANCH  10  11
ENDBRANCH   9  10
ENDBRANCH   8   9
ENDBRANCH   7   8
ENDBRANCH   6   7
ENDBRANCH   5   6
ENDBRANCH   4   5
ENDBRANCH   3   4
ENDBRANCH   2   3
ENDBRANCH   1   2
BRANCH   1  15
ATOM     15  C   UNL     1      15.984 -23.693 -27.738  1.00  0.00     0.000 C 
BRANCH  15  16
ATOM     16  C   UNL     1      17.459 -23.294 -27.572  1.00  0.00     0.000 C 
BRANCH  16  17
ATOM     17  C   UNL     1      17.632 -21.894 -26.957  1.00  0.00     0.000 C 
BRANCH  17  18
ATOM     18  C   UNL     1      18.940 -21.214 -27.394  1.00  0.00    -0.000 C 
BRANCH  18  19
ATOM     19  C   UNL     1      20.030 -21.275 -26.309  1.00  0.00    -0.000 C 
BRANCH  19  20
ATOM     20  C   UNL     1      19.581 -20.647 -24.981  1.00  0.00    -0.000 C 
BRANCH  20  21
ATOM     21  C   UNL     1      19.877 -21.547 -23.769  1.00  0.00    -0.000 C 
BRANCH  21  22
ATOM     22  C   UNL     1      20.310 -22.964 -24.179  1.00  0.00    -0.000 C 
BRANCH  22  23
ATOM     23  C   UNL     1      19.400 -24.057 -23.588  1.00  0.00    -0.000 C 
BRANCH  23  24
ATOM     24  C   UNL     1      18.091 -23.490 -23.017  1.00  0.00    -0.000 C 
BRANCH  24  25
ATOM     25  C   UNL     1      16.851 -24.235 -23.532  1.00  0.00    -0.003 C 
ATOM     26  C   UNL     1      17.227 -25.250 -24.609  1.00  0.00     0.004 C 
ENDBRANCH  24  25
ENDBRANCH  23  24
ENDBRANCH  22  23
ENDBRANCH  21  22
ENDBRANCH  20  21
ENDBRANCH  19  20
ENDBRANCH  18  19
ENDBRANCH  17  18
ENDBRANCH  16  17
ENDBRANCH  15  16
ENDBRANCH   1  15
TORSDOF 22
ENDMDL
MODEL 3
REMARK VINA RESULT:    -5.189      3.537      7.856
REMARK INTER + INTRA:         -15.024
REMARK INTER:                 -11.781
REMARK INTRA:                  -3.243
REMARK UNBOUND:                -3.161
REMARK SMILES CCCCCCCCCCCCCCCCCCCCCCCC(=O)[O-]
REMARK SMILES IDX 13 1 14 2 15 3 16 4 17 5 18 6 19 7 20 8 21 9 22 10 23 11
REMARK SMILES IDX 24 12 25 13 26 14 12 15 11 16 10 17 9 18 8 19 7 20 6 21 5 22
REMARK SMILES IDX 4 23 3 24 2 25 1 26
REMARK H PARENT
REMARK Flexibility Score: inf
ROOT
ATOM      1  C   UNL     1      18.844 -21.312 -29.300  1.00  0.00     0.000 C 
ENDROOT
BRANCH   1   2
ATOM      2  C   UNL     1      18.201 -22.711 -29.234  1.00  0.00     0.000 C 
BRANCH   2   3
ATOM      3  C   UNL     1      16.902 -22.878 -30.045  1.00  0.00     0.000 C 
BRANCH   3   4
ATOM      4  C   UNL     1      15.738 -23.436 -29.213  1.00  0.00     0.000 C 
BRANCH   4   5
ATOM      5  C   UNL     1      15.924 -23.119 -27.725  1.00  0.00     0.000 C 
BRANCH   5   6
ATOM      6  C   UNL     1      14.573 -22.839 -27.051  1.00  0.00     0.000 C 
BRANCH   6   7
ATOM      7  C   UNL     1      13.423 -22.936 -28.064  1.00  0.00     0.000 C 
BRANCH   7   8
ATOM      8  C   UNL     1      12.630 -21.624 -28.173  1.00  0.00     0.000 C 
BRANCH   8   9
ATOM      9  C   UNL     1      12.082 -21.158 -26.814  1.00  0.00     0.000 C 
BRANCH   9  10
ATOM     10  C   UNL     1      12.246 -19.646 -26.595  1.00  0.00     0.006 C 
BRANCH  10  11
ATOM     11  C   UNL     1      11.969 -18.828 -27.865  1.00  0.00     0.053 C 
BRANCH  11  12
ATOM     12  C   UNL     1      10.547 -18.363 -27.892  1.00  0.00     0.041 C 
ATOM     13  O   UNL     1       9.970 -18.029 -26.822  1.00  0.00    -0.550 OA
ATOM     14  O   UNL     1       9.872 -18.252 -29.102  1.00  0.00    -0.550 OA
ENDBRANCH  11  12
ENDBRANCH  10  11
ENDBRANCH   9  10
ENDBRANCH   8   9
ENDBRANCH   7   8
ENDBRANCH   6   7
ENDBRANCH   5   6
ENDBRANCH   4   5
ENDBRANCH   3   4
ENDBRANCH   2   3
ENDBRANCH   1   2
BRANCH   1  15
ATOM     15  C   UNL     1      19.210 -20.749 -27.916  1.00  0.00     0.000 C 
BRANCH  15  16
ATOM     16  C   UNL     1      19.422 -21.852 -26.867  1.00  0.00     0.000 C 
BRANCH  16  17
ATOM     17  C   UNL     1      18.528 -21.676 -25.627  1.00  0.00     0.000 C 
BRANCH  17  18
ATOM     18  C   UNL     1      19.152 -22.279 -24.358  1.00  0.00    -0.000 C 
BRANCH  18  19
ATOM     19  C   UNL     1      18.986 -23.808 -24.285  1.00  0.00    -0.000 C 
BRANCH  19  20
ATOM     20  C   UNL     1      17.606 -24.277 -24.771  1.00  0.00    -0.000 C 
BRANCH  20  21
ATOM     21  C   UNL     1      17.682 -25.551 -25.630  1.00  0.00    -0.000 C 
BRANCH  21  22
ATOM     22  C   UNL     1      18.688 -25.424 -26.786  1.00  0.00    -0.000 C 
BRANCH  22  23
ATOM     23  C   UNL     1      18.620 -26.611 -27.765  1.00  0.00    -0.000 C 
BRANCH  23  24
ATOM     24  C   UNL     1      17.260 -26.717 -28.472  1.00  0.00    -0.000 C 
BRANCH  24  25
ATOM     25  C   UNL     1      17.393 -27.102 -29.952  1.00  0.00    -0.003 C 
ATOM     26  C   UNL     1      16.494 -28.287 -30.295  1.00  0.00     0.004 C 
ENDBRANCH  24  25
ENDBRANCH  23  24
ENDBRANCH  22  23
ENDBRANCH  21  22
ENDBRANCH  20  21
ENDBRANCH  19  20
ENDBRANCH  18  19
ENDBRANCH  17  18
ENDBRANCH  16  17
ENDBRANCH  15  16
ENDBRANCH   1  15
TORSDOF 22
ENDMDL
MODEL 4
REMARK VINA RESULT:    -5.177      1.389      2.460
REMARK INTER + INTRA:         -14.995
REMARK INTER:                 -12.060
REMARK INTRA:                  -2.935
REMARK UNBOUND:                -3.161
REMARK SMILES CCCCCCCCCCCCCCCCCCCCCCCC(=O)[O-]
REMARK SMILES IDX 13 1 14 2 15 3 16 4 17 5 18 6 19 7 20 8 21 9 22 10 23 11
REMARK SMILES IDX 24 12 25 13 26 14 12 15 11 16 10 17 9 18 8 19 7 20 6 21 5 22
REMARK SMILES IDX 4 23 3 24 2 25 1 26
REMARK H PARENT
REMARK Flexibility Score: inf
ROOT
ATOM      1  C   UNL     1      18.625 -21.353 -25.756  1.00  0.00     0.000 C 
ENDROOT
BRANCH   1   2
ATOM      2  C   UNL     1      19.935 -21.875 -25.133  1.00  0.00     0.000 C 
BRANCH   2   3
ATOM      3  C   UNL     1      19.762 -22.936 -24.029  1.00  0.00     0.000 C 
BRANCH   3   4
ATOM      4  C   UNL     1      18.328 -23.015 -23.487  1.00  0.00     0.000 C 
BRANCH   4   5
ATOM      5  C   UNL     1      17.713 -24.393 -23.754  1.00  0.00     0.000 C 
BRANCH   5   6
ATOM      6  C   UNL     1      18.667 -25.269 -24.578  1.00  0.00     0.000 C 
BRANCH   6   7
ATOM      7  C   UNL     1      18.052 -25.618 -25.942  1.00  0.00     0.000 C 
BRANCH   7   8
ATOM      8  C   UNL     1      19.107 -25.679 -27.059  1.00  0.00     0.000 C 
BRANCH   8   9
ATOM      9  C   UNL     1      18.736 -26.690 -28.157  1.00  0.00     0.000 C 
BRANCH   9  10
ATOM     10  C   UNL     1      17.449 -27.467 -27.836  1.00  0.00     0.006 C 
BRANCH  10  11
ATOM     11  C   UNL     1      17.026 -28.412 -28.970  1.00  0.00     0.053 C 
BRANCH  11  12
ATOM     12  C   UNL     1      15.842 -27.859 -29.701  1.00  0.00     0.041 C 
ATOM     13  O   UNL     1      14.675 -28.185 -29.353  1.00  0.00    -0.550 OA
ATOM     14  O   UNL     1      16.024 -26.945 -30.732  1.00  0.00    -0.550 OA
ENDBRANCH  11  12
ENDBRANCH  10  11
ENDBRANCH   9  10
ENDBRANCH   8   9
ENDBRANCH   7   8
ENDBRANCH   6   7
ENDBRANCH   5   6
ENDBRANCH   4   5
ENDBRANCH   3   4
ENDBRANCH   2   3
ENDBRANCH   1   2
BRANCH   1  15
ATOM     15  C   UNL     1      18.382 -21.879 -27.181  1.00  0.00     0.000 C 
BRANCH  15  16
ATOM     16  C   UNL     1      16.995 -22.521 -27.344  1.00  0.00     0.000 C 
BRANCH  16  17
ATOM     17  C   UNL     1      16.871 -23.351 -28.634  1.00  0.00     0.000 C 
BRANCH  17  18
ATOM     18  C   UNL     1      15.416 -23.486 -29.113  1.00  0.00    -0.000 C 
BRANCH  18  19
ATOM     19  C   UNL     1      14.401 -22.981 -28.071  1.00  0.00    -0.000 C 
BRANCH  19  20
ATOM     20  C   UNL     1      12.962 -22.955 -28.610  1.00  0.00    -0.000 C 
BRANCH  20  21
ATOM     21  C   UNL     1      11.911 -23.139 -27.502  1.00  0.00    -0.000 C 
BRANCH  21  22
ATOM     22  C   UNL     1      12.176 -22.240 -26.283  1.00  0.00    -0.000 C 
BRANCH  22  23
ATOM     23  C   UNL     1      11.742 -20.781 -26.516  1.00  0.00    -0.000 C 
BRANCH  23  24
ATOM     24  C   UNL     1      12.936 -19.818 -26.617  1.00  0.00    -0.000 C 
BRANCH  24  25
ATOM     25  C   UNL     1      12.542 -18.448 -27.187  1.00  0.00    -0.003 C 
ATOM     26  C   UNL     1      11.914 -18.588 -28.571  1.00  0.00     0.004 C 
ENDBRANCH  24  25
ENDBRANCH  23  24
ENDBRANCH  22  23
ENDBRANCH  21  22
ENDBRANCH  20  21
ENDBRANCH  19  20
ENDBRANCH  18  19
ENDBRANCH  17  18
ENDBRANCH  16  17
ENDBRANCH  15  16
ENDBRANCH   1  15
TORSDOF 22
ENDMDL
MODEL 5
REMARK VINA RESULT:    -5.169      1.253      2.980
REMARK INTER + INTRA:         -14.978
REMARK INTER:                 -11.966
REMARK INTRA:                  -3.013
REMARK UNBOUND:                -3.161
REMARK SMILES CCCCCCCCCCCCCCCCCCCCCCCC(=O)[O-]
REMARK SMILES IDX 13 1 14 2 15 3 16 4 17 5 18 6 19 7 20 8 21 9 22 10 23 11
REMARK SMILES IDX 24 12 25 13 26 14 12 15 11 16 10 17 9 18 8 19 7 20 6 21 5 22
REMARK SMILES IDX 4 23 3 24 2 25 1 26
REMARK H PARENT
REMARK Flexibility Score: inf
ROOT
ATOM      1  C   UNL     1      17.778 -23.370 -25.285  1.00  0.00     0.000 C 
ENDROOT
BRANCH   1   2
ATOM      2  C   UNL     1      18.806 -24.500 -25.494  1.00  0.00     0.000 C 
BRANCH   2   3
ATOM      3  C   UNL     1      18.323 -25.676 -26.364  1.00  0.00     0.000 C 
BRANCH   3   4
ATOM      4  C   UNL     1      19.257 -25.976 -27.546  1.00  0.00     0.000 C 
BRANCH   4   5
ATOM      5  C   UNL     1      20.001 -24.713 -27.994  1.00  0.00     0.000 C 
BRANCH   5   6
ATOM      6  C   UNL     1      20.375 -24.794 -29.481  1.00  0.00     0.000 C 
BRANCH   6   7
ATOM      7  C   UNL     1      19.414 -23.954 -30.335  1.00  0.00     0.000 C 
BRANCH   7   8
ATOM      8  C   UNL     1      18.050 -24.639 -30.523  1.00  0.00     0.000 C 
BRANCH   8   9
ATOM      9  C   UNL     1      18.152 -25.916 -31.375  1.00  0.00     0.000 C 
BRANCH   9  10
ATOM     10  C   UNL     1      17.391 -27.101 -30.759  1.00  0.00     0.006 C 
BRANCH  10  11
ATOM     11  C   UNL     1      16.390 -26.668 -29.677  1.00  0.00     0.053 C 
BRANCH  11  12
ATOM     12  C   UNL     1      15.615 -27.847 -29.176  1.00  0.00     0.041 C 
ATOM     13  O   UNL     1      14.379 -27.934 -29.403  1.00  0.00    -0.550 OA
ATOM     14  O   UNL     1      16.266 -28.872 -28.500  1.00  0.00    -0.550 OA
ENDBRANCH  11  12
ENDBRANCH  10  11
ENDBRANCH   9  10
ENDBRANCH   8   9
ENDBRANCH   7   8
ENDBRANCH   6   7
ENDBRANCH   5   6
ENDBRANCH   4   5
ENDBRANCH   3   4
ENDBRANCH   2   3
ENDBRANCH   1   2
BRANCH   1  15
ATOM     15  C   UNL     1      17.904 -22.239 -26.319  1.00  0.00     0.000 C 
BRANCH  15  16
ATOM     16  C   UNL     1      17.147 -22.543 -27.622  1.00  0.00     0.000 C 
BRANCH  16  17
ATOM     17  C   UNL     1      15.690 -22.975 -27.377  1.00  0.00     0.000 C 
BRANCH  17  18
ATOM     18  C   UNL     1      14.871 -23.053 -28.676  1.00  0.00    -0.000 C 
BRANCH  18  19
ATOM     19  C   UNL     1      13.699 -24.046 -28.578  1.00  0.00    -0.000 C 
BRANCH  19  20
ATOM     20  C   UNL     1      12.360 -23.354 -28.276  1.00  0.00    -0.000 C 
BRANCH  20  21
ATOM     21  C   UNL     1      12.203 -22.990 -26.790  1.00  0.00    -0.000 C 
BRANCH  21  22
ATOM     22  C   UNL     1      11.799 -21.521 -26.581  1.00  0.00    -0.000 C 
BRANCH  22  23
ATOM     23  C   UNL     1      12.928 -20.538 -26.944  1.00  0.00    -0.000 C 
BRANCH  23  24
ATOM     24  C   UNL     1      12.590 -19.087 -26.567  1.00  0.00    -0.000 C 
BRANCH  24  25
ATOM     25  C   UNL     1      11.919 -18.975 -25.191  1.00  0.00    -0.003 C 
ATOM     26  C   UNL     1      12.847 -18.305 -24.180  1.00  0.00     0.004 C 
ENDBRANCH  24  25
ENDBRANCH  23  24
ENDBRANCH  22  23
ENDBRANCH  21  22
ENDBRANCH  20  21
ENDBRANCH  19  20
ENDBRANCH  18  19
ENDBRANCH  17  18
ENDBRANCH  16  17
ENDBRANCH  15  16
ENDBRANCH   1  15
TORSDOF 22
ENDMDL
MODEL 6
REMARK VINA RESULT:    -5.134      1.584      2.642
REMARK INTER + INTRA:         -14.898
REMARK INTER:                 -12.631
REMARK INTRA:                  -2.267
REMARK UNBOUND:                -3.161
REMARK SMILES CCCCCCCCCCCCCCCCCCCCCCCC(=O)[O-]
REMARK SMILES IDX 13 1 14 2 15 3 16 4 17 5 18 6 19 7 20 8 21 9 22 10 23 11
REMARK SMILES IDX 24 12 25 13 26 14 12 15 11 16 10 17 9 18 8 19 7 20 6 21 5 22
REMARK SMILES IDX 4 23 3 24 2 25 1 26
REMARK H PARENT
REMARK Flexibility Score: inf
ROOT
ATOM      1  C   UNL     1      16.460 -23.286 -29.057  1.00  0.00     0.000 C 
ENDROOT
BRANCH   1   2
ATOM      2  C   UNL     1      16.348 -23.232 -27.521  1.00  0.00     0.000 C 
BRANCH   2   3
ATOM      3  C   UNL     1      17.197 -22.144 -26.836  1.00  0.00     0.000 C 
BRANCH   3   4
ATOM      4  C   UNL     1      18.196 -22.710 -25.817  1.00  0.00     0.000 C 
BRANCH   4   5
ATOM      5  C   UNL     1      18.633 -24.128 -26.203  1.00  0.00     0.000 C 
BRANCH   5   6
ATOM      6  C   UNL     1      19.615 -24.098 -27.382  1.00  0.00     0.000 C 
BRANCH   6   7
ATOM      7  C   UNL     1      19.589 -25.426 -28.153  1.00  0.00     0.000 C 
BRANCH   7   8
ATOM      8  C   UNL     1      18.765 -26.504 -27.429  1.00  0.00     0.000 C 
BRANCH   8   9
ATOM      9  C   UNL     1      18.033 -27.435 -28.410  1.00  0.00     0.000 C 
BRANCH   9  10
ATOM     10  C   UNL     1      17.521 -26.696 -29.657  1.00  0.00     0.006 C 
BRANCH  10  11
ATOM     11  C   UNL     1      17.135 -27.649 -30.798  1.00  0.00     0.053 C 
BRANCH  11  12
ATOM     12  C   UNL     1      15.962 -28.491 -30.405  1.00  0.00     0.041 C 
ATOM     13  O   UNL     1      15.895 -29.695 -30.772  1.00  0.00    -0.550 OA
ATOM     14  O   UNL     1      14.965 -27.963 -29.592  1.00  0.00    -0.550 OA
ENDBRANCH  11  12
ENDBRANCH  10  11
ENDBRANCH   9  10
ENDBRANCH   8   9
ENDBRANCH   7   8
ENDBRANCH   6   7
ENDBRANCH   5   6
ENDBRANCH   4   5
ENDBRANCH   3   4
ENDBRANCH   2   3
ENDBRANCH   1   2
BRANCH   1  15
ATOM     15  C   UNL     1      15.111 -23.531 -29.754  1.00  0.00     0.000 C 
BRANCH  15  16
ATOM     16  C   UNL     1      14.045 -24.090 -28.798  1.00  0.00     0.000 C 
BRANCH  16  17
ATOM     17  C   UNL     1      12.718 -23.315 -28.865  1.00  0.00     0.000 C 
BRANCH  17  18
ATOM     18  C   UNL     1      11.836 -23.545 -27.627  1.00  0.00    -0.000 C 
BRANCH  18  19
ATOM     19  C   UNL     1      12.058 -22.483 -26.535  1.00  0.00    -0.000 C 
BRANCH  19  20
ATOM     20  C   UNL     1      12.518 -21.133 -27.108  1.00  0.00    -0.000 C 
BRANCH  20  21
ATOM     21  C   UNL     1      12.153 -19.948 -26.197  1.00  0.00    -0.000 C 
BRANCH  21  22
ATOM     22  C   UNL     1      12.118 -18.611 -26.955  1.00  0.00    -0.000 C 
BRANCH  22  23
ATOM     23  C   UNL     1      11.531 -18.746 -28.372  1.00  0.00    -0.000 C 
BRANCH  23  24
ATOM     24  C   UNL     1      10.173 -18.043 -28.520  1.00  0.00    -0.000 C 
BRANCH  24  25
ATOM     25  C   UNL     1       9.544 -17.685 -27.165  1.00  0.00    -0.003 C 
ATOM     26  C   UNL     1       8.423 -16.662 -27.334  1.00  0.00     0.004 C 
ENDBRANCH  24  25
ENDBRANCH  23  24
ENDBRANCH  22  23
ENDBRANCH  21  22
ENDBRANCH  20  21
ENDBRANCH  19  20
ENDBRANCH  18  19
ENDBRANCH  17  18
ENDBRANCH  16  17
ENDBRANCH  15  16
ENDBRANCH   1  15
TORSDOF 22
ENDMDL
MODEL 7
REMARK VINA RESULT:    -5.114      2.174      3.612
REMARK INTER + INTRA:         -14.852
REMARK INTER:                 -11.790
REMARK INTRA:                  -3.062
REMARK UNBOUND:                -3.161
REMARK SMILES CCCCCCCCCCCCCCCCCCCCCCCC(=O)[O-]
REMARK SMILES IDX 13 1 14 2 15 3 16 4 17 5 18 6 19 7 20 8 21 9 22 10 23 11
REMARK SMILES IDX 24 12 25 13 26 14 12 15 11 16 10 17 9 18 8 19 7 20 6 21 5 22
REMARK SMILES IDX 4 23 3 24 2 25 1 26
REMARK H PARENT
REMARK Flexibility Score: inf
ROOT
ATOM      1  C   UNL     1      17.492 -22.891 -26.555  1.00  0.00     0.000 C 
ENDROOT
BRANCH   1   2
ATOM      2  C   UNL     1      17.043 -24.079 -25.682  1.00  0.00     0.000 C 
BRANCH   2   3
ATOM      3  C   UNL     1      17.940 -25.330 -25.760  1.00  0.00     0.000 C 
BRANCH   3   4
ATOM      4  C   UNL     1      18.798 -25.379 -27.033  1.00  0.00     0.000 C 
BRANCH   4   5
ATOM      5  C   UNL     1      18.766 -26.775 -27.666  1.00  0.00     0.000 C 
BRANCH   5   6
ATOM      6  C   UNL     1      17.381 -27.418 -27.505  1.00  0.00     0.000 C 
BRANCH   6   7
ATOM      7  C   UNL     1      16.872 -27.967 -28.846  1.00  0.00     0.000 C 
BRANCH   7   8
ATOM      8  C   UNL     1      16.341 -26.856 -29.767  1.00  0.00     0.000 C 
BRANCH   8   9
ATOM      9  C   UNL     1      17.414 -26.347 -30.744  1.00  0.00     0.000 C 
BRANCH   9  10
ATOM     10  C   UNL     1      17.688 -24.842 -30.591  1.00  0.00     0.006 C 
BRANCH  10  11
ATOM     11  C   UNL     1      19.088 -24.440 -31.079  1.00  0.00     0.053 C 
BRANCH  11  12
ATOM     12  C   UNL     1      19.694 -23.426 -30.158  1.00  0.00     0.041 C 
ATOM     13  O   UNL     1      20.703 -23.724 -29.464  1.00  0.00    -0.550 OA
ATOM     14  O   UNL     1      19.176 -22.137 -30.103  1.00  0.00    -0.550 OA
ENDBRANCH  11  12
ENDBRANCH  10  11
ENDBRANCH   9  10
ENDBRANCH   8   9
ENDBRANCH   7   8
ENDBRANCH   6   7
ENDBRANCH   5   6
ENDBRANCH   4   5
ENDBRANCH   3   4
ENDBRANCH   2   3
ENDBRANCH   1   2
BRANCH   1  15
ATOM     15  C   UNL     1      16.553 -22.627 -27.745  1.00  0.00     0.000 C 
BRANCH  15  16
ATOM     16  C   UNL     1      15.180 -23.295 -27.573  1.00  0.00     0.000 C 
BRANCH  16  17
ATOM     17  C   UNL     1      14.545 -23.705 -28.914  1.00  0.00     0.000 C 
BRANCH  17  18
ATOM     18  C   UNL     1      13.146 -24.320 -28.741  1.00  0.00    -0.000 C 
BRANCH  18  19
ATOM     19  C   UNL     1      12.065 -23.262 -28.455  1.00  0.00    -0.000 C 
BRANCH  19  20
ATOM     20  C   UNL     1      11.628 -23.245 -26.982  1.00  0.00    -0.000 C 
BRANCH  20  21
ATOM     21  C   UNL     1      11.926 -21.904 -26.291  1.00  0.00    -0.000 C 
BRANCH  21  22
ATOM     22  C   UNL     1      12.444 -20.838 -27.270  1.00  0.00    -0.000 C 
BRANCH  22  23
ATOM     23  C   UNL     1      12.577 -19.448 -26.619  1.00  0.00    -0.000 C 
BRANCH  23  24
ATOM     24  C   UNL     1      11.272 -18.977 -25.960  1.00  0.00    -0.000 C 
BRANCH  24  25
ATOM     25  C   UNL     1      11.516 -18.028 -24.779  1.00  0.00    -0.003 C 
ATOM     26  C   UNL     1      12.848 -18.329 -24.098  1.00  0.00     0.004 C 
ENDBRANCH  24  25
ENDBRANCH  23  24
ENDBRANCH  22  23
ENDBRANCH  21  22
ENDBRANCH  20  21
ENDBRANCH  19  20
ENDBRANCH  18  19
ENDBRANCH  17  18
ENDBRANCH  16  17
ENDBRANCH  15  16
ENDBRANCH   1  15
TORSDOF 22
ENDMDL
MODEL 8
REMARK VINA RESULT:    -5.029      2.899      6.677
REMARK INTER + INTRA:         -14.658
REMARK INTER:                 -10.927
REMARK INTRA:                  -3.731
REMARK UNBOUND:                -3.161
REMARK SMILES CCCCCCCCCCCCCCCCCCCCCCCC(=O)[O-]
REMARK SMILES IDX 13 1 14 2 15 3 16 4 17 5 18 6 19 7 20 8 21 9 22 10 23 11
REMARK SMILES IDX 24 12 25 13 26 14 12 15 11 16 10 17 9 18 8 19 7 20 6 21 5 22
REMARK SMILES IDX 4 23 3 24 2 25 1 26
REMARK H PARENT
REMARK Flexibility Score: inf
ROOT
ATOM      1  C   UNL     1      17.039 -24.144 -24.171  1.00  0.00     0.000 C 
ENDROOT
BRANCH   1   2
ATOM      2  C   UNL     1      17.879 -23.599 -22.999  1.00  0.00     0.000 C 
BRANCH   2   3
ATOM      3  C   UNL     1      19.058 -22.692 -23.400  1.00  0.00     0.000 C 
BRANCH   3   4
ATOM      4  C   UNL     1      19.355 -22.718 -24.906  1.00  0.00     0.000 C 
BRANCH   4   5
ATOM      5  C   UNL     1      19.027 -21.368 -25.555  1.00  0.00     0.000 C 
BRANCH   5   6
ATOM      6  C   UNL     1      17.853 -21.501 -26.535  1.00  0.00     0.000 C 
BRANCH   6   7
ATOM      7  C   UNL     1      18.227 -22.401 -27.722  1.00  0.00     0.000 C 
BRANCH   7   8
ATOM      8  C   UNL     1      16.993 -23.033 -28.386  1.00  0.00     0.000 C 
BRANCH   8   9
ATOM      9  C   UNL     1      15.758 -23.001 -27.470  1.00  0.00     0.000 C 
BRANCH   9  10
ATOM     10  C   UNL     1      14.437 -23.072 -28.253  1.00  0.00     0.006 C 
BRANCH  10  11
ATOM     11  C   UNL     1      13.250 -22.489 -27.472  1.00  0.00     0.053 C 
BRANCH  11  12
ATOM     12  C   UNL     1      11.967 -23.116 -27.922  1.00  0.00     0.041 C 
ATOM     13  O   UNL     1      11.724 -23.246 -29.152  1.00  0.00    -0.550 OA
ATOM     14  O   UNL     1      11.061 -23.600 -26.986  1.00  0.00    -0.550 OA
ENDBRANCH  11  12
ENDBRANCH  10  11
ENDBRANCH   9  10
ENDBRANCH   8   9
ENDBRANCH   7   8
ENDBRANCH   6   7
ENDBRANCH   5   6
ENDBRANCH   4   5
ENDBRANCH   3   4
ENDBRANCH   2   3
ENDBRANCH   1   2
BRANCH   1  15
ATOM     15  C   UNL     1      17.445 -25.566 -24.596  1.00  0.00     0.000 C 
BRANCH  15  16
ATOM     16  C   UNL     1      17.400 -25.762 -26.119  1.00  0.00     0.000 C 
BRANCH  16  17
ATOM     17  C   UNL     1      18.792 -25.996 -26.732  1.00  0.00     0.000 C 
BRANCH  17  18
ATOM     18  C   UNL     1      18.728 -26.729 -28.082  1.00  0.00    -0.000 C 
BRANCH  18  19
ATOM     19  C   UNL     1      17.656 -27.833 -28.106  1.00  0.00    -0.000 C 
BRANCH  19  20
ATOM     20  C   UNL     1      16.839 -27.837 -29.407  1.00  0.00    -0.000 C 
BRANCH  20  21
ATOM     21  C   UNL     1      17.546 -27.095 -30.554  1.00  0.00    -0.000 C 
BRANCH  21  22
ATOM     22  C   UNL     1      16.813 -25.808 -30.965  1.00  0.00    -0.000 C 
BRANCH  22  23
ATOM     23  C   UNL     1      17.772 -24.710 -31.459  1.00  0.00    -0.000 C 
BRANCH  23  24
ATOM     24  C   UNL     1      19.246 -25.043 -31.178  1.00  0.00    -0.000 C 
BRANCH  24  25
ATOM     25  C   UNL     1      20.051 -23.817 -30.722  1.00  0.00    -0.003 C 
ATOM     26  C   UNL     1      20.942 -24.158 -29.530  1.00  0.00     0.004 C 
ENDBRANCH  24  25
ENDBRANCH  23  24
ENDBRANCH  22  23
ENDBRANCH  21  22
ENDBRANCH  20  21
ENDBRANCH  19  20
ENDBRANCH  18  19
ENDBRANCH  17  18
ENDBRANCH  16  17
ENDBRANCH  15  16
ENDBRANCH   1  15
TORSDOF 22
ENDMDL
MODEL 9
REMARK VINA RESULT:    -5.015      2.777      5.665
REMARK INTER + INTRA:         -14.625
REMARK INTER:                 -10.878
REMARK INTRA:                  -3.747
REMARK UNBOUND:                -3.161
REMARK SMILES CCCCCCCCCCCCCCCCCCCCCCCC(=O)[O-]
REMARK SMILES IDX 13 1 14 2 15 3 16 4 17 5 18 6 19 7 20 8 21 9 22 10 23 11
REMARK SMILES IDX 24 12 25 13 26 14 12 15 11 16 10 17 9 18 8 19 7 20 6 21 5 22
REMARK SMILES IDX 4 23 3 24 2 25 1 26
REMARK H PARENT
REMARK Flexibility Score: inf
ROOT
ATOM      1  C   UNL     1      17.440 -24.631 -24.528  1.00  0.00     0.000 C 
ENDROOT
BRANCH   1   2
ATOM      2  C   UNL     1      17.532 -25.532 -25.774  1.00  0.00     0.000 C 
BRANCH   2   3
ATOM      3  C   UNL     1      18.860 -25.450 -26.551  1.00  0.00     0.000 C 
BRANCH   3   4
ATOM      4  C   UNL     1      18.934 -26.434 -27.727  1.00  0.00     0.000 C 
BRANCH   4   5
ATOM      5  C   UNL     1      17.721 -27.372 -27.737  1.00  0.00     0.000 C 
BRANCH   5   6
ATOM      6  C   UNL     1      17.269 -27.670 -29.174  1.00  0.00     0.000 C 
BRANCH   6   7
ATOM      7  C   UNL     1      17.381 -26.417 -30.055  1.00  0.00     0.000 C 
BRANCH   7   8
ATOM      8  C   UNL     1      17.967 -26.730 -31.442  1.00  0.00     0.000 C 
BRANCH   8   9
ATOM      9  C   UNL     1      18.932 -25.635 -31.928  1.00  0.00     0.000 C 
BRANCH   9  10
ATOM     10  C   UNL     1      19.123 -24.513 -30.894  1.00  0.00     0.006 C 
BRANCH  10  11
ATOM     11  C   UNL     1      20.538 -24.489 -30.296  1.00  0.00     0.053 C 
BRANCH  11  12
ATOM     12  C   UNL     1      21.139 -23.124 -30.423  1.00  0.00     0.041 C 
ATOM     13  O   UNL     1      22.190 -22.834 -29.791  1.00  0.00    -0.550 OA
ATOM     14  O   UNL     1      20.568 -22.188 -31.278  1.00  0.00    -0.550 OA
ENDBRANCH  11  12
ENDBRANCH  10  11
ENDBRANCH   9  10
ENDBRANCH   8   9
ENDBRANCH   7   8
ENDBRANCH   6   7
ENDBRANCH   5   6
ENDBRANCH   4   5
ENDBRANCH   3   4
ENDBRANCH   2   3
ENDBRANCH   1   2
BRANCH   1  15
ATOM     15  C   UNL     1      18.788 -24.462 -23.805  1.00  0.00     0.000 C 
BRANCH  15  16
ATOM     16  C   UNL     1      19.020 -23.023 -23.317  1.00  0.00     0.000 C 
BRANCH  16  17
ATOM     17  C   UNL     1      19.969 -22.229 -24.233  1.00  0.00     0.000 C 
BRANCH  17  18
ATOM     18  C   UNL     1      19.233 -21.174 -25.075  1.00  0.00    -0.000 C 
BRANCH  18  19
ATOM     19  C   UNL     1      19.108 -21.579 -26.555  1.00  0.00    -0.000 C 
BRANCH  19  20
ATOM     20  C   UNL     1      17.655 -21.856 -26.972  1.00  0.00    -0.000 C 
BRANCH  20  21
ATOM     21  C   UNL     1      17.557 -22.636 -28.294  1.00  0.00    -0.000 C 
BRANCH  21  22
ATOM     22  C   UNL     1      16.203 -23.345 -28.463  1.00  0.00    -0.000 C 
BRANCH  22  23
ATOM     23  C   UNL     1      15.209 -23.001 -27.338  1.00  0.00    -0.000 C 
BRANCH  23  24
ATOM     24  C   UNL     1      13.810 -22.654 -27.872  1.00  0.00    -0.000 C 
BRANCH  24  25
ATOM     25  C   UNL     1      12.695 -23.006 -26.877  1.00  0.00    -0.003 C 
ATOM     26  C   UNL     1      11.918 -21.760 -26.459  1.00  0.00     0.004 C 
ENDBRANCH  24  25
ENDBRANCH  23  24
ENDBRANCH  22  23
ENDBRANCH  21  22
ENDBRANCH  20  21
ENDBRANCH  19  20
ENDBRANCH  18  19
ENDBRANCH  17  18
ENDBRANCH  16  17
ENDBRANCH  15  16
ENDBRANCH   1  15
TORSDOF 22
ENDMDL
