MODEL 1
REMARK VINA RESULT:    -6.567      0.000      0.000
REMARK INTER + INTRA:         -11.458
REMARK INTER:                  -9.062
REMARK INTRA:                  -2.396
REMARK UNBOUND:                -2.396
REMARK SMILES CC[C@@H](CC[C@@H](C)[C@H]1CC[C@H]2C3=CC[C@@H]4C[C@H](O)CC[C@@]4(C)[C@H]3CC[C@@]12C)C(C)C
REMARK SMILES IDX 5 1 4 2 3 3 2 4 1 5 28 6 29 7 30 8 6 9 7 10 8 11 9 12 26 13
REMARK SMILES IDX 10 14 11 15 25 16 27 17 12 18 24 19 23 20 13 21 21 22 14 23
REMARK SMILES IDX 15 24 20 25 22 26 16 27 19 28 17 29 18 30
REMARK H PARENT 18 31
REMARK Flexibility Score: inf
ROOT
ATOM      1  C   UNL     1     112.367 115.722 126.316  1.00  0.00     0.004 C 
ENDROOT
BRANCH   1   2
ATOM      2  C   UNL     1     112.711 115.989 127.807  1.00  0.00     0.004 C 
BRANCH   2   3
ATOM      3  C   UNL     1     111.894 117.077 128.573  1.00  0.00    -0.009 C 
BRANCH   3   4
ATOM      4  C   UNL     1     111.245 118.099 127.588  1.00  0.00     0.000 C 
ATOM      5  C   UNL     1     111.630 119.549 127.903  1.00  0.00     0.004 C 
ENDBRANCH   3   4
BRANCH   3   6
ATOM      6  C   UNL     1     112.676 117.751 129.753  1.00  0.00    -0.014 C 
ATOM      7  C   UNL     1     114.200 117.586 129.591  1.00  0.00     0.007 C 
ATOM      8  C   UNL     1     112.268 117.175 131.121  1.00  0.00     0.007 C 
ENDBRANCH   3   6
ENDBRANCH   2   3
ENDBRANCH   1   2
BRANCH   1   9
ATOM      9  C   UNL     1     113.549 115.908 125.310  1.00  0.00    -0.011 C 
ATOM     10  C   UNL     1     113.680 114.655 124.421  1.00  0.00     0.008 C 
BRANCH   9  11
ATOM     11  C   UNL     1     113.463 117.182 124.388  1.00  0.00    -0.002 C 
ATOM     12  C   UNL     1     112.062 117.781 124.195  1.00  0.00     0.005 C 
ATOM     13  C   UNL     1     114.454 118.363 124.668  1.00  0.00    -0.023 C 
ATOM     14  C   UNL     1     112.239 119.290 124.179  1.00  0.00     0.009 C 
ATOM     15  C   UNL     1     113.741 119.580 124.003  1.00  0.00     0.021 C 
ATOM     16  C   UNL     1     114.654 118.663 126.184  1.00  0.00     0.008 C 
ATOM     17  C   UNL     1     115.821 118.015 124.005  1.00  0.00     0.012 C 
ATOM     18  C   UNL     1     114.143 120.935 124.595  1.00  0.00    -0.067 C 
ATOM     19  C   UNL     1     115.442 119.963 126.497  1.00  0.00     0.009 C 
ATOM     20  C   UNL     1     115.464 121.007 125.346  1.00  0.00     0.021 C 
ATOM     21  C   UNL     1     113.307 122.000 124.509  1.00  0.00    -0.027 C 
ATOM     22  C   UNL     1     115.893 122.472 125.750  1.00  0.00    -0.023 C 
ATOM     23  C   UNL     1     113.553 123.321 125.190  1.00  0.00     0.031 C 
ATOM     24  C   UNL     1     114.636 123.228 126.279  1.00  0.00     0.002 C 
ATOM     25  C   UNL     1     116.999 122.468 126.855  1.00  0.00     0.010 C 
ATOM     26  C   UNL     1     116.480 123.159 124.476  1.00  0.00     0.012 C 
ATOM     27  C   UNL     1     114.963 124.631 126.841  1.00  0.00     0.036 C 
ATOM     28  C   UNL     1     117.328 123.874 127.378  1.00  0.00     0.032 C 
ATOM     29  C   UNL     1     116.066 124.566 127.913  1.00  0.00     0.114 C 
BRANCH  29  30
ATOM     30  O   UNL     1     116.375 125.851 128.391  1.00  0.00    -0.393 OA
ATOM     31  H   UNL     1     116.827 125.743 129.271  1.00  0.00     0.210 HD
ENDBRANCH  29  30
ENDBRANCH   9  11
ENDBRANCH   1   9
TORSDOF 7
ENDMDL
MODEL 2
REMARK VINA RESULT:    -6.559      1.793      3.449
REMARK INTER + INTRA:         -11.447
REMARK INTER:                  -9.134
REMARK INTRA:                  -2.313
REMARK UNBOUND:                -2.396
REMARK SMILES CC[C@@H](CC[C@@H](C)[C@H]1CC[C@H]2C3=CC[C@@H]4C[C@H](O)CC[C@@]4(C)[C@H]3CC[C@@]12C)C(C)C
REMARK SMILES IDX 5 1 4 2 3 3 2 4 1 5 28 6 29 7 30 8 6 9 7 10 8 11 9 12 26 13
REMARK SMILES IDX 10 14 11 15 25 16 27 17 12 18 24 19 23 20 13 21 21 22 14 23
REMARK SMILES IDX 15 24 20 25 22 26 16 27 19 28 17 29 18 30
REMARK H PARENT 18 31
REMARK Flexibility Score: inf
ROOT
ATOM      1  C   UNL     1     112.844 115.164 124.362  1.00  0.00     0.004 C 
ENDROOT
BRANCH   1   2
ATOM      2  C   UNL     1     114.317 114.797 124.689  1.00  0.00     0.004 C 
BRANCH   2   3
ATOM      3  C   UNL     1     115.298 115.945 125.084  1.00  0.00    -0.009 C 
BRANCH   3   4
ATOM      4  C   UNL     1     116.511 116.019 124.105  1.00  0.00     0.000 C 
ATOM      5  C   UNL     1     116.143 115.612 122.674  1.00  0.00     0.004 C 
ENDBRANCH   3   4
BRANCH   3   6
ATOM      6  C   UNL     1     115.711 115.942 126.596  1.00  0.00    -0.014 C 
ATOM      7  C   UNL     1     115.820 117.373 127.157  1.00  0.00     0.007 C 
ATOM      8  C   UNL     1     117.054 115.226 126.827  1.00  0.00     0.007 C 
ENDBRANCH   3   6
ENDBRANCH   2   3
ENDBRANCH   1   2
BRANCH   1   9
ATOM      9  C   UNL     1     112.635 116.549 123.668  1.00  0.00    -0.011 C 
ATOM     10  C   UNL     1     111.671 116.395 122.475  1.00  0.00     0.008 C 
BRANCH   9  11
ATOM     11  C   UNL     1     112.112 117.705 124.602  1.00  0.00    -0.002 C 
ATOM     12  C   UNL     1     112.032 117.377 126.100  1.00  0.00     0.005 C 
ATOM     13  C   UNL     1     112.764 119.122 124.457  1.00  0.00    -0.023 C 
ATOM     14  C   UNL     1     112.457 118.635 126.838  1.00  0.00     0.009 C 
ATOM     15  C   UNL     1     112.441 119.795 125.826  1.00  0.00     0.021 C 
ATOM     16  C   UNL     1     114.310 119.081 124.268  1.00  0.00     0.008 C 
ATOM     17  C   UNL     1     112.094 119.841 123.246  1.00  0.00     0.012 C 
ATOM     18  C   UNL     1     113.414 120.915 126.213  1.00  0.00    -0.067 C 
ATOM     19  C   UNL     1     115.018 120.460 124.350  1.00  0.00     0.009 C 
ATOM     20  C   UNL     1     114.216 121.562 125.094  1.00  0.00     0.021 C 
ATOM     21  C   UNL     1     113.597 121.250 127.514  1.00  0.00    -0.027 C 
ATOM     22  C   UNL     1     115.041 122.830 125.547  1.00  0.00    -0.023 C 
ATOM     23  C   UNL     1     114.637 122.228 127.994  1.00  0.00     0.031 C 
ATOM     24  C   UNL     1     115.704 122.523 126.925  1.00  0.00     0.002 C 
ATOM     25  C   UNL     1     116.149 123.202 124.509  1.00  0.00     0.010 C 
ATOM     26  C   UNL     1     114.046 124.029 125.647  1.00  0.00     0.012 C 
ATOM     27  C   UNL     1     116.658 123.642 127.403  1.00  0.00     0.036 C 
ATOM     28  C   UNL     1     117.068 124.335 124.993  1.00  0.00     0.032 C 
ATOM     29  C   UNL     1     117.717 123.973 126.337  1.00  0.00     0.114 C 
BRANCH  29  30
ATOM     30  O   UNL     1     118.557 125.013 126.772  1.00  0.00    -0.393 OA
ATOM     31  H   UNL     1     118.432 125.780 126.151  1.00  0.00     0.210 HD
ENDBRANCH  29  30
ENDBRANCH   9  11
ENDBRANCH   1   9
TORSDOF 7
ENDMDL
MODEL 3
REMARK VINA RESULT:    -6.368      1.518      2.243
REMARK INTER + INTRA:         -11.184
REMARK INTER:                  -8.953
REMARK INTRA:                  -2.231
REMARK UNBOUND:                -2.396
REMARK SMILES CC[C@@H](CC[C@@H](C)[C@H]1CC[C@H]2C3=CC[C@@H]4C[C@H](O)CC[C@@]4(C)[C@H]3CC[C@@]12C)C(C)C
REMARK SMILES IDX 5 1 4 2 3 3 2 4 1 5 28 6 29 7 30 8 6 9 7 10 8 11 9 12 26 13
REMARK SMILES IDX 10 14 11 15 25 16 27 17 12 18 24 19 23 20 13 21 21 22 14 23
REMARK SMILES IDX 15 24 20 25 22 26 16 27 19 28 17 29 18 30
REMARK H PARENT 18 31
REMARK Flexibility Score: inf
ROOT
ATOM      1  C   UNL     1     114.593 116.390 127.154  1.00  0.00     0.004 C 
ENDROOT
BRANCH   1   2
ATOM      2  C   UNL     1     114.936 117.056 128.514  1.00  0.00     0.004 C 
BRANCH   2   3
ATOM      3  C   UNL     1     113.940 118.108 129.096  1.00  0.00    -0.009 C 
BRANCH   3   4
ATOM      4  C   UNL     1     113.017 117.477 130.184  1.00  0.00     0.000 C 
ATOM      5  C   UNL     1     113.446 116.059 130.575  1.00  0.00     0.004 C 
ENDBRANCH   3   4
BRANCH   3   6
ATOM      6  C   UNL     1     113.160 118.922 128.006  1.00  0.00    -0.014 C 
ATOM      7  C   UNL     1     113.460 120.431 128.103  1.00  0.00     0.007 C 
ATOM      8  C   UNL     1     111.638 118.721 128.113  1.00  0.00     0.007 C 
ENDBRANCH   3   6
ENDBRANCH   2   3
ENDBRANCH   1   2
BRANCH   1   9
ATOM      9  C   UNL     1     115.675 116.548 126.036  1.00  0.00    -0.011 C 
ATOM     10  C   UNL     1     115.877 115.203 125.311  1.00  0.00     0.008 C 
BRANCH   9  11
ATOM     11  C   UNL     1     115.387 117.668 124.966  1.00  0.00    -0.002 C 
ATOM     12  C   UNL     1     113.915 118.074 124.795  1.00  0.00     0.005 C 
ATOM     13  C   UNL     1     116.242 118.979 125.022  1.00  0.00    -0.023 C 
ATOM     14  C   UNL     1     113.909 119.577 124.573  1.00  0.00     0.009 C 
ATOM     15  C   UNL     1     115.354 120.006 124.257  1.00  0.00     0.021 C 
ATOM     16  C   UNL     1     116.486 119.503 126.469  1.00  0.00     0.008 C 
ATOM     17  C   UNL     1     117.604 118.699 124.316  1.00  0.00     0.012 C 
ATOM     18  C   UNL     1     115.621 121.466 124.640  1.00  0.00    -0.067 C 
ATOM     19  C   UNL     1     117.128 120.913 126.556  1.00  0.00     0.009 C 
ATOM     20  C   UNL     1     116.963 121.786 125.282  1.00  0.00     0.021 C 
ATOM     21  C   UNL     1     114.660 122.409 124.476  1.00  0.00    -0.027 C 
ATOM     22  C   UNL     1     117.234 123.332 125.463  1.00  0.00    -0.023 C 
ATOM     23  C   UNL     1     114.782 123.830 124.961  1.00  0.00     0.031 C 
ATOM     24  C   UNL     1     115.927 124.008 125.976  1.00  0.00     0.002 C 
ATOM     25  C   UNL     1     118.391 123.601 126.479  1.00  0.00     0.010 C 
ATOM     26  C   UNL     1     117.665 123.900 124.073  1.00  0.00     0.012 C 
ATOM     27  C   UNL     1     116.113 125.502 126.328  1.00  0.00     0.036 C 
ATOM     28  C   UNL     1     118.577 125.094 126.793  1.00  0.00     0.032 C 
ATOM     29  C   UNL     1     117.271 125.706 127.321  1.00  0.00     0.114 C 
BRANCH  29  30
ATOM     30  O   UNL     1     117.449 127.071 127.607  1.00  0.00    -0.393 OA
ATOM     31  H   UNL     1     116.596 127.412 127.989  1.00  0.00     0.210 HD
ENDBRANCH  29  30
ENDBRANCH   9  11
ENDBRANCH   1   9
TORSDOF 7
ENDMDL
MODEL 4
REMARK VINA RESULT:    -6.308      3.335      6.392
REMARK INTER + INTRA:         -11.101
REMARK INTER:                  -8.946
REMARK INTRA:                  -2.155
REMARK UNBOUND:                -2.396
REMARK SMILES CC[C@@H](CC[C@@H](C)[C@H]1CC[C@H]2C3=CC[C@@H]4C[C@H](O)CC[C@@]4(C)[C@H]3CC[C@@]12C)C(C)C
REMARK SMILES IDX 5 1 4 2 3 3 2 4 1 5 28 6 29 7 30 8 6 9 7 10 8 11 9 12 26 13
REMARK SMILES IDX 10 14 11 15 25 16 27 17 12 18 24 19 23 20 13 21 21 22 14 23
REMARK SMILES IDX 15 24 20 25 22 26 16 27 19 28 17 29 18 30
REMARK H PARENT 18 31
REMARK Flexibility Score: inf
ROOT
ATOM      1  C   UNL     1     111.441 117.949 127.073  1.00  0.00     0.004 C 
ENDROOT
BRANCH   1   2
ATOM      2  C   UNL     1     111.312 119.169 126.120  1.00  0.00     0.004 C 
BRANCH   2   3
ATOM      3  C   UNL     1     112.080 119.133 124.762  1.00  0.00    -0.009 C 
BRANCH   3   4
ATOM      4  C   UNL     1     112.871 120.457 124.520  1.00  0.00     0.000 C 
ATOM      5  C   UNL     1     113.489 121.020 125.804  1.00  0.00     0.004 C 
ENDBRANCH   3   4
BRANCH   3   6
ATOM      6  C   UNL     1     111.200 118.697 123.541  1.00  0.00    -0.014 C 
ATOM      7  C   UNL     1     111.884 117.590 122.715  1.00  0.00     0.007 C 
ATOM      8  C   UNL     1     110.884 119.876 122.604  1.00  0.00     0.007 C 
ENDBRANCH   3   6
ENDBRANCH   2   3
ENDBRANCH   1   2
BRANCH   1   9
ATOM      9  C   UNL     1     112.896 117.606 127.532  1.00  0.00    -0.011 C 
ATOM     10  C   UNL     1     112.925 117.393 129.059  1.00  0.00     0.008 C 
BRANCH   9  11
ATOM     11  C   UNL     1     113.553 116.358 126.829  1.00  0.00    -0.002 C 
ATOM     12  C   UNL     1     112.688 115.642 125.781  1.00  0.00     0.005 C 
ATOM     13  C   UNL     1     114.992 116.521 126.233  1.00  0.00    -0.023 C 
ATOM     14  C   UNL     1     113.628 115.227 124.662  1.00  0.00     0.009 C 
ATOM     15  C   UNL     1     115.069 115.366 125.189  1.00  0.00     0.021 C 
ATOM     16  C   UNL     1     115.213 117.878 125.500  1.00  0.00     0.008 C 
ATOM     17  C   UNL     1     116.018 116.366 127.397  1.00  0.00     0.012 C 
ATOM     18  C   UNL     1     116.078 115.612 124.062  1.00  0.00    -0.067 C 
ATOM     19  C   UNL     1     116.541 117.984 124.703  1.00  0.00     0.009 C 
ATOM     20  C   UNL     1     117.185 116.622 124.323  1.00  0.00     0.021 C 
ATOM     21  C   UNL     1     115.930 115.003 122.859  1.00  0.00    -0.027 C 
ATOM     22  C   UNL     1     118.287 116.671 123.193  1.00  0.00    -0.023 C 
ATOM     23  C   UNL     1     116.782 115.301 121.653  1.00  0.00     0.031 C 
ATOM     24  C   UNL     1     117.579 116.610 121.806  1.00  0.00     0.002 C 
ATOM     25  C   UNL     1     119.148 117.973 123.279  1.00  0.00     0.010 C 
ATOM     26  C   UNL     1     119.234 115.447 123.406  1.00  0.00     0.012 C 
ATOM     27  C   UNL     1     118.551 116.795 120.618  1.00  0.00     0.036 C 
ATOM     28  C   UNL     1     120.127 118.123 122.104  1.00  0.00     0.032 C 
ATOM     29  C   UNL     1     119.378 118.085 120.764  1.00  0.00     0.114 C 
BRANCH  29  30
ATOM     30  O   UNL     1     120.279 118.224 119.694  1.00  0.00    -0.393 OA
ATOM     31  H   UNL     1     119.765 118.553 118.908  1.00  0.00     0.210 HD
ENDBRANCH  29  30
ENDBRANCH   9  11
ENDBRANCH   1   9
TORSDOF 7
ENDMDL
MODEL 5
REMARK VINA RESULT:    -6.282      3.741      9.120
REMARK INTER + INTRA:         -11.065
REMARK INTER:                 -10.975
REMARK INTRA:                  -0.090
REMARK UNBOUND:                -2.396
REMARK SMILES CC[C@@H](CC[C@@H](C)[C@H]1CC[C@H]2C3=CC[C@@H]4C[C@H](O)CC[C@@]4(C)[C@H]3CC[C@@]12C)C(C)C
REMARK SMILES IDX 5 1 4 2 3 3 2 4 1 5 28 6 29 7 30 8 6 9 7 10 8 11 9 12 26 13
REMARK SMILES IDX 10 14 11 15 25 16 27 17 12 18 24 19 23 20 13 21 21 22 14 23
REMARK SMILES IDX 15 24 20 25 22 26 16 27 19 28 17 29 18 30
REMARK H PARENT 18 31
REMARK Flexibility Score: inf
ROOT
ATOM      1  C   UNL     1     118.033 126.482 126.070  1.00  0.00     0.004 C 
ENDROOT
BRANCH   1   2
ATOM      2  C   UNL     1     117.577 127.933 126.385  1.00  0.00     0.004 C 
BRANCH   2   3
ATOM      3  C   UNL     1     118.327 129.113 125.691  1.00  0.00    -0.009 C 
BRANCH   3   4
ATOM      4  C   UNL     1     119.779 129.267 126.240  1.00  0.00     0.000 C 
ATOM      5  C   UNL     1     120.837 129.245 125.132  1.00  0.00     0.004 C 
ENDBRANCH   3   4
BRANCH   3   6
ATOM      6  C   UNL     1     117.520 130.456 125.665  1.00  0.00    -0.014 C 
ATOM      7  C   UNL     1     116.125 130.293 126.302  1.00  0.00     0.007 C 
ATOM      8  C   UNL     1     117.340 130.997 124.236  1.00  0.00     0.007 C 
ENDBRANCH   3   6
ENDBRANCH   2   3
ENDBRANCH   1   2
BRANCH   1   9
ATOM      9  C   UNL     1     117.066 125.353 126.553  1.00  0.00    -0.011 C 
ATOM     10  C   UNL     1     115.928 125.966 127.394  1.00  0.00     0.008 C 
BRANCH   9  11
ATOM     11  C   UNL     1     116.438 124.463 125.415  1.00  0.00    -0.002 C 
ATOM     12  C   UNL     1     117.433 123.672 124.552  1.00  0.00     0.005 C 
ATOM     13  C   UNL     1     115.263 123.500 125.796  1.00  0.00    -0.023 C 
ATOM     14  C   UNL     1     116.783 122.326 124.274  1.00  0.00     0.009 C 
ATOM     15  C   UNL     1     115.294 122.443 124.650  1.00  0.00     0.021 C 
ATOM     16  C   UNL     1     115.470 122.773 127.158  1.00  0.00     0.008 C 
ATOM     17  C   UNL     1     113.945 124.332 125.827  1.00  0.00     0.012 C 
ATOM     18  C   UNL     1     114.687 121.089 125.037  1.00  0.00    -0.067 C 
ATOM     19  C   UNL     1     114.447 121.645 127.462  1.00  0.00     0.009 C 
ATOM     20  C   UNL     1     113.725 121.065 126.215  1.00  0.00     0.021 C 
ATOM     21  C   UNL     1     115.061 119.956 124.392  1.00  0.00    -0.027 C 
ATOM     22  C   UNL     1     112.998 119.678 126.420  1.00  0.00    -0.023 C 
ATOM     23  C   UNL     1     114.632 118.572 124.802  1.00  0.00     0.031 C 
ATOM     24  C   UNL     1     114.042 118.537 126.223  1.00  0.00     0.002 C 
ATOM     25  C   UNL     1     112.365 119.561 127.845  1.00  0.00     0.010 C 
ATOM     26  C   UNL     1     111.848 119.589 125.367  1.00  0.00     0.012 C 
ATOM     27  C   UNL     1     113.477 117.134 126.542  1.00  0.00     0.036 C 
ATOM     28  C   UNL     1     111.784 118.168 128.130  1.00  0.00     0.032 C 
ATOM     29  C   UNL     1     112.856 117.083 127.950  1.00  0.00     0.114 C 
BRANCH  29  30
ATOM     30  O   UNL     1     112.318 115.812 128.213  1.00  0.00    -0.393 OA
ATOM     31  H   UNL     1     113.079 115.176 128.300  1.00  0.00     0.210 HD
ENDBRANCH  29  30
ENDBRANCH   9  11
ENDBRANCH   1   9
TORSDOF 7
ENDMDL
MODEL 6
REMARK VINA RESULT:    -6.258      3.165      7.574
REMARK INTER + INTRA:         -11.032
REMARK INTER:                  -8.727
REMARK INTRA:                  -2.304
REMARK UNBOUND:                -2.396
REMARK SMILES CC[C@@H](CC[C@@H](C)[C@H]1CC[C@H]2C3=CC[C@@H]4C[C@H](O)CC[C@@]4(C)[C@H]3CC[C@@]12C)C(C)C
REMARK SMILES IDX 5 1 4 2 3 3 2 4 1 5 28 6 29 7 30 8 6 9 7 10 8 11 9 12 26 13
REMARK SMILES IDX 10 14 11 15 25 16 27 17 12 18 24 19 23 20 13 21 21 22 14 23
REMARK SMILES IDX 15 24 20 25 22 26 16 27 19 28 17 29 18 30
REMARK H PARENT 18 31
REMARK Flexibility Score: inf
ROOT
ATOM      1  C   UNL     1     116.145 124.024 125.938  1.00  0.00     0.004 C 
ENDROOT
BRANCH   1   2
ATOM      2  C   UNL     1     117.640 123.872 125.548  1.00  0.00     0.004 C 
BRANCH   2   3
ATOM      3  C   UNL     1     117.999 122.980 124.318  1.00  0.00    -0.009 C 
BRANCH   3   4
ATOM      4  C   UNL     1     116.851 122.979 123.261  1.00  0.00     0.000 C 
ATOM      5  C   UNL     1     116.252 121.586 123.040  1.00  0.00     0.004 C 
ENDBRANCH   3   4
BRANCH   3   6
ATOM      6  C   UNL     1     118.506 121.545 124.695  1.00  0.00    -0.014 C 
ATOM      7  C   UNL     1     118.866 121.445 126.191  1.00  0.00     0.007 C 
ATOM      8  C   UNL     1     119.738 121.131 123.871  1.00  0.00     0.007 C 
ENDBRANCH   3   6
ENDBRANCH   2   3
ENDBRANCH   1   2
BRANCH   1   9
ATOM      9  C   UNL     1     115.610 122.979 126.970  1.00  0.00    -0.011 C 
ATOM     10  C   UNL     1     115.494 123.633 128.361  1.00  0.00     0.008 C 
BRANCH   9  11
ATOM     11  C   UNL     1     114.233 122.306 126.605  1.00  0.00    -0.002 C 
ATOM     12  C   UNL     1     113.555 122.811 125.323  1.00  0.00     0.005 C 
ATOM     13  C   UNL     1     114.154 120.742 126.604  1.00  0.00    -0.023 C 
ATOM     14  C   UNL     1     112.929 121.595 124.661  1.00  0.00     0.009 C 
ATOM     15  C   UNL     1     112.918 120.457 125.698  1.00  0.00     0.021 C 
ATOM     16  C   UNL     1     115.406 120.055 125.979  1.00  0.00     0.008 C 
ATOM     17  C   UNL     1     113.960 120.266 128.076  1.00  0.00     0.012 C 
ATOM     18  C   UNL     1     112.936 119.073 125.039  1.00  0.00    -0.067 C 
ATOM     19  C   UNL     1     115.269 118.526 125.750  1.00  0.00     0.009 C 
ATOM     20  C   UNL     1     113.808 118.004 125.680  1.00  0.00     0.021 C 
ATOM     21  C   UNL     1     112.256 118.849 123.887  1.00  0.00    -0.027 C 
ATOM     22  C   UNL     1     113.617 116.564 125.060  1.00  0.00    -0.023 C 
ATOM     23  C   UNL     1     112.338 117.571 123.095  1.00  0.00     0.031 C 
ATOM     24  C   UNL     1     113.538 116.699 123.509  1.00  0.00     0.002 C 
ATOM     25  C   UNL     1     114.796 115.610 125.438  1.00  0.00     0.010 C 
ATOM     26  C   UNL     1     112.300 115.968 125.651  1.00  0.00     0.012 C 
ATOM     27  C   UNL     1     113.495 115.336 122.782  1.00  0.00     0.036 C 
ATOM     28  C   UNL     1     114.718 114.251 124.726  1.00  0.00     0.032 C 
ATOM     29  C   UNL     1     114.671 114.436 123.202  1.00  0.00     0.114 C 
BRANCH  29  30
ATOM     30  O   UNL     1     114.602 113.189 122.558  1.00  0.00    -0.393 OA
ATOM     31  H   UNL     1     115.005 112.513 123.167  1.00  0.00     0.210 HD
ENDBRANCH  29  30
ENDBRANCH   9  11
ENDBRANCH   1   9
TORSDOF 7
ENDMDL
MODEL 7
REMARK VINA RESULT:    -5.924      1.983      4.204
REMARK INTER + INTRA:         -10.571
REMARK INTER:                  -8.423
REMARK INTRA:                  -2.148
REMARK UNBOUND:                -2.396
REMARK SMILES CC[C@@H](CC[C@@H](C)[C@H]1CC[C@H]2C3=CC[C@@H]4C[C@H](O)CC[C@@]4(C)[C@H]3CC[C@@]12C)C(C)C
REMARK SMILES IDX 5 1 4 2 3 3 2 4 1 5 28 6 29 7 30 8 6 9 7 10 8 11 9 12 26 13
REMARK SMILES IDX 10 14 11 15 25 16 27 17 12 18 24 19 23 20 13 21 21 22 14 23
REMARK SMILES IDX 15 24 20 25 22 26 16 27 19 28 17 29 18 30
REMARK H PARENT 18 31
REMARK Flexibility Score: inf
ROOT
ATOM      1  C   UNL     1     112.396 116.323 127.709  1.00  0.00     0.004 C 
ENDROOT
BRANCH   1   2
ATOM      2  C   UNL     1     111.946 117.510 126.814  1.00  0.00     0.004 C 
BRANCH   2   3
ATOM      3  C   UNL     1     112.528 117.613 125.370  1.00  0.00    -0.009 C 
BRANCH   3   4
ATOM      4  C   UNL     1     112.426 119.069 124.818  1.00  0.00     0.000 C 
ATOM      5  C   UNL     1     113.783 119.637 124.392  1.00  0.00     0.004 C 
ENDBRANCH   3   4
BRANCH   3   6
ATOM      6  C   UNL     1     111.982 116.527 124.381  1.00  0.00    -0.014 C 
ATOM      7  C   UNL     1     112.962 115.346 124.236  1.00  0.00     0.007 C 
ATOM      8  C   UNL     1     111.707 117.104 122.981  1.00  0.00     0.007 C 
ENDBRANCH   3   6
ENDBRANCH   2   3
ENDBRANCH   1   2
BRANCH   1   9
ATOM      9  C   UNL     1     113.539 116.643 128.726  1.00  0.00    -0.011 C 
ATOM     10  C   UNL     1     113.485 115.648 129.902  1.00  0.00     0.008 C 
BRANCH   9  11
ATOM     11  C   UNL     1     114.997 116.652 128.130  1.00  0.00    -0.002 C 
ATOM     12  C   UNL     1     115.166 115.994 126.753  1.00  0.00     0.005 C 
ATOM     13  C   UNL     1     115.778 118.010 128.111  1.00  0.00    -0.023 C 
ATOM     14  C   UNL     1     116.167 116.845 125.991  1.00  0.00     0.009 C 
ATOM     15  C   UNL     1     116.854 117.776 127.007  1.00  0.00     0.021 C 
ATOM     16  C   UNL     1     114.897 119.229 127.706  1.00  0.00     0.008 C 
ATOM     17  C   UNL     1     116.390 118.236 129.527  1.00  0.00     0.012 C 
ATOM     18  C   UNL     1     117.367 119.066 126.356  1.00  0.00    -0.067 C 
ATOM     19  C   UNL     1     115.678 120.547 127.453  1.00  0.00     0.009 C 
ATOM     20  C   UNL     1     117.186 120.361 127.134  1.00  0.00     0.021 C 
ATOM     21  C   UNL     1     117.890 119.046 125.105  1.00  0.00    -0.027 C 
ATOM     22  C   UNL     1     117.914 121.604 126.486  1.00  0.00    -0.023 C 
ATOM     23  C   UNL     1     118.277 120.281 124.334  1.00  0.00     0.031 C 
ATOM     24  C   UNL     1     117.685 121.564 124.944  1.00  0.00     0.002 C 
ATOM     25  C   UNL     1     117.372 122.955 127.056  1.00  0.00     0.010 C 
ATOM     26  C   UNL     1     119.431 121.500 126.842  1.00  0.00     0.012 C 
ATOM     27  C   UNL     1     118.232 122.814 124.216  1.00  0.00     0.036 C 
ATOM     28  C   UNL     1     117.950 124.184 126.337  1.00  0.00     0.032 C 
ATOM     29  C   UNL     1     117.674 124.111 124.828  1.00  0.00     0.114 C 
BRANCH  29  30
ATOM     30  O   UNL     1     118.204 125.239 124.177  1.00  0.00    -0.393 OA
ATOM     31  H   UNL     1     117.526 125.552 123.520  1.00  0.00     0.210 HD
ENDBRANCH  29  30
ENDBRANCH   9  11
ENDBRANCH   1   9
TORSDOF 7
ENDMDL
MODEL 8
REMARK VINA RESULT:    -5.839      1.900      3.086
REMARK INTER + INTRA:         -10.454
REMARK INTER:                  -8.115
REMARK INTRA:                  -2.339
REMARK UNBOUND:                -2.396
REMARK SMILES CC[C@@H](CC[C@@H](C)[C@H]1CC[C@H]2C3=CC[C@@H]4C[C@H](O)CC[C@@]4(C)[C@H]3CC[C@@]12C)C(C)C
REMARK SMILES IDX 5 1 4 2 3 3 2 4 1 5 28 6 29 7 30 8 6 9 7 10 8 11 9 12 26 13
REMARK SMILES IDX 10 14 11 15 25 16 27 17 12 18 24 19 23 20 13 21 21 22 14 23
REMARK SMILES IDX 15 24 20 25 22 26 16 27 19 28 17 29 18 30
REMARK H PARENT 18 31
REMARK Flexibility Score: inf
ROOT
ATOM      1  C   UNL     1     114.709 115.618 126.381  1.00  0.00     0.004 C 
ENDROOT
BRANCH   1   2
ATOM      2  C   UNL     1     116.091 116.269 126.662  1.00  0.00     0.004 C 
BRANCH   2   3
ATOM      3  C   UNL     1     116.254 117.139 127.947  1.00  0.00    -0.009 C 
BRANCH   3   4
ATOM      4  C   UNL     1     117.464 118.117 127.824  1.00  0.00     0.000 C 
ATOM      5  C   UNL     1     117.120 119.542 128.267  1.00  0.00     0.004 C 
ENDBRANCH   3   4
BRANCH   3   6
ATOM      6  C   UNL     1     116.246 116.315 129.282  1.00  0.00    -0.014 C 
ATOM      7  C   UNL     1     115.338 116.966 130.344  1.00  0.00     0.007 C 
ATOM      8  C   UNL     1     117.657 116.163 129.876  1.00  0.00     0.007 C 
ENDBRANCH   3   6
ENDBRANCH   2   3
ENDBRANCH   1   2
BRANCH   1   9
ATOM      9  C   UNL     1     113.793 116.392 125.379  1.00  0.00    -0.011 C 
ATOM     10  C   UNL     1     112.690 115.454 124.849  1.00  0.00     0.008 C 
BRANCH   9  11
ATOM     11  C   UNL     1     113.123 117.701 125.942  1.00  0.00    -0.002 C 
ATOM     12  C   UNL     1     113.037 117.811 127.472  1.00  0.00     0.005 C 
ATOM     13  C   UNL     1     113.621 119.081 125.390  1.00  0.00    -0.023 C 
ATOM     14  C   UNL     1     113.303 119.267 127.813  1.00  0.00     0.009 C 
ATOM     15  C   UNL     1     113.190 120.078 126.508  1.00  0.00     0.021 C 
ATOM     16  C   UNL     1     115.167 119.159 125.213  1.00  0.00     0.008 C 
ATOM     17  C   UNL     1     112.910 119.342 124.027  1.00  0.00     0.012 C 
ATOM     18  C   UNL     1     114.025 121.363 126.551  1.00  0.00    -0.067 C 
ATOM     19  C   UNL     1     115.719 120.574 124.890  1.00  0.00     0.009 C 
ATOM     20  C   UNL     1     114.782 121.747 125.288  1.00  0.00     0.021 C 
ATOM     21  C   UNL     1     114.135 122.076 127.699  1.00  0.00    -0.027 C 
ATOM     22  C   UNL     1     115.453 123.175 125.353  1.00  0.00    -0.023 C 
ATOM     23  C   UNL     1     115.049 123.261 127.871  1.00  0.00     0.031 C 
ATOM     24  C   UNL     1     116.107 123.353 126.756  1.00  0.00     0.002 C 
ATOM     25  C   UNL     1     116.542 123.354 124.246  1.00  0.00     0.010 C 
ATOM     26  C   UNL     1     114.330 124.234 125.106  1.00  0.00     0.012 C 
ATOM     27  C   UNL     1     116.921 124.661 126.887  1.00  0.00     0.036 C 
ATOM     28  C   UNL     1     117.318 124.673 124.377  1.00  0.00     0.032 C 
ATOM     29  C   UNL     1     117.967 124.788 125.765  1.00  0.00     0.114 C 
BRANCH  29  30
ATOM     30  O   UNL     1     118.676 125.996 125.877  1.00  0.00    -0.393 OA
ATOM     31  H   UNL     1     118.039 126.690 126.196  1.00  0.00     0.210 HD
ENDBRANCH  29  30
ENDBRANCH   9  11
ENDBRANCH   1   9
TORSDOF 7
ENDMDL
MODEL 9
REMARK VINA RESULT:    -5.811      2.128      3.831
REMARK INTER + INTRA:         -10.416
REMARK INTER:                  -8.548
REMARK INTRA:                  -1.868
REMARK UNBOUND:                -2.396
REMARK SMILES CC[C@@H](CC[C@@H](C)[C@H]1CC[C@H]2C3=CC[C@@H]4C[C@H](O)CC[C@@]4(C)[C@H]3CC[C@@]12C)C(C)C
REMARK SMILES IDX 5 1 4 2 3 3 2 4 1 5 28 6 29 7 30 8 6 9 7 10 8 11 9 12 26 13
REMARK SMILES IDX 10 14 11 15 25 16 27 17 12 18 24 19 23 20 13 21 21 22 14 23
REMARK SMILES IDX 15 24 20 25 22 26 16 27 19 28 17 29 18 30
REMARK H PARENT 18 31
REMARK Flexibility Score: inf
ROOT
ATOM      1  C   UNL     1     114.291 114.647 123.726  1.00  0.00     0.004 C 
ENDROOT
BRANCH   1   2
ATOM      2  C   UNL     1     113.173 114.809 124.792  1.00  0.00     0.004 C 
BRANCH   2   3
ATOM      3  C   UNL     1     112.295 116.098 124.755  1.00  0.00    -0.009 C 
BRANCH   3   4
ATOM      4  C   UNL     1     112.710 117.036 123.579  1.00  0.00     0.000 C 
ATOM      5  C   UNL     1     111.640 117.123 122.486  1.00  0.00     0.004 C 
ENDBRANCH   3   4
BRANCH   3   6
ATOM      6  C   UNL     1     112.182 116.835 126.135  1.00  0.00    -0.014 C 
ATOM      7  C   UNL     1     112.397 118.354 125.986  1.00  0.00     0.007 C 
ATOM      8  C   UNL     1     113.195 116.299 127.162  1.00  0.00     0.007 C 
ENDBRANCH   3   6
ENDBRANCH   2   3
ENDBRANCH   1   2
BRANCH   1   9
ATOM      9  C   UNL     1     115.712 114.317 124.287  1.00  0.00    -0.011 C 
ATOM     10  C   UNL     1     116.052 112.839 124.008  1.00  0.00     0.008 C 
BRANCH   9  11
ATOM     11  C   UNL     1     116.883 115.221 123.747  1.00  0.00    -0.002 C 
ATOM     12  C   UNL     1     116.843 115.552 122.248  1.00  0.00     0.005 C 
ATOM     13  C   UNL     1     117.210 116.544 124.521  1.00  0.00    -0.023 C 
ATOM     14  C   UNL     1     117.310 116.992 122.114  1.00  0.00     0.009 C 
ATOM     15  C   UNL     1     117.958 117.396 123.451  1.00  0.00     0.021 C 
ATOM     16  C   UNL     1     115.944 117.321 124.989  1.00  0.00     0.008 C 
ATOM     17  C   UNL     1     118.100 116.179 125.748  1.00  0.00     0.012 C 
ATOM     18  C   UNL     1     117.884 118.908 123.698  1.00  0.00    -0.067 C 
ATOM     19  C   UNL     1     116.216 118.741 125.553  1.00  0.00     0.009 C 
ATOM     20  C   UNL     1     117.566 119.371 125.112  1.00  0.00     0.021 C 
ATOM     21  C   UNL     1     118.022 119.781 122.670  1.00  0.00    -0.027 C 
ATOM     22  C   UNL     1     117.702 120.930 125.321  1.00  0.00    -0.023 C 
ATOM     23  C   UNL     1     117.815 121.268 122.794  1.00  0.00     0.031 C 
ATOM     24  C   UNL     1     117.076 121.652 124.089  1.00  0.00     0.002 C 
ATOM     25  C   UNL     1     116.980 121.405 126.623  1.00  0.00     0.010 C 
ATOM     26  C   UNL     1     119.224 121.255 125.462  1.00  0.00     0.012 C 
ATOM     27  C   UNL     1     117.022 123.189 124.248  1.00  0.00     0.036 C 
ATOM     28  C   UNL     1     116.963 122.934 126.775  1.00  0.00     0.032 C 
ATOM     29  C   UNL     1     116.312 123.596 125.551  1.00  0.00     0.114 C 
BRANCH  29  30
ATOM     30  O   UNL     1     116.299 124.994 125.698  1.00  0.00    -0.393 OA
ATOM     31  H   UNL     1     117.243 125.308 125.671  1.00  0.00     0.210 HD
ENDBRANCH  29  30
ENDBRANCH   9  11
ENDBRANCH   1   9
TORSDOF 7
ENDMDL
