MODEL 1
REMARK VINA RESULT:    -5.027      0.000      0.000
REMARK INTER + INTRA:         -10.910
REMARK INTER:                  -9.728
REMARK INTRA:                  -1.181
REMARK UNBOUND:                -1.181
REMARK SMILES CCCCCCCCCCCCCCCCCC(=O)[O-]
REMARK SMILES IDX 10 1 11 2 12 3 13 4 14 5 15 6 16 7 17 8 18 9 19 10 20 11
REMARK SMILES IDX 9 12 8 13 7 14 6 15 5 16 4 17 3 18 2 19 1 20
REMARK H PARENT
REMARK Flexibility Score: inf
ROOT
ATOM      1  C   UNL     1       6.296 -32.632 -19.465  1.00  0.00     0.000 C 
ENDROOT
BRANCH   1   2
ATOM      2  C   UNL     1       7.358 -33.535 -20.116  1.00  0.00     0.000 C 
BRANCH   2   3
ATOM      3  C   UNL     1       6.783 -34.394 -21.254  1.00  0.00     0.000 C 
BRANCH   3   4
ATOM      4  C   UNL     1       6.378 -35.800 -20.786  1.00  0.00     0.000 C 
BRANCH   4   5
ATOM      5  C   UNL     1       6.326 -36.779 -21.969  1.00  0.00     0.000 C 
BRANCH   5   6
ATOM      6  C   UNL     1       5.524 -36.214 -23.160  1.00  0.00     0.000 C 
BRANCH   6   7
ATOM      7  C   UNL     1       4.025 -36.036 -22.863  1.00  0.00     0.006 C 
BRANCH   7   8
ATOM      8  C   UNL     1       3.212 -37.313 -23.111  1.00  0.00     0.053 C 
BRANCH   8   9
ATOM      9  C   UNL     1       1.808 -37.142 -22.622  1.00  0.00     0.041 C 
ATOM     10  O   UNL     1       1.590 -36.655 -21.481  1.00  0.00    -0.550 OA
ATOM     11  O   UNL     1       0.740 -37.482 -23.442  1.00  0.00    -0.550 OA
ENDBRANCH   8   9
ENDBRANCH   7   8
ENDBRANCH   6   7
ENDBRANCH   5   6
ENDBRANCH   4   5
ENDBRANCH   3   4
ENDBRANCH   2   3
ENDBRANCH   1   2
BRANCH   1  12
ATOM     12  C   UNL     1       6.915 -31.489 -18.646  1.00  0.00     0.000 C 
BRANCH  12  13
ATOM     13  C   UNL     1       6.345 -31.402 -17.220  1.00  0.00    -0.000 C 
BRANCH  13  14
ATOM     14  C   UNL     1       4.963 -30.727 -17.170  1.00  0.00    -0.000 C 
BRANCH  14  15
ATOM     15  C   UNL     1       4.654 -29.864 -18.412  1.00  0.00    -0.000 C 
BRANCH  15  16
ATOM     16  C   UNL     1       4.704 -28.358 -18.101  1.00  0.00    -0.000 C 
BRANCH  16  17
ATOM     17  C   UNL     1       4.943 -28.069 -16.610  1.00  0.00    -0.000 C 
BRANCH  17  18
ATOM     18  C   UNL     1       6.372 -27.579 -16.322  1.00  0.00    -0.000 C 
BRANCH  18  19
ATOM     19  C   UNL     1       7.218 -27.449 -17.598  1.00  0.00    -0.003 C 
ATOM     20  C   UNL     1       8.480 -28.310 -17.560  1.00  0.00     0.004 C 
ENDBRANCH  18  19
ENDBRANCH  17  18
ENDBRANCH  16  17
ENDBRANCH  15  16
ENDBRANCH  14  15
ENDBRANCH  13  14
ENDBRANCH  12  13
ENDBRANCH   1  12
TORSDOF 16
ENDMDL
MODEL 2
REMARK VINA RESULT:    -4.785      4.081      9.387
REMARK INTER + INTRA:         -10.443
REMARK INTER:                  -9.370
REMARK INTRA:                  -1.073
REMARK UNBOUND:                -1.181
REMARK SMILES CCCCCCCCCCCCCCCCCC(=O)[O-]
REMARK SMILES IDX 10 1 11 2 12 3 13 4 14 5 15 6 16 7 17 8 18 9 19 10 20 11
REMARK SMILES IDX 9 12 8 13 7 14 6 15 5 16 4 17 3 18 2 19 1 20
REMARK H PARENT
REMARK Flexibility Score: inf
ROOT
ATOM      1  C   UNL     1       6.512 -32.999 -20.145  1.00  0.00     0.000 C 
ENDROOT
BRANCH   1   2
ATOM      2  C   UNL     1       7.419 -32.469 -19.021  1.00  0.00     0.000 C 
BRANCH   2   3
ATOM      3  C   UNL     1       6.788 -31.289 -18.264  1.00  0.00     0.000 C 
BRANCH   3   4
ATOM      4  C   UNL     1       5.535 -31.695 -17.475  1.00  0.00     0.000 C 
BRANCH   4   5
ATOM      5  C   UNL     1       4.558 -30.516 -17.349  1.00  0.00     0.000 C 
BRANCH   5   6
ATOM      6  C   UNL     1       4.760 -29.469 -18.465  1.00  0.00     0.000 C 
BRANCH   6   7
ATOM      7  C   UNL     1       4.833 -28.022 -17.947  1.00  0.00     0.006 C 
BRANCH   7   8
ATOM      8  C   UNL     1       5.558 -27.908 -16.600  1.00  0.00     0.053 C 
BRANCH   8   9
ATOM      9  C   UNL     1       7.041 -27.924 -16.803  1.00  0.00     0.041 C 
ATOM     10  O   UNL     1       7.563 -27.238 -17.722  1.00  0.00    -0.550 OA
ATOM     11  O   UNL     1       7.851 -28.663 -15.950  1.00  0.00    -0.550 OA
ENDBRANCH   8   9
ENDBRANCH   7   8
ENDBRANCH   6   7
ENDBRANCH   5   6
ENDBRANCH   4   5
ENDBRANCH   3   4
ENDBRANCH   2   3
ENDBRANCH   1   2
BRANCH   1  12
ATOM     12  C   UNL     1       6.975 -34.363 -20.683  1.00  0.00     0.000 C 
BRANCH  12  13
ATOM     13  C   UNL     1       6.047 -34.917 -21.777  1.00  0.00    -0.000 C 
BRANCH  13  14
ATOM     14  C   UNL     1       5.684 -36.396 -21.559  1.00  0.00    -0.000 C 
BRANCH  14  15
ATOM     15  C   UNL     1       4.192 -36.707 -21.808  1.00  0.00    -0.000 C 
BRANCH  15  16
ATOM     16  C   UNL     1       3.815 -36.588 -23.296  1.00  0.00    -0.000 C 
BRANCH  16  17
ATOM     17  C   UNL     1       2.296 -36.631 -23.527  1.00  0.00    -0.000 C 
BRANCH  17  18
ATOM     18  C   UNL     1       1.497 -36.666 -22.213  1.00  0.00    -0.000 C 
BRANCH  18  19
ATOM     19  C   UNL     1       0.440 -37.780 -22.196  1.00  0.00    -0.003 C 
ATOM     20  C   UNL     1      -0.988 -37.239 -22.228  1.00  0.00     0.004 C 
ENDBRANCH  18  19
ENDBRANCH  17  18
ENDBRANCH  16  17
ENDBRANCH  15  16
ENDBRANCH  14  15
ENDBRANCH  13  14
ENDBRANCH  12  13
ENDBRANCH   1  12
TORSDOF 16
ENDMDL
MODEL 3
REMARK VINA RESULT:    -4.785      1.174      2.523
REMARK INTER + INTRA:         -10.441
REMARK INTER:                  -9.735
REMARK INTRA:                  -0.706
REMARK UNBOUND:                -1.181
REMARK SMILES CCCCCCCCCCCCCCCCCC(=O)[O-]
REMARK SMILES IDX 10 1 11 2 12 3 13 4 14 5 15 6 16 7 17 8 18 9 19 10 20 11
REMARK SMILES IDX 9 12 8 13 7 14 6 15 5 16 4 17 3 18 2 19 1 20
REMARK H PARENT
REMARK Flexibility Score: inf
ROOT
ATOM      1  C   UNL     1       6.343 -34.330 -20.981  1.00  0.00     0.000 C 
ENDROOT
BRANCH   1   2
ATOM      2  C   UNL     1       6.430 -35.866 -20.918  1.00  0.00     0.000 C 
BRANCH   2   3
ATOM      3  C   UNL     1       6.607 -36.502 -22.306  1.00  0.00     0.000 C 
BRANCH   3   4
ATOM      4  C   UNL     1       5.428 -36.208 -23.245  1.00  0.00     0.000 C 
BRANCH   4   5
ATOM      5  C   UNL     1       4.096 -36.627 -22.605  1.00  0.00     0.000 C 
BRANCH   5   6
ATOM      6  C   UNL     1       3.135 -37.272 -23.625  1.00  0.00     0.000 C 
BRANCH   6   7
ATOM      7  C   UNL     1       1.649 -37.083 -23.275  1.00  0.00     0.006 C 
BRANCH   7   8
ATOM      8  C   UNL     1       1.408 -36.909 -21.771  1.00  0.00     0.053 C 
BRANCH   8   9
ATOM      9  C   UNL     1      -0.038 -36.635 -21.501  1.00  0.00     0.041 C 
ATOM     10  O   UNL     1      -0.375 -35.902 -20.534  1.00  0.00    -0.550 OA
ATOM     11  O   UNL     1      -1.013 -37.155 -22.344  1.00  0.00    -0.550 OA
ENDBRANCH   8   9
ENDBRANCH   7   8
ENDBRANCH   6   7
ENDBRANCH   5   6
ENDBRANCH   4   5
ENDBRANCH   3   4
ENDBRANCH   2   3
ENDBRANCH   1   2
BRANCH   1  12
ATOM     12  C   UNL     1       7.408 -33.642 -20.114  1.00  0.00     0.000 C 
BRANCH  12  13
ATOM     13  C   UNL     1       7.048 -32.187 -19.770  1.00  0.00    -0.000 C 
BRANCH  13  14
ATOM     14  C   UNL     1       6.033 -32.079 -18.619  1.00  0.00    -0.000 C 
BRANCH  14  15
ATOM     15  C   UNL     1       6.663 -31.622 -17.285  1.00  0.00    -0.000 C 
BRANCH  15  16
ATOM     16  C   UNL     1       6.467 -30.116 -17.035  1.00  0.00    -0.000 C 
BRANCH  16  17
ATOM     17  C   UNL     1       7.502 -29.254 -17.775  1.00  0.00    -0.000 C 
BRANCH  17  18
ATOM     18  C   UNL     1       7.363 -27.755 -17.455  1.00  0.00    -0.000 C 
BRANCH  18  19
ATOM     19  C   UNL     1       5.986 -27.403 -16.870  1.00  0.00    -0.003 C 
ATOM     20  C   UNL     1       5.014 -26.880 -17.926  1.00  0.00     0.004 C 
ENDBRANCH  18  19
ENDBRANCH  17  18
ENDBRANCH  16  17
ENDBRANCH  15  16
ENDBRANCH  14  15
ENDBRANCH  13  14
ENDBRANCH  12  13
ENDBRANCH   1  12
TORSDOF 16
ENDMDL
MODEL 4
REMARK VINA RESULT:    -4.754      3.540      9.373
REMARK INTER + INTRA:         -10.382
REMARK INTER:                  -9.405
REMARK INTRA:                  -0.977
REMARK UNBOUND:                -1.181
REMARK SMILES CCCCCCCCCCCCCCCCCC(=O)[O-]
REMARK SMILES IDX 10 1 11 2 12 3 13 4 14 5 15 6 16 7 17 8 18 9 19 10 20 11
REMARK SMILES IDX 9 12 8 13 7 14 6 15 5 16 4 17 3 18 2 19 1 20
REMARK H PARENT
REMARK Flexibility Score: inf
ROOT
ATOM      1  C   UNL     1       6.366 -33.247 -20.493  1.00  0.00     0.000 C 
ENDROOT
BRANCH   1   2
ATOM      2  C   UNL     1       7.134 -32.607 -19.322  1.00  0.00     0.000 C 
BRANCH   2   3
ATOM      3  C   UNL     1       6.434 -31.353 -18.775  1.00  0.00     0.000 C 
BRANCH   3   4
ATOM      4  C   UNL     1       6.264 -31.389 -17.249  1.00  0.00     0.000 C 
BRANCH   4   5
ATOM      5  C   UNL     1       6.989 -30.208 -16.588  1.00  0.00     0.000 C 
BRANCH   5   6
ATOM      6  C   UNL     1       7.563 -29.220 -17.625  1.00  0.00     0.000 C 
BRANCH   6   7
ATOM      7  C   UNL     1       7.031 -27.785 -17.470  1.00  0.00     0.006 C 
BRANCH   7   8
ATOM      8  C   UNL     1       5.942 -27.667 -16.396  1.00  0.00     0.053 C 
BRANCH   8   9
ATOM      9  C   UNL     1       4.592 -27.547 -17.033  1.00  0.00     0.041 C 
ATOM     10  O   UNL     1       3.587 -27.247 -16.336  1.00  0.00    -0.550 OA
ATOM     11  O   UNL     1       4.452 -27.726 -18.403  1.00  0.00    -0.550 OA
ENDBRANCH   8   9
ENDBRANCH   7   8
ENDBRANCH   6   7
ENDBRANCH   5   6
ENDBRANCH   4   5
ENDBRANCH   3   4
ENDBRANCH   2   3
ENDBRANCH   1   2
BRANCH   1  12
ATOM     12  C   UNL     1       6.773 -34.709 -20.736  1.00  0.00     0.000 C 
BRANCH  12  13
ATOM     13  C   UNL     1       6.565 -35.150 -22.195  1.00  0.00    -0.000 C 
BRANCH  13  14
ATOM     14  C   UNL     1       6.062 -36.599 -22.315  1.00  0.00    -0.000 C 
BRANCH  14  15
ATOM     15  C   UNL     1       4.636 -36.804 -21.760  1.00  0.00    -0.000 C 
BRANCH  15  16
ATOM     16  C   UNL     1       3.557 -36.266 -22.716  1.00  0.00    -0.000 C 
BRANCH  16  17
ATOM     17  C   UNL     1       2.506 -37.327 -23.079  1.00  0.00    -0.000 C 
BRANCH  17  18
ATOM     18  C   UNL     1       1.758 -36.999 -24.383  1.00  0.00    -0.000 C 
BRANCH  18  19
ATOM     19  C   UNL     1       2.673 -36.365 -25.443  1.00  0.00    -0.003 C 
ATOM     20  C   UNL     1       3.446 -37.405 -26.252  1.00  0.00     0.004 C 
ENDBRANCH  18  19
ENDBRANCH  17  18
ENDBRANCH  16  17
ENDBRANCH  15  16
ENDBRANCH  14  15
ENDBRANCH  13  14
ENDBRANCH  12  13
ENDBRANCH   1  12
TORSDOF 16
ENDMDL
MODEL 5
REMARK VINA RESULT:    -4.742      4.596      9.334
REMARK INTER + INTRA:         -10.359
REMARK INTER:                  -9.490
REMARK INTRA:                  -0.869
REMARK UNBOUND:                -1.181
REMARK SMILES CCCCCCCCCCCCCCCCCC(=O)[O-]
REMARK SMILES IDX 10 1 11 2 12 3 13 4 14 5 15 6 16 7 17 8 18 9 19 10 20 11
REMARK SMILES IDX 9 12 8 13 7 14 6 15 5 16 4 17 3 18 2 19 1 20
REMARK H PARENT
REMARK Flexibility Score: inf
ROOT
ATOM      1  C   UNL     1       6.574 -34.137 -21.153  1.00  0.00     0.000 C 
ENDROOT
BRANCH   1   2
ATOM      2  C   UNL     1       7.296 -33.258 -20.116  1.00  0.00     0.000 C 
BRANCH   2   3
ATOM      3  C   UNL     1       6.378 -32.176 -19.523  1.00  0.00     0.000 C 
BRANCH   3   4
ATOM      4  C   UNL     1       6.765 -31.795 -18.087  1.00  0.00     0.000 C 
BRANCH   4   5
ATOM      5  C   UNL     1       5.579 -31.157 -17.349  1.00  0.00     0.000 C 
BRANCH   5   6
ATOM      6  C   UNL     1       4.749 -30.233 -18.266  1.00  0.00     0.000 C 
BRANCH   6   7
ATOM      7  C   UNL     1       4.934 -28.736 -17.963  1.00  0.00     0.006 C 
BRANCH   7   8
ATOM      8  C   UNL     1       5.600 -28.482 -16.605  1.00  0.00     0.053 C 
BRANCH   8   9
ATOM      9  C   UNL     1       7.037 -28.106 -16.790  1.00  0.00     0.041 C 
ATOM     10  O   UNL     1       7.932 -28.666 -16.103  1.00  0.00    -0.550 OA
ATOM     11  O   UNL     1       7.392 -27.167 -17.750  1.00  0.00    -0.550 OA
ENDBRANCH   8   9
ENDBRANCH   7   8
ENDBRANCH   6   7
ENDBRANCH   5   6
ENDBRANCH   4   5
ENDBRANCH   3   4
ENDBRANCH   2   3
ENDBRANCH   1   2
BRANCH   1  12
ATOM     12  C   UNL     1       6.782 -35.639 -20.899  1.00  0.00     0.000 C 
BRANCH  12  13
ATOM     13  C   UNL     1       6.792 -36.466 -22.196  1.00  0.00    -0.000 C 
BRANCH  13  14
ATOM     14  C   UNL     1       6.007 -35.797 -23.337  1.00  0.00    -0.000 C 
BRANCH  14  15
ATOM     15  C   UNL     1       6.706 -35.903 -24.710  1.00  0.00    -0.000 C 
BRANCH  15  16
ATOM     16  C   UNL     1       8.232 -36.053 -24.574  1.00  0.00    -0.000 C 
BRANCH  16  17
ATOM     17  C   UNL     1       8.919 -36.347 -25.917  1.00  0.00    -0.000 C 
BRANCH  17  18
ATOM     18  C   UNL     1      10.446 -36.163 -25.855  1.00  0.00    -0.000 C 
BRANCH  18  19
ATOM     19  C   UNL     1      10.851 -34.751 -25.403  1.00  0.00    -0.003 C 
ATOM     20  C   UNL     1      12.344 -34.481 -25.581  1.00  0.00     0.004 C 
ENDBRANCH  18  19
ENDBRANCH  17  18
ENDBRANCH  16  17
ENDBRANCH  15  16
ENDBRANCH  14  15
ENDBRANCH  13  14
ENDBRANCH  12  13
ENDBRANCH   1  12
TORSDOF 16
ENDMDL
MODEL 6
REMARK VINA RESULT:    -4.482     12.875     15.728
REMARK INTER + INTRA:          -9.856
REMARK INTER:                  -7.427
REMARK INTRA:                  -2.428
REMARK UNBOUND:                -1.181
REMARK SMILES CCCCCCCCCCCCCCCCCC(=O)[O-]
REMARK SMILES IDX 10 1 11 2 12 3 13 4 14 5 15 6 16 7 17 8 18 9 19 10 20 11
REMARK SMILES IDX 9 12 8 13 7 14 6 15 5 16 4 17 3 18 2 19 1 20
REMARK H PARENT
REMARK Flexibility Score: inf
ROOT
ATOM      1  C   UNL     1       7.488 -46.309 -27.948  1.00  0.00     0.000 C 
ENDROOT
BRANCH   1   2
ATOM      2  C   UNL     1       8.046 -46.847 -29.277  1.00  0.00     0.000 C 
BRANCH   2   3
ATOM      3  C   UNL     1       7.202 -46.413 -30.487  1.00  0.00     0.000 C 
BRANCH   3   4
ATOM      4  C   UNL     1       7.914 -46.663 -31.824  1.00  0.00     0.000 C 
BRANCH   4   5
ATOM      5  C   UNL     1       7.600 -45.545 -32.831  1.00  0.00     0.000 C 
BRANCH   5   6
ATOM      6  C   UNL     1       6.163 -45.006 -32.675  1.00  0.00     0.000 C 
BRANCH   6   7
ATOM      7  C   UNL     1       5.640 -44.275 -33.924  1.00  0.00     0.006 C 
BRANCH   7   8
ATOM      8  C   UNL     1       5.563 -42.755 -33.735  1.00  0.00     0.053 C 
BRANCH   8   9
ATOM      9  C   UNL     1       4.158 -42.337 -33.434  1.00  0.00     0.041 C 
ATOM     10  O   UNL     1       3.299 -42.291 -34.354  1.00  0.00    -0.550 OA
ATOM     11  O   UNL     1       3.787 -42.038 -32.129  1.00  0.00    -0.550 OA
ENDBRANCH   8   9
ENDBRANCH   7   8
ENDBRANCH   6   7
ENDBRANCH   5   6
ENDBRANCH   4   5
ENDBRANCH   3   4
ENDBRANCH   2   3
ENDBRANCH   1   2
BRANCH   1  12
ATOM     12  C   UNL     1       7.937 -44.867 -27.661  1.00  0.00     0.000 C 
BRANCH  12  13
ATOM     13  C   UNL     1       9.434 -44.644 -27.932  1.00  0.00    -0.000 C 
BRANCH  13  14
ATOM     14  C   UNL     1       9.973 -43.357 -27.285  1.00  0.00    -0.000 C 
BRANCH  14  15
ATOM     15  C   UNL     1       8.891 -42.279 -27.064  1.00  0.00    -0.000 C 
BRANCH  15  16
ATOM     16  C   UNL     1       9.290 -40.922 -27.671  1.00  0.00    -0.000 C 
BRANCH  16  17
ATOM     17  C   UNL     1       8.470 -40.569 -28.922  1.00  0.00    -0.000 C 
BRANCH  17  18
ATOM     18  C   UNL     1       7.126 -41.316 -28.981  1.00  0.00    -0.000 C 
BRANCH  18  19
ATOM     19  C   UNL     1       6.985 -42.174 -30.249  1.00  0.00    -0.003 C 
ATOM     20  C   UNL     1       8.333 -42.636 -30.800  1.00  0.00     0.004 C 
ENDBRANCH  18  19
ENDBRANCH  17  18
ENDBRANCH  16  17
ENDBRANCH  15  16
ENDBRANCH  14  15
ENDBRANCH  13  14
ENDBRANCH  12  13
ENDBRANCH   1  12
TORSDOF 16
ENDMDL
MODEL 7
REMARK VINA RESULT:    -4.415     13.189     16.033
REMARK INTER + INTRA:          -9.726
REMARK INTER:                  -7.472
REMARK INTRA:                  -2.254
REMARK UNBOUND:                -1.181
REMARK SMILES CCCCCCCCCCCCCCCCCC(=O)[O-]
REMARK SMILES IDX 10 1 11 2 12 3 13 4 14 5 15 6 16 7 17 8 18 9 19 10 20 11
REMARK SMILES IDX 9 12 8 13 7 14 6 15 5 16 4 17 3 18 2 19 1 20
REMARK H PARENT
REMARK Flexibility Score: inf
ROOT
ATOM      1  C   UNL     1       8.156 -43.449 -31.062  1.00  0.00     0.000 C 
ENDROOT
BRANCH   1   2
ATOM      2  C   UNL     1       7.737 -44.921 -31.214  1.00  0.00     0.000 C 
BRANCH   2   3
ATOM      3  C   UNL     1       6.562 -45.100 -32.190  1.00  0.00     0.000 C 
BRANCH   3   4
ATOM      4  C   UNL     1       6.905 -44.649 -33.617  1.00  0.00     0.000 C 
BRANCH   4   5
ATOM      5  C   UNL     1       5.844 -43.678 -34.156  1.00  0.00     0.000 C 
BRANCH   5   6
ATOM      6  C   UNL     1       6.283 -42.204 -34.027  1.00  0.00     0.000 C 
BRANCH   6   7
ATOM      7  C   UNL     1       5.310 -41.342 -33.204  1.00  0.00     0.006 C 
BRANCH   7   8
ATOM      8  C   UNL     1       4.230 -42.171 -32.498  1.00  0.00     0.053 C 
BRANCH   8   9
ATOM      9  C   UNL     1       2.888 -41.905 -33.105  1.00  0.00     0.041 C 
ATOM     10  O   UNL     1       2.729 -41.982 -34.352  1.00  0.00    -0.550 OA
ATOM     11  O   UNL     1       1.802 -41.613 -32.289  1.00  0.00    -0.550 OA
ENDBRANCH   8   9
ENDBRANCH   7   8
ENDBRANCH   6   7
ENDBRANCH   5   6
ENDBRANCH   4   5
ENDBRANCH   3   4
ENDBRANCH   2   3
ENDBRANCH   1   2
BRANCH   1  12
ATOM     12  C   UNL     1       7.117 -42.616 -30.295  1.00  0.00     0.000 C 
BRANCH  12  13
ATOM     13  C   UNL     1       7.633 -41.215 -29.924  1.00  0.00    -0.000 C 
BRANCH  13  14
ATOM     14  C   UNL     1       8.689 -41.244 -28.806  1.00  0.00    -0.000 C 
BRANCH  14  15
ATOM     15  C   UNL     1       8.200 -41.933 -27.514  1.00  0.00    -0.000 C 
BRANCH  15  16
ATOM     16  C   UNL     1       8.974 -43.230 -27.219  1.00  0.00    -0.000 C 
BRANCH  16  17
ATOM     17  C   UNL     1       8.106 -44.488 -27.381  1.00  0.00    -0.000 C 
BRANCH  17  18
ATOM     18  C   UNL     1       8.893 -45.683 -27.947  1.00  0.00    -0.000 C 
BRANCH  18  19
ATOM     19  C   UNL     1       8.260 -47.033 -27.578  1.00  0.00    -0.003 C 
ATOM     20  C   UNL     1       6.825 -46.893 -27.074  1.00  0.00     0.004 C 
ENDBRANCH  18  19
ENDBRANCH  17  18
ENDBRANCH  16  17
ENDBRANCH  15  16
ENDBRANCH  14  15
ENDBRANCH  13  14
ENDBRANCH  12  13
ENDBRANCH   1  12
TORSDOF 16
ENDMDL
MODEL 8
REMARK VINA RESULT:    -4.386     12.317     15.279
REMARK INTER + INTRA:          -9.670
REMARK INTER:                  -6.238
REMARK INTRA:                  -3.432
REMARK UNBOUND:                -1.181
REMARK SMILES CCCCCCCCCCCCCCCCCC(=O)[O-]
REMARK SMILES IDX 10 1 11 2 12 3 13 4 14 5 15 6 16 7 17 8 18 9 19 10 20 11
REMARK SMILES IDX 9 12 8 13 7 14 6 15 5 16 4 17 3 18 2 19 1 20
REMARK H PARENT
REMARK Flexibility Score: inf
ROOT
ATOM      1  C   UNL     1      -4.094 -31.150 -33.200  1.00  0.00     0.000 C 
ENDROOT
BRANCH   1   2
ATOM      2  C   UNL     1      -2.948 -31.740 -32.359  1.00  0.00     0.000 C 
BRANCH   2   3
ATOM      3  C   UNL     1      -2.910 -31.169 -30.933  1.00  0.00     0.000 C 
BRANCH   3   4
ATOM      4  C   UNL     1      -4.261 -30.583 -30.495  1.00  0.00     0.000 C 
BRANCH   4   5
ATOM      5  C   UNL     1      -4.061 -29.374 -29.568  1.00  0.00     0.000 C 
BRANCH   5   6
ATOM      6  C   UNL     1      -2.860 -29.561 -28.616  1.00  0.00     0.000 C 
BRANCH   6   7
ATOM      7  C   UNL     1      -3.225 -30.253 -27.292  1.00  0.00     0.006 C 
BRANCH   7   8
ATOM      8  C   UNL     1      -2.559 -31.625 -27.134  1.00  0.00     0.053 C 
BRANCH   8   9
ATOM      9  C   UNL     1      -3.517 -32.717 -27.497  1.00  0.00     0.041 C 
ATOM     10  O   UNL     1      -4.759 -32.509 -27.458  1.00  0.00    -0.550 OA
ATOM     11  O   UNL     1      -3.038 -33.950 -27.918  1.00  0.00    -0.550 OA
ENDBRANCH   8   9
ENDBRANCH   7   8
ENDBRANCH   6   7
ENDBRANCH   5   6
ENDBRANCH   4   5
ENDBRANCH   3   4
ENDBRANCH   2   3
ENDBRANCH   1   2
BRANCH   1  12
ATOM     12  C   UNL     1      -3.608 -30.574 -34.539  1.00  0.00     0.000 C 
BRANCH  12  13
ATOM     13  C   UNL     1      -3.840 -29.058 -34.654  1.00  0.00    -0.000 C 
BRANCH  13  14
ATOM     14  C   UNL     1      -4.640 -28.485 -33.472  1.00  0.00    -0.000 C 
BRANCH  14  15
ATOM     15  C   UNL     1      -3.891 -27.375 -32.702  1.00  0.00    -0.000 C 
BRANCH  15  16
ATOM     16  C   UNL     1      -2.380 -27.385 -32.992  1.00  0.00    -0.000 C 
BRANCH  16  17
ATOM     17  C   UNL     1      -1.541 -27.728 -31.752  1.00  0.00    -0.000 C 
BRANCH  17  18
ATOM     18  C   UNL     1      -0.392 -28.704 -32.064  1.00  0.00    -0.000 C 
BRANCH  18  19
ATOM     19  C   UNL     1      -0.285 -29.027 -33.562  1.00  0.00    -0.003 C 
ATOM     20  C   UNL     1       0.183 -30.457 -33.824  1.00  0.00     0.004 C 
ENDBRANCH  18  19
ENDBRANCH  17  18
ENDBRANCH  16  17
ENDBRANCH  15  16
ENDBRANCH  14  15
ENDBRANCH  13  14
ENDBRANCH  12  13
ENDBRANCH   1  12
TORSDOF 16
ENDMDL
MODEL 9
REMARK VINA RESULT:    -4.351     12.749     16.681
REMARK INTER + INTRA:          -9.602
REMARK INTER:                  -7.197
REMARK INTRA:                  -2.405
REMARK UNBOUND:                -1.181
REMARK SMILES CCCCCCCCCCCCCCCCCC(=O)[O-]
REMARK SMILES IDX 10 1 11 2 12 3 13 4 14 5 15 6 16 7 17 8 18 9 19 10 20 11
REMARK SMILES IDX 9 12 8 13 7 14 6 15 5 16 4 17 3 18 2 19 1 20
REMARK H PARENT
REMARK Flexibility Score: inf
ROOT
ATOM      1  C   UNL     1       9.108 -43.973 -31.089  1.00  0.00     0.000 C 
ENDROOT
BRANCH   1   2
ATOM      2  C   UNL     1       9.501 -45.388 -30.628  1.00  0.00     0.000 C 
BRANCH   2   3
ATOM      3  C   UNL     1       9.829 -45.446 -29.127  1.00  0.00     0.000 C 
BRANCH   3   4
ATOM      4  C   UNL     1       8.641 -45.927 -28.281  1.00  0.00     0.000 C 
BRANCH   4   5
ATOM      5  C   UNL     1       7.963 -44.748 -27.566  1.00  0.00     0.000 C 
BRANCH   5   6
ATOM      6  C   UNL     1       8.951 -43.600 -27.268  1.00  0.00     0.000 C 
BRANCH   6   7
ATOM      7  C   UNL     1       8.317 -42.201 -27.366  1.00  0.00     0.006 C 
BRANCH   7   8
ATOM      8  C   UNL     1       8.932 -41.345 -28.481  1.00  0.00     0.053 C 
BRANCH   8   9
ATOM      9  C   UNL     1       9.911 -40.368 -27.908  1.00  0.00     0.041 C 
ATOM     10  O   UNL     1      11.090 -40.729 -27.650  1.00  0.00    -0.550 OA
ATOM     11  O   UNL     1       9.534 -39.048 -27.699  1.00  0.00    -0.550 OA
ENDBRANCH   8   9
ENDBRANCH   7   8
ENDBRANCH   6   7
ENDBRANCH   5   6
ENDBRANCH   4   5
ENDBRANCH   3   4
ENDBRANCH   2   3
ENDBRANCH   1   2
BRANCH   1  12
ATOM     12  C   UNL     1       7.586 -43.789 -31.197  1.00  0.00     0.000 C 
BRANCH  12  13
ATOM     13  C   UNL     1       6.848 -45.103 -31.508  1.00  0.00    -0.000 C 
BRANCH  13  14
ATOM     14  C   UNL     1       6.080 -45.055 -32.840  1.00  0.00    -0.000 C 
BRANCH  14  15
ATOM     15  C   UNL     1       6.906 -44.471 -34.006  1.00  0.00    -0.000 C 
BRANCH  15  16
ATOM     16  C   UNL     1       6.120 -43.413 -34.802  1.00  0.00    -0.000 C 
BRANCH  16  17
ATOM     17  C   UNL     1       4.646 -43.328 -34.378  1.00  0.00    -0.000 C 
BRANCH  17  18
ATOM     18  C   UNL     1       4.280 -41.961 -33.775  1.00  0.00    -0.000 C 
BRANCH  18  19
ATOM     19  C   UNL     1       3.967 -42.044 -32.273  1.00  0.00    -0.003 C 
ATOM     20  C   UNL     1       4.974 -41.276 -31.418  1.00  0.00     0.004 C 
ENDBRANCH  18  19
ENDBRANCH  17  18
ENDBRANCH  16  17
ENDBRANCH  15  16
ENDBRANCH  14  15
ENDBRANCH  13  14
ENDBRANCH  12  13
ENDBRANCH   1  12
TORSDOF 16
ENDMDL
