MODEL 1
REMARK VINA RESULT:    -1.291      0.000      0.000
REMARK INTER + INTRA:          -2.029
REMARK INTER:                  -1.556
REMARK INTRA:                  -0.474
REMARK UNBOUND:                -0.474
REMARK SMILES O=c1c(O)c(-c2ccc(O)cc2O)oc2cc(O)cc(O)c12
REMARK SMILES IDX 5 1 3 2 2 3 1 4 22 5 20 6 19 7 17 8 16 9 15 10 14 11 6 12
REMARK SMILES IDX 8 13 7 14 9 15 11 16 12 17 10 18 13 20 4 22 21 24 18 26
REMARK H PARENT 10 19 13 21 4 23 21 25 18 27
REMARK Flexibility Score: inf
ROOT
ATOM      1  C   UNL     1      10.175  69.537  -0.823  1.00  0.00     0.184 A 
ATOM      2  C   UNL     1       8.920  68.941  -1.048  1.00  0.00     0.208 A 
ATOM      3  C   UNL     1       8.415  68.043  -0.095  1.00  0.00     0.238 A 
ATOM      4  O   UNL     1       7.296  67.496  -0.290  1.00  0.00    -0.285 OA
ATOM      5  C   UNL     1       9.162  67.770   1.071  1.00  0.00     0.111 A 
ATOM      6  C   UNL     1       8.723  66.882   2.082  1.00  0.00     0.134 A 
ATOM      7  C   UNL     1       9.521  66.670   3.215  1.00  0.00     0.093 A 
ATOM      8  C   UNL     1      10.747  67.329   3.357  1.00  0.00     0.123 A 
ATOM      9  C   UNL     1      11.185  68.205   2.363  1.00  0.00     0.094 A 
ATOM     10  C   UNL     1      10.405  68.429   1.224  1.00  0.00     0.146 A 
ATOM     11  O   UNL     1      10.847  69.265   0.292  1.00  0.00    -0.451 OA
ENDROOT
BRANCH   1  12
ATOM     12  C   UNL     1      10.777  70.479  -1.795  1.00  0.00     0.063 A 
ATOM     13  C   UNL     1      11.901  70.892  -3.914  1.00  0.00     0.047 A 
ATOM     14  C   UNL     1      11.308  70.007  -3.009  1.00  0.00     0.020 A 
ATOM     15  C   UNL     1      11.983  72.254  -3.617  1.00  0.00     0.119 A 
ATOM     16  C   UNL     1      11.470  72.733  -2.405  1.00  0.00     0.093 A 
ATOM     17  C   UNL     1      10.871  71.852  -1.491  1.00  0.00     0.130 A 
BRANCH  15  18
ATOM     18  O   UNL     1      12.578  73.123  -4.529  1.00  0.00    -0.508 OA
ATOM     19  H   UNL     1      12.482  72.989  -5.528  1.00  0.00     0.293 HD
ENDBRANCH  15  18
BRANCH  17  20
ATOM     20  O   UNL     1      10.358  72.342  -0.290  1.00  0.00    -0.507 OA
ATOM     21  H   UNL     1       9.912  73.251  -0.234  1.00  0.00     0.293 HD
ENDBRANCH  17  20
ENDBRANCH   1  12
BRANCH   2  22
ATOM     22  O   UNL     1       8.184  69.260  -2.192  1.00  0.00    -0.502 OA
ATOM     23  H   UNL     1       8.021  70.216  -2.482  1.00  0.00     0.293 HD
ENDBRANCH   2  22
BRANCH   6  24
ATOM     24  O   UNL     1       7.504  66.212   1.969  1.00  0.00    -0.507 OA
ATOM     25  H   UNL     1       7.158  65.882   1.075  1.00  0.00     0.293 HD
ENDBRANCH   6  24
BRANCH   8  26
ATOM     26  O   UNL     1      11.540  67.119   4.484  1.00  0.00    -0.508 OA
ATOM     27  H   UNL     1      11.131  66.947   5.395  1.00  0.00     0.293 HD
ENDBRANCH   8  26
TORSDOF 6
ENDMDL
MODEL 2
REMARK VINA RESULT:    -0.108      2.372      2.770
REMARK INTER + INTRA:          -0.604
REMARK INTER:                  -0.929
REMARK INTRA:                   0.325
REMARK UNBOUND:                -0.474
REMARK SMILES O=c1c(O)c(-c2ccc(O)cc2O)oc2cc(O)cc(O)c12
REMARK SMILES IDX 5 1 3 2 2 3 1 4 22 5 20 6 19 7 17 8 16 9 15 10 14 11 6 12
REMARK SMILES IDX 8 13 7 14 9 15 11 16 12 17 10 18 13 20 4 22 21 24 18 26
REMARK H PARENT 10 19 13 21 4 23 21 25 18 27
REMARK Flexibility Score: inf
ROOT
ATOM      1  C   UNL     1      10.473  70.467  -0.463  1.00  0.00     0.184 A 
ATOM      2  C   UNL     1      10.446  69.094  -0.153  1.00  0.00     0.208 A 
ATOM      3  C   UNL     1       9.953  68.690   1.097  1.00  0.00     0.238 A 
ATOM      4  O   UNL     1       9.932  67.464   1.389  1.00  0.00    -0.285 OA
ATOM      5  C   UNL     1       9.480  69.659   2.006  1.00  0.00     0.111 A 
ATOM      6  C   UNL     1       8.963  69.336   3.284  1.00  0.00     0.134 A 
ATOM      7  C   UNL     1       8.506  70.359   4.128  1.00  0.00     0.093 A 
ATOM      8  C   UNL     1       8.555  71.696   3.719  1.00  0.00     0.123 A 
ATOM      9  C   UNL     1       9.064  72.020   2.461  1.00  0.00     0.094 A 
ATOM     10  C   UNL     1       9.527  71.016   1.605  1.00  0.00     0.146 A 
ATOM     11  O   UNL     1      10.010  71.352   0.414  1.00  0.00    -0.451 OA
ENDROOT
BRANCH   1  12
ATOM     12  C   UNL     1      10.997  70.965  -1.756  1.00  0.00     0.063 A 
ATOM     13  C   UNL     1      11.555  70.582  -4.094  1.00  0.00     0.047 A 
ATOM     14  C   UNL     1      11.035  70.122  -2.881  1.00  0.00     0.020 A 
ATOM     15  C   UNL     1      12.053  71.883  -4.198  1.00  0.00     0.119 A 
ATOM     16  C   UNL     1      12.033  72.727  -3.080  1.00  0.00     0.093 A 
ATOM     17  C   UNL     1      11.511  72.273  -1.859  1.00  0.00     0.130 A 
BRANCH  15  18
ATOM     18  O   UNL     1      12.569  72.327  -5.414  1.00  0.00    -0.508 OA
ATOM     19  H   UNL     1      13.394  71.907  -5.824  1.00  0.00     0.293 HD
ENDBRANCH  15  18
BRANCH  17  20
ATOM     20  O   UNL     1      11.491  73.125  -0.754  1.00  0.00    -0.507 OA
ATOM     21  H   UNL     1      11.155  72.815   0.151  1.00  0.00     0.293 HD
ENDBRANCH  17  20
ENDBRANCH   1  12
BRANCH   2  22
ATOM     22  O   UNL     1      10.883  68.152  -1.089  1.00  0.00    -0.502 OA
ATOM     23  H   UNL     1      10.731  67.159  -0.969  1.00  0.00     0.293 HD
ENDBRANCH   2  22
BRANCH   6  24
ATOM     24  O   UNL     1       8.901  68.012   3.719  1.00  0.00    -0.507 OA
ATOM     25  H   UNL     1       9.684  67.565   4.181  1.00  0.00     0.293 HD
ENDBRANCH   6  24
BRANCH   8  26
ATOM     26  O   UNL     1       8.099  72.712   4.557  1.00  0.00    -0.508 OA
ATOM     27  H   UNL     1       7.314  73.298   4.299  1.00  0.00     0.293 HD
ENDBRANCH   8  26
TORSDOF 6
ENDMDL
MODEL 3
REMARK VINA RESULT:     0.220      1.802      2.986
REMARK INTER + INTRA:          -0.209
REMARK INTER:                  -0.681
REMARK INTRA:                   0.473
REMARK UNBOUND:                -0.474
REMARK SMILES O=c1c(O)c(-c2ccc(O)cc2O)oc2cc(O)cc(O)c12
REMARK SMILES IDX 5 1 3 2 2 3 1 4 22 5 20 6 19 7 17 8 16 9 15 10 14 11 6 12
REMARK SMILES IDX 8 13 7 14 9 15 11 16 12 17 10 18 13 20 4 22 21 24 18 26
REMARK H PARENT 10 19 13 21 4 23 21 25 18 27
REMARK Flexibility Score: inf
ROOT
ATOM      1  C   UNL     1      10.487  70.800  -0.335  1.00  0.00     0.184 A 
ATOM      2  C   UNL     1      10.230  71.717   0.701  1.00  0.00     0.208 A 
ATOM      3  C   UNL     1       9.684  71.245   1.905  1.00  0.00     0.238 A 
ATOM      4  O   UNL     1       9.441  72.059   2.837  1.00  0.00    -0.285 OA
ATOM      5  C   UNL     1       9.420  69.868   2.059  1.00  0.00     0.111 A 
ATOM      6  C   UNL     1       8.875  69.310   3.240  1.00  0.00     0.134 A 
ATOM      7  C   UNL     1       8.649  67.928   3.316  1.00  0.00     0.093 A 
ATOM      8  C   UNL     1       8.959  67.095   2.236  1.00  0.00     0.123 A 
ATOM      9  C   UNL     1       9.496  67.639   1.069  1.00  0.00     0.094 A 
ATOM     10  C   UNL     1       9.727  69.015   0.972  1.00  0.00     0.146 A 
ATOM     11  O   UNL     1      10.236  69.508  -0.151  1.00  0.00    -0.451 OA
ENDROOT
BRANCH   1  12
ATOM     12  C   UNL     1      11.045  71.231  -1.637  1.00  0.00     0.063 A 
ATOM     13  C   UNL     1      12.131  72.921  -3.012  1.00  0.00     0.047 A 
ATOM     14  C   UNL     1      11.629  72.503  -1.777  1.00  0.00     0.020 A 
ATOM     15  C   UNL     1      12.048  72.083  -4.126  1.00  0.00     0.119 A 
ATOM     16  C   UNL     1      11.456  70.820  -4.002  1.00  0.00     0.093 A 
ATOM     17  C   UNL     1      10.951  70.391  -2.765  1.00  0.00     0.130 A 
BRANCH  15  18
ATOM     18  O   UNL     1      12.552  72.514  -5.351  1.00  0.00    -0.508 OA
ATOM     19  H   UNL     1      11.941  72.720  -6.132  1.00  0.00     0.293 HD
ENDBRANCH  15  18
BRANCH  17  20
ATOM     20  O   UNL     1      10.369  69.128  -2.654  1.00  0.00    -0.507 OA
ATOM     21  H   UNL     1       9.489  68.988  -2.170  1.00  0.00     0.293 HD
ENDBRANCH  17  20
ENDBRANCH   1  12
BRANCH   2  22
ATOM     22  O   UNL     1      10.539  73.070   0.537  1.00  0.00    -0.502 OA
ATOM     23  H   UNL     1      10.706  73.481  -0.373  1.00  0.00     0.293 HD
ENDBRANCH   2  22
BRANCH   6  24
ATOM     24  O   UNL     1       8.558  70.116   4.334  1.00  0.00    -0.507 OA
ATOM     25  H   UNL     1       9.275  70.577   4.882  1.00  0.00     0.293 HD
ENDBRANCH   6  24
BRANCH   8  26
ATOM     26  O   UNL     1       8.735  65.721   2.312  1.00  0.00    -0.508 OA
ATOM     27  H   UNL     1       8.258  65.305   3.104  1.00  0.00     0.293 HD
ENDBRANCH   8  26
TORSDOF 6
ENDMDL
MODEL 4
REMARK VINA RESULT:     0.526      1.574      2.835
REMARK INTER + INTRA:           0.159
REMARK INTER:                  -0.423
REMARK INTRA:                   0.583
REMARK UNBOUND:                -0.474
REMARK SMILES O=c1c(O)c(-c2ccc(O)cc2O)oc2cc(O)cc(O)c12
REMARK SMILES IDX 5 1 3 2 2 3 1 4 22 5 20 6 19 7 17 8 16 9 15 10 14 11 6 12
REMARK SMILES IDX 8 13 7 14 9 15 11 16 12 17 10 18 13 20 4 22 21 24 18 26
REMARK H PARENT 10 19 13 21 4 23 21 25 18 27
REMARK Flexibility Score: inf
ROOT
ATOM      1  C   UNL     1      10.365  69.929  -0.166  1.00  0.00     0.184 A 
ATOM      2  C   UNL     1      10.172  70.471   1.118  1.00  0.00     0.208 A 
ATOM      3  C   UNL     1       9.669  69.643   2.135  1.00  0.00     0.238 A 
ATOM      4  O   UNL     1       9.483  70.120   3.287  1.00  0.00    -0.285 OA
ATOM      5  C   UNL     1       9.385  68.290   1.856  1.00  0.00     0.111 A 
ATOM      6  C   UNL     1       8.881  67.389   2.824  1.00  0.00     0.134 A 
ATOM      7  C   UNL     1       8.631  66.055   2.469  1.00  0.00     0.093 A 
ATOM      8  C   UNL     1       8.877  65.607   1.168  1.00  0.00     0.123 A 
ATOM      9  C   UNL     1       9.373  66.491   0.209  1.00  0.00     0.094 A 
ATOM     10  C   UNL     1       9.627  67.825   0.542  1.00  0.00     0.146 A 
ATOM     11  O   UNL     1      10.096  68.646  -0.390  1.00  0.00    -0.451 OA
ENDROOT
BRANCH   1  12
ATOM     12  C   UNL     1      10.874  70.748  -1.290  1.00  0.00     0.063 A 
ATOM     13  C   UNL     1      11.706  72.869  -2.147  1.00  0.00     0.047 A 
ATOM     14  C   UNL     1      11.252  72.087  -1.082  1.00  0.00     0.020 A 
ATOM     15  C   UNL     1      11.780  72.332  -3.434  1.00  0.00     0.119 A 
ATOM     16  C   UNL     1      11.393  71.004  -3.655  1.00  0.00     0.093 A 
ATOM     17  C   UNL     1      10.937  70.211  -2.591  1.00  0.00     0.130 A 
BRANCH  15  18
ATOM     18  O   UNL     1      12.234  73.124  -4.485  1.00  0.00    -0.508 OA
ATOM     19  H   UNL     1      11.896  72.994  -5.431  1.00  0.00     0.293 HD
ENDBRANCH  15  18
BRANCH  17  20
ATOM     20  O   UNL     1      10.561  68.888  -2.824  1.00  0.00    -0.507 OA
ATOM     21  H   UNL     1       9.829  68.440  -2.284  1.00  0.00     0.293 HD
ENDBRANCH  17  20
ENDBRANCH   1  12
BRANCH   2  22
ATOM     22  O   UNL     1      10.499  71.804   1.377  1.00  0.00    -0.502 OA
ATOM     23  H   UNL     1       9.856  72.443   1.828  1.00  0.00     0.293 HD
ENDBRANCH   2  22
BRANCH   6  24
ATOM     24  O   UNL     1       8.628  67.807   4.131  1.00  0.00    -0.507 OA
ATOM     25  H   UNL     1       7.961  68.543   4.336  1.00  0.00     0.293 HD
ENDBRANCH   6  24
BRANCH   8  26
ATOM     26  O   UNL     1       8.630  64.281   0.815  1.00  0.00    -0.508 OA
ATOM     27  H   UNL     1       7.768  64.006   0.358  1.00  0.00     0.293 HD
ENDBRANCH   8  26
TORSDOF 6
ENDMDL
MODEL 5
REMARK VINA RESULT:     0.683      2.496      6.024
REMARK INTER + INTRA:           0.349
REMARK INTER:                  -0.253
REMARK INTRA:                   0.602
REMARK UNBOUND:                -0.474
REMARK SMILES O=c1c(O)c(-c2ccc(O)cc2O)oc2cc(O)cc(O)c12
REMARK SMILES IDX 5 1 3 2 2 3 1 4 22 5 20 6 19 7 17 8 16 9 15 10 14 11 6 12
REMARK SMILES IDX 8 13 7 14 9 15 11 16 12 17 10 18 13 20 4 22 21 24 18 26
REMARK H PARENT 10 19 13 21 4 23 21 25 18 27
REMARK Flexibility Score: inf
ROOT
ATOM      1  C   UNL     1       9.513  68.236  -0.212  1.00  0.00     0.184 A 
ATOM      2  C   UNL     1       9.826  68.829  -1.449  1.00  0.00     0.208 A 
ATOM      3  C   UNL     1       9.936  70.227  -1.523  1.00  0.00     0.238 A 
ATOM      4  O   UNL     1      10.208  70.769  -2.628  1.00  0.00    -0.285 OA
ATOM      5  C   UNL     1       9.750  71.003  -0.360  1.00  0.00     0.111 A 
ATOM      6  C   UNL     1       9.847  72.415  -0.348  1.00  0.00     0.134 A 
ATOM      7  C   UNL     1       9.654  73.114   0.852  1.00  0.00     0.093 A 
ATOM      8  C   UNL     1       9.367  72.430   2.038  1.00  0.00     0.123 A 
ATOM      9  C   UNL     1       9.269  71.038   2.031  1.00  0.00     0.094 A 
ATOM     10  C   UNL     1       9.456  70.321   0.845  1.00  0.00     0.146 A 
ATOM     11  O   UNL     1       9.354  68.998   0.866  1.00  0.00    -0.451 OA
ENDROOT
BRANCH   1  12
ATOM     12  C   UNL     1       9.363  66.769  -0.066  1.00  0.00     0.063 A 
ATOM     13  C   UNL     1       9.381  64.539  -1.041  1.00  0.00     0.047 A 
ATOM     14  C   UNL     1       9.549  65.920  -1.171  1.00  0.00     0.020 A 
ATOM     15  C   UNL     1       9.014  63.988   0.189  1.00  0.00     0.119 A 
ATOM     16  C   UNL     1       8.813  64.825   1.293  1.00  0.00     0.093 A 
ATOM     17  C   UNL     1       8.981  66.213   1.172  1.00  0.00     0.130 A 
BRANCH  15  18
ATOM     18  O   UNL     1       8.850  62.609   0.303  1.00  0.00    -0.508 OA
ATOM     19  H   UNL     1       8.922  61.999  -0.501  1.00  0.00     0.293 HD
ENDBRANCH  15  18
BRANCH  17  20
ATOM     20  O   UNL     1       8.784  67.035   2.281  1.00  0.00    -0.507 OA
ATOM     21  H   UNL     1       9.307  67.895   2.405  1.00  0.00     0.293 HD
ENDBRANCH  17  20
ENDBRANCH   1  12
BRANCH   2  22
ATOM     22  O   UNL     1      10.046  68.033  -2.577  1.00  0.00    -0.502 OA
ATOM     23  H   UNL     1      10.031  68.408  -3.516  1.00  0.00     0.293 HD
ENDBRANCH   2  22
BRANCH   6  24
ATOM     24  O   UNL     1      10.134  73.125  -1.514  1.00  0.00    -0.507 OA
ATOM     25  H   UNL     1       9.773  72.836  -2.416  1.00  0.00     0.293 HD
ENDBRANCH   6  24
BRANCH   8  26
ATOM     26  O   UNL     1       9.177  73.125   3.231  1.00  0.00    -0.508 OA
ATOM     27  H   UNL     1       9.921  73.222   3.912  1.00  0.00     0.293 HD
ENDBRANCH   8  26
TORSDOF 6
ENDMDL
MODEL 6
REMARK VINA RESULT:     0.694      2.373      6.484
REMARK INTER + INTRA:           0.363
REMARK INTER:                  -0.220
REMARK INTRA:                   0.583
REMARK UNBOUND:                -0.474
REMARK SMILES O=c1c(O)c(-c2ccc(O)cc2O)oc2cc(O)cc(O)c12
REMARK SMILES IDX 5 1 3 2 2 3 1 4 22 5 20 6 19 7 17 8 16 9 15 10 14 11 6 12
REMARK SMILES IDX 8 13 7 14 9 15 11 16 12 17 10 18 13 20 4 22 21 24 18 26
REMARK H PARENT 10 19 13 21 4 23 21 25 18 27
REMARK Flexibility Score: inf
ROOT
ATOM      1  C   UNL     1       9.471  68.310   0.981  1.00  0.00     0.184 A 
ATOM      2  C   UNL     1       9.417  68.899   2.257  1.00  0.00     0.208 A 
ATOM      3  C   UNL     1       9.674  70.274   2.381  1.00  0.00     0.238 A 
ATOM      4  O   UNL     1       9.637  70.811   3.521  1.00  0.00    -0.285 OA
ATOM      5  C   UNL     1       9.963  71.036   1.230  1.00  0.00     0.111 A 
ATOM      6  C   UNL     1      10.229  72.425   1.267  1.00  0.00     0.134 A 
ATOM      7  C   UNL     1      10.502  73.113   0.076  1.00  0.00     0.093 A 
ATOM      8  C   UNL     1      10.512  72.439  -1.150  1.00  0.00     0.123 A 
ATOM      9  C   UNL     1      10.250  71.069  -1.192  1.00  0.00     0.094 A 
ATOM     10  C   UNL     1       9.978  70.364  -0.016  1.00  0.00     0.146 A 
ATOM     11  O   UNL     1       9.737  69.060  -0.084  1.00  0.00    -0.451 OA
ENDROOT
BRANCH   1  12
ATOM     12  C   UNL     1       9.229  66.862   0.779  1.00  0.00     0.063 A 
ATOM     13  C   UNL     1       8.628  64.679   1.672  1.00  0.00     0.047 A 
ATOM     14  C   UNL     1       8.830  66.050   1.856  1.00  0.00     0.020 A 
ATOM     15  C   UNL     1       8.832  64.099   0.419  1.00  0.00     0.119 A 
ATOM     16  C   UNL     1       9.243  64.896  -0.657  1.00  0.00     0.093 A 
ATOM     17  C   UNL     1       9.447  66.273  -0.483  1.00  0.00     0.130 A 
BRANCH  15  18
ATOM     18  O   UNL     1       8.627  62.731   0.252  1.00  0.00    -0.508 OA
ATOM     19  H   UNL     1       7.754  62.291   0.514  1.00  0.00     0.293 HD
ENDBRANCH  15  18
BRANCH  17  20
ATOM     20  O   UNL     1       9.850  67.057  -1.564  1.00  0.00    -0.507 OA
ATOM     21  H   UNL     1      10.740  67.543  -1.566  1.00  0.00     0.293 HD
ENDBRANCH  17  20
ENDBRANCH   1  12
BRANCH   2  22
ATOM     22  O   UNL     1       9.088  68.129   3.376  1.00  0.00    -0.502 OA
ATOM     23  H   UNL     1       8.140  68.057   3.725  1.00  0.00     0.293 HD
ENDBRANCH   2  22
BRANCH   6  24
ATOM     24  O   UNL     1      10.225  73.125   2.475  1.00  0.00    -0.507 OA
ATOM     25  H   UNL     1       9.738  72.775   3.291  1.00  0.00     0.293 HD
ENDBRANCH   6  24
BRANCH   8  26
ATOM     26  O   UNL     1      10.781  73.123  -2.334  1.00  0.00    -0.508 OA
ATOM     27  H   UNL     1      11.729  73.350  -2.611  1.00  0.00     0.293 HD
ENDBRANCH   8  26
TORSDOF 6
ENDMDL
MODEL 7
REMARK VINA RESULT:     1.229      2.981      5.938
REMARK INTER + INTRA:           1.007
REMARK INTER:                   0.414
REMARK INTRA:                   0.592
REMARK UNBOUND:                -0.474
REMARK SMILES O=c1c(O)c(-c2ccc(O)cc2O)oc2cc(O)cc(O)c12
REMARK SMILES IDX 5 1 3 2 2 3 1 4 22 5 20 6 19 7 17 8 16 9 15 10 14 11 6 12
REMARK SMILES IDX 8 13 7 14 9 15 11 16 12 17 10 18 13 20 4 22 21 24 18 26
REMARK H PARENT 10 19 13 21 4 23 21 25 18 27
REMARK Flexibility Score: inf
ROOT
ATOM      1  C   UNL     1       9.314  70.399   0.706  1.00  0.00     0.184 A 
ATOM      2  C   UNL     1       8.998  69.042   0.509  1.00  0.00     0.208 A 
ATOM      3  C   UNL     1       9.334  68.437  -0.713  1.00  0.00     0.238 A 
ATOM      4  O   UNL     1       9.048  67.225  -0.904  1.00  0.00    -0.285 OA
ATOM      5  C   UNL     1       9.993  69.192  -1.706  1.00  0.00     0.111 A 
ATOM      6  C   UNL     1      10.370  68.659  -2.962  1.00  0.00     0.134 A 
ATOM      7  C   UNL     1      11.029  69.473  -3.894  1.00  0.00     0.093 A 
ATOM      8  C   UNL     1      11.318  70.809  -3.594  1.00  0.00     0.123 A 
ATOM      9  C   UNL     1      10.948  71.340  -2.358  1.00  0.00     0.094 A 
ATOM     10  C   UNL     1      10.289  70.545  -1.415  1.00  0.00     0.146 A 
ATOM     11  O   UNL     1       9.944  71.077  -0.248  1.00  0.00    -0.451 OA
ENDROOT
BRANCH   1  12
ATOM     12  C   UNL     1       8.972  71.105   1.962  1.00  0.00     0.063 A 
ATOM     13  C   UNL     1       7.889  71.127   4.142  1.00  0.00     0.047 A 
ATOM     14  C   UNL     1       8.236  70.453   2.969  1.00  0.00     0.020 A 
ATOM     15  C   UNL     1       8.261  72.460   4.325  1.00  0.00     0.119 A 
ATOM     16  C   UNL     1       8.982  73.124   3.324  1.00  0.00     0.093 A 
ATOM     17  C   UNL     1       9.336  72.454   2.142  1.00  0.00     0.130 A 
BRANCH  15  18
ATOM     18  O   UNL     1       7.907  73.119   5.500  1.00  0.00    -0.508 OA
ATOM     19  H   UNL     1       8.604  73.545   6.099  1.00  0.00     0.293 HD
ENDBRANCH  15  18
BRANCH  17  20
ATOM     20  O   UNL     1      10.060  73.124   1.156  1.00  0.00    -0.507 OA
ATOM     21  H   UNL     1       9.626  73.425   0.290  1.00  0.00     0.293 HD
ENDBRANCH  17  20
ENDBRANCH   1  12
BRANCH   2  22
ATOM     22  O   UNL     1       8.382  68.307   1.525  1.00  0.00    -0.502 OA
ATOM     23  H   UNL     1       8.896  67.940   2.317  1.00  0.00     0.293 HD
ENDBRANCH   2  22
BRANCH   6  24
ATOM     24  O   UNL     1      10.097  67.330  -3.288  1.00  0.00    -0.507 OA
ATOM     25  H   UNL     1      10.734  66.580  -3.047  1.00  0.00     0.293 HD
ENDBRANCH   6  24
BRANCH   8  26
ATOM     26  O   UNL     1      11.974  71.619  -4.519  1.00  0.00    -0.508 OA
ATOM     27  H   UNL     1      12.194  72.587  -4.315  1.00  0.00     0.293 HD
ENDBRANCH   8  26
TORSDOF 6
ENDMDL
