MODEL 1
REMARK VINA RESULT:    -1.707      0.000      0.000
REMARK INTER + INTRA:          -5.227
REMARK INTER:                  -3.105
REMARK INTRA:                  -2.122
REMARK UNBOUND:                -2.122
REMARK SMILES CCCCCCCCCCCCCCCC(=O)[O-]
REMARK SMILES IDX 9 1 10 2 11 3 12 4 13 5 14 6 15 7 16 8 17 9 18 10 8 11 7 12
REMARK SMILES IDX 6 13 5 14 4 15 3 16 2 17 1 18
REMARK H PARENT
REMARK Flexibility Score: inf
ROOT
ATOM      1  C   UNL     1      16.727 -34.227   1.183  1.00  0.00     0.000 C 
ENDROOT
BRANCH   1   2
ATOM      2  C   UNL     1      15.756 -33.271   1.898  1.00  0.00     0.000 C 
BRANCH   2   3
ATOM      3  C   UNL     1      15.912 -33.267   3.434  1.00  0.00     0.000 C 
BRANCH   3   4
ATOM      4  C   UNL     1      15.860 -31.847   4.022  1.00  0.00     0.000 C 
BRANCH   4   5
ATOM      5  C   UNL     1      16.341 -30.777   3.015  1.00  0.00     0.000 C 
BRANCH   5   6
ATOM      6  C   UNL     1      17.747 -30.229   3.323  1.00  0.00     0.006 C 
BRANCH   6   7
ATOM      7  C   UNL     1      18.784 -30.520   2.230  1.00  0.00     0.053 C 
BRANCH   7   8
ATOM      8  C   UNL     1      19.371 -31.892   2.370  1.00  0.00     0.041 C 
ATOM      9  O   UNL     1      19.451 -32.438   3.502  1.00  0.00    -0.550 OA
ATOM     10  O   UNL     1      19.811 -32.576   1.244  1.00  0.00    -0.550 OA
ENDBRANCH   7   8
ENDBRANCH   6   7
ENDBRANCH   5   6
ENDBRANCH   4   5
ENDBRANCH   3   4
ENDBRANCH   2   3
ENDBRANCH   1   2
BRANCH   1  11
ATOM     11  C   UNL     1      16.087 -34.936  -0.021  1.00  0.00     0.000 C 
BRANCH  11  12
ATOM     12  C   UNL     1      14.577 -34.669  -0.129  1.00  0.00    -0.000 C 
BRANCH  12  13
ATOM     13  C   UNL     1      14.177 -34.095  -1.500  1.00  0.00    -0.000 C 
BRANCH  13  14
ATOM     14  C   UNL     1      13.033 -33.074  -1.401  1.00  0.00    -0.000 C 
BRANCH  14  15
ATOM     15  C   UNL     1      12.460 -32.963   0.020  1.00  0.00    -0.000 C 
BRANCH  15  16
ATOM     16  C   UNL     1      12.222 -31.494   0.401  1.00  0.00    -0.000 C 
BRANCH  16  17
ATOM     17  C   UNL     1      12.734 -31.159   1.811  1.00  0.00    -0.003 C 
ATOM     18  C   UNL     1      12.341 -32.212   2.848  1.00  0.00     0.004 C 
ENDBRANCH  16  17
ENDBRANCH  15  16
ENDBRANCH  14  15
ENDBRANCH  13  14
ENDBRANCH  12  13
ENDBRANCH  11  12
ENDBRANCH   1  11
TORSDOF 14
ENDMDL
MODEL 2
REMARK VINA RESULT:    -1.609      1.183      2.490
REMARK INTER + INTRA:          -5.048
REMARK INTER:                  -2.462
REMARK INTRA:                  -2.586
REMARK UNBOUND:                -2.122
REMARK SMILES CCCCCCCCCCCCCCCC(=O)[O-]
REMARK SMILES IDX 9 1 10 2 11 3 12 4 13 5 14 6 15 7 16 8 17 9 18 10 8 11 7 12
REMARK SMILES IDX 6 13 5 14 4 15 3 16 2 17 1 18
REMARK H PARENT
REMARK Flexibility Score: inf
ROOT
ATOM      1  C   UNL     1      14.996 -35.391  -0.589  1.00  0.00     0.000 C 
ENDROOT
BRANCH   1   2
ATOM      2  C   UNL     1      16.511 -35.228  -0.382  1.00  0.00     0.000 C 
BRANCH   2   3
ATOM      3  C   UNL     1      16.880 -34.444   0.896  1.00  0.00     0.000 C 
BRANCH   3   4
ATOM      4  C   UNL     1      16.051 -34.889   2.113  1.00  0.00     0.000 C 
BRANCH   4   5
ATOM      5  C   UNL     1      15.655 -33.702   3.019  1.00  0.00     0.000 C 
BRANCH   5   6
ATOM      6  C   UNL     1      15.781 -32.331   2.329  1.00  0.00     0.006 C 
BRANCH   6   7
ATOM      7  C   UNL     1      16.581 -31.297   3.134  1.00  0.00     0.053 C 
BRANCH   7   8
ATOM      8  C   UNL     1      18.024 -31.684   3.260  1.00  0.00     0.041 C 
ATOM      9  O   UNL     1      18.502 -32.003   4.380  1.00  0.00    -0.550 OA
ATOM     10  O   UNL     1      18.835 -31.713   2.133  1.00  0.00    -0.550 OA
ENDBRANCH   7   8
ENDBRANCH   6   7
ENDBRANCH   5   6
ENDBRANCH   4   5
ENDBRANCH   3   4
ENDBRANCH   2   3
ENDBRANCH   1   2
BRANCH   1  11
ATOM     11  C   UNL     1      14.392 -34.285  -1.470  1.00  0.00     0.000 C 
BRANCH  11  12
ATOM     12  C   UNL     1      13.264 -33.518  -0.763  1.00  0.00    -0.000 C 
BRANCH  12  13
ATOM     13  C   UNL     1      12.726 -34.265   0.470  1.00  0.00    -0.000 C 
BRANCH  13  14
ATOM     14  C   UNL     1      12.243 -33.312   1.575  1.00  0.00    -0.000 C 
BRANCH  14  15
ATOM     15  C   UNL     1      12.337 -31.834   1.164  1.00  0.00    -0.000 C 
BRANCH  15  16
ATOM     16  C   UNL     1      12.249 -30.917   2.393  1.00  0.00    -0.000 C 
BRANCH  16  17
ATOM     17  C   UNL     1      12.344 -31.693   3.716  1.00  0.00    -0.003 C 
ATOM     18  C   UNL     1      13.210 -30.983   4.757  1.00  0.00     0.004 C 
ENDBRANCH  16  17
ENDBRANCH  15  16
ENDBRANCH  14  15
ENDBRANCH  13  14
ENDBRANCH  12  13
ENDBRANCH  11  12
ENDBRANCH   1  11
TORSDOF 14
ENDMDL
MODEL 3
REMARK VINA RESULT:    -1.602      2.765      5.721
REMARK INTER + INTRA:          -5.036
REMARK INTER:                  -2.765
REMARK INTRA:                  -2.271
REMARK UNBOUND:                -2.122
REMARK SMILES CCCCCCCCCCCCCCCC(=O)[O-]
REMARK SMILES IDX 9 1 10 2 11 3 12 4 13 5 14 6 15 7 16 8 17 9 18 10 8 11 7 12
REMARK SMILES IDX 6 13 5 14 4 15 3 16 2 17 1 18
REMARK H PARENT
REMARK Flexibility Score: inf
ROOT
ATOM      1  C   UNL     1      16.333 -35.294  -0.065  1.00  0.00     0.000 C 
ENDROOT
BRANCH   1   2
ATOM      2  C   UNL     1      14.927 -35.418  -0.676  1.00  0.00     0.000 C 
BRANCH   2   3
ATOM      3  C   UNL     1      14.564 -34.257  -1.629  1.00  0.00     0.000 C 
BRANCH   3   4
ATOM      4  C   UNL     1      13.247 -33.569  -1.233  1.00  0.00     0.000 C 
BRANCH   4   5
ATOM      5  C   UNL     1      12.716 -34.057   0.133  1.00  0.00     0.000 C 
BRANCH   5   6
ATOM      6  C   UNL     1      12.149 -32.928   1.014  1.00  0.00     0.006 C 
BRANCH   6   7
ATOM      7  C   UNL     1      12.182 -31.543   0.353  1.00  0.00     0.053 C 
BRANCH   7   8
ATOM      8  C   UNL     1      12.253 -30.443   1.368  1.00  0.00     0.041 C 
ATOM      9  O   UNL     1      12.430 -29.250   1.004  1.00  0.00    -0.550 OA
ATOM     10  O   UNL     1      12.102 -30.733   2.718  1.00  0.00    -0.550 OA
ENDBRANCH   7   8
ENDBRANCH   6   7
ENDBRANCH   5   6
ENDBRANCH   4   5
ENDBRANCH   3   4
ENDBRANCH   2   3
ENDBRANCH   1   2
BRANCH   1  11
ATOM     11  C   UNL     1      16.420 -34.201   1.013  1.00  0.00     0.000 C 
BRANCH  11  12
ATOM     12  C   UNL     1      15.777 -34.628   2.341  1.00  0.00    -0.000 C 
BRANCH  12  13
ATOM     13  C   UNL     1      15.219 -33.435   3.137  1.00  0.00    -0.000 C 
BRANCH  13  14
ATOM     14  C   UNL     1      15.380 -32.101   2.392  1.00  0.00    -0.000 C 
BRANCH  14  15
ATOM     15  C   UNL     1      16.055 -31.021   3.251  1.00  0.00    -0.000 C 
BRANCH  15  16
ATOM     16  C   UNL     1      17.510 -30.801   2.810  1.00  0.00    -0.000 C 
BRANCH  16  17
ATOM     17  C   UNL     1      18.508 -31.633   3.631  1.00  0.00    -0.003 C 
ATOM     18  C   UNL     1      19.279 -32.641   2.780  1.00  0.00     0.004 C 
ENDBRANCH  16  17
ENDBRANCH  15  16
ENDBRANCH  14  15
ENDBRANCH  13  14
ENDBRANCH  12  13
ENDBRANCH  11  12
ENDBRANCH   1  11
TORSDOF 14
ENDMDL
MODEL 4
REMARK VINA RESULT:    -1.601      5.529      7.726
REMARK INTER + INTRA:          -5.034
REMARK INTER:                  -2.363
REMARK INTRA:                  -2.671
REMARK UNBOUND:                -2.122
REMARK SMILES CCCCCCCCCCCCCCCC(=O)[O-]
REMARK SMILES IDX 9 1 10 2 11 3 12 4 13 5 14 6 15 7 16 8 17 9 18 10 8 11 7 12
REMARK SMILES IDX 6 13 5 14 4 15 3 16 2 17 1 18
REMARK H PARENT
REMARK Flexibility Score: inf
ROOT
ATOM      1  C   UNL     1      21.624 -27.524  -1.437  1.00  0.00     0.000 C 
ENDROOT
BRANCH   1   2
ATOM      2  C   UNL     1      21.106 -26.115  -1.102  1.00  0.00     0.000 C 
BRANCH   2   3
ATOM      3  C   UNL     1      21.491 -25.636   0.314  1.00  0.00     0.000 C 
BRANCH   3   4
ATOM      4  C   UNL     1      20.446 -26.035   1.370  1.00  0.00     0.000 C 
BRANCH   4   5
ATOM      5  C   UNL     1      21.020 -27.005   2.426  1.00  0.00     0.000 C 
BRANCH   5   6
ATOM      6  C   UNL     1      22.558 -26.995   2.501  1.00  0.00     0.006 C 
BRANCH   6   7
ATOM      7  C   UNL     1      23.204 -28.369   2.275  1.00  0.00     0.053 C 
BRANCH   7   8
ATOM      8  C   UNL     1      24.094 -28.374   1.069  1.00  0.00     0.041 C 
ATOM      9  O   UNL     1      24.317 -29.447   0.447  1.00  0.00    -0.550 OA
ATOM     10  O   UNL     1      24.661 -27.189   0.619  1.00  0.00    -0.550 OA
ENDBRANCH   7   8
ENDBRANCH   6   7
ENDBRANCH   5   6
ENDBRANCH   4   5
ENDBRANCH   3   4
ENDBRANCH   2   3
ENDBRANCH   1   2
BRANCH   1  11
ATOM     11  C   UNL     1      20.491 -28.529  -1.702  1.00  0.00     0.000 C 
BRANCH  11  12
ATOM     12  C   UNL     1      19.943 -29.154  -0.409  1.00  0.00    -0.000 C 
BRANCH  12  13
ATOM     13  C   UNL     1      20.881 -30.228   0.170  1.00  0.00    -0.000 C 
BRANCH  13  14
ATOM     14  C   UNL     1      20.260 -30.976   1.360  1.00  0.00    -0.000 C 
BRANCH  14  15
ATOM     15  C   UNL     1      19.083 -30.213   1.988  1.00  0.00    -0.000 C 
BRANCH  15  16
ATOM     16  C   UNL     1      19.239 -30.125   3.514  1.00  0.00    -0.000 C 
BRANCH  16  17
ATOM     17  C   UNL     1      20.665 -30.455   3.981  1.00  0.00    -0.003 C 
ATOM     18  C   UNL     1      21.100 -29.624   5.188  1.00  0.00     0.004 C 
ENDBRANCH  16  17
ENDBRANCH  15  16
ENDBRANCH  14  15
ENDBRANCH  13  14
ENDBRANCH  12  13
ENDBRANCH  11  12
ENDBRANCH   1  11
TORSDOF 14
ENDMDL
MODEL 5
REMARK VINA RESULT:    -1.528      1.708      2.911
REMARK INTER + INTRA:          -4.901
REMARK INTER:                  -2.470
REMARK INTRA:                  -2.431
REMARK UNBOUND:                -2.122
REMARK SMILES CCCCCCCCCCCCCCCC(=O)[O-]
REMARK SMILES IDX 9 1 10 2 11 3 12 4 13 5 14 6 15 7 16 8 17 9 18 10 8 11 7 12
REMARK SMILES IDX 6 13 5 14 4 15 3 16 2 17 1 18
REMARK H PARENT
REMARK Flexibility Score: inf
ROOT
ATOM      1  C   UNL     1      14.925 -34.599   2.005  1.00  0.00     0.000 C 
ENDROOT
BRANCH   1   2
ATOM      2  C   UNL     1      13.818 -33.688   2.558  1.00  0.00     0.000 C 
BRANCH   2   3
ATOM      3  C   UNL     1      13.487 -32.491   1.641  1.00  0.00     0.000 C 
BRANCH   3   4
ATOM      4  C   UNL     1      13.711 -31.140   2.341  1.00  0.00     0.000 C 
BRANCH   4   5
ATOM      5  C   UNL     1      14.894 -31.182   3.334  1.00  0.00     0.000 C 
BRANCH   5   6
ATOM      6  C   UNL     1      16.190 -30.567   2.775  1.00  0.00     0.006 C 
BRANCH   6   7
ATOM      7  C   UNL     1      17.461 -31.010   3.513  1.00  0.00     0.053 C 
BRANCH   7   8
ATOM      8  C   UNL     1      17.896 -32.384   3.099  1.00  0.00     0.041 C 
ATOM      9  O   UNL     1      18.499 -32.559   2.008  1.00  0.00    -0.550 OA
ATOM     10  O   UNL     1      17.652 -33.469   3.932  1.00  0.00    -0.550 OA
ENDBRANCH   7   8
ENDBRANCH   6   7
ENDBRANCH   5   6
ENDBRANCH   4   5
ENDBRANCH   3   4
ENDBRANCH   2   3
ENDBRANCH   1   2
BRANCH   1  11
ATOM     11  C   UNL     1      15.597 -34.024   0.746  1.00  0.00     0.000 C 
BRANCH  11  12
ATOM     12  C   UNL     1      16.498 -35.049   0.039  1.00  0.00    -0.000 C 
BRANCH  12  13
ATOM     13  C   UNL     1      15.909 -35.526  -1.300  1.00  0.00    -0.000 C 
BRANCH  13  14
ATOM     14  C   UNL     1      14.707 -34.682  -1.751  1.00  0.00    -0.000 C 
BRANCH  14  15
ATOM     15  C   UNL     1      13.410 -35.502  -1.845  1.00  0.00    -0.000 C 
BRANCH  15  16
ATOM     16  C   UNL     1      12.347 -34.957  -0.880  1.00  0.00    -0.000 C 
BRANCH  16  17
ATOM     17  C   UNL     1      11.906 -35.997   0.162  1.00  0.00    -0.003 C 
ATOM     18  C   UNL     1      12.886 -37.164   0.285  1.00  0.00     0.004 C 
ENDBRANCH  16  17
ENDBRANCH  15  16
ENDBRANCH  14  15
ENDBRANCH  13  14
ENDBRANCH  12  13
ENDBRANCH  11  12
ENDBRANCH   1  11
TORSDOF 14
ENDMDL
MODEL 6
REMARK VINA RESULT:    -1.521      4.175      7.944
REMARK INTER + INTRA:          -4.888
REMARK INTER:                  -2.392
REMARK INTRA:                  -2.496
REMARK UNBOUND:                -2.122
REMARK SMILES CCCCCCCCCCCCCCCC(=O)[O-]
REMARK SMILES IDX 9 1 10 2 11 3 12 4 13 5 14 6 15 7 16 8 17 9 18 10 8 11 7 12
REMARK SMILES IDX 6 13 5 14 4 15 3 16 2 17 1 18
REMARK H PARENT
REMARK Flexibility Score: inf
ROOT
ATOM      1  C   UNL     1      23.343 -27.476   1.096  1.00  0.00     0.000 C 
ENDROOT
BRANCH   1   2
ATOM      2  C   UNL     1      22.469 -28.325   2.035  1.00  0.00     0.000 C 
BRANCH   2   3
ATOM      3  C   UNL     1      21.116 -27.667   2.382  1.00  0.00     0.000 C 
BRANCH   3   4
ATOM      4  C   UNL     1      20.072 -28.694   2.852  1.00  0.00     0.000 C 
BRANCH   4   5
ATOM      5  C   UNL     1      20.499 -30.147   2.548  1.00  0.00     0.000 C 
BRANCH   5   6
ATOM      6  C   UNL     1      19.350 -31.033   2.031  1.00  0.00     0.006 C 
BRANCH   6   7
ATOM      7  C   UNL     1      17.997 -30.756   2.701  1.00  0.00     0.053 C 
BRANCH   7   8
ATOM      8  C   UNL     1      17.143 -31.986   2.762  1.00  0.00     0.041 C 
ATOM      9  O   UNL     1      17.645 -33.093   3.092  1.00  0.00    -0.550 OA
ATOM     10  O   UNL     1      15.787 -31.905   2.473  1.00  0.00    -0.550 OA
ENDBRANCH   7   8
ENDBRANCH   6   7
ENDBRANCH   5   6
ENDBRANCH   4   5
ENDBRANCH   3   4
ENDBRANCH   2   3
ENDBRANCH   1   2
BRANCH   1  11
ATOM     11  C   UNL     1      22.521 -26.506   0.231  1.00  0.00     0.000 C 
BRANCH  11  12
ATOM     12  C   UNL     1      22.888 -26.589  -1.258  1.00  0.00    -0.000 C 
BRANCH  12  13
ATOM     13  C   UNL     1      21.833 -27.347  -2.084  1.00  0.00    -0.000 C 
BRANCH  13  14
ATOM     14  C   UNL     1      20.564 -27.662  -1.275  1.00  0.00    -0.000 C 
BRANCH  14  15
ATOM     15  C   UNL     1      20.360 -29.170  -1.058  1.00  0.00    -0.000 C 
BRANCH  15  16
ATOM     16  C   UNL     1      21.548 -29.968  -1.616  1.00  0.00    -0.000 C 
BRANCH  16  17
ATOM     17  C   UNL     1      22.000 -31.092  -0.669  1.00  0.00    -0.003 C 
ATOM     18  C   UNL     1      23.483 -31.001  -0.309  1.00  0.00     0.004 C 
ENDBRANCH  16  17
ENDBRANCH  15  16
ENDBRANCH  14  15
ENDBRANCH  13  14
ENDBRANCH  12  13
ENDBRANCH  11  12
ENDBRANCH   1  11
TORSDOF 14
ENDMDL
MODEL 7
REMARK VINA RESULT:    -1.514      3.174      5.354
REMARK INTER + INTRA:          -4.875
REMARK INTER:                  -2.449
REMARK INTRA:                  -2.426
REMARK UNBOUND:                -2.122
REMARK SMILES CCCCCCCCCCCCCCCC(=O)[O-]
REMARK SMILES IDX 9 1 10 2 11 3 12 4 13 5 14 6 15 7 16 8 17 9 18 10 8 11 7 12
REMARK SMILES IDX 6 13 5 14 4 15 3 16 2 17 1 18
REMARK H PARENT
REMARK Flexibility Score: inf
ROOT
ATOM      1  C   UNL     1      17.293 -31.560   2.730  1.00  0.00     0.000 C 
ENDROOT
BRANCH   1   2
ATOM      2  C   UNL     1      16.944 -32.837   3.512  1.00  0.00     0.000 C 
BRANCH   2   3
ATOM      3  C   UNL     1      17.049 -34.126   2.669  1.00  0.00     0.000 C 
BRANCH   3   4
ATOM      4  C   UNL     1      16.160 -34.077   1.415  1.00  0.00     0.000 C 
BRANCH   4   5
ATOM      5  C   UNL     1      16.770 -34.861   0.232  1.00  0.00     0.000 C 
BRANCH   5   6
ATOM      6  C   UNL     1      15.735 -35.276  -0.831  1.00  0.00     0.006 C 
BRANCH   6   7
ATOM      7  C   UNL     1      14.550 -34.309  -0.961  1.00  0.00     0.053 C 
BRANCH   7   8
ATOM      8  C   UNL     1      13.370 -34.960  -1.616  1.00  0.00     0.041 C 
ATOM      9  O   UNL     1      12.280 -34.338  -1.727  1.00  0.00    -0.550 OA
ATOM     10  O   UNL     1      13.480 -36.248  -2.124  1.00  0.00    -0.550 OA
ENDBRANCH   7   8
ENDBRANCH   6   7
ENDBRANCH   5   6
ENDBRANCH   4   5
ENDBRANCH   3   4
ENDBRANCH   2   3
ENDBRANCH   1   2
BRANCH   1  11
ATOM     11  C   UNL     1      16.172 -30.508   2.776  1.00  0.00     0.000 C 
BRANCH  11  12
ATOM     12  C   UNL     1      14.874 -31.055   3.391  1.00  0.00    -0.000 C 
BRANCH  12  13
ATOM     13  C   UNL     1      13.734 -31.162   2.362  1.00  0.00    -0.000 C 
BRANCH  13  14
ATOM     14  C   UNL     1      13.122 -32.570   2.303  1.00  0.00    -0.000 C 
BRANCH  14  15
ATOM     15  C   UNL     1      13.075 -33.254   3.678  1.00  0.00    -0.000 C 
BRANCH  15  16
ATOM     16  C   UNL     1      13.209 -34.777   3.537  1.00  0.00    -0.000 C 
BRANCH  16  17
ATOM     17  C   UNL     1      12.753 -35.285   2.160  1.00  0.00    -0.003 C 
ATOM     18  C   UNL     1      13.385 -36.626   1.785  1.00  0.00     0.004 C 
ENDBRANCH  16  17
ENDBRANCH  15  16
ENDBRANCH  14  15
ENDBRANCH  13  14
ENDBRANCH  12  13
ENDBRANCH  11  12
ENDBRANCH   1  11
TORSDOF 14
ENDMDL
MODEL 8
REMARK VINA RESULT:    -1.464      2.491      5.486
REMARK INTER + INTRA:          -4.784
REMARK INTER:                  -2.428
REMARK INTRA:                  -2.356
REMARK UNBOUND:                -2.122
REMARK SMILES CCCCCCCCCCCCCCCC(=O)[O-]
REMARK SMILES IDX 9 1 10 2 11 3 12 4 13 5 14 6 15 7 16 8 17 9 18 10 8 11 7 12
REMARK SMILES IDX 6 13 5 14 4 15 3 16 2 17 1 18
REMARK H PARENT
REMARK Flexibility Score: inf
ROOT
ATOM      1  C   UNL     1      18.112 -30.769   3.209  1.00  0.00     0.000 C 
ENDROOT
BRANCH   1   2
ATOM      2  C   UNL     1      16.644 -30.852   2.760  1.00  0.00     0.000 C 
BRANCH   2   3
ATOM      3  C   UNL     1      15.916 -32.120   3.257  1.00  0.00     0.000 C 
BRANCH   3   4
ATOM      4  C   UNL     1      14.767 -32.537   2.323  1.00  0.00     0.000 C 
BRANCH   4   5
ATOM      5  C   UNL     1      15.206 -33.597   1.289  1.00  0.00     0.000 C 
BRANCH   5   6
ATOM      6  C   UNL     1      14.113 -33.946   0.261  1.00  0.00     0.006 C 
BRANCH   6   7
ATOM      7  C   UNL     1      14.655 -34.492  -1.067  1.00  0.00     0.053 C 
BRANCH   7   8
ATOM      8  C   UNL     1      15.603 -35.634  -0.854  1.00  0.00     0.041 C 
ATOM      9  O   UNL     1      15.197 -36.712  -0.345  1.00  0.00    -0.550 OA
ATOM     10  O   UNL     1      16.932 -35.514  -1.239  1.00  0.00    -0.550 OA
ENDBRANCH   7   8
ENDBRANCH   6   7
ENDBRANCH   5   6
ENDBRANCH   4   5
ENDBRANCH   3   4
ENDBRANCH   2   3
ENDBRANCH   1   2
BRANCH   1  11
ATOM     11  C   UNL     1      18.845 -32.117   3.104  1.00  0.00     0.000 C 
BRANCH  11  12
ATOM     12  C   UNL     1      19.286 -32.438   1.668  1.00  0.00    -0.000 C 
BRANCH  12  13
ATOM     13  C   UNL     1      18.878 -33.855   1.227  1.00  0.00    -0.000 C 
BRANCH  13  14
ATOM     14  C   UNL     1      18.817 -34.844   2.402  1.00  0.00    -0.000 C 
BRANCH  14  15
ATOM     15  C   UNL     1      17.870 -36.024   2.133  1.00  0.00    -0.000 C 
BRANCH  15  16
ATOM     16  C   UNL     1      16.861 -36.188   3.279  1.00  0.00    -0.000 C 
BRANCH  16  17
ATOM     17  C   UNL     1      17.236 -35.362   4.519  1.00  0.00    -0.003 C 
ATOM     18  C   UNL     1      16.042 -35.094   5.435  1.00  0.00     0.004 C 
ENDBRANCH  16  17
ENDBRANCH  15  16
ENDBRANCH  14  15
ENDBRANCH  13  14
ENDBRANCH  12  13
ENDBRANCH  11  12
ENDBRANCH   1  11
TORSDOF 14
ENDMDL
MODEL 9
REMARK VINA RESULT:    -1.441      2.489      5.564
REMARK INTER + INTRA:          -4.743
REMARK INTER:                  -2.185
REMARK INTRA:                  -2.557
REMARK UNBOUND:                -2.122
REMARK SMILES CCCCCCCCCCCCCCCC(=O)[O-]
REMARK SMILES IDX 9 1 10 2 11 3 12 4 13 5 14 6 15 7 16 8 17 9 18 10 8 11 7 12
REMARK SMILES IDX 6 13 5 14 4 15 3 16 2 17 1 18
REMARK H PARENT
REMARK Flexibility Score: inf
ROOT
ATOM      1  C   UNL     1      15.549 -32.220   2.341  1.00  0.00     0.000 C 
ENDROOT
BRANCH   1   2
ATOM      2  C   UNL     1      14.179 -32.788   2.747  1.00  0.00     0.000 C 
BRANCH   2   3
ATOM      3  C   UNL     1      13.701 -33.950   1.849  1.00  0.00     0.000 C 
BRANCH   3   4
ATOM      4  C   UNL     1      13.464 -33.505   0.396  1.00  0.00     0.000 C 
BRANCH   4   5
ATOM      5  C   UNL     1      14.386 -34.241  -0.601  1.00  0.00     0.000 C 
BRANCH   5   6
ATOM      6  C   UNL     1      15.305 -35.284   0.063  1.00  0.00     0.006 C 
BRANCH   6   7
ATOM      7  C   UNL     1      16.799 -35.066  -0.212  1.00  0.00     0.053 C 
BRANCH   7   8
ATOM      8  C   UNL     1      17.290 -35.928  -1.336  1.00  0.00     0.041 C 
ATOM      9  O   UNL     1      16.513 -36.746  -1.897  1.00  0.00    -0.550 OA
ATOM     10  O   UNL     1      18.601 -35.812  -1.778  1.00  0.00    -0.550 OA
ENDBRANCH   7   8
ENDBRANCH   6   7
ENDBRANCH   5   6
ENDBRANCH   4   5
ENDBRANCH   3   4
ENDBRANCH   2   3
ENDBRANCH   1   2
BRANCH   1  11
ATOM     11  C   UNL     1      16.233 -31.445   3.479  1.00  0.00     0.000 C 
BRANCH  11  12
ATOM     12  C   UNL     1      17.709 -31.836   3.655  1.00  0.00    -0.000 C 
BRANCH  12  13
ATOM     13  C   UNL     1      18.305 -32.475   2.388  1.00  0.00    -0.000 C 
BRANCH  13  14
ATOM     14  C   UNL     1      18.818 -33.903   2.632  1.00  0.00    -0.000 C 
BRANCH  14  15
ATOM     15  C   UNL     1      18.164 -34.566   3.853  1.00  0.00    -0.000 C 
BRANCH  15  16
ATOM     16  C   UNL     1      17.087 -35.571   3.419  1.00  0.00    -0.000 C 
BRANCH  16  17
ATOM     17  C   UNL     1      15.929 -35.666   4.425  1.00  0.00    -0.003 C 
ATOM     18  C   UNL     1      15.977 -34.569   5.488  1.00  0.00     0.004 C 
ENDBRANCH  16  17
ENDBRANCH  15  16
ENDBRANCH  14  15
ENDBRANCH  13  14
ENDBRANCH  12  13
ENDBRANCH  11  12
ENDBRANCH   1  11
TORSDOF 14
ENDMDL
