MODEL 1
REMARK VINA RESULT:    -6.342      0.000      0.000
REMARK INTER + INTRA:         -10.619
REMARK INTER:                  -9.308
REMARK INTRA:                  -1.311
REMARK UNBOUND:                -1.311
REMARK SMILES O=c1c(O[C@@H]2O[C@H](CO)[C@@H](O)[C@H](O)[C@H]2O)c(-c2ccc(O)c(O)c2)oc2cc(O)cc(O)c12
REMARK SMILES IDX 4 1 3 2 16 3 25 4 2 5 26 6 1 7 33 8 27 9 31 10 28 11 30 12
REMARK SMILES IDX 17 13 18 14 19 15 20 16 24 17 22 18 21 19 23 21 32 23 29 25
REMARK SMILES IDX 5 27 14 28 6 29 12 30 7 31 10 32 15 33 13 35 8 37 9 38 11 40
REMARK H PARENT 21 20 23 22 32 24 29 26 15 34 13 36 9 39 11 41
REMARK Flexibility Score: inf
ROOT
ATOM      1  O   UNL     1      17.859  42.800  75.929  1.00  0.00    -0.454 OA
ENDROOT
BRANCH   1   2
ATOM      2  C   UNL     1      18.290  41.602  76.512  1.00  0.00     0.214 A 
ATOM      3  C   UNL     1      18.828  41.566  77.810  1.00  0.00     0.180 A 
ATOM      4  O   UNL     1      19.286  40.422  78.305  1.00  0.00    -0.452 OA
ATOM      5  C   UNL     1      18.197  40.411  75.782  1.00  0.00     0.239 A 
ATOM      6  C   UNL     1      19.250  39.274  77.637  1.00  0.00     0.146 A 
ATOM      7  O   UNL     1      17.628  40.439  74.659  1.00  0.00    -0.285 OA
ATOM      8  C   UNL     1      18.724  39.212  76.319  1.00  0.00     0.111 A 
ATOM      9  C   UNL     1      19.726  38.122  78.267  1.00  0.00     0.094 A 
ATOM     10  C   UNL     1      18.736  37.956  75.640  1.00  0.00     0.134 A 
ATOM     11  C   UNL     1      19.676  36.888  77.615  1.00  0.00     0.123 A 
ATOM     12  C   UNL     1      19.179  36.811  76.314  1.00  0.00     0.093 A 
BRANCH   3  13
ATOM     13  C   UNL     1      18.875  42.766  78.672  1.00  0.00     0.025 A 
ATOM     14  C   UNL     1      19.960  43.651  78.582  1.00  0.00     0.016 A 
ATOM     15  C   UNL     1      20.027  44.770  79.416  1.00  0.00     0.051 A 
ATOM     16  C   UNL     1      19.025  45.008  80.364  1.00  0.00     0.157 A 
ATOM     17  C   UNL     1      17.875  42.999  79.632  1.00  0.00     0.062 A 
ATOM     18  C   UNL     1      17.949  44.112  80.481  1.00  0.00     0.158 A 
BRANCH  16  19
ATOM     19  O   UNL     1      19.121  46.131  81.184  1.00  0.00    -0.504 OA
ATOM     20  H   UNL     1      20.016  46.528  81.449  1.00  0.00     0.293 HD
ENDBRANCH  16  19
BRANCH  18  21
ATOM     21  O   UNL     1      16.962  44.326  81.444  1.00  0.00    -0.504 OA
ATOM     22  H   UNL     1      16.489  43.555  81.897  1.00  0.00     0.293 HD
ENDBRANCH  18  21
ENDBRANCH   3  13
BRANCH  10  23
ATOM     23  O   UNL     1      18.357  37.787  74.306  1.00  0.00    -0.507 OA
ATOM     24  H   UNL     1      17.677  38.356  73.827  1.00  0.00     0.293 HD
ENDBRANCH  10  23
BRANCH  11  25
ATOM     25  O   UNL     1      20.125  35.732  78.249  1.00  0.00    -0.508 OA
ATOM     26  H   UNL     1      19.866  35.517  79.205  1.00  0.00     0.293 HD
ENDBRANCH  11  25
ENDBRANCH   1   2
BRANCH   1  27
ATOM     27  C   UNL     1      18.566  43.429  74.855  1.00  0.00     0.339 C 
ATOM     28  C   UNL     1      17.644  43.582  73.624  1.00  0.00     0.214 C 
ATOM     29  O   UNL     1      19.131  44.654  75.296  1.00  0.00    -0.332 OA
ATOM     30  C   UNL     1      16.509  44.612  73.865  1.00  0.00     0.180 C 
ATOM     31  C   UNL     1      18.248  45.775  75.327  1.00  0.00     0.179 C 
ATOM     32  C   UNL     1      16.738  45.439  75.150  1.00  0.00     0.177 C 
BRANCH  28  33
ATOM     33  O   UNL     1      18.398  43.921  72.485  1.00  0.00    -0.384 OA
ATOM     34  H   UNL     1      19.087  44.577  72.759  1.00  0.00     0.211 HD
ENDBRANCH  28  33
BRANCH  30  35
ATOM     35  O   UNL     1      15.251  43.981  73.910  1.00  0.00    -0.387 OA
ATOM     36  H   UNL     1      15.049  43.776  74.860  1.00  0.00     0.211 HD
ENDBRANCH  30  35
BRANCH  31  37
ATOM     37  C   UNL     1      18.496  46.533  76.643  1.00  0.00     0.191 C 
BRANCH  37  38
ATOM     38  O   UNL     1      17.927  47.815  76.606  1.00  0.00    -0.394 OA
ATOM     39  H   UNL     1      17.614  47.964  75.675  1.00  0.00     0.210 HD
ENDBRANCH  37  38
ENDBRANCH  31  37
BRANCH  32  40
ATOM     40  O   UNL     1      15.946  46.603  75.125  1.00  0.00    -0.387 OA
ATOM     41  H   UNL     1      16.546  47.376  74.959  1.00  0.00     0.211 HD
ENDBRANCH  32  40
ENDBRANCH   1  27
TORSDOF 12
ENDMDL
MODEL 2
REMARK VINA RESULT:    -6.312     16.257     19.726
REMARK INTER + INTRA:         -10.576
REMARK INTER:                  -9.402
REMARK INTRA:                  -1.174
REMARK UNBOUND:                -1.311
REMARK SMILES O=c1c(O[C@@H]2O[C@H](CO)[C@@H](O)[C@H](O)[C@H]2O)c(-c2ccc(O)c(O)c2)oc2cc(O)cc(O)c12
REMARK SMILES IDX 4 1 3 2 16 3 25 4 2 5 26 6 1 7 33 8 27 9 31 10 28 11 30 12
REMARK SMILES IDX 17 13 18 14 19 15 20 16 24 17 22 18 21 19 23 21 32 23 29 25
REMARK SMILES IDX 5 27 14 28 6 29 12 30 7 31 10 32 15 33 13 35 8 37 9 38 11 40
REMARK H PARENT 21 20 23 22 32 24 29 26 15 34 13 36 9 39 11 41
REMARK Flexibility Score: inf
ROOT
ATOM      1  O   UNL     1       4.846  32.456  70.477  1.00  0.00    -0.454 OA
ENDROOT
BRANCH   1   2
ATOM      2  C   UNL     1       4.153  33.189  69.507  1.00  0.00     0.214 A 
ATOM      3  C   UNL     1       4.772  33.604  68.314  1.00  0.00     0.180 A 
ATOM      4  O   UNL     1       4.101  34.354  67.447  1.00  0.00    -0.452 OA
ATOM      5  C   UNL     1       2.814  33.532  69.732  1.00  0.00     0.239 A 
ATOM      6  C   UNL     1       2.841  34.732  67.634  1.00  0.00     0.146 A 
ATOM      7  O   UNL     1       2.243  33.076  70.757  1.00  0.00    -0.285 OA
ATOM      8  C   UNL     1       2.133  34.360  68.807  1.00  0.00     0.111 A 
ATOM      9  C   UNL     1       2.219  35.489  66.639  1.00  0.00     0.094 A 
ATOM     10  C   UNL     1       0.790  34.818  68.965  1.00  0.00     0.134 A 
ATOM     11  C   UNL     1       0.885  35.879  66.777  1.00  0.00     0.123 A 
ATOM     12  C   UNL     1       0.180  35.538  67.932  1.00  0.00     0.093 A 
BRANCH   3  13
ATOM     13  C   UNL     1       6.152  33.205  67.968  1.00  0.00     0.025 A 
ATOM     14  C   UNL     1       7.235  33.997  68.381  1.00  0.00     0.016 A 
ATOM     15  C   UNL     1       8.540  33.642  68.031  1.00  0.00     0.051 A 
ATOM     16  C   UNL     1       8.780  32.509  67.246  1.00  0.00     0.157 A 
ATOM     17  C   UNL     1       6.392  32.073  67.170  1.00  0.00     0.062 A 
ATOM     18  C   UNL     1       7.700  31.725  66.804  1.00  0.00     0.158 A 
BRANCH  16  19
ATOM     19  O   UNL     1      10.093  32.183  66.909  1.00  0.00    -0.504 OA
ATOM     20  H   UNL     1      10.379  31.229  66.721  1.00  0.00     0.293 HD
ENDBRANCH  16  19
BRANCH  18  21
ATOM     21  O   UNL     1       7.929  30.611  65.996  1.00  0.00    -0.504 OA
ATOM     22  H   UNL     1       8.308  30.704  65.062  1.00  0.00     0.293 HD
ENDBRANCH  18  21
ENDBRANCH   3  13
BRANCH  10  23
ATOM     23  O   UNL     1       0.029  34.620  70.121  1.00  0.00    -0.507 OA
ATOM     24  H   UNL     1       0.340  34.106  70.930  1.00  0.00     0.293 HD
ENDBRANCH  10  23
BRANCH  11  25
ATOM     25  O   UNL     1       0.252  36.613  65.776  1.00  0.00    -0.508 OA
ATOM     26  H   UNL     1       0.152  36.248  64.836  1.00  0.00     0.293 HD
ENDBRANCH  11  25
ENDBRANCH   1   2
BRANCH   1  27
ATOM     27  C   UNL     1       5.354  31.141  70.226  1.00  0.00     0.339 C 
ATOM     28  C   UNL     1       6.842  31.054  70.635  1.00  0.00     0.214 C 
ATOM     29  O   UNL     1       4.534  30.173  70.863  1.00  0.00    -0.332 OA
ATOM     30  C   UNL     1       7.034  31.151  72.173  1.00  0.00     0.180 C 
ATOM     31  C   UNL     1       4.775  29.965  72.254  1.00  0.00     0.179 C 
ATOM     32  C   UNL     1       5.696  31.020  72.936  1.00  0.00     0.177 C 
BRANCH  28  33
ATOM     33  O   UNL     1       7.423  29.877  70.128  1.00  0.00    -0.384 OA
ATOM     34  H   UNL     1       6.722  29.376  69.640  1.00  0.00     0.211 HD
ENDBRANCH  28  33
BRANCH  30  35
ATOM     35  O   UNL     1       7.683  32.348  72.530  1.00  0.00    -0.387 OA
ATOM     36  H   UNL     1       7.726  32.921  71.720  1.00  0.00     0.211 HD
ENDBRANCH  30  35
BRANCH  31  37
ATOM     37  C   UNL     1       3.410  29.884  72.962  1.00  0.00     0.191 C 
BRANCH  37  38
ATOM     38  O   UNL     1       2.387  30.396  72.150  1.00  0.00    -0.394 OA
ATOM     39  H   UNL     1       2.650  31.321  71.904  1.00  0.00     0.210 HD
ENDBRANCH  37  38
ENDBRANCH  31  37
BRANCH  32  40
ATOM     40  O   UNL     1       5.938  30.705  74.287  1.00  0.00    -0.387 OA
ATOM     41  H   UNL     1       6.817  30.248  74.339  1.00  0.00     0.211 HD
ENDBRANCH  32  40
ENDBRANCH   1  27
TORSDOF 12
ENDMDL
MODEL 3
REMARK VINA RESULT:    -5.685     16.208     19.514
REMARK INTER + INTRA:          -9.655
REMARK INTER:                  -9.577
REMARK INTRA:                  -0.077
REMARK UNBOUND:                -1.311
REMARK SMILES O=c1c(O[C@@H]2O[C@H](CO)[C@@H](O)[C@H](O)[C@H]2O)c(-c2ccc(O)c(O)c2)oc2cc(O)cc(O)c12
REMARK SMILES IDX 4 1 3 2 16 3 25 4 2 5 26 6 1 7 33 8 27 9 31 10 28 11 30 12
REMARK SMILES IDX 17 13 18 14 19 15 20 16 24 17 22 18 21 19 23 21 32 23 29 25
REMARK SMILES IDX 5 27 14 28 6 29 12 30 7 31 10 32 15 33 13 35 8 37 9 38 11 40
REMARK H PARENT 21 20 23 22 32 24 29 26 15 34 13 36 9 39 11 41
REMARK Flexibility Score: inf
ROOT
ATOM      1  O   UNL     1       4.473  31.585  69.786  1.00  0.00    -0.454 OA
ENDROOT
BRANCH   1   2
ATOM      2  C   UNL     1       3.895  32.554  68.956  1.00  0.00     0.214 A 
ATOM      3  C   UNL     1       4.611  33.136  67.894  1.00  0.00     0.180 A 
ATOM      4  O   UNL     1       4.051  34.098  67.170  1.00  0.00    -0.452 OA
ATOM      5  C   UNL     1       2.579  32.966  69.195  1.00  0.00     0.239 A 
ATOM      6  C   UNL     1       2.819  34.546  67.381  1.00  0.00     0.146 A 
ATOM      7  O   UNL     1       1.918  32.373  70.086  1.00  0.00    -0.285 OA
ATOM      8  C   UNL     1       2.020  34.018  68.429  1.00  0.00     0.111 A 
ATOM      9  C   UNL     1       2.315  35.536  66.534  1.00  0.00     0.094 A 
ATOM     10  C   UNL     1       0.712  34.556  68.625  1.00  0.00     0.134 A 
ATOM     11  C   UNL     1       1.013  36.012  66.698  1.00  0.00     0.123 A 
ATOM     12  C   UNL     1       0.220  35.517  67.734  1.00  0.00     0.093 A 
BRANCH   3  13
ATOM     13  C   UNL     1       5.971  32.688  67.527  1.00  0.00     0.025 A 
ATOM     14  C   UNL     1       7.078  33.498  67.823  1.00  0.00     0.016 A 
ATOM     15  C   UNL     1       8.363  33.095  67.451  1.00  0.00     0.051 A 
ATOM     16  C   UNL     1       8.557  31.894  66.760  1.00  0.00     0.157 A 
ATOM     17  C   UNL     1       6.164  31.487  66.823  1.00  0.00     0.062 A 
ATOM     18  C   UNL     1       7.451  31.090  66.435  1.00  0.00     0.158 A 
BRANCH  16  19
ATOM     19  O   UNL     1       9.851  31.521  66.399  1.00  0.00    -0.504 OA
ATOM     20  H   UNL     1      10.058  31.099  65.501  1.00  0.00     0.293 HD
ENDBRANCH  16  19
BRANCH  18  21
ATOM     21  O   UNL     1       7.634  29.906  65.720  1.00  0.00    -0.504 OA
ATOM     22  H   UNL     1       7.755  29.018  66.189  1.00  0.00     0.293 HD
ENDBRANCH  18  21
ENDBRANCH   3  13
BRANCH  10  23
ATOM     23  O   UNL     1      -0.124  34.206  69.689  1.00  0.00    -0.507 OA
ATOM     24  H   UNL     1      -0.285  33.264  70.005  1.00  0.00     0.293 HD
ENDBRANCH  10  23
BRANCH  11  25
ATOM     25  O   UNL     1       0.498  36.981  65.840  1.00  0.00    -0.508 OA
ATOM     26  H   UNL     1      -0.498  37.065  65.672  1.00  0.00     0.293 HD
ENDBRANCH  11  25
ENDBRANCH   1   2
BRANCH   1  27
ATOM     27  C   UNL     1       4.373  31.639  71.213  1.00  0.00     0.339 C 
ATOM     28  C   UNL     1       5.615  30.986  71.861  1.00  0.00     0.214 C 
ATOM     29  O   UNL     1       4.150  32.975  71.635  1.00  0.00    -0.332 OA
ATOM     30  C   UNL     1       6.904  31.819  71.630  1.00  0.00     0.180 C 
ATOM     31  C   UNL     1       5.306  33.808  71.718  1.00  0.00     0.179 C 
ATOM     32  C   UNL     1       6.595  33.225  71.066  1.00  0.00     0.177 C 
BRANCH  28  33
ATOM     33  O   UNL     1       5.395  30.770  73.234  1.00  0.00    -0.384 OA
ATOM     34  H   UNL     1       6.246  30.459  73.635  1.00  0.00     0.211 HD
ENDBRANCH  28  33
BRANCH  30  35
ATOM     35  O   UNL     1       7.802  31.142  70.783  1.00  0.00    -0.387 OA
ATOM     36  H   UNL     1       7.963  31.718  69.991  1.00  0.00     0.211 HD
ENDBRANCH  30  35
BRANCH  31  37
ATOM     37  C   UNL     1       4.948  35.174  71.107  1.00  0.00     0.191 C 
BRANCH  37  38
ATOM     38  O   UNL     1       5.806  35.497  70.045  1.00  0.00    -0.394 OA
ATOM     39  H   UNL     1       6.651  34.997  70.197  1.00  0.00     0.210 HD
ENDBRANCH  37  38
ENDBRANCH  31  37
BRANCH  32  40
ATOM     40  O   UNL     1       7.702  34.075  71.251  1.00  0.00    -0.387 OA
ATOM     41  H   UNL     1       7.627  34.817  70.597  1.00  0.00     0.211 HD
ENDBRANCH  32  40
ENDBRANCH   1  27
TORSDOF 12
ENDMDL
MODEL 4
REMARK VINA RESULT:    -5.661     17.276     20.111
REMARK INTER + INTRA:          -9.620
REMARK INTER:                  -8.831
REMARK INTRA:                  -0.788
REMARK UNBOUND:                -1.311
REMARK SMILES O=c1c(O[C@@H]2O[C@H](CO)[C@@H](O)[C@H](O)[C@H]2O)c(-c2ccc(O)c(O)c2)oc2cc(O)cc(O)c12
REMARK SMILES IDX 4 1 3 2 16 3 25 4 2 5 26 6 1 7 33 8 27 9 31 10 28 11 30 12
REMARK SMILES IDX 17 13 18 14 19 15 20 16 24 17 22 18 21 19 23 21 32 23 29 25
REMARK SMILES IDX 5 27 14 28 6 29 12 30 7 31 10 32 15 33 13 35 8 37 9 38 11 40
REMARK H PARENT 21 20 23 22 32 24 29 26 15 34 13 36 9 39 11 41
REMARK Flexibility Score: inf
ROOT
ATOM      1  O   UNL     1       3.298  32.319  70.828  1.00  0.00    -0.454 OA
ENDROOT
BRANCH   1   2
ATOM      2  C   UNL     1       4.400  32.490  69.981  1.00  0.00     0.214 A 
ATOM      3  C   UNL     1       4.394  33.445  68.949  1.00  0.00     0.180 A 
ATOM      4  O   UNL     1       5.432  33.535  68.125  1.00  0.00    -0.452 OA
ATOM      5  C   UNL     1       5.531  31.684  70.154  1.00  0.00     0.239 A 
ATOM      6  C   UNL     1       6.512  32.769  68.229  1.00  0.00     0.146 A 
ATOM      7  O   UNL     1       5.563  30.900  71.138  1.00  0.00    -0.285 OA
ATOM      8  C   UNL     1       6.609  31.777  69.242  1.00  0.00     0.111 A 
ATOM      9  C   UNL     1       7.563  32.973  67.332  1.00  0.00     0.094 A 
ATOM     10  C   UNL     1       7.783  30.965  69.288  1.00  0.00     0.134 A 
ATOM     11  C   UNL     1       8.731  32.214  67.426  1.00  0.00     0.123 A 
ATOM     12  C   UNL     1       8.837  31.223  68.403  1.00  0.00     0.093 A 
BRANCH   3  13
ATOM     13  C   UNL     1       3.273  34.390  68.762  1.00  0.00     0.025 A 
ATOM     14  C   UNL     1       2.772  35.108  69.859  1.00  0.00     0.016 A 
ATOM     15  C   UNL     1       1.692  35.979  69.696  1.00  0.00     0.051 A 
ATOM     16  C   UNL     1       1.084  36.128  68.444  1.00  0.00     0.157 A 
ATOM     17  C   UNL     1       2.655  34.530  67.508  1.00  0.00     0.062 A 
ATOM     18  C   UNL     1       1.560  35.391  67.346  1.00  0.00     0.158 A 
BRANCH  16  19
ATOM     19  O   UNL     1       0.005  37.001  68.314  1.00  0.00    -0.504 OA
ATOM     20  H   UNL     1      -0.949  36.706  68.486  1.00  0.00     0.293 HD
ENDBRANCH  16  19
BRANCH  18  21
ATOM     21  O   UNL     1       0.940  35.510  66.102  1.00  0.00    -0.504 OA
ATOM     22  H   UNL     1       0.108  36.074  65.977  1.00  0.00     0.293 HD
ENDBRANCH  18  21
ENDBRANCH   3  13
BRANCH  10  23
ATOM     23  O   UNL     1       7.949  29.884  70.157  1.00  0.00    -0.507 OA
ATOM     24  H   UNL     1       7.671  29.879  71.125  1.00  0.00     0.293 HD
ENDBRANCH  10  23
BRANCH  11  25
ATOM     25  O   UNL     1       9.792  32.432  66.549  1.00  0.00    -0.508 OA
ATOM     26  H   UNL     1       9.911  33.318  66.072  1.00  0.00     0.293 HD
ENDBRANCH  11  25
ENDBRANCH   1   2
BRANCH   1  27
ATOM     27  C   UNL     1       2.710  31.036  71.071  1.00  0.00     0.339 C 
ATOM     28  C   UNL     1       1.282  31.201  71.638  1.00  0.00     0.214 C 
ATOM     29  O   UNL     1       2.766  30.244  69.894  1.00  0.00    -0.332 OA
ATOM     30  C   UNL     1       0.296  31.776  70.586  1.00  0.00     0.180 C 
ATOM     31  C   UNL     1       1.747  30.490  68.925  1.00  0.00     0.179 C 
ATOM     32  C   UNL     1       0.898  31.774  69.162  1.00  0.00     0.177 C 
BRANCH  28  33
ATOM     33  O   UNL     1       0.813  29.977  72.150  1.00  0.00    -0.384 OA
ATOM     34  H   UNL     1       1.272  29.811  73.012  1.00  0.00     0.211 HD
ENDBRANCH  28  33
BRANCH  30  35
ATOM     35  O   UNL     1      -0.121  33.074  70.936  1.00  0.00    -0.387 OA
ATOM     36  H   UNL     1       0.446  33.381  71.691  1.00  0.00     0.211 HD
ENDBRANCH  30  35
BRANCH  31  37
ATOM     37  C   UNL     1       2.413  30.516  67.538  1.00  0.00     0.191 C 
BRANCH  37  38
ATOM     38  O   UNL     1       1.457  30.443  66.514  1.00  0.00    -0.394 OA
ATOM     39  H   UNL     1       0.662  29.986  66.896  1.00  0.00     0.210 HD
ENDBRANCH  37  38
ENDBRANCH  31  37
BRANCH  32  40
ATOM     40  O   UNL     1      -0.125  31.906  68.203  1.00  0.00    -0.387 OA
ATOM     41  H   UNL     1      -0.450  30.996  67.980  1.00  0.00     0.211 HD
ENDBRANCH  32  40
ENDBRANCH   1  27
TORSDOF 12
ENDMDL
MODEL 5
REMARK VINA RESULT:    -5.476      3.637      5.929
REMARK INTER + INTRA:          -9.349
REMARK INTER:                  -8.310
REMARK INTRA:                  -1.039
REMARK UNBOUND:                -1.311
REMARK SMILES O=c1c(O[C@@H]2O[C@H](CO)[C@@H](O)[C@H](O)[C@H]2O)c(-c2ccc(O)c(O)c2)oc2cc(O)cc(O)c12
REMARK SMILES IDX 4 1 3 2 16 3 25 4 2 5 26 6 1 7 33 8 27 9 31 10 28 11 30 12
REMARK SMILES IDX 17 13 18 14 19 15 20 16 24 17 22 18 21 19 23 21 32 23 29 25
REMARK SMILES IDX 5 27 14 28 6 29 12 30 7 31 10 32 15 33 13 35 8 37 9 38 11 40
REMARK H PARENT 21 20 23 22 32 24 29 26 15 34 13 36 9 39 11 41
REMARK Flexibility Score: inf
ROOT
ATOM      1  O   UNL     1      16.850  46.272  74.276  1.00  0.00    -0.454 OA
ENDROOT
BRANCH   1   2
ATOM      2  C   UNL     1      16.613  44.893  74.216  1.00  0.00     0.214 A 
ATOM      3  C   UNL     1      15.320  44.361  74.369  1.00  0.00     0.180 A 
ATOM      4  O   UNL     1      15.144  43.045  74.371  1.00  0.00    -0.452 OA
ATOM      5  C   UNL     1      17.688  44.020  74.012  1.00  0.00     0.239 A 
ATOM      6  C   UNL     1      16.137  42.176  74.215  1.00  0.00     0.146 A 
ATOM      7  O   UNL     1      18.824  44.511  73.782  1.00  0.00    -0.285 OA
ATOM      8  C   UNL     1      17.476  42.620  74.052  1.00  0.00     0.111 A 
ATOM      9  C   UNL     1      15.833  40.813  74.196  1.00  0.00     0.094 A 
ATOM     10  C   UNL     1      18.506  41.641  73.916  1.00  0.00     0.134 A 
ATOM     11  C   UNL     1      16.842  39.867  74.001  1.00  0.00     0.123 A 
ATOM     12  C   UNL     1      18.165  40.284  73.857  1.00  0.00     0.093 A 
BRANCH   3  13
ATOM     13  C   UNL     1      14.128  45.224  74.498  1.00  0.00     0.025 A 
ATOM     14  C   UNL     1      14.090  46.468  73.848  1.00  0.00     0.016 A 
ATOM     15  C   UNL     1      12.979  47.302  73.991  1.00  0.00     0.051 A 
ATOM     16  C   UNL     1      11.904  46.919  74.802  1.00  0.00     0.157 A 
ATOM     17  C   UNL     1      13.054  44.844  75.321  1.00  0.00     0.062 A 
ATOM     18  C   UNL     1      11.945  45.688  75.479  1.00  0.00     0.158 A 
BRANCH  16  19
ATOM     19  O   UNL     1      10.811  47.775  74.928  1.00  0.00    -0.504 OA
ATOM     20  H   UNL     1      10.217  48.009  74.141  1.00  0.00     0.293 HD
ENDBRANCH  16  19
BRANCH  18  21
ATOM     21  O   UNL     1      10.892  45.313  76.312  1.00  0.00    -0.504 OA
ATOM     22  H   UNL     1      10.777  45.715  77.234  1.00  0.00     0.293 HD
ENDBRANCH  18  21
ENDBRANCH   3  13
BRANCH  10  23
ATOM     23  O   UNL     1      19.869  41.944  73.867  1.00  0.00    -0.507 OA
ATOM     24  H   UNL     1      20.377  42.163  73.025  1.00  0.00     0.293 HD
ENDBRANCH  10  23
BRANCH  11  25
ATOM     25  O   UNL     1      16.540  38.507  73.955  1.00  0.00    -0.508 OA
ATOM     26  H   UNL     1      16.187  38.072  73.111  1.00  0.00     0.293 HD
ENDBRANCH  11  25
ENDBRANCH   1   2
BRANCH   1  27
ATOM     27  C   UNL     1      17.136  46.948  75.504  1.00  0.00     0.339 C 
ATOM     28  C   UNL     1      18.662  47.095  75.692  1.00  0.00     0.214 C 
ATOM     29  O   UNL     1      16.437  48.183  75.553  1.00  0.00    -0.332 OA
ATOM     30  C   UNL     1      19.288  48.080  74.668  1.00  0.00     0.180 C 
ATOM     31  C   UNL     1      17.039  49.271  74.853  1.00  0.00     0.179 C 
ATOM     32  C   UNL     1      18.213  48.886  73.905  1.00  0.00     0.177 C 
BRANCH  28  33
ATOM     33  O   UNL     1      18.959  47.486  77.011  1.00  0.00    -0.384 OA
ATOM     34  H   UNL     1      18.145  47.895  77.400  1.00  0.00     0.211 HD
ENDBRANCH  28  33
BRANCH  30  35
ATOM     35  O   UNL     1      20.125  47.404  73.760  1.00  0.00    -0.387 OA
ATOM     36  H   UNL     1      20.681  46.765  74.278  1.00  0.00     0.211 HD
ENDBRANCH  30  35
BRANCH  31  37
ATOM     37  C   UNL     1      15.927  50.008  74.084  1.00  0.00     0.191 C 
BRANCH  37  38
ATOM     38  O   UNL     1      15.852  49.569  72.754  1.00  0.00    -0.394 OA
ATOM     39  H   UNL     1      14.908  49.307  72.590  1.00  0.00     0.210 HD
ENDBRANCH  37  38
ENDBRANCH  31  37
BRANCH  32  40
ATOM     40  O   UNL     1      18.792  50.022  73.307  1.00  0.00    -0.387 OA
ATOM     41  H   UNL     1      19.523  50.337  73.900  1.00  0.00     0.211 HD
ENDBRANCH  32  40
ENDBRANCH   1  27
TORSDOF 12
ENDMDL
MODEL 6
REMARK VINA RESULT:    -5.239      3.184      5.646
REMARK INTER + INTRA:          -9.001
REMARK INTER:                  -8.413
REMARK INTRA:                  -0.588
REMARK UNBOUND:                -1.311
REMARK SMILES O=c1c(O[C@@H]2O[C@H](CO)[C@@H](O)[C@H](O)[C@H]2O)c(-c2ccc(O)c(O)c2)oc2cc(O)cc(O)c12
REMARK SMILES IDX 4 1 3 2 16 3 25 4 2 5 26 6 1 7 33 8 27 9 31 10 28 11 30 12
REMARK SMILES IDX 17 13 18 14 19 15 20 16 24 17 22 18 21 19 23 21 32 23 29 25
REMARK SMILES IDX 5 27 14 28 6 29 12 30 7 31 10 32 15 33 13 35 8 37 9 38 11 40
REMARK H PARENT 21 20 23 22 32 24 29 26 15 34 13 36 9 39 11 41
REMARK Flexibility Score: inf
ROOT
ATOM      1  O   UNL     1      16.796  45.969  75.376  1.00  0.00    -0.454 OA
ENDROOT
BRANCH   1   2
ATOM      2  C   UNL     1      16.583  44.630  75.030  1.00  0.00     0.214 A 
ATOM      3  C   UNL     1      15.298  44.142  74.730  1.00  0.00     0.180 A 
ATOM      4  O   UNL     1      15.126  42.851  74.470  1.00  0.00    -0.452 OA
ATOM      5  C   UNL     1      17.670  43.749  74.992  1.00  0.00     0.239 A 
ATOM      6  C   UNL     1      16.121  41.971  74.457  1.00  0.00     0.146 A 
ATOM      7  O   UNL     1      18.825  44.215  75.169  1.00  0.00    -0.285 OA
ATOM      8  C   UNL     1      17.453  42.372  74.745  1.00  0.00     0.111 A 
ATOM      9  C   UNL     1      15.833  40.644  74.133  1.00  0.00     0.094 A 
ATOM     10  C   UNL     1      18.478  41.377  74.742  1.00  0.00     0.134 A 
ATOM     11  C   UNL     1      16.854  39.692  74.074  1.00  0.00     0.123 A 
ATOM     12  C   UNL     1      18.165  40.064  74.371  1.00  0.00     0.093 A 
BRANCH   3  13
ATOM     13  C   UNL     1      14.119  45.030  74.663  1.00  0.00     0.025 A 
ATOM     14  C   UNL     1      14.164  46.196  73.883  1.00  0.00     0.016 A 
ATOM     15  C   UNL     1      13.064  47.056  73.840  1.00  0.00     0.051 A 
ATOM     16  C   UNL     1      11.916  46.777  74.589  1.00  0.00     0.157 A 
ATOM     17  C   UNL     1      12.970  44.756  75.425  1.00  0.00     0.062 A 
ATOM     18  C   UNL     1      11.872  45.626  75.395  1.00  0.00     0.158 A 
BRANCH  16  19
ATOM     19  O   UNL     1      10.836  47.657  74.529  1.00  0.00    -0.504 OA
ATOM     20  H   UNL     1      10.743  48.343  73.788  1.00  0.00     0.293 HD
ENDBRANCH  16  19
BRANCH  18  21
ATOM     21  O   UNL     1      10.743  45.358  76.169  1.00  0.00    -0.504 OA
ATOM     22  H   UNL     1       9.853  45.800  75.978  1.00  0.00     0.293 HD
ENDBRANCH  18  21
ENDBRANCH   3  13
BRANCH  10  23
ATOM     23  O   UNL     1      19.801  41.620  75.122  1.00  0.00    -0.507 OA
ATOM     24  H   UNL     1      20.610  41.264  74.639  1.00  0.00     0.293 HD
ENDBRANCH  10  23
BRANCH  11  25
ATOM     25  O   UNL     1      16.575  38.373  73.726  1.00  0.00    -0.508 OA
ATOM     26  H   UNL     1      17.303  37.742  73.411  1.00  0.00     0.293 HD
ENDBRANCH  11  25
ENDBRANCH   1   2
BRANCH   1  27
ATOM     27  C   UNL     1      17.553  46.863  74.553  1.00  0.00     0.339 C 
ATOM     28  C   UNL     1      16.768  48.175  74.323  1.00  0.00     0.214 C 
ATOM     29  O   UNL     1      18.842  47.064  75.111  1.00  0.00    -0.332 OA
ATOM     30  C   UNL     1      16.639  49.016  75.622  1.00  0.00     0.180 C 
ATOM     31  C   UNL     1      18.925  48.020  76.168  1.00  0.00     0.179 C 
ATOM     32  C   UNL     1      17.559  48.492  76.748  1.00  0.00     0.177 C 
BRANCH  28  33
ATOM     33  O   UNL     1      17.361  48.928  73.293  1.00  0.00    -0.384 OA
ATOM     34  H   UNL     1      17.659  48.299  72.588  1.00  0.00     0.211 HD
ENDBRANCH  28  33
BRANCH  30  35
ATOM     35  O   UNL     1      15.304  49.063  76.066  1.00  0.00    -0.387 OA
ATOM     36  H   UNL     1      14.717  48.959  75.273  1.00  0.00     0.211 HD
ENDBRANCH  30  35
BRANCH  31  37
ATOM     37  C   UNL     1      19.818  47.426  77.271  1.00  0.00     0.191 C 
BRANCH  37  38
ATOM     38  O   UNL     1      19.579  46.053  77.434  1.00  0.00    -0.394 OA
ATOM     39  H   UNL     1      20.402  45.581  77.138  1.00  0.00     0.210 HD
ENDBRANCH  37  38
ENDBRANCH  31  37
BRANCH  32  40
ATOM     40  O   UNL     1      17.727  49.482  77.736  1.00  0.00    -0.387 OA
ATOM     41  H   UNL     1      17.637  49.044  78.622  1.00  0.00     0.211 HD
ENDBRANCH  32  40
ENDBRANCH   1  27
TORSDOF 12
ENDMDL
MODEL 7
REMARK VINA RESULT:    -5.218     15.450     18.260
REMARK INTER + INTRA:          -8.970
REMARK INTER:                  -8.749
REMARK INTRA:                  -0.222
REMARK UNBOUND:                -1.311
REMARK SMILES O=c1c(O[C@@H]2O[C@H](CO)[C@@H](O)[C@H](O)[C@H]2O)c(-c2ccc(O)c(O)c2)oc2cc(O)cc(O)c12
REMARK SMILES IDX 4 1 3 2 16 3 25 4 2 5 26 6 1 7 33 8 27 9 31 10 28 11 30 12
REMARK SMILES IDX 17 13 18 14 19 15 20 16 24 17 22 18 21 19 23 21 32 23 29 25
REMARK SMILES IDX 5 27 14 28 6 29 12 30 7 31 10 32 15 33 13 35 8 37 9 38 11 40
REMARK H PARENT 21 20 23 22 32 24 29 26 15 34 13 36 9 39 11 41
REMARK Flexibility Score: inf
ROOT
ATOM      1  O   UNL     1       5.823  31.300  69.142  1.00  0.00    -0.454 OA
ENDROOT
BRANCH   1   2
ATOM      2  C   UNL     1       4.978  32.321  69.594  1.00  0.00     0.214 A 
ATOM      3  C   UNL     1       4.814  32.589  70.964  1.00  0.00     0.180 A 
ATOM      4  O   UNL     1       3.954  33.522  71.356  1.00  0.00    -0.452 OA
ATOM      5  C   UNL     1       4.268  33.086  68.662  1.00  0.00     0.239 A 
ATOM      6  C   UNL     1       3.233  34.250  70.511  1.00  0.00     0.146 A 
ATOM      7  O   UNL     1       4.494  32.902  67.437  1.00  0.00    -0.285 OA
ATOM      8  C   UNL     1       3.333  34.052  69.108  1.00  0.00     0.111 A 
ATOM      9  C   UNL     1       2.387  35.231  71.031  1.00  0.00     0.094 A 
ATOM     10  C   UNL     1       2.514  34.845  68.249  1.00  0.00     0.134 A 
ATOM     11  C   UNL     1       1.636  36.043  70.178  1.00  0.00     0.123 A 
ATOM     12  C   UNL     1       1.708  35.850  68.798  1.00  0.00     0.093 A 
BRANCH   3  13
ATOM     13  C   UNL     1       5.596  31.882  72.000  1.00  0.00     0.025 A 
ATOM     14  C   UNL     1       5.205  30.602  72.423  1.00  0.00     0.016 A 
ATOM     15  C   UNL     1       5.921  29.942  73.423  1.00  0.00     0.051 A 
ATOM     16  C   UNL     1       7.022  30.557  74.031  1.00  0.00     0.157 A 
ATOM     17  C   UNL     1       6.694  32.505  72.618  1.00  0.00     0.062 A 
ATOM     18  C   UNL     1       7.404  31.850  73.634  1.00  0.00     0.158 A 
BRANCH  16  19
ATOM     19  O   UNL     1       7.714  29.875  75.030  1.00  0.00    -0.504 OA
ATOM     20  H   UNL     1       7.416  29.893  75.999  1.00  0.00     0.293 HD
ENDBRANCH  16  19
BRANCH  18  21
ATOM     21  O   UNL     1       8.481  32.483  74.257  1.00  0.00    -0.504 OA
ATOM     22  H   UNL     1       9.382  32.030  74.345  1.00  0.00     0.293 HD
ENDBRANCH  18  21
ENDBRANCH   3  13
BRANCH  10  23
ATOM     23  O   UNL     1       2.434  34.667  66.865  1.00  0.00    -0.507 OA
ATOM     24  H   UNL     1       1.655  34.955  66.295  1.00  0.00     0.293 HD
ENDBRANCH  10  23
BRANCH  11  25
ATOM     25  O   UNL     1       0.810  37.040  70.691  1.00  0.00    -0.508 OA
ATOM     26  H   UNL     1       1.173  37.955  70.935  1.00  0.00     0.293 HD
ENDBRANCH  11  25
ENDBRANCH   1   2
BRANCH   1  27
ATOM     27  C   UNL     1       7.219  31.264  69.456  1.00  0.00     0.339 C 
ATOM     28  C   UNL     1       8.002  30.542  68.337  1.00  0.00     0.214 C 
ATOM     29  O   UNL     1       7.691  32.576  69.723  1.00  0.00    -0.332 OA
ATOM     30  C   UNL     1       8.023  31.356  67.016  1.00  0.00     0.180 C 
ATOM     31  C   UNL     1       8.003  33.373  68.580  1.00  0.00     0.179 C 
ATOM     32  C   UNL     1       7.515  32.802  67.216  1.00  0.00     0.177 C 
BRANCH  28  33
ATOM     33  O   UNL     1       9.309  30.243  68.766  1.00  0.00    -0.384 OA
ATOM     34  H   UNL     1       9.757  29.730  68.046  1.00  0.00     0.211 HD
ENDBRANCH  28  33
BRANCH  30  35
ATOM     35  O   UNL     1       7.278  30.713  66.010  1.00  0.00    -0.387 OA
ATOM     36  H   UNL     1       7.758  29.880  65.764  1.00  0.00     0.211 HD
ENDBRANCH  30  35
BRANCH  31  37
ATOM     37  C   UNL     1       7.437  34.784  68.823  1.00  0.00     0.191 C 
BRANCH  37  38
ATOM     38  O   UNL     1       6.483  35.123  67.852  1.00  0.00    -0.394 OA
ATOM     39  H   UNL     1       6.652  36.069  67.600  1.00  0.00     0.210 HD
ENDBRANCH  37  38
ENDBRANCH  31  37
BRANCH  32  40
ATOM     40  O   UNL     1       7.921  33.612  66.138  1.00  0.00    -0.387 OA
ATOM     41  H   UNL     1       8.872  33.405  65.945  1.00  0.00     0.211 HD
ENDBRANCH  32  40
ENDBRANCH   1  27
TORSDOF 12
ENDMDL
MODEL 8
REMARK VINA RESULT:    -5.145      3.571      5.621
REMARK INTER + INTRA:          -8.862
REMARK INTER:                  -8.762
REMARK INTRA:                  -0.100
REMARK UNBOUND:                -1.311
REMARK SMILES O=c1c(O[C@@H]2O[C@H](CO)[C@@H](O)[C@H](O)[C@H]2O)c(-c2ccc(O)c(O)c2)oc2cc(O)cc(O)c12
REMARK SMILES IDX 4 1 3 2 16 3 25 4 2 5 26 6 1 7 33 8 27 9 31 10 28 11 30 12
REMARK SMILES IDX 17 13 18 14 19 15 20 16 24 17 22 18 21 19 23 21 32 23 29 25
REMARK SMILES IDX 5 27 14 28 6 29 12 30 7 31 10 32 15 33 13 35 8 37 9 38 11 40
REMARK H PARENT 21 20 23 22 32 24 29 26 15 34 13 36 9 39 11 41
REMARK Flexibility Score: inf
ROOT
ATOM      1  O   UNL     1      17.012  45.960  75.098  1.00  0.00    -0.454 OA
ENDROOT
BRANCH   1   2
ATOM      2  C   UNL     1      16.755  44.609  74.834  1.00  0.00     0.214 A 
ATOM      3  C   UNL     1      15.444  44.125  74.675  1.00  0.00     0.180 A 
ATOM      4  O   UNL     1      15.237  42.827  74.490  1.00  0.00    -0.452 OA
ATOM      5  C   UNL     1      17.826  43.712  74.738  1.00  0.00     0.239 A 
ATOM      6  C   UNL     1      16.218  41.934  74.427  1.00  0.00     0.146 A 
ATOM      7  O   UNL     1      18.997  44.171  74.788  1.00  0.00    -0.285 OA
ATOM      8  C   UNL     1      17.575  42.329  74.574  1.00  0.00     0.111 A 
ATOM      9  C   UNL     1      15.889  40.597  74.191  1.00  0.00     0.094 A 
ATOM     10  C   UNL     1      18.586  41.322  74.524  1.00  0.00     0.134 A 
ATOM     11  C   UNL     1      16.891  39.631  74.083  1.00  0.00     0.123 A 
ATOM     12  C   UNL     1      18.228  39.997  74.243  1.00  0.00     0.093 A 
BRANCH   3  13
ATOM     13  C   UNL     1      14.272  45.026  74.674  1.00  0.00     0.025 A 
ATOM     14  C   UNL     1      13.049  44.583  75.202  1.00  0.00     0.016 A 
ATOM     15  C   UNL     1      11.929  45.418  75.176  1.00  0.00     0.051 A 
ATOM     16  C   UNL     1      12.007  46.692  74.603  1.00  0.00     0.157 A 
ATOM     17  C   UNL     1      14.348  46.301  74.088  1.00  0.00     0.062 A 
ATOM     18  C   UNL     1      13.220  47.133  74.047  1.00  0.00     0.158 A 
BRANCH  16  19
ATOM     19  O   UNL     1      10.872  47.500  74.588  1.00  0.00    -0.504 OA
ATOM     20  H   UNL     1      10.109  47.344  73.938  1.00  0.00     0.293 HD
ENDBRANCH  16  19
BRANCH  18  21
ATOM     21  O   UNL     1      13.298  48.390  73.447  1.00  0.00    -0.504 OA
ATOM     22  H   UNL     1      12.474  48.860  73.095  1.00  0.00     0.293 HD
ENDBRANCH  18  21
ENDBRANCH   3  13
BRANCH  10  23
ATOM     23  O   UNL     1      19.940  41.563  74.771  1.00  0.00    -0.507 OA
ATOM     24  H   UNL     1      20.665  40.865  74.719  1.00  0.00     0.293 HD
ENDBRANCH  10  23
BRANCH  11  25
ATOM     25  O   UNL     1      16.570  38.301  73.822  1.00  0.00    -0.508 OA
ATOM     26  H   UNL     1      16.698  37.578  74.521  1.00  0.00     0.293 HD
ENDBRANCH  11  25
ENDBRANCH   1   2
BRANCH   1  27
ATOM     27  C   UNL     1      18.265  46.578  74.787  1.00  0.00     0.339 C 
ATOM     28  C   UNL     1      18.276  47.057  73.318  1.00  0.00     0.214 C 
ATOM     29  O   UNL     1      18.544  47.609  75.722  1.00  0.00    -0.332 OA
ATOM     30  C   UNL     1      17.302  48.242  73.080  1.00  0.00     0.180 C 
ATOM     31  C   UNL     1      17.904  48.862  75.482  1.00  0.00     0.179 C 
ATOM     32  C   UNL     1      16.779  48.840  74.406  1.00  0.00     0.177 C 
BRANCH  28  33
ATOM     33  O   UNL     1      19.584  47.393  72.920  1.00  0.00    -0.384 OA
ATOM     34  H   UNL     1      19.561  48.305  72.535  1.00  0.00     0.211 HD
ENDBRANCH  28  33
BRANCH  30  35
ATOM     35  O   UNL     1      16.224  47.858  72.261  1.00  0.00    -0.387 OA
ATOM     36  H   UNL     1      15.501  48.528  72.377  1.00  0.00     0.211 HD
ENDBRANCH  30  35
BRANCH  31  37
ATOM     37  C   UNL     1      17.372  49.384  76.828  1.00  0.00     0.191 C 
BRANCH  37  38
ATOM     38  O   UNL     1      15.979  49.245  76.912  1.00  0.00    -0.394 OA
ATOM     39  H   UNL     1      15.789  48.747  77.751  1.00  0.00     0.210 HD
ENDBRANCH  37  38
ENDBRANCH  31  37
BRANCH  32  40
ATOM     40  O   UNL     1      16.248  50.125  74.182  1.00  0.00    -0.387 OA
ATOM     41  H   UNL     1      16.936  50.658  73.706  1.00  0.00     0.211 HD
ENDBRANCH  32  40
ENDBRANCH   1  27
TORSDOF 12
ENDMDL
MODEL 9
REMARK VINA RESULT:    -5.010      3.302      5.234
REMARK INTER + INTRA:          -8.664
REMARK INTER:                  -7.064
REMARK INTRA:                  -1.600
REMARK UNBOUND:                -1.311
REMARK SMILES O=c1c(O[C@@H]2O[C@H](CO)[C@@H](O)[C@H](O)[C@H]2O)c(-c2ccc(O)c(O)c2)oc2cc(O)cc(O)c12
REMARK SMILES IDX 4 1 3 2 16 3 25 4 2 5 26 6 1 7 33 8 27 9 31 10 28 11 30 12
REMARK SMILES IDX 17 13 18 14 19 15 20 16 24 17 22 18 21 19 23 21 32 23 29 25
REMARK SMILES IDX 5 27 14 28 6 29 12 30 7 31 10 32 15 33 13 35 8 37 9 38 11 40
REMARK H PARENT 21 20 23 22 32 24 29 26 15 34 13 36 9 39 11 41
REMARK Flexibility Score: inf
ROOT
ATOM      1  O   UNL     1      15.110  46.533  74.842  1.00  0.00    -0.454 OA
ENDROOT
BRANCH   1   2
ATOM      2  C   UNL     1      15.861  45.352  74.819  1.00  0.00     0.214 A 
ATOM      3  C   UNL     1      17.243  45.353  75.081  1.00  0.00     0.180 A 
ATOM      4  O   UNL     1      17.934  44.222  74.987  1.00  0.00    -0.452 OA
ATOM      5  C   UNL     1      15.228  44.141  74.516  1.00  0.00     0.239 A 
ATOM      6  C   UNL     1      17.383  43.056  74.669  1.00  0.00     0.146 A 
ATOM      7  O   UNL     1      13.977  44.137  74.376  1.00  0.00    -0.285 OA
ATOM      8  C   UNL     1      15.994  42.957  74.389  1.00  0.00     0.111 A 
ATOM      9  C   UNL     1      18.197  41.922  74.635  1.00  0.00     0.094 A 
ATOM     10  C   UNL     1      15.463  41.683  74.026  1.00  0.00     0.134 A 
ATOM     11  C   UNL     1      17.654  40.670  74.339  1.00  0.00     0.123 A 
ATOM     12  C   UNL     1      16.295  40.557  74.043  1.00  0.00     0.093 A 
BRANCH   3  13
ATOM     13  C   UNL     1      17.961  46.576  75.495  1.00  0.00     0.025 A 
ATOM     14  C   UNL     1      18.674  47.325  74.546  1.00  0.00     0.016 A 
ATOM     15  C   UNL     1      19.381  48.465  74.936  1.00  0.00     0.051 A 
ATOM     16  C   UNL     1      19.406  48.859  76.278  1.00  0.00     0.157 A 
ATOM     17  C   UNL     1      17.995  46.965  76.845  1.00  0.00     0.062 A 
ATOM     18  C   UNL     1      18.718  48.100  77.240  1.00  0.00     0.158 A 
BRANCH  16  19
ATOM     19  O   UNL     1      20.123  49.999  76.637  1.00  0.00    -0.504 OA
ATOM     20  H   UNL     1      20.870  50.368  76.059  1.00  0.00     0.293 HD
ENDBRANCH  16  19
BRANCH  18  21
ATOM     21  O   UNL     1      18.763  48.469  78.585  1.00  0.00    -0.504 OA
ATOM     22  H   UNL     1      18.369  49.344  78.907  1.00  0.00     0.293 HD
ENDBRANCH  18  21
ENDBRANCH   3  13
BRANCH  10  23
ATOM     23  O   UNL     1      14.143  41.476  73.615  1.00  0.00    -0.507 OA
ATOM     24  H   UNL     1      13.519  40.794  74.014  1.00  0.00     0.293 HD
ENDBRANCH  10  23
BRANCH  11  25
ATOM     25  O   UNL     1      18.457  39.532  74.329  1.00  0.00    -0.508 OA
ATOM     26  H   UNL     1      18.380  38.823  75.049  1.00  0.00     0.293 HD
ENDBRANCH  11  25
ENDBRANCH   1   2
BRANCH   1  27
ATOM     27  C   UNL     1      15.102  47.458  73.749  1.00  0.00     0.339 C 
ATOM     28  C   UNL     1      13.658  47.685  73.250  1.00  0.00     0.214 C 
ATOM     29  O   UNL     1      15.768  48.655  74.121  1.00  0.00    -0.332 OA
ATOM     30  C   UNL     1      12.792  48.452  74.285  1.00  0.00     0.180 C 
ATOM     31  C   UNL     1      14.999  49.591  74.876  1.00  0.00     0.179 C 
ATOM     32  C   UNL     1      13.646  49.052  75.426  1.00  0.00     0.177 C 
BRANCH  28  33
ATOM     33  O   UNL     1      13.665  48.349  72.009  1.00  0.00    -0.384 OA
ATOM     34  H   UNL     1      13.557  49.319  72.181  1.00  0.00     0.211 HD
ENDBRANCH  28  33
BRANCH  30  35
ATOM     35  O   UNL     1      11.782  47.627  74.815  1.00  0.00    -0.387 OA
ATOM     36  H   UNL     1      10.910  48.073  74.651  1.00  0.00     0.211 HD
ENDBRANCH  30  35
BRANCH  31  37
ATOM     37  C   UNL     1      15.887  50.120  76.015  1.00  0.00     0.191 C 
BRANCH  37  38
ATOM     38  O   UNL     1      15.550  49.525  77.240  1.00  0.00    -0.394 OA
ATOM     39  H   UNL     1      15.265  48.594  77.039  1.00  0.00     0.210 HD
ENDBRANCH  37  38
ENDBRANCH  31  37
BRANCH  32  40
ATOM     40  O   UNL     1      12.920  50.054  76.098  1.00  0.00    -0.387 OA
ATOM     41  H   UNL     1      11.956  49.829  76.029  1.00  0.00     0.211 HD
ENDBRANCH  32  40
ENDBRANCH   1  27
TORSDOF 12
ENDMDL
