MODEL 1
REMARK VINA RESULT:    -5.520      0.000      0.000
REMARK INTER + INTRA:         -11.367
REMARK INTER:                 -10.038
REMARK INTRA:                  -1.329
REMARK UNBOUND:                -1.329
REMARK SMILES CCCCCCCCCCCCCCCC(=O)[O-]
REMARK SMILES IDX 9 1 10 2 11 3 12 4 13 5 14 6 15 7 16 8 17 9 18 10 8 11 7 12
REMARK SMILES IDX 6 13 5 14 4 15 3 16 2 17 1 18
REMARK H PARENT
REMARK Flexibility Score: inf
ROOT
ATOM      1  C   UNL     1      14.266 -17.443  -3.876  1.00  0.00     0.000 C 
ENDROOT
BRANCH   1   2
ATOM      2  C   UNL     1      13.466 -18.594  -4.511  1.00  0.00     0.000 C 
BRANCH   2   3
ATOM      3  C   UNL     1      12.382 -18.092  -5.480  1.00  0.00     0.000 C 
BRANCH   3   4
ATOM      4  C   UNL     1      11.001 -18.710  -5.198  1.00  0.00     0.000 C 
BRANCH   4   5
ATOM      5  C   UNL     1       9.936 -17.649  -4.877  1.00  0.00     0.000 C 
BRANCH   5   6
ATOM      6  C   UNL     1       9.525 -17.653  -3.395  1.00  0.00     0.006 C 
BRANCH   6   7
ATOM      7  C   UNL     1      10.463 -18.512  -2.536  1.00  0.00     0.053 C 
BRANCH   7   8
ATOM      8  C   UNL     1       9.840 -18.865  -1.221  1.00  0.00     0.041 C 
ATOM      9  O   UNL     1       8.893 -18.173  -0.760  1.00  0.00    -0.550 OA
ATOM     10  O   UNL     1      10.283 -19.978  -0.518  1.00  0.00    -0.550 OA
ENDBRANCH   7   8
ENDBRANCH   6   7
ENDBRANCH   5   6
ENDBRANCH   4   5
ENDBRANCH   3   4
ENDBRANCH   2   3
ENDBRANCH   1   2
BRANCH   1  11
ATOM     11  C   UNL     1      13.643 -16.065  -4.156  1.00  0.00     0.000 C 
BRANCH  11  12
ATOM     12  C   UNL     1      12.894 -15.497  -2.938  1.00  0.00    -0.000 C 
BRANCH  12  13
ATOM     13  C   UNL     1      11.476 -15.013  -3.289  1.00  0.00    -0.000 C 
BRANCH  13  14
ATOM     14  C   UNL     1      11.428 -14.243  -4.620  1.00  0.00    -0.000 C 
BRANCH  14  15
ATOM     15  C   UNL     1      12.159 -12.892  -4.547  1.00  0.00    -0.000 C 
BRANCH  15  16
ATOM     16  C   UNL     1      11.588 -11.855  -5.531  1.00  0.00    -0.000 C 
BRANCH  16  17
ATOM     17  C   UNL     1      12.552 -10.682  -5.772  1.00  0.00    -0.003 C 
ATOM     18  C   UNL     1      11.828  -9.394  -6.160  1.00  0.00     0.004 C 
ENDBRANCH  16  17
ENDBRANCH  15  16
ENDBRANCH  14  15
ENDBRANCH  13  14
ENDBRANCH  12  13
ENDBRANCH  11  12
ENDBRANCH   1  11
TORSDOF 14
ENDMDL
MODEL 2
REMARK VINA RESULT:    -5.395      3.378      5.378
REMARK INTER + INTRA:         -11.140
REMARK INTER:                  -9.378
REMARK INTRA:                  -1.762
REMARK UNBOUND:                -1.329
REMARK SMILES CCCCCCCCCCCCCCCC(=O)[O-]
REMARK SMILES IDX 9 1 10 2 11 3 12 4 13 5 14 6 15 7 16 8 17 9 18 10 8 11 7 12
REMARK SMILES IDX 6 13 5 14 4 15 3 16 2 17 1 18
REMARK H PARENT
REMARK Flexibility Score: inf
ROOT
ATOM      1  C   UNL     1      10.663 -18.449  -4.995  1.00  0.00     0.000 C 
ENDROOT
BRANCH   1   2
ATOM      2  C   UNL     1      12.140 -18.491  -5.422  1.00  0.00     0.000 C 
BRANCH   2   3
ATOM      3  C   UNL     1      13.100 -18.522  -4.221  1.00  0.00     0.000 C 
BRANCH   3   4
ATOM      4  C   UNL     1      14.579 -18.463  -4.641  1.00  0.00     0.000 C 
BRANCH   4   5
ATOM      5  C   UNL     1      15.451 -19.464  -3.867  1.00  0.00     0.000 C 
BRANCH   5   6
ATOM      6  C   UNL     1      16.676 -18.801  -3.214  1.00  0.00     0.006 C 
BRANCH   6   7
ATOM      7  C   UNL     1      17.838 -19.785  -3.029  1.00  0.00     0.053 C 
BRANCH   7   8
ATOM      8  C   UNL     1      17.400 -21.031  -2.322  1.00  0.00     0.041 C 
ATOM      9  O   UNL     1      17.193 -21.016  -1.080  1.00  0.00    -0.550 OA
ATOM     10  O   UNL     1      17.188 -22.201  -3.041  1.00  0.00    -0.550 OA
ENDBRANCH   7   8
ENDBRANCH   6   7
ENDBRANCH   5   6
ENDBRANCH   4   5
ENDBRANCH   3   4
ENDBRANCH   2   3
ENDBRANCH   1   2
BRANCH   1  11
ATOM     11  C   UNL     1      10.479 -18.669  -3.483  1.00  0.00     0.000 C 
BRANCH  11  12
ATOM     12  C   UNL     1       9.550 -17.622  -2.843  1.00  0.00    -0.000 C 
BRANCH  12  13
ATOM     13  C   UNL     1       9.213 -16.467  -3.802  1.00  0.00    -0.000 C 
BRANCH  13  14
ATOM     14  C   UNL     1      10.012 -15.189  -3.491  1.00  0.00    -0.000 C 
BRANCH  14  15
ATOM     15  C   UNL     1      10.881 -14.734  -4.675  1.00  0.00    -0.000 C 
BRANCH  15  16
ATOM     16  C   UNL     1      12.386 -14.920  -4.412  1.00  0.00    -0.000 C 
BRANCH  16  17
ATOM     17  C   UNL     1      12.672 -15.465  -3.005  1.00  0.00    -0.003 C 
ATOM     18  C   UNL     1      14.142 -15.329  -2.606  1.00  0.00     0.004 C 
ENDBRANCH  16  17
ENDBRANCH  15  16
ENDBRANCH  14  15
ENDBRANCH  13  14
ENDBRANCH  12  13
ENDBRANCH  11  12
ENDBRANCH   1  11
TORSDOF 14
ENDMDL
MODEL 3
REMARK VINA RESULT:    -5.394      3.838      6.991
REMARK INTER + INTRA:         -11.138
REMARK INTER:                  -9.186
REMARK INTRA:                  -1.952
REMARK UNBOUND:                -1.329
REMARK SMILES CCCCCCCCCCCCCCCC(=O)[O-]
REMARK SMILES IDX 9 1 10 2 11 3 12 4 13 5 14 6 15 7 16 8 17 9 18 10 8 11 7 12
REMARK SMILES IDX 6 13 5 14 4 15 3 16 2 17 1 18
REMARK H PARENT
REMARK Flexibility Score: inf
ROOT
ATOM      1  C   UNL     1      13.663 -16.061  -4.131  1.00  0.00     0.000 C 
ENDROOT
BRANCH   1   2
ATOM      2  C   UNL     1      12.710 -15.726  -2.971  1.00  0.00     0.000 C 
BRANCH   2   3
ATOM      3  C   UNL     1      11.588 -14.761  -3.391  1.00  0.00     0.000 C 
BRANCH   3   4
ATOM      4  C   UNL     1      11.667 -14.369  -4.877  1.00  0.00     0.000 C 
BRANCH   4   5
ATOM      5  C   UNL     1      11.346 -12.884  -5.112  1.00  0.00     0.000 C 
BRANCH   5   6
ATOM      6  C   UNL     1      12.572 -11.976  -4.910  1.00  0.00     0.006 C 
BRANCH   6   7
ATOM      7  C   UNL     1      12.768 -11.002  -6.079  1.00  0.00     0.053 C 
BRANCH   7   8
ATOM      8  C   UNL     1      11.943  -9.763  -5.911  1.00  0.00     0.041 C 
ATOM      9  O   UNL     1      12.182  -8.964  -4.968  1.00  0.00    -0.550 OA
ATOM     10  O   UNL     1      10.931  -9.474  -6.817  1.00  0.00    -0.550 OA
ENDBRANCH   7   8
ENDBRANCH   6   7
ENDBRANCH   5   6
ENDBRANCH   4   5
ENDBRANCH   3   4
ENDBRANCH   2   3
ENDBRANCH   1   2
BRANCH   1  11
ATOM     11  C   UNL     1      14.151 -17.520  -4.092  1.00  0.00     0.000 C 
BRANCH  11  12
ATOM     12  C   UNL     1      13.021 -18.528  -4.370  1.00  0.00    -0.000 C 
BRANCH  12  13
ATOM     13  C   UNL     1      12.303 -18.257  -5.703  1.00  0.00    -0.000 C 
BRANCH  13  14
ATOM     14  C   UNL     1      10.787 -18.063  -5.529  1.00  0.00    -0.000 C 
BRANCH  14  15
ATOM     15  C   UNL     1      10.280 -18.565  -4.167  1.00  0.00    -0.000 C 
BRANCH  15  16
ATOM     16  C   UNL     1       9.441 -17.511  -3.422  1.00  0.00    -0.000 C 
BRANCH  16  17
ATOM     17  C   UNL     1       9.540 -17.654  -1.896  1.00  0.00    -0.003 C 
ATOM     18  C   UNL     1       9.988 -19.050  -1.461  1.00  0.00     0.004 C 
ENDBRANCH  16  17
ENDBRANCH  15  16
ENDBRANCH  14  15
ENDBRANCH  13  14
ENDBRANCH  12  13
ENDBRANCH  11  12
ENDBRANCH   1  11
TORSDOF 14
ENDMDL
MODEL 4
REMARK VINA RESULT:    -5.390      3.297      6.214
REMARK INTER + INTRA:         -11.131
REMARK INTER:                  -9.650
REMARK INTRA:                  -1.482
REMARK UNBOUND:                -1.329
REMARK SMILES CCCCCCCCCCCCCCCC(=O)[O-]
REMARK SMILES IDX 9 1 10 2 11 3 12 4 13 5 14 6 15 7 16 8 17 9 18 10 8 11 7 12
REMARK SMILES IDX 6 13 5 14 4 15 3 16 2 17 1 18
REMARK H PARENT
REMARK Flexibility Score: inf
ROOT
ATOM      1  C   UNL     1      13.060 -15.269  -3.376  1.00  0.00     0.000 C 
ENDROOT
BRANCH   1   2
ATOM      2  C   UNL     1      14.115 -16.387  -3.299  1.00  0.00     0.000 C 
BRANCH   2   3
ATOM      3  C   UNL     1      13.837 -17.528  -4.291  1.00  0.00     0.000 C 
BRANCH   3   4
ATOM      4  C   UNL     1      14.908 -18.632  -4.244  1.00  0.00     0.000 C 
BRANCH   4   5
ATOM      5  C   UNL     1      16.160 -18.204  -3.462  1.00  0.00     0.000 C 
BRANCH   5   6
ATOM      6  C   UNL     1      17.293 -19.241  -3.546  1.00  0.00     0.006 C 
BRANCH   6   7
ATOM      7  C   UNL     1      17.684 -19.785  -2.166  1.00  0.00     0.053 C 
BRANCH   7   8
ATOM      8  C   UNL     1      17.161 -21.172  -1.950  1.00  0.00     0.041 C 
ATOM      9  O   UNL     1      16.312 -21.661  -2.742  1.00  0.00    -0.550 OA
ATOM     10  O   UNL     1      17.636 -21.938  -0.894  1.00  0.00    -0.550 OA
ENDBRANCH   7   8
ENDBRANCH   6   7
ENDBRANCH   5   6
ENDBRANCH   4   5
ENDBRANCH   3   4
ENDBRANCH   2   3
ENDBRANCH   1   2
BRANCH   1  11
ATOM     11  C   UNL     1      12.487 -15.095  -4.793  1.00  0.00     0.000 C 
BRANCH  11  12
ATOM     12  C   UNL     1      10.985 -14.762  -4.785  1.00  0.00    -0.000 C 
BRANCH  12  13
ATOM     13  C   UNL     1      10.304 -15.133  -3.456  1.00  0.00    -0.000 C 
BRANCH  13  14
ATOM     14  C   UNL     1       9.268 -16.259  -3.617  1.00  0.00    -0.000 C 
BRANCH  14  15
ATOM     15  C   UNL     1       9.877 -17.541  -4.207  1.00  0.00    -0.000 C 
BRANCH  15  16
ATOM     16  C   UNL     1      10.450 -18.477  -3.127  1.00  0.00    -0.000 C 
BRANCH  16  17
ATOM     17  C   UNL     1       9.682 -18.380  -1.800  1.00  0.00    -0.003 C 
ATOM     18  C   UNL     1      10.104 -19.450  -0.794  1.00  0.00     0.004 C 
ENDBRANCH  16  17
ENDBRANCH  15  16
ENDBRANCH  14  15
ENDBRANCH  13  14
ENDBRANCH  12  13
ENDBRANCH  11  12
ENDBRANCH   1  11
TORSDOF 14
ENDMDL
MODEL 5
REMARK VINA RESULT:    -5.112      2.710      4.244
REMARK INTER + INTRA:         -10.626
REMARK INTER:                  -9.386
REMARK INTRA:                  -1.240
REMARK UNBOUND:                -1.329
REMARK SMILES CCCCCCCCCCCCCCCC(=O)[O-]
REMARK SMILES IDX 9 1 10 2 11 3 12 4 13 5 14 6 15 7 16 8 17 9 18 10 8 11 7 12
REMARK SMILES IDX 6 13 5 14 4 15 3 16 2 17 1 18
REMARK H PARENT
REMARK Flexibility Score: inf
ROOT
ATOM      1  C   UNL     1      10.252 -18.475  -3.441  1.00  0.00     0.000 C 
ENDROOT
BRANCH   1   2
ATOM      2  C   UNL     1      10.482 -18.290  -4.951  1.00  0.00     0.000 C 
BRANCH   2   3
ATOM      3  C   UNL     1      11.962 -18.428  -5.342  1.00  0.00     0.000 C 
BRANCH   3   4
ATOM      4  C   UNL     1      12.898 -18.475  -4.122  1.00  0.00     0.000 C 
BRANCH   4   5
ATOM      5  C   UNL     1      13.880 -17.293  -4.087  1.00  0.00     0.000 C 
BRANCH   5   6
ATOM      6  C   UNL     1      15.350 -17.747  -4.053  1.00  0.00     0.006 C 
BRANCH   6   7
ATOM      7  C   UNL     1      15.483 -19.265  -3.879  1.00  0.00     0.053 C 
BRANCH   7   8
ATOM      8  C   UNL     1      16.698 -19.625  -3.080  1.00  0.00     0.041 C 
ATOM      9  O   UNL     1      17.723 -18.894  -3.119  1.00  0.00    -0.550 OA
ATOM     10  O   UNL     1      16.687 -20.750  -2.266  1.00  0.00    -0.550 OA
ENDBRANCH   7   8
ENDBRANCH   6   7
ENDBRANCH   5   6
ENDBRANCH   4   5
ENDBRANCH   3   4
ENDBRANCH   2   3
ENDBRANCH   1   2
BRANCH   1  11
ATOM     11  C   UNL     1       9.465 -17.311  -2.816  1.00  0.00     0.000 C 
BRANCH  11  12
ATOM     12  C   UNL     1       9.489 -16.045  -3.691  1.00  0.00    -0.000 C 
BRANCH  12  13
ATOM     13  C   UNL     1      10.729 -15.173  -3.435  1.00  0.00    -0.000 C 
BRANCH  13  14
ATOM     14  C   UNL     1      11.304 -14.569  -4.728  1.00  0.00    -0.000 C 
BRANCH  14  15
ATOM     15  C   UNL     1      12.060 -13.253  -4.479  1.00  0.00    -0.000 C 
BRANCH  15  16
ATOM     16  C   UNL     1      11.595 -12.118  -5.410  1.00  0.00    -0.000 C 
BRANCH  16  17
ATOM     17  C   UNL     1      12.644 -11.003  -5.543  1.00  0.00    -0.003 C 
ATOM     18  C   UNL     1      12.040  -9.678  -6.008  1.00  0.00     0.004 C 
ENDBRANCH  16  17
ENDBRANCH  15  16
ENDBRANCH  14  15
ENDBRANCH  13  14
ENDBRANCH  12  13
ENDBRANCH  11  12
ENDBRANCH   1  11
TORSDOF 14
ENDMDL
MODEL 6
REMARK VINA RESULT:    -5.033      2.520      6.086
REMARK INTER + INTRA:         -10.481
REMARK INTER:                  -9.251
REMARK INTRA:                  -1.230
REMARK UNBOUND:                -1.329
REMARK SMILES CCCCCCCCCCCCCCCC(=O)[O-]
REMARK SMILES IDX 9 1 10 2 11 3 12 4 13 5 14 6 15 7 16 8 17 9 18 10 8 11 7 12
REMARK SMILES IDX 6 13 5 14 4 15 3 16 2 17 1 18
REMARK H PARENT
REMARK Flexibility Score: inf
ROOT
ATOM      1  C   UNL     1      13.127 -15.468  -3.384  1.00  0.00     0.000 C 
ENDROOT
BRANCH   1   2
ATOM      2  C   UNL     1      12.501 -15.132  -4.749  1.00  0.00     0.000 C 
BRANCH   2   3
ATOM      3  C   UNL     1      10.989 -14.866  -4.654  1.00  0.00     0.000 C 
BRANCH   3   4
ATOM      4  C   UNL     1      10.346 -15.526  -3.422  1.00  0.00     0.000 C 
BRANCH   4   5
ATOM      5  C   UNL     1       9.330 -16.615  -3.800  1.00  0.00     0.000 C 
BRANCH   5   6
ATOM      6  C   UNL     1       9.955 -18.020  -3.830  1.00  0.00     0.006 C 
BRANCH   6   7
ATOM      7  C   UNL     1      10.803 -18.304  -2.584  1.00  0.00     0.053 C 
BRANCH   7   8
ATOM      8  C   UNL     1       9.962 -18.776  -1.438  1.00  0.00     0.041 C 
ATOM      9  O   UNL     1       8.971 -18.099  -1.056  1.00  0.00    -0.550 OA
ATOM     10  O   UNL     1      10.252 -19.982  -0.813  1.00  0.00    -0.550 OA
ENDBRANCH   7   8
ENDBRANCH   6   7
ENDBRANCH   5   6
ENDBRANCH   4   5
ENDBRANCH   3   4
ENDBRANCH   2   3
ENDBRANCH   1   2
BRANCH   1  11
ATOM     11  C   UNL     1      14.282 -16.478  -3.497  1.00  0.00     0.000 C 
BRANCH  11  12
ATOM     12  C   UNL     1      13.875 -17.758  -4.248  1.00  0.00    -0.000 C 
BRANCH  12  13
ATOM     13  C   UNL     1      14.994 -18.815  -4.263  1.00  0.00    -0.000 C 
BRANCH  13  14
ATOM     14  C   UNL     1      16.044 -18.579  -3.163  1.00  0.00    -0.000 C 
BRANCH  14  15
ATOM     15  C   UNL     1      17.171 -19.625  -3.190  1.00  0.00    -0.000 C 
BRANCH  15  16
ATOM     16  C   UNL     1      16.701 -21.016  -2.727  1.00  0.00    -0.000 C 
BRANCH  16  17
ATOM     17  C   UNL     1      17.446 -21.500  -1.474  1.00  0.00    -0.003 C 
ATOM     18  C   UNL     1      18.124 -20.361  -0.713  1.00  0.00     0.004 C 
ENDBRANCH  16  17
ENDBRANCH  15  16
ENDBRANCH  14  15
ENDBRANCH  13  14
ENDBRANCH  12  13
ENDBRANCH  11  12
ENDBRANCH   1  11
TORSDOF 14
ENDMDL
MODEL 7
REMARK VINA RESULT:    -4.926      3.584      7.188
REMARK INTER + INTRA:         -10.287
REMARK INTER:                  -9.138
REMARK INTRA:                  -1.149
REMARK UNBOUND:                -1.329
REMARK SMILES CCCCCCCCCCCCCCCC(=O)[O-]
REMARK SMILES IDX 9 1 10 2 11 3 12 4 13 5 14 6 15 7 16 8 17 9 18 10 8 11 7 12
REMARK SMILES IDX 6 13 5 14 4 15 3 16 2 17 1 18
REMARK H PARENT
REMARK Flexibility Score: inf
ROOT
ATOM      1  C   UNL     1      12.149 -18.480  -5.105  1.00  0.00     0.000 C 
ENDROOT
BRANCH   1   2
ATOM      2  C   UNL     1      10.809 -18.832  -4.434  1.00  0.00     0.000 C 
BRANCH   2   3
ATOM      3  C   UNL     1      10.802 -18.510  -2.931  1.00  0.00     0.000 C 
BRANCH   3   4
ATOM      4  C   UNL     1       9.524 -17.777  -2.486  1.00  0.00     0.000 C 
BRANCH   4   5
ATOM      5  C   UNL     1       9.041 -16.753  -3.525  1.00  0.00     0.000 C 
BRANCH   5   6
ATOM      6  C   UNL     1       9.797 -15.417  -3.434  1.00  0.00     0.006 C 
BRANCH   6   7
ATOM      7  C   UNL     1      10.683 -15.168  -4.661  1.00  0.00     0.053 C 
BRANCH   7   8
ATOM      8  C   UNL     1      11.831 -14.261  -4.341  1.00  0.00     0.041 C 
ATOM      9  O   UNL     1      12.862 -14.716  -3.778  1.00  0.00    -0.550 OA
ATOM     10  O   UNL     1      11.777 -12.919  -4.694  1.00  0.00    -0.550 OA
ENDBRANCH   7   8
ENDBRANCH   6   7
ENDBRANCH   5   6
ENDBRANCH   4   5
ENDBRANCH   3   4
ENDBRANCH   2   3
ENDBRANCH   1   2
BRANCH   1  11
ATOM     11  C   UNL     1      13.228 -18.069  -4.089  1.00  0.00     0.000 C 
BRANCH  11  12
ATOM     12  C   UNL     1      14.655 -18.264  -4.631  1.00  0.00    -0.000 C 
BRANCH  12  13
ATOM     13  C   UNL     1      15.423 -19.371  -3.888  1.00  0.00    -0.000 C 
BRANCH  13  14
ATOM     14  C   UNL     1      16.761 -18.876  -3.312  1.00  0.00    -0.000 C 
BRANCH  14  15
ATOM     15  C   UNL     1      17.506 -19.969  -2.528  1.00  0.00    -0.000 C 
BRANCH  15  16
ATOM     16  C   UNL     1      16.803 -21.336  -2.604  1.00  0.00    -0.000 C 
BRANCH  16  17
ATOM     17  C   UNL     1      17.799 -22.504  -2.675  1.00  0.00    -0.003 C 
ATOM     18  C   UNL     1      17.264 -23.688  -3.481  1.00  0.00     0.004 C 
ENDBRANCH  16  17
ENDBRANCH  15  16
ENDBRANCH  14  15
ENDBRANCH  13  14
ENDBRANCH  12  13
ENDBRANCH  11  12
ENDBRANCH   1  11
TORSDOF 14
ENDMDL
MODEL 8
REMARK VINA RESULT:    -4.839      2.048      5.163
REMARK INTER + INTRA:         -10.128
REMARK INTER:                  -8.345
REMARK INTRA:                  -1.783
REMARK UNBOUND:                -1.329
REMARK SMILES CCCCCCCCCCCCCCCC(=O)[O-]
REMARK SMILES IDX 9 1 10 2 11 3 12 4 13 5 14 6 15 7 16 8 17 9 18 10 8 11 7 12
REMARK SMILES IDX 6 13 5 14 4 15 3 16 2 17 1 18
REMARK H PARENT
REMARK Flexibility Score: inf
ROOT
ATOM      1  C   UNL     1      11.268 -14.494  -3.943  1.00  0.00     0.000 C 
ENDROOT
BRANCH   1   2
ATOM      2  C   UNL     1      10.690 -15.027  -5.265  1.00  0.00     0.000 C 
BRANCH   2   3
ATOM      3  C   UNL     1      11.613 -16.054  -5.940  1.00  0.00     0.000 C 
BRANCH   3   4
ATOM      4  C   UNL     1      11.012 -17.470  -5.962  1.00  0.00     0.000 C 
BRANCH   4   5
ATOM      5  C   UNL     1       9.899 -17.653  -4.918  1.00  0.00     0.000 C 
BRANCH   5   6
ATOM      6  C   UNL     1      10.337 -18.534  -3.736  1.00  0.00     0.006 C 
BRANCH   6   7
ATOM      7  C   UNL     1      10.246 -17.793  -2.396  1.00  0.00     0.053 C 
BRANCH   7   8
ATOM      8  C   UNL     1       9.772 -18.692  -1.296  1.00  0.00     0.041 C 
ATOM      9  O   UNL     1      10.302 -19.822  -1.128  1.00  0.00    -0.550 OA
ATOM     10  O   UNL     1       8.768 -18.269  -0.436  1.00  0.00    -0.550 OA
ENDBRANCH   7   8
ENDBRANCH   6   7
ENDBRANCH   5   6
ENDBRANCH   4   5
ENDBRANCH   3   4
ENDBRANCH   2   3
ENDBRANCH   1   2
BRANCH   1  11
ATOM     11  C   UNL     1      12.802 -14.595  -3.886  1.00  0.00     0.000 C 
BRANCH  11  12
ATOM     12  C   UNL     1      13.290 -15.549  -2.781  1.00  0.00    -0.000 C 
BRANCH  12  13
ATOM     13  C   UNL     1      14.466 -16.430  -3.238  1.00  0.00    -0.000 C 
BRANCH  13  14
ATOM     14  C   UNL     1      14.001 -17.738  -3.901  1.00  0.00    -0.000 C 
BRANCH  14  15
ATOM     15  C   UNL     1      15.166 -18.544  -4.498  1.00  0.00    -0.000 C 
BRANCH  15  16
ATOM     16  C   UNL     1      16.413 -18.540  -3.595  1.00  0.00    -0.000 C 
BRANCH  16  17
ATOM     17  C   UNL     1      16.631 -19.888  -2.890  1.00  0.00    -0.003 C 
ATOM     18  C   UNL     1      18.008 -19.996  -2.236  1.00  0.00     0.004 C 
ENDBRANCH  16  17
ENDBRANCH  15  16
ENDBRANCH  14  15
ENDBRANCH  13  14
ENDBRANCH  12  13
ENDBRANCH  11  12
ENDBRANCH   1  11
TORSDOF 14
ENDMDL
MODEL 9
REMARK VINA RESULT:    -4.769      3.190      6.894
REMARK INTER + INTRA:         -10.002
REMARK INTER:                  -8.811
REMARK INTRA:                  -1.190
REMARK UNBOUND:                -1.329
REMARK SMILES CCCCCCCCCCCCCCCC(=O)[O-]
REMARK SMILES IDX 9 1 10 2 11 3 12 4 13 5 14 6 15 7 16 8 17 9 18 10 8 11 7 12
REMARK SMILES IDX 6 13 5 14 4 15 3 16 2 17 1 18
REMARK H PARENT
REMARK Flexibility Score: inf
ROOT
ATOM      1  C   UNL     1      14.368 -16.816  -3.595  1.00  0.00     0.000 C 
ENDROOT
BRANCH   1   2
ATOM      2  C   UNL     1      13.074 -16.041  -3.295  1.00  0.00     0.000 C 
BRANCH   2   3
ATOM      3  C   UNL     1      12.682 -15.086  -4.435  1.00  0.00     0.000 C 
BRANCH   3   4
ATOM      4  C   UNL     1      11.314 -15.426  -5.052  1.00  0.00     0.000 C 
BRANCH   4   5
ATOM      5  C   UNL     1      11.322 -16.771  -5.796  1.00  0.00     0.000 C 
BRANCH   5   6
ATOM      6  C   UNL     1      10.180 -17.700  -5.350  1.00  0.00     0.006 C 
BRANCH   6   7
ATOM      7  C   UNL     1      10.597 -18.614  -4.191  1.00  0.00     0.053 C 
BRANCH   7   8
ATOM      8  C   UNL     1       9.976 -18.186  -2.897  1.00  0.00     0.041 C 
ATOM      9  O   UNL     1       9.170 -17.218  -2.870  1.00  0.00    -0.550 OA
ATOM     10  O   UNL     1      10.260 -18.877  -1.726  1.00  0.00    -0.550 OA
ENDBRANCH   7   8
ENDBRANCH   6   7
ENDBRANCH   5   6
ENDBRANCH   4   5
ENDBRANCH   3   4
ENDBRANCH   2   3
ENDBRANCH   1   2
BRANCH   1  11
ATOM     11  C   UNL     1      14.100 -18.183  -4.249  1.00  0.00     0.000 C 
BRANCH  11  12
ATOM     12  C   UNL     1      15.282 -19.156  -4.087  1.00  0.00    -0.000 C 
BRANCH  12  13
ATOM     13  C   UNL     1      16.524 -18.481  -3.481  1.00  0.00    -0.000 C 
BRANCH  13  14
ATOM     14  C   UNL     1      17.450 -19.481  -2.766  1.00  0.00    -0.000 C 
BRANCH  14  15
ATOM     15  C   UNL     1      16.776 -20.842  -2.528  1.00  0.00    -0.000 C 
BRANCH  15  16
ATOM     16  C   UNL     1      17.787 -21.953  -2.188  1.00  0.00    -0.000 C 
BRANCH  16  17
ATOM     17  C   UNL     1      18.055 -22.887  -3.378  1.00  0.00    -0.003 C 
ATOM     18  C   UNL     1      17.050 -24.035  -3.465  1.00  0.00     0.004 C 
ENDBRANCH  16  17
ENDBRANCH  15  16
ENDBRANCH  14  15
ENDBRANCH  13  14
ENDBRANCH  12  13
ENDBRANCH  11  12
ENDBRANCH   1  11
TORSDOF 14
ENDMDL
