MODEL 1
REMARK VINA RESULT:    37.256      0.000      0.000
REMARK INTER + INTRA:          44.569
REMARK INTER:                  44.879
REMARK INTRA:                  -0.310
REMARK UNBOUND:                -0.310
REMARK SMILES O=c1c(O)c(-c2ccc(O)c(O)c2)oc2cc(O)cc(O)c12
REMARK SMILES IDX 5 1 3 2 2 3 1 4 22 5 20 6 19 7 17 8 16 9 15 10 14 11 6 12
REMARK SMILES IDX 7 13 8 14 9 15 13 16 11 17 10 18 12 20 4 22 21 24 18 26
REMARK H PARENT 10 19 12 21 4 23 21 25 18 27
REMARK Flexibility Score: inf
ROOT
ATOM      1  C   UNL     1      57.099  57.106  -4.690  1.00  0.00     0.180 A 
ATOM      2  C   UNL     1      56.766  55.741  -4.726  1.00  0.00     0.208 A 
ATOM      3  C   UNL     1      57.744  54.792  -4.386  1.00  0.00     0.238 A 
ATOM      4  O   UNL     1      57.455  53.571  -4.473  1.00  0.00    -0.285 OA
ATOM      5  C   UNL     1      59.037  55.221  -4.000  1.00  0.00     0.111 A 
ATOM      6  C   UNL     1      60.093  54.348  -3.598  1.00  0.00     0.134 A 
ATOM      7  C   UNL     1      61.370  54.872  -3.363  1.00  0.00     0.093 A 
ATOM      8  C   UNL     1      61.613  56.245  -3.452  1.00  0.00     0.123 A 
ATOM      9  C   UNL     1      60.575  57.111  -3.787  1.00  0.00     0.094 A 
ATOM     10  C   UNL     1      59.298  56.614  -4.062  1.00  0.00     0.146 A 
ATOM     11  O   UNL     1      58.340  57.473  -4.388  1.00  0.00    -0.452 OA
ENDROOT
BRANCH   1  12
ATOM     12  C   UNL     1      56.116  58.166  -5.010  1.00  0.00     0.025 A 
ATOM     13  C   UNL     1      55.862  58.550  -6.339  1.00  0.00     0.016 A 
ATOM     14  C   UNL     1      54.912  59.536  -6.620  1.00  0.00     0.051 A 
ATOM     15  C   UNL     1      54.193  60.140  -5.582  1.00  0.00     0.157 A 
ATOM     16  C   UNL     1      55.377  58.760  -3.974  1.00  0.00     0.062 A 
ATOM     17  C   UNL     1      54.423  59.750  -4.256  1.00  0.00     0.158 A 
BRANCH  15  18
ATOM     18  O   UNL     1      53.246  61.125  -5.857  1.00  0.00    -0.504 OA
ATOM     19  H   UNL     1      52.280  61.026  -5.565  1.00  0.00     0.293 HD
ENDBRANCH  15  18
BRANCH  17  20
ATOM     20  O   UNL     1      53.702  60.348  -3.224  1.00  0.00    -0.504 OA
ATOM     21  H   UNL     1      52.762  60.699  -3.369  1.00  0.00     0.293 HD
ENDBRANCH  17  20
ENDBRANCH   1  12
BRANCH   2  22
ATOM     22  O   UNL     1      55.490  55.340  -5.131  1.00  0.00    -0.502 OA
ATOM     23  H   UNL     1      54.657  55.875  -4.914  1.00  0.00     0.293 HD
ENDBRANCH   2  22
BRANCH   6  24
ATOM     24  O   UNL     1      59.934  52.975  -3.389  1.00  0.00    -0.507 OA
ATOM     25  H   UNL     1      59.086  52.460  -3.574  1.00  0.00     0.293 HD
ENDBRANCH   6  24
BRANCH   8  26
ATOM     26  O   UNL     1      62.883  56.759  -3.202  1.00  0.00    -0.508 OA
ATOM     27  H   UNL     1      63.536  56.285  -2.590  1.00  0.00     0.293 HD
ENDBRANCH   8  26
TORSDOF 6
ENDMDL
MODEL 2
REMARK VINA RESULT:    37.738      1.678      7.152
REMARK INTER + INTRA:          45.149
REMARK INTER:                  44.671
REMARK INTRA:                   0.478
REMARK UNBOUND:                -0.310
REMARK SMILES O=c1c(O)c(-c2ccc(O)c(O)c2)oc2cc(O)cc(O)c12
REMARK SMILES IDX 5 1 3 2 2 3 1 4 22 5 20 6 19 7 17 8 16 9 15 10 14 11 6 12
REMARK SMILES IDX 7 13 8 14 9 15 13 16 11 17 10 18 12 20 4 22 21 24 18 26
REMARK H PARENT 10 19 12 21 4 23 21 25 18 27
REMARK Flexibility Score: inf
ROOT
ATOM      1  C   UNL     1      58.361  56.902  -4.010  1.00  0.00     0.180 A 
ATOM      2  C   UNL     1      58.181  58.296  -3.961  1.00  0.00     0.208 A 
ATOM      3  C   UNL     1      56.925  58.831  -4.286  1.00  0.00     0.238 A 
ATOM      4  O   UNL     1      56.785  60.082  -4.292  1.00  0.00    -0.285 OA
ATOM      5  C   UNL     1      55.861  57.967  -4.642  1.00  0.00     0.111 A 
ATOM      6  C   UNL     1      54.535  58.399  -4.952  1.00  0.00     0.134 A 
ATOM      7  C   UNL     1      53.598  57.469  -5.418  1.00  0.00     0.093 A 
ATOM      8  C   UNL     1      53.918  56.113  -5.521  1.00  0.00     0.123 A 
ATOM      9  C   UNL     1      55.191  55.674  -5.165  1.00  0.00     0.094 A 
ATOM     10  C   UNL     1      56.160  56.583  -4.731  1.00  0.00     0.146 A 
ATOM     11  O   UNL     1      57.363  56.124  -4.412  1.00  0.00    -0.452 OA
ENDROOT
BRANCH   1  12
ATOM     12  C   UNL     1      59.649  56.261  -3.658  1.00  0.00     0.025 A 
ATOM     13  C   UNL     1      59.733  54.881  -3.405  1.00  0.00     0.016 A 
ATOM     14  C   UNL     1      60.964  54.293  -3.098  1.00  0.00     0.051 A 
ATOM     15  C   UNL     1      62.127  55.071  -3.053  1.00  0.00     0.157 A 
ATOM     16  C   UNL     1      60.822  57.034  -3.632  1.00  0.00     0.062 A 
ATOM     17  C   UNL     1      62.057  56.444  -3.324  1.00  0.00     0.158 A 
BRANCH  15  18
ATOM     18  O   UNL     1      63.355  54.490  -2.746  1.00  0.00    -0.504 OA
ATOM     19  H   UNL     1      63.476  53.911  -1.923  1.00  0.00     0.293 HD
ENDBRANCH  15  18
BRANCH  17  20
ATOM     20  O   UNL     1      63.217  57.216  -3.286  1.00  0.00    -0.504 OA
ATOM     21  H   UNL     1      63.341  58.016  -3.895  1.00  0.00     0.293 HD
ENDBRANCH  17  20
ENDBRANCH   1  12
BRANCH   2  22
ATOM     22  O   UNL     1      59.251  59.131  -3.628  1.00  0.00    -0.502 OA
ATOM     23  H   UNL     1      59.123  60.105  -3.381  1.00  0.00     0.293 HD
ENDBRANCH   2  22
BRANCH   6  24
ATOM     24  O   UNL     1      54.086  59.713  -4.795  1.00  0.00    -0.507 OA
ATOM     25  H   UNL     1      53.300  59.986  -4.224  1.00  0.00     0.293 HD
ENDBRANCH   6  24
BRANCH   8  26
ATOM     26  O   UNL     1      52.974  55.192  -5.970  1.00  0.00    -0.508 OA
ATOM     27  H   UNL     1      52.190  55.475  -6.546  1.00  0.00     0.293 HD
ENDBRANCH   8  26
TORSDOF 6
ENDMDL
MODEL 3
REMARK VINA RESULT:    38.922      1.624      3.201
REMARK INTER + INTRA:          46.575
REMARK INTER:                  46.909
REMARK INTRA:                  -0.334
REMARK UNBOUND:                -0.310
REMARK SMILES O=c1c(O)c(-c2ccc(O)c(O)c2)oc2cc(O)cc(O)c12
REMARK SMILES IDX 5 1 3 2 2 3 1 4 22 5 20 6 19 7 17 8 16 9 15 10 14 11 6 12
REMARK SMILES IDX 7 13 8 14 9 15 13 16 11 17 10 18 12 20 4 22 21 24 18 26
REMARK H PARENT 10 19 12 21 4 23 21 25 18 27
REMARK Flexibility Score: inf
ROOT
ATOM      1  C   UNL     1      56.992  58.698  -4.001  1.00  0.00     0.180 A 
ATOM      2  C   UNL     1      58.184  59.437  -3.905  1.00  0.00     0.208 A 
ATOM      3  C   UNL     1      59.408  58.752  -3.863  1.00  0.00     0.238 A 
ATOM      4  O   UNL     1      60.467  59.417  -3.723  1.00  0.00    -0.285 OA
ATOM      5  C   UNL     1      59.427  57.338  -3.931  1.00  0.00     0.111 A 
ATOM      6  C   UNL     1      60.613  56.543  -3.937  1.00  0.00     0.134 A 
ATOM      7  C   UNL     1      60.508  55.148  -3.876  1.00  0.00     0.093 A 
ATOM      8  C   UNL     1      59.262  54.518  -3.877  1.00  0.00     0.123 A 
ATOM      9  C   UNL     1      58.100  55.283  -3.931  1.00  0.00     0.094 A 
ATOM     10  C   UNL     1      58.170  56.679  -3.956  1.00  0.00     0.146 A 
ATOM     11  O   UNL     1      57.039  57.371  -3.997  1.00  0.00    -0.452 OA
ENDROOT
BRANCH   1  12
ATOM     12  C   UNL     1      55.664  59.350  -4.075  1.00  0.00     0.025 A 
ATOM     13  C   UNL     1      55.111  59.744  -5.306  1.00  0.00     0.016 A 
ATOM     14  C   UNL     1      53.845  60.335  -5.355  1.00  0.00     0.051 A 
ATOM     15  C   UNL     1      53.109  60.527  -4.180  1.00  0.00     0.157 A 
ATOM     16  C   UNL     1      54.913  59.526  -2.901  1.00  0.00     0.062 A 
ATOM     17  C   UNL     1      53.643  60.120  -2.950  1.00  0.00     0.158 A 
BRANCH  15  18
ATOM     18  O   UNL     1      51.848  61.118  -4.223  1.00  0.00    -0.504 OA
ATOM     19  H   UNL     1      51.606  61.894  -3.618  1.00  0.00     0.293 HD
ENDBRANCH  15  18
BRANCH  17  20
ATOM     20  O   UNL     1      52.906  60.305  -1.782  1.00  0.00    -0.504 OA
ATOM     21  H   UNL     1      52.162  60.990  -1.727  1.00  0.00     0.293 HD
ENDBRANCH  17  20
ENDBRANCH   1  12
BRANCH   2  22
ATOM     22  O   UNL     1      58.140  60.831  -3.816  1.00  0.00    -0.502 OA
ATOM     23  H   UNL     1      57.272  61.343  -3.707  1.00  0.00     0.293 HD
ENDBRANCH   2  22
BRANCH   6  24
ATOM     24  O   UNL     1      61.905  57.068  -4.028  1.00  0.00    -0.507 OA
ATOM     25  H   UNL     1      62.374  57.568  -3.288  1.00  0.00     0.293 HD
ENDBRANCH   6  24
BRANCH   8  26
ATOM     26  O   UNL     1      59.168  53.129  -3.832  1.00  0.00    -0.508 OA
ATOM     27  H   UNL     1      58.931  52.587  -4.655  1.00  0.00     0.293 HD
ENDBRANCH   8  26
TORSDOF 6
ENDMDL
MODEL 4
REMARK VINA RESULT:    39.914      1.315      6.651
REMARK INTER + INTRA:          47.771
REMARK INTER:                  47.301
REMARK INTRA:                   0.469
REMARK UNBOUND:                -0.310
REMARK SMILES O=c1c(O)c(-c2ccc(O)c(O)c2)oc2cc(O)cc(O)c12
REMARK SMILES IDX 5 1 3 2 2 3 1 4 22 5 20 6 19 7 17 8 16 9 15 10 14 11 6 12
REMARK SMILES IDX 7 13 8 14 9 15 13 16 11 17 10 18 12 20 4 22 21 24 18 26
REMARK H PARENT 10 19 12 21 4 23 21 25 18 27
REMARK Flexibility Score: inf
ROOT
ATOM      1  C   UNL     1      58.841  56.634  -4.164  1.00  0.00     0.180 A 
ATOM      2  C   UNL     1      58.175  55.420  -4.406  1.00  0.00     0.208 A 
ATOM      3  C   UNL     1      56.812  55.445  -4.740  1.00  0.00     0.238 A 
ATOM      4  O   UNL     1      56.210  54.352  -4.903  1.00  0.00    -0.285 OA
ATOM      5  C   UNL     1      56.135  56.684  -4.843  1.00  0.00     0.111 A 
ATOM      6  C   UNL     1      54.764  56.829  -5.214  1.00  0.00     0.134 A 
ATOM      7  C   UNL     1      54.164  58.094  -5.156  1.00  0.00     0.093 A 
ATOM      8  C   UNL     1      54.902  59.226  -4.805  1.00  0.00     0.123 A 
ATOM      9  C   UNL     1      56.254  59.103  -4.499  1.00  0.00     0.094 A 
ATOM     10  C   UNL     1      56.873  57.850  -4.512  1.00  0.00     0.146 A 
ATOM     11  O   UNL     1      58.162  57.776  -4.203  1.00  0.00    -0.452 OA
ENDROOT
BRANCH   1  12
ATOM     12  C   UNL     1      60.282  56.691  -3.830  1.00  0.00     0.025 A 
ATOM     13  C   UNL     1      61.008  57.891  -3.922  1.00  0.00     0.016 A 
ATOM     14  C   UNL     1      62.362  57.927  -3.579  1.00  0.00     0.051 A 
ATOM     15  C   UNL     1      63.007  56.769  -3.126  1.00  0.00     0.157 A 
ATOM     16  C   UNL     1      60.928  55.537  -3.355  1.00  0.00     0.062 A 
ATOM     17  C   UNL     1      62.288  55.572  -3.011  1.00  0.00     0.158 A 
BRANCH  15  18
ATOM     18  O   UNL     1      64.357  56.798  -2.784  1.00  0.00    -0.504 OA
ATOM     19  H   UNL     1      64.801  56.018  -2.314  1.00  0.00     0.293 HD
ENDBRANCH  15  18
BRANCH  17  20
ATOM     20  O   UNL     1      62.928  54.422  -2.553  1.00  0.00    -0.504 OA
ATOM     21  H   UNL     1      63.626  54.460  -1.819  1.00  0.00     0.293 HD
ENDBRANCH  17  20
ENDBRANCH   1  12
BRANCH   2  22
ATOM     22  O   UNL     1      58.858  54.208  -4.277  1.00  0.00    -0.502 OA
ATOM     23  H   UNL     1      58.462  53.408  -3.796  1.00  0.00     0.293 HD
ENDBRANCH   2  22
BRANCH   6  24
ATOM     24  O   UNL     1      53.962  55.779  -5.669  1.00  0.00    -0.507 OA
ATOM     25  H   UNL     1      53.135  55.442  -5.198  1.00  0.00     0.293 HD
ENDBRANCH   6  24
BRANCH   8  26
ATOM     26  O   UNL     1      54.300  60.482  -4.766  1.00  0.00    -0.508 OA
ATOM     27  H   UNL     1      54.567  61.218  -5.410  1.00  0.00     0.293 HD
ENDBRANCH   8  26
TORSDOF 6
ENDMDL
