MODEL 1
REMARK VINA RESULT:    -7.762      0.000      0.000
REMARK INTER + INTRA:          -9.615
REMARK INTER:                  -9.351
REMARK INTRA:                  -0.265
REMARK UNBOUND:                -0.265
REMARK SMILES O=c1c(O)c(-c2ccc(O)c(O)c2)oc2cc(O)cc(O)c12
REMARK SMILES IDX 5 1 3 2 2 3 1 4 22 5 20 6 19 7 17 8 16 9 15 10 14 11 6 12
REMARK SMILES IDX 7 13 8 14 9 15 13 16 11 17 10 18 12 20 4 22 21 24 18 26
REMARK H PARENT 10 19 12 21 4 23 21 25 18 27
REMARK Flexibility Score: inf
ROOT
ATOM      1  C   UNL     1      39.627 -12.071   8.560  1.00  0.00     0.180 A 
ATOM      2  C   UNL     1      39.949 -10.858   9.198  1.00  0.00     0.208 A 
ATOM      3  C   UNL     1      40.943 -10.856  10.190  1.00  0.00     0.238 A 
ATOM      4  O   UNL     1      41.231  -9.777  10.776  1.00  0.00    -0.285 OA
ATOM      5  C   UNL     1      41.609 -12.056  10.512  1.00  0.00     0.111 A 
ATOM      6  C   UNL     1      42.623 -12.139  11.496  1.00  0.00     0.134 A 
ATOM      7  C   UNL     1      43.244 -13.370  11.752  1.00  0.00     0.093 A 
ATOM      8  C   UNL     1      42.872 -14.518  11.044  1.00  0.00     0.123 A 
ATOM      9  C   UNL     1      41.872 -14.441  10.074  1.00  0.00     0.094 A 
ATOM     10  C   UNL     1      41.239 -13.224   9.805  1.00  0.00     0.146 A 
ATOM     11  O   UNL     1      40.287 -13.181   8.879  1.00  0.00    -0.452 OA
ENDROOT
BRANCH   1  12
ATOM     12  C   UNL     1      38.579 -12.158   7.518  1.00  0.00     0.025 A 
ATOM     13  C   UNL     1      37.315 -12.670   7.850  1.00  0.00     0.016 A 
ATOM     14  C   UNL     1      36.304 -12.740   6.888  1.00  0.00     0.051 A 
ATOM     15  C   UNL     1      36.535 -12.287   5.586  1.00  0.00     0.157 A 
ATOM     16  C   UNL     1      38.802 -11.682   6.213  1.00  0.00     0.062 A 
ATOM     17  C   UNL     1      37.788 -11.750   5.247  1.00  0.00     0.158 A 
BRANCH  15  18
ATOM     18  O   UNL     1      35.508 -12.372   4.647  1.00  0.00    -0.504 OA
ATOM     19  H   UNL     1      34.541 -12.513   4.918  1.00  0.00     0.293 HD
ENDBRANCH  15  18
BRANCH  17  20
ATOM     20  O   UNL     1      38.020 -11.282   3.954  1.00  0.00    -0.504 OA
ATOM     21  H   UNL     1      37.905 -11.880   3.144  1.00  0.00     0.293 HD
ENDBRANCH  17  20
ENDBRANCH   1  12
BRANCH   2  22
ATOM     22  O   UNL     1      39.309  -9.673   8.825  1.00  0.00    -0.502 OA
ATOM     23  H   UNL     1      39.016  -8.978   9.503  1.00  0.00     0.293 HD
ENDBRANCH   2  22
BRANCH   6  24
ATOM     24  O   UNL     1      43.017 -11.011  12.218  1.00  0.00    -0.507 OA
ATOM     25  H   UNL     1      43.957 -10.638  12.152  1.00  0.00     0.293 HD
ENDBRANCH   6  24
BRANCH   8  26
ATOM     26  O   UNL     1      43.490 -15.740  11.297  1.00  0.00    -0.508 OA
ATOM     27  H   UNL     1      44.456 -15.793  11.600  1.00  0.00     0.293 HD
ENDBRANCH   8  26
TORSDOF 6
ENDMDL
MODEL 2
REMARK VINA RESULT:    -7.679      1.496      1.589
REMARK INTER + INTRA:          -9.514
REMARK INTER:                  -9.793
REMARK INTRA:                   0.278
REMARK UNBOUND:                -0.265
REMARK SMILES O=c1c(O)c(-c2ccc(O)c(O)c2)oc2cc(O)cc(O)c12
REMARK SMILES IDX 5 1 3 2 2 3 1 4 22 5 20 6 19 7 17 8 16 9 15 10 14 11 6 12
REMARK SMILES IDX 7 13 8 14 9 15 13 16 11 17 10 18 12 20 4 22 21 24 18 26
REMARK H PARENT 10 19 12 21 4 23 21 25 18 27
REMARK Flexibility Score: inf
ROOT
ATOM      1  C   UNL     1      39.280 -12.698   8.810  1.00  0.00     0.180 A 
ATOM      2  C   UNL     1      39.548 -11.341   9.074  1.00  0.00     0.208 A 
ATOM      3  C   UNL     1      40.634 -11.013   9.901  1.00  0.00     0.238 A 
ATOM      4  O   UNL     1      40.876  -9.800  10.154  1.00  0.00    -0.285 OA
ATOM      5  C   UNL     1      41.443 -12.039  10.431  1.00  0.00     0.111 A 
ATOM      6  C   UNL     1      42.557 -11.793  11.269  1.00  0.00     0.134 A 
ATOM      7  C   UNL     1      43.317 -12.870  11.749  1.00  0.00     0.093 A 
ATOM      8  C   UNL     1      42.985 -14.185  11.406  1.00  0.00     0.123 A 
ATOM      9  C   UNL     1      41.888 -14.433  10.581  1.00  0.00     0.094 A 
ATOM     10  C   UNL     1      41.116 -13.373  10.094  1.00  0.00     0.146 A 
ATOM     11  O   UNL     1      40.074 -13.638   9.314  1.00  0.00    -0.452 OA
ENDROOT
BRANCH   1  12
ATOM     12  C   UNL     1      38.143 -13.124   7.963  1.00  0.00     0.025 A 
ATOM     13  C   UNL     1      36.970 -12.354   7.944  1.00  0.00     0.016 A 
ATOM     14  C   UNL     1      35.892 -12.726   7.135  1.00  0.00     0.051 A 
ATOM     15  C   UNL     1      35.976 -13.861   6.323  1.00  0.00     0.157 A 
ATOM     16  C   UNL     1      38.234 -14.253   7.129  1.00  0.00     0.062 A 
ATOM     17  C   UNL     1      37.154 -14.626   6.316  1.00  0.00     0.158 A 
BRANCH  15  18
ATOM     18  O   UNL     1      34.884 -14.207   5.529  1.00  0.00    -0.504 OA
ATOM     19  H   UNL     1      34.975 -14.820   4.726  1.00  0.00     0.293 HD
ENDBRANCH  15  18
BRANCH  17  20
ATOM     20  O   UNL     1      37.250 -15.751   5.497  1.00  0.00    -0.504 OA
ATOM     21  H   UNL     1      38.126 -16.021   5.064  1.00  0.00     0.293 HD
ENDBRANCH  17  20
ENDBRANCH   1  12
BRANCH   2  22
ATOM     22  O   UNL     1      38.762 -10.340   8.497  1.00  0.00    -0.502 OA
ATOM     23  H   UNL     1      37.783 -10.480   8.274  1.00  0.00     0.293 HD
ENDBRANCH   2  22
BRANCH   6  24
ATOM     24  O   UNL     1      42.912 -10.491  11.627  1.00  0.00    -0.507 OA
ATOM     25  H   UNL     1      42.955 -10.198  12.596  1.00  0.00     0.293 HD
ENDBRANCH   6  24
BRANCH   8  26
ATOM     26  O   UNL     1      43.742 -15.254  11.882  1.00  0.00    -0.508 OA
ATOM     27  H   UNL     1      43.576 -15.656  12.797  1.00  0.00     0.293 HD
ENDBRANCH   8  26
TORSDOF 6
ENDMDL
MODEL 3
REMARK VINA RESULT:    -7.463      1.404      6.852
REMARK INTER + INTRA:          -9.255
REMARK INTER:                  -9.177
REMARK INTRA:                  -0.078
REMARK UNBOUND:                -0.265
REMARK SMILES O=c1c(O)c(-c2ccc(O)c(O)c2)oc2cc(O)cc(O)c12
REMARK SMILES IDX 5 1 3 2 2 3 1 4 22 5 20 6 19 7 17 8 16 9 15 10 14 11 6 12
REMARK SMILES IDX 7 13 8 14 9 15 13 16 11 17 10 18 12 20 4 22 21 24 18 26
REMARK H PARENT 10 19 12 21 4 23 21 25 18 27
REMARK Flexibility Score: inf
ROOT
ATOM      1  C   UNL     1      40.664 -12.434   8.674  1.00  0.00     0.180 A 
ATOM      2  C   UNL     1      41.102 -11.422   7.798  1.00  0.00     0.208 A 
ATOM      3  C   UNL     1      40.241 -10.988   6.778  1.00  0.00     0.238 A 
ATOM      4  O   UNL     1      40.628 -10.090   5.980  1.00  0.00    -0.285 OA
ATOM      5  C   UNL     1      38.954 -11.553   6.664  1.00  0.00     0.111 A 
ATOM      6  C   UNL     1      38.025 -11.169   5.667  1.00  0.00     0.134 A 
ATOM      7  C   UNL     1      36.760 -11.774   5.626  1.00  0.00     0.093 A 
ATOM      8  C   UNL     1      36.407 -12.754   6.561  1.00  0.00     0.123 A 
ATOM      9  C   UNL     1      37.320 -13.136   7.544  1.00  0.00     0.094 A 
ATOM     10  C   UNL     1      38.587 -12.547   7.601  1.00  0.00     0.146 A 
ATOM     11  O   UNL     1      39.438 -12.933   8.545  1.00  0.00    -0.452 OA
ENDROOT
BRANCH   1  12
ATOM     12  C   UNL     1      41.520 -12.957   9.762  1.00  0.00     0.025 A 
ATOM     13  C   UNL     1      41.861 -14.319   9.778  1.00  0.00     0.016 A 
ATOM     14  C   UNL     1      42.686 -14.830  10.783  1.00  0.00     0.051 A 
ATOM     15  C   UNL     1      43.195 -13.989  11.776  1.00  0.00     0.157 A 
ATOM     16  C   UNL     1      42.051 -12.108  10.750  1.00  0.00     0.062 A 
ATOM     17  C   UNL     1      42.881 -12.620  11.757  1.00  0.00     0.158 A 
BRANCH  15  18
ATOM     18  O   UNL     1      44.014 -14.529  12.767  1.00  0.00    -0.504 OA
ATOM     19  H   UNL     1      44.854 -15.051  12.546  1.00  0.00     0.293 HD
ENDBRANCH  15  18
BRANCH  17  20
ATOM     20  O   UNL     1      43.397 -11.772  12.737  1.00  0.00    -0.504 OA
ATOM     21  H   UNL     1      43.166 -10.786  12.762  1.00  0.00     0.293 HD
ENDBRANCH  17  20
ENDBRANCH   1  12
BRANCH   2  22
ATOM     22  O   UNL     1      42.363 -10.843   7.963  1.00  0.00    -0.502 OA
ATOM     23  H   UNL     1      42.779 -10.238   7.264  1.00  0.00     0.293 HD
ENDBRANCH   2  22
BRANCH   6  24
ATOM     24  O   UNL     1      38.348 -10.194   4.722  1.00  0.00    -0.507 OA
ATOM     25  H   UNL     1      38.535  -9.234   4.989  1.00  0.00     0.293 HD
ENDBRANCH   6  24
BRANCH   8  26
ATOM     26  O   UNL     1      35.151 -13.353   6.520  1.00  0.00    -0.508 OA
ATOM     27  H   UNL     1      35.043 -14.350   6.375  1.00  0.00     0.293 HD
ENDBRANCH   8  26
TORSDOF 6
ENDMDL
MODEL 4
REMARK VINA RESULT:    -7.344      1.065      1.709
REMARK INTER + INTRA:          -9.112
REMARK INTER:                  -8.815
REMARK INTRA:                  -0.296
REMARK UNBOUND:                -0.265
REMARK SMILES O=c1c(O)c(-c2ccc(O)c(O)c2)oc2cc(O)cc(O)c12
REMARK SMILES IDX 5 1 3 2 2 3 1 4 22 5 20 6 19 7 17 8 16 9 15 10 14 11 6 12
REMARK SMILES IDX 7 13 8 14 9 15 13 16 11 17 10 18 12 20 4 22 21 24 18 26
REMARK H PARENT 10 19 12 21 4 23 21 25 18 27
REMARK Flexibility Score: inf
ROOT
ATOM      1  C   UNL     1      39.058 -11.903   7.931  1.00  0.00     0.180 A 
ATOM      2  C   UNL     1      39.252 -10.645   8.533  1.00  0.00     0.208 A 
ATOM      3  C   UNL     1      40.220 -10.519   9.542  1.00  0.00     0.238 A 
ATOM      4  O   UNL     1      40.395  -9.399  10.098  1.00  0.00    -0.285 OA
ATOM      5  C   UNL     1      40.989 -11.641   9.915  1.00  0.00     0.111 A 
ATOM      6  C   UNL     1      41.986 -11.597  10.920  1.00  0.00     0.134 A 
ATOM      7  C   UNL     1      42.715 -12.755  11.227  1.00  0.00     0.093 A 
ATOM      8  C   UNL     1      42.466 -13.954  10.550  1.00  0.00     0.123 A 
ATOM      9  C   UNL     1      41.483 -14.003   9.560  1.00  0.00     0.094 A 
ATOM     10  C   UNL     1      40.745 -12.859   9.241  1.00  0.00     0.146 A 
ATOM     11  O   UNL     1      39.812 -12.935   8.298  1.00  0.00    -0.452 OA
ENDROOT
BRANCH   1  12
ATOM     12  C   UNL     1      38.044 -12.120   6.874  1.00  0.00     0.025 A 
ATOM     13  C   UNL     1      38.341 -11.763   5.549  1.00  0.00     0.016 A 
ATOM     14  C   UNL     1      37.408 -11.979   4.532  1.00  0.00     0.051 A 
ATOM     15  C   UNL     1      36.173 -12.568   4.818  1.00  0.00     0.157 A 
ATOM     16  C   UNL     1      36.810 -12.731   7.157  1.00  0.00     0.062 A 
ATOM     17  C   UNL     1      35.873 -12.950   6.136  1.00  0.00     0.158 A 
BRANCH  15  18
ATOM     18  O   UNL     1      35.261 -12.768   3.783  1.00  0.00    -0.504 OA
ATOM     19  H   UNL     1      35.045 -12.044   3.108  1.00  0.00     0.293 HD
ENDBRANCH  15  18
BRANCH  17  20
ATOM     20  O   UNL     1      34.649 -13.552   6.427  1.00  0.00    -0.504 OA
ATOM     21  H   UNL     1      34.024 -13.173   7.129  1.00  0.00     0.293 HD
ENDBRANCH  17  20
ENDBRANCH   1  12
BRANCH   2  22
ATOM     22  O   UNL     1      38.512  -9.538   8.111  1.00  0.00    -0.502 OA
ATOM     23  H   UNL     1      37.747  -9.616   7.451  1.00  0.00     0.293 HD
ENDBRANCH   2  22
BRANCH   6  24
ATOM     24  O   UNL     1      42.258 -10.415  11.611  1.00  0.00    -0.507 OA
ATOM     25  H   UNL     1      42.025  -9.506  11.225  1.00  0.00     0.293 HD
ENDBRANCH   6  24
BRANCH   8  26
ATOM     26  O   UNL     1      43.191 -15.104  10.855  1.00  0.00    -0.508 OA
ATOM     27  H   UNL     1      42.799 -16.030  10.721  1.00  0.00     0.293 HD
ENDBRANCH   8  26
TORSDOF 6
ENDMDL
MODEL 5
REMARK VINA RESULT:    -7.331      7.046     10.788
REMARK INTER + INTRA:          -9.095
REMARK INTER:                  -9.022
REMARK INTRA:                  -0.073
REMARK UNBOUND:                -0.265
REMARK SMILES O=c1c(O)c(-c2ccc(O)c(O)c2)oc2cc(O)cc(O)c12
REMARK SMILES IDX 5 1 3 2 2 3 1 4 22 5 20 6 19 7 17 8 16 9 15 10 14 11 6 12
REMARK SMILES IDX 7 13 8 14 9 15 13 16 11 17 10 18 12 20 4 22 21 24 18 26
REMARK H PARENT 10 19 12 21 4 23 21 25 18 27
REMARK Flexibility Score: inf
ROOT
ATOM      1  C   UNL     1      31.828 -14.160   1.795  1.00  0.00     0.180 A 
ATOM      2  C   UNL     1      32.354 -13.160   0.955  1.00  0.00     0.208 A 
ATOM      3  C   UNL     1      33.644 -12.668   1.211  1.00  0.00     0.238 A 
ATOM      4  O   UNL     1      34.120 -11.763   0.472  1.00  0.00    -0.285 OA
ATOM      5  C   UNL     1      34.391 -13.196   2.284  1.00  0.00     0.111 A 
ATOM      6  C   UNL     1      35.698 -12.758   2.607  1.00  0.00     0.134 A 
ATOM      7  C   UNL     1      36.379 -13.340   3.686  1.00  0.00     0.093 A 
ATOM      8  C   UNL     1      35.780 -14.351   4.446  1.00  0.00     0.123 A 
ATOM      9  C   UNL     1      34.492 -14.785   4.132  1.00  0.00     0.094 A 
ATOM     10  C   UNL     1      33.795 -14.216   3.062  1.00  0.00     0.146 A 
ATOM     11  O   UNL     1      32.568 -14.645   2.788  1.00  0.00    -0.452 OA
ENDROOT
BRANCH   1  12
ATOM     12  C   UNL     1      30.470 -14.716   1.600  1.00  0.00     0.025 A 
ATOM     13  C   UNL     1      29.524 -14.604   2.631  1.00  0.00     0.016 A 
ATOM     14  C   UNL     1      28.229 -15.102   2.461  1.00  0.00     0.051 A 
ATOM     15  C   UNL     1      27.856 -15.705   1.256  1.00  0.00     0.157 A 
ATOM     16  C   UNL     1      30.087 -15.304   0.381  1.00  0.00     0.062 A 
ATOM     17  C   UNL     1      28.787 -15.803   0.209  1.00  0.00     0.158 A 
BRANCH  15  18
ATOM     18  O   UNL     1      26.559 -16.195   1.117  1.00  0.00    -0.504 OA
ATOM     19  H   UNL     1      26.234 -16.623   0.257  1.00  0.00     0.293 HD
ENDBRANCH  15  18
BRANCH  17  20
ATOM     20  O   UNL     1      28.418 -16.390  -1.001  1.00  0.00    -0.504 OA
ATOM     21  H   UNL     1      28.799 -16.072  -1.884  1.00  0.00     0.293 HD
ENDBRANCH  17  20
ENDBRANCH   1  12
BRANCH   2  22
ATOM     22  O   UNL     1      31.612 -12.689  -0.132  1.00  0.00    -0.502 OA
ATOM     23  H   UNL     1      31.746 -11.762  -0.519  1.00  0.00     0.293 HD
ENDBRANCH   2  22
BRANCH   6  24
ATOM     24  O   UNL     1      36.322 -11.753   1.866  1.00  0.00    -0.507 OA
ATOM     25  H   UNL     1      37.205 -11.909   1.394  1.00  0.00     0.293 HD
ENDBRANCH   6  24
BRANCH   8  26
ATOM     26  O   UNL     1      36.458 -14.930   5.517  1.00  0.00    -0.508 OA
ATOM     27  H   UNL     1      35.988 -15.543   6.173  1.00  0.00     0.293 HD
ENDBRANCH   8  26
TORSDOF 6
ENDMDL
MODEL 6
REMARK VINA RESULT:    -7.247      6.162     11.984
REMARK INTER + INTRA:          -8.994
REMARK INTER:                  -9.243
REMARK INTRA:                   0.248
REMARK UNBOUND:                -0.265
REMARK SMILES O=c1c(O)c(-c2ccc(O)c(O)c2)oc2cc(O)cc(O)c12
REMARK SMILES IDX 5 1 3 2 2 3 1 4 22 5 20 6 19 7 17 8 16 9 15 10 14 11 6 12
REMARK SMILES IDX 7 13 8 14 9 15 13 16 11 17 10 18 12 20 4 22 21 24 18 26
REMARK H PARENT 10 19 12 21 4 23 21 25 18 27
REMARK Flexibility Score: inf
ROOT
ATOM      1  C   UNL     1      33.222 -14.868   2.938  1.00  0.00     0.180 A 
ATOM      2  C   UNL     1      33.530 -15.012   1.571  1.00  0.00     0.208 A 
ATOM      3  C   UNL     1      32.480 -15.173   0.653  1.00  0.00     0.238 A 
ATOM      4  O   UNL     1      32.745 -15.315  -0.572  1.00  0.00    -0.285 OA
ATOM      5  C   UNL     1      31.146 -15.164   1.110  1.00  0.00     0.111 A 
ATOM      6  C   UNL     1      30.032 -15.316   0.250  1.00  0.00     0.134 A 
ATOM      7  C   UNL     1      28.734 -15.288   0.782  1.00  0.00     0.093 A 
ATOM      8  C   UNL     1      28.530 -15.111   2.155  1.00  0.00     0.123 A 
ATOM      9  C   UNL     1      29.626 -14.962   3.007  1.00  0.00     0.094 A 
ATOM     10  C   UNL     1      30.927 -14.989   2.496  1.00  0.00     0.146 A 
ATOM     11  O   UNL     1      31.951 -14.850   3.330  1.00  0.00    -0.452 OA
ENDROOT
BRANCH   1  12
ATOM     12  C   UNL     1      34.274 -14.713   3.968  1.00  0.00     0.025 A 
ATOM     13  C   UNL     1      35.501 -15.375   3.808  1.00  0.00     0.016 A 
ATOM     14  C   UNL     1      36.515 -15.226   4.757  1.00  0.00     0.051 A 
ATOM     15  C   UNL     1      36.326 -14.403   5.870  1.00  0.00     0.157 A 
ATOM     16  C   UNL     1      34.093 -13.868   5.078  1.00  0.00     0.062 A 
ATOM     17  C   UNL     1      35.111 -13.716   6.030  1.00  0.00     0.158 A 
BRANCH  15  18
ATOM     18  O   UNL     1      37.356 -14.275   6.802  1.00  0.00    -0.504 OA
ATOM     19  H   UNL     1      38.252 -14.732   6.679  1.00  0.00     0.293 HD
ENDBRANCH  15  18
BRANCH  17  20
ATOM     20  O   UNL     1      34.921 -12.881   7.131  1.00  0.00    -0.504 OA
ATOM     21  H   UNL     1      34.109 -12.969   7.731  1.00  0.00     0.293 HD
ENDBRANCH  17  20
ENDBRANCH   1  12
BRANCH   2  22
ATOM     22  O   UNL     1      34.858 -14.968   1.138  1.00  0.00    -0.502 OA
ATOM     23  H   UNL     1      35.500 -15.739   1.275  1.00  0.00     0.293 HD
ENDBRANCH   2  22
BRANCH   6  24
ATOM     24  O   UNL     1      30.204 -15.493  -1.124  1.00  0.00    -0.507 OA
ATOM     25  H   UNL     1      31.069 -15.243  -1.589  1.00  0.00     0.293 HD
ENDBRANCH   6  24
BRANCH   8  26
ATOM     26  O   UNL     1      27.242 -15.082   2.683  1.00  0.00    -0.508 OA
ATOM     27  H   UNL     1      26.908 -15.806   3.308  1.00  0.00     0.293 HD
ENDBRANCH   8  26
TORSDOF 6
ENDMDL
MODEL 7
REMARK VINA RESULT:    -7.130      3.653      9.204
REMARK INTER + INTRA:          -8.854
REMARK INTER:                  -8.549
REMARK INTRA:                  -0.305
REMARK UNBOUND:                -0.265
REMARK SMILES O=c1c(O)c(-c2ccc(O)c(O)c2)oc2cc(O)cc(O)c12
REMARK SMILES IDX 5 1 3 2 2 3 1 4 22 5 20 6 19 7 17 8 16 9 15 10 14 11 6 12
REMARK SMILES IDX 7 13 8 14 9 15 13 16 11 17 10 18 12 20 4 22 21 24 18 26
REMARK H PARENT 10 19 12 21 4 23 21 25 18 27
REMARK Flexibility Score: inf
ROOT
ATOM      1  C   UNL     1      36.048 -13.392   4.669  1.00  0.00     0.180 A 
ATOM      2  C   UNL     1      36.716 -13.384   3.429  1.00  0.00     0.208 A 
ATOM      3  C   UNL     1      36.045 -13.869   2.295  1.00  0.00     0.238 A 
ATOM      4  O   UNL     1      36.638 -13.878   1.181  1.00  0.00    -0.285 OA
ATOM      5  C   UNL     1      34.719 -14.332   2.413  1.00  0.00     0.111 A 
ATOM      6  C   UNL     1      33.973 -14.833   1.319  1.00  0.00     0.134 A 
ATOM      7  C   UNL     1      32.654 -15.266   1.517  1.00  0.00     0.093 A 
ATOM      8  C   UNL     1      32.067 -15.208   2.787  1.00  0.00     0.123 A 
ATOM      9  C   UNL     1      32.799 -14.717   3.868  1.00  0.00     0.094 A 
ATOM     10  C   UNL     1      34.116 -14.281   3.691  1.00  0.00     0.146 A 
ATOM     11  O   UNL     1      34.791 -13.822   4.739  1.00  0.00    -0.452 OA
ENDROOT
BRANCH   1  12
ATOM     12  C   UNL     1      36.693 -12.915   5.913  1.00  0.00     0.025 A 
ATOM     13  C   UNL     1      37.311 -13.839   6.769  1.00  0.00     0.016 A 
ATOM     14  C   UNL     1      37.945 -13.408   7.937  1.00  0.00     0.051 A 
ATOM     15  C   UNL     1      37.986 -12.049   8.259  1.00  0.00     0.157 A 
ATOM     16  C   UNL     1      36.754 -11.545   6.227  1.00  0.00     0.062 A 
ATOM     17  C   UNL     1      37.392 -11.111   7.398  1.00  0.00     0.158 A 
BRANCH  15  18
ATOM     18  O   UNL     1      38.624 -11.650   9.433  1.00  0.00    -0.504 OA
ATOM     19  H   UNL     1      38.858 -12.307  10.168  1.00  0.00     0.293 HD
ENDBRANCH  15  18
BRANCH  17  20
ATOM     20  O   UNL     1      37.442  -9.752   7.706  1.00  0.00    -0.504 OA
ATOM     21  H   UNL     1      37.967  -9.097   7.138  1.00  0.00     0.293 HD
ENDBRANCH  17  20
ENDBRANCH   1  12
BRANCH   2  22
ATOM     22  O   UNL     1      38.013 -12.874   3.329  1.00  0.00    -0.502 OA
ATOM     23  H   UNL     1      38.831 -13.472   3.311  1.00  0.00     0.293 HD
ENDBRANCH   2  22
BRANCH   6  24
ATOM     24  O   UNL     1      34.530 -14.901   0.041  1.00  0.00    -0.507 OA
ATOM     25  H   UNL     1      34.966 -15.749  -0.305  1.00  0.00     0.293 HD
ENDBRANCH   6  24
BRANCH   8  26
ATOM     26  O   UNL     1      30.757 -15.638   2.983  1.00  0.00    -0.508 OA
ATOM     27  H   UNL     1      30.370 -16.416   2.461  1.00  0.00     0.293 HD
ENDBRANCH   8  26
TORSDOF 6
ENDMDL
MODEL 8
REMARK VINA RESULT:    -7.127      8.256     11.680
REMARK INTER + INTRA:          -8.850
REMARK INTER:                  -8.814
REMARK INTRA:                  -0.035
REMARK UNBOUND:                -0.265
REMARK SMILES O=c1c(O)c(-c2ccc(O)c(O)c2)oc2cc(O)cc(O)c12
REMARK SMILES IDX 5 1 3 2 2 3 1 4 22 5 20 6 19 7 17 8 16 9 15 10 14 11 6 12
REMARK SMILES IDX 7 13 8 14 9 15 13 16 11 17 10 18 12 20 4 22 21 24 18 26
REMARK H PARENT 10 19 12 21 4 23 21 25 18 27
REMARK Flexibility Score: inf
ROOT
ATOM      1  C   UNL     1      31.735 -14.359   1.297  1.00  0.00     0.180 A 
ATOM      2  C   UNL     1      32.423 -14.960   2.369  1.00  0.00     0.208 A 
ATOM      3  C   UNL     1      33.625 -14.386   2.811  1.00  0.00     0.238 A 
ATOM      4  O   UNL     1      34.255 -14.922   3.763  1.00  0.00    -0.285 OA
ATOM      5  C   UNL     1      34.108 -13.215   2.191  1.00  0.00     0.111 A 
ATOM      6  C   UNL     1      35.308 -12.572   2.578  1.00  0.00     0.134 A 
ATOM      7  C   UNL     1      35.716 -11.404   1.916  1.00  0.00     0.093 A 
ATOM      8  C   UNL     1      34.947 -10.868   0.877  1.00  0.00     0.123 A 
ATOM      9  C   UNL     1      33.764 -11.498   0.492  1.00  0.00     0.094 A 
ATOM     10  C   UNL     1      33.341 -12.665   1.137  1.00  0.00     0.146 A 
ATOM     11  O   UNL     1      32.213 -13.247   0.747  1.00  0.00    -0.452 OA
ENDROOT
BRANCH   1  12
ATOM     12  C   UNL     1      30.472 -14.916   0.763  1.00  0.00     0.025 A 
ATOM     13  C   UNL     1      30.386 -15.251  -0.597  1.00  0.00     0.016 A 
ATOM     14  C   UNL     1      29.210 -15.798  -1.118  1.00  0.00     0.051 A 
ATOM     15  C   UNL     1      28.110 -16.032  -0.288  1.00  0.00     0.157 A 
ATOM     16  C   UNL     1      29.372 -15.172   1.601  1.00  0.00     0.062 A 
ATOM     17  C   UNL     1      28.192 -15.723   1.080  1.00  0.00     0.158 A 
BRANCH  15  18
ATOM     18  O   UNL     1      26.950 -16.577  -0.837  1.00  0.00    -0.504 OA
ATOM     19  H   UNL     1      26.083 -16.055  -0.889  1.00  0.00     0.293 HD
ENDBRANCH  15  18
BRANCH  17  20
ATOM     20  O   UNL     1      27.104 -15.968   1.917  1.00  0.00    -0.504 OA
ATOM     21  H   UNL     1      27.064 -16.789   2.509  1.00  0.00     0.293 HD
ENDBRANCH  17  20
ENDBRANCH   1  12
BRANCH   2  22
ATOM     22  O   UNL     1      31.898 -16.092   2.999  1.00  0.00    -0.502 OA
ATOM     23  H   UNL     1      31.013 -16.077   3.493  1.00  0.00     0.293 HD
ENDBRANCH   2  22
BRANCH   6  24
ATOM     24  O   UNL     1      36.095 -13.083   3.612  1.00  0.00    -0.507 OA
ATOM     25  H   UNL     1      36.171 -14.079   3.781  1.00  0.00     0.293 HD
ENDBRANCH   6  24
BRANCH   8  26
ATOM     26  O   UNL     1      35.352  -9.707   0.222  1.00  0.00    -0.508 OA
ATOM     27  H   UNL     1      35.822  -9.741  -0.676  1.00  0.00     0.293 HD
ENDBRANCH   8  26
TORSDOF 6
ENDMDL
MODEL 9
REMARK VINA RESULT:    -7.076      1.957      7.301
REMARK INTER + INTRA:          -8.789
REMARK INTER:                  -8.480
REMARK INTRA:                  -0.309
REMARK UNBOUND:                -0.265
REMARK SMILES O=c1c(O)c(-c2ccc(O)c(O)c2)oc2cc(O)cc(O)c12
REMARK SMILES IDX 5 1 3 2 2 3 1 4 22 5 20 6 19 7 17 8 16 9 15 10 14 11 6 12
REMARK SMILES IDX 7 13 8 14 9 15 13 16 11 17 10 18 12 20 4 22 21 24 18 26
REMARK H PARENT 10 19 12 21 4 23 21 25 18 27
REMARK Flexibility Score: inf
ROOT
ATOM      1  C   UNL     1      39.120 -11.463   7.970  1.00  0.00     0.180 A 
ATOM      2  C   UNL     1      37.962 -12.204   8.274  1.00  0.00     0.208 A 
ATOM      3  C   UNL     1      36.986 -12.376   7.279  1.00  0.00     0.238 A 
ATOM      4  O   UNL     1      35.939 -13.028   7.544  1.00  0.00    -0.285 OA
ATOM      5  C   UNL     1      37.193 -11.825   5.997  1.00  0.00     0.111 A 
ATOM      6  C   UNL     1      36.261 -11.956   4.939  1.00  0.00     0.134 A 
ATOM      7  C   UNL     1      36.544 -11.386   3.689  1.00  0.00     0.093 A 
ATOM      8  C   UNL     1      37.739 -10.689   3.478  1.00  0.00     0.123 A 
ATOM      9  C   UNL     1      38.660 -10.557   4.518  1.00  0.00     0.094 A 
ATOM     10  C   UNL     1      38.395 -11.116   5.772  1.00  0.00     0.146 A 
ATOM     11  O   UNL     1      39.287 -10.971   6.745  1.00  0.00    -0.452 OA
ENDROOT
BRANCH   1  12
ATOM     12  C   UNL     1      40.185 -11.222   8.970  1.00  0.00     0.025 A 
ATOM     13  C   UNL     1      41.376 -11.960   8.900  1.00  0.00     0.016 A 
ATOM     14  C   UNL     1      42.403 -11.734   9.821  1.00  0.00     0.051 A 
ATOM     15  C   UNL     1      42.262 -10.760  10.813  1.00  0.00     0.157 A 
ATOM     16  C   UNL     1      40.053 -10.228   9.956  1.00  0.00     0.062 A 
ATOM     17  C   UNL     1      41.084  -9.999  10.878  1.00  0.00     0.158 A 
BRANCH  15  18
ATOM     18  O   UNL     1      43.303 -10.559  11.719  1.00  0.00    -0.504 OA
ATOM     19  H   UNL     1      44.152 -11.112  11.694  1.00  0.00     0.293 HD
ENDBRANCH  15  18
BRANCH  17  20
ATOM     20  O   UNL     1      40.942  -9.015  11.857  1.00  0.00    -0.504 OA
ATOM     21  H   UNL     1      41.400  -8.114  11.775  1.00  0.00     0.293 HD
ENDBRANCH  17  20
ENDBRANCH   1  12
BRANCH   2  22
ATOM     22  O   UNL     1      37.804 -12.781   9.536  1.00  0.00    -0.502 OA
ATOM     23  H   UNL     1      38.369 -13.562   9.851  1.00  0.00     0.293 HD
ENDBRANCH   2  22
BRANCH   6  24
ATOM     24  O   UNL     1      35.061 -12.646   5.120  1.00  0.00    -0.507 OA
ATOM     25  H   UNL     1      34.926 -13.285   5.895  1.00  0.00     0.293 HD
ENDBRANCH   6  24
BRANCH   8  26
ATOM     26  O   UNL     1      38.021 -10.124   2.236  1.00  0.00    -0.508 OA
ATOM     27  H   UNL     1      38.921  -9.703   2.036  1.00  0.00     0.293 HD
ENDBRANCH   8  26
TORSDOF 6
ENDMDL
