MODEL 1
REMARK VINA RESULT:    -5.844      0.000      0.000
REMARK INTER + INTRA:          -7.079
REMARK INTER:                  -6.869
REMARK INTRA:                  -0.210
REMARK UNBOUND:                -0.210
REMARK SMILES O=c1c(O)c(-c2ccc(O)cc2)oc2cc(O)cc(O)c12
REMARK SMILES IDX 5 1 3 2 2 3 1 4 21 5 19 6 18 7 16 8 15 9 14 10 13 11 6 12
REMARK SMILES IDX 7 13 8 14 9 15 12 16 11 17 10 18 4 20 20 22 17 24
REMARK H PARENT 10 19 4 21 20 23 17 25
REMARK Flexibility Score: inf
ROOT
ATOM      1  C   UNL     1      30.717   8.546  30.967  1.00  0.00     0.180 A 
ATOM      2  C   UNL     1      31.048   7.291  30.426  1.00  0.00     0.208 A 
ATOM      3  C   UNL     1      30.701   7.011  29.095  1.00  0.00     0.238 A 
ATOM      4  O   UNL     1      31.065   5.916  28.594  1.00  0.00    -0.285 OA
ATOM      5  C   UNL     1      29.978   7.966  28.339  1.00  0.00     0.111 A 
ATOM      6  C   UNL     1      29.535   7.772  26.995  1.00  0.00     0.134 A 
ATOM      7  C   UNL     1      28.920   8.828  26.311  1.00  0.00     0.093 A 
ATOM      8  C   UNL     1      28.675  10.048  26.939  1.00  0.00     0.123 A 
ATOM      9  C   UNL     1      29.056  10.231  28.269  1.00  0.00     0.094 A 
ATOM     10  C   UNL     1      29.704   9.210  28.967  1.00  0.00     0.146 A 
ATOM     11  O   UNL     1      30.068   9.433  30.223  1.00  0.00    -0.452 OA
ENDROOT
BRANCH   1  12
ATOM     12  C   UNL     1      31.062   8.919  32.357  1.00  0.00     0.021 A 
ATOM     13  C   UNL     1      30.331   8.368  33.423  1.00  0.00     0.016 A 
ATOM     14  C   UNL     1      30.624   8.725  34.742  1.00  0.00     0.047 A 
ATOM     15  C   UNL     1      31.639   9.645  35.014  1.00  0.00     0.115 A 
ATOM     16  C   UNL     1      32.070   9.861  32.636  1.00  0.00     0.016 A 
ATOM     17  C   UNL     1      32.360  10.216  33.957  1.00  0.00     0.047 A 
BRANCH  15  18
ATOM     18  O   UNL     1      31.922   9.990  36.334  1.00  0.00    -0.508 OA
ATOM     19  H   UNL     1      32.732   9.619  36.817  1.00  0.00     0.293 HD
ENDBRANCH  15  18
ENDBRANCH   1  12
BRANCH   2  20
ATOM     20  O   UNL     1      31.693   6.333  31.212  1.00  0.00    -0.502 OA
ATOM     21  H   UNL     1      32.576   5.916  30.946  1.00  0.00     0.293 HD
ENDBRANCH   2  20
BRANCH   6  22
ATOM     22  O   UNL     1      29.648   6.564  26.300  1.00  0.00    -0.507 OA
ATOM     23  H   UNL     1      29.238   6.375  25.399  1.00  0.00     0.293 HD
ENDBRANCH   6  22
BRANCH   8  24
ATOM     24  O   UNL     1      28.047  11.071  26.233  1.00  0.00    -0.508 OA
ATOM     25  H   UNL     1      27.091  10.982  25.907  1.00  0.00     0.293 HD
ENDBRANCH   8  24
TORSDOF 5
ENDMDL
MODEL 2
REMARK VINA RESULT:    -5.842      3.243      5.455
REMARK INTER + INTRA:          -7.077
REMARK INTER:                  -6.907
REMARK INTRA:                  -0.169
REMARK UNBOUND:                -0.210
REMARK SMILES O=c1c(O)c(-c2ccc(O)cc2)oc2cc(O)cc(O)c12
REMARK SMILES IDX 5 1 3 2 2 3 1 4 21 5 19 6 18 7 16 8 15 9 14 10 13 11 6 12
REMARK SMILES IDX 7 13 8 14 9 15 12 16 11 17 10 18 4 20 20 22 17 24
REMARK H PARENT 10 19 4 21 20 23 17 25
REMARK Flexibility Score: inf
ROOT
ATOM      1  C   UNL     1      30.163   8.566  26.023  1.00  0.00     0.180 A 
ATOM      2  C   UNL     1      29.673   7.840  24.924  1.00  0.00     0.208 A 
ATOM      3  C   UNL     1      29.385   8.521  23.731  1.00  0.00     0.238 A 
ATOM      4  O   UNL     1      29.017   7.855  22.730  1.00  0.00    -0.285 OA
ATOM      5  C   UNL     1      29.536   9.928  23.668  1.00  0.00     0.111 A 
ATOM      6  C   UNL     1      29.232  10.728  22.525  1.00  0.00     0.134 A 
ATOM      7  C   UNL     1      29.523  12.098  22.543  1.00  0.00     0.093 A 
ATOM      8  C   UNL     1      30.047  12.708  23.682  1.00  0.00     0.123 A 
ATOM      9  C   UNL     1      30.298  11.946  24.823  1.00  0.00     0.094 A 
ATOM     10  C   UNL     1      30.054  10.571  24.824  1.00  0.00     0.146 A 
ATOM     11  O   UNL     1      30.327   9.880  25.924  1.00  0.00    -0.452 OA
ENDROOT
BRANCH   1  12
ATOM     12  C   UNL     1      30.503   7.916  27.309  1.00  0.00     0.021 A 
ATOM     13  C   UNL     1      29.788   8.260  28.468  1.00  0.00     0.016 A 
ATOM     14  C   UNL     1      30.106   7.677  29.697  1.00  0.00     0.047 A 
ATOM     15  C   UNL     1      31.152   6.754  29.788  1.00  0.00     0.115 A 
ATOM     16  C   UNL     1      31.568   7.002  27.410  1.00  0.00     0.016 A 
ATOM     17  C   UNL     1      31.885   6.421  28.642  1.00  0.00     0.047 A 
BRANCH  15  18
ATOM     18  O   UNL     1      31.458   6.179  31.020  1.00  0.00    -0.508 OA
ATOM     19  H   UNL     1      30.900   6.364  31.845  1.00  0.00     0.293 HD
ENDBRANCH  15  18
ENDBRANCH   1  12
BRANCH   2  20
ATOM     20  O   UNL     1      29.456   6.464  25.031  1.00  0.00    -0.502 OA
ATOM     21  H   UNL     1      30.022   5.868  25.623  1.00  0.00     0.293 HD
ENDBRANCH   2  20
BRANCH   6  22
ATOM     22  O   UNL     1      28.624  10.237  21.365  1.00  0.00    -0.507 OA
ATOM     23  H   UNL     1      28.796   9.329  20.963  1.00  0.00     0.293 HD
ENDBRANCH   6  22
BRANCH   8  24
ATOM     24  O   UNL     1      30.309  14.076  23.670  1.00  0.00    -0.508 OA
ATOM     25  H   UNL     1      30.935  14.503  24.343  1.00  0.00     0.293 HD
ENDBRANCH   8  24
TORSDOF 5
ENDMDL
MODEL 3
REMARK VINA RESULT:    -5.761      1.316      1.802
REMARK INTER + INTRA:          -6.981
REMARK INTER:                  -6.968
REMARK INTRA:                  -0.013
REMARK UNBOUND:                -0.210
REMARK SMILES O=c1c(O)c(-c2ccc(O)cc2)oc2cc(O)cc(O)c12
REMARK SMILES IDX 5 1 3 2 2 3 1 4 21 5 19 6 18 7 16 8 15 9 14 10 13 11 6 12
REMARK SMILES IDX 7 13 8 14 9 15 12 16 11 17 10 18 4 20 20 22 17 24
REMARK H PARENT 10 19 4 21 20 23 17 25
REMARK Flexibility Score: inf
ROOT
ATOM      1  C   UNL     1      31.009   8.473  32.675  1.00  0.00     0.180 A 
ATOM      2  C   UNL     1      31.446   7.291  32.053  1.00  0.00     0.208 A 
ATOM      3  C   UNL     1      31.250   7.135  30.671  1.00  0.00     0.238 A 
ATOM      4  O   UNL     1      31.710   6.109  30.108  1.00  0.00    -0.285 OA
ATOM      5  C   UNL     1      30.567   8.137  29.939  1.00  0.00     0.111 A 
ATOM      6  C   UNL     1      30.273   8.065  28.544  1.00  0.00     0.134 A 
ATOM      7  C   UNL     1      29.686   9.165  27.904  1.00  0.00     0.093 A 
ATOM      8  C   UNL     1      29.326  10.306  28.618  1.00  0.00     0.123 A 
ATOM      9  C   UNL     1      29.560  10.367  29.992  1.00  0.00     0.094 A 
ATOM     10  C   UNL     1      30.178   9.302  30.652  1.00  0.00     0.146 A 
ATOM     11  O   UNL     1      30.401   9.409  31.956  1.00  0.00    -0.452 OA
ENDROOT
BRANCH   1  12
ATOM     12  C   UNL     1      31.194   8.715  34.123  1.00  0.00     0.021 A 
ATOM     13  C   UNL     1      30.671   7.798  35.050  1.00  0.00     0.016 A 
ATOM     14  C   UNL     1      30.813   8.018  36.423  1.00  0.00     0.047 A 
ATOM     15  C   UNL     1      31.465   9.163  36.888  1.00  0.00     0.115 A 
ATOM     16  C   UNL     1      31.831   9.876  34.598  1.00  0.00     0.016 A 
ATOM     17  C   UNL     1      31.971  10.094  35.972  1.00  0.00     0.047 A 
BRANCH  15  18
ATOM     18  O   UNL     1      31.602   9.369  38.260  1.00  0.00    -0.508 OA
ATOM     19  H   UNL     1      31.437  10.277  38.677  1.00  0.00     0.293 HD
ENDBRANCH  15  18
ENDBRANCH   1  12
BRANCH   2  20
ATOM     20  O   UNL     1      32.049   6.280  32.807  1.00  0.00    -0.502 OA
ATOM     21  H   UNL     1      31.548   5.757  33.515  1.00  0.00     0.293 HD
ENDBRANCH   2  20
BRANCH   6  22
ATOM     22  O   UNL     1      30.508   6.938  27.751  1.00  0.00    -0.507 OA
ATOM     23  H   UNL     1      31.096   6.920  26.932  1.00  0.00     0.293 HD
ENDBRANCH   6  22
BRANCH   8  24
ATOM     24  O   UNL     1      28.730  11.374  27.952  1.00  0.00    -0.508 OA
ATOM     25  H   UNL     1      27.896  11.825  28.312  1.00  0.00     0.293 HD
ENDBRANCH   8  24
TORSDOF 5
ENDMDL
MODEL 4
REMARK VINA RESULT:    -5.661      1.669      3.356
REMARK INTER + INTRA:          -6.864
REMARK INTER:                  -6.585
REMARK INTRA:                  -0.279
REMARK UNBOUND:                -0.210
REMARK SMILES O=c1c(O)c(-c2ccc(O)cc2)oc2cc(O)cc(O)c12
REMARK SMILES IDX 5 1 3 2 2 3 1 4 21 5 19 6 18 7 16 8 15 9 14 10 13 11 6 12
REMARK SMILES IDX 7 13 8 14 9 15 12 16 11 17 10 18 4 20 20 22 17 24
REMARK H PARENT 10 19 4 21 20 23 17 25
REMARK Flexibility Score: inf
ROOT
ATOM      1  C   UNL     1      30.224  10.603  30.806  1.00  0.00     0.180 A 
ATOM      2  C   UNL     1      29.903  11.875  30.301  1.00  0.00     0.208 A 
ATOM      3  C   UNL     1      29.419  11.983  28.988  1.00  0.00     0.238 A 
ATOM      4  O   UNL     1      29.063  13.115  28.568  1.00  0.00    -0.285 OA
ATOM      5  C   UNL     1      29.316  10.828  28.176  1.00  0.00     0.111 A 
ATOM      6  C   UNL     1      28.881  10.826  26.816  1.00  0.00     0.134 A 
ATOM      7  C   UNL     1      28.717   9.608  26.144  1.00  0.00     0.093 A 
ATOM      8  C   UNL     1      29.032   8.398  26.760  1.00  0.00     0.123 A 
ATOM      9  C   UNL     1      29.510   8.391  28.071  1.00  0.00     0.094 A 
ATOM     10  C   UNL     1      29.648   9.586  28.780  1.00  0.00     0.146 A 
ATOM     11  O   UNL     1      30.086   9.533  30.032  1.00  0.00    -0.452 OA
ENDROOT
BRANCH   1  12
ATOM     12  C   UNL     1      30.725  10.406  32.185  1.00  0.00     0.021 A 
ATOM     13  C   UNL     1      29.817  10.111  33.215  1.00  0.00     0.016 A 
ATOM     14  C   UNL     1      30.264   9.944  34.528  1.00  0.00     0.047 A 
ATOM     15  C   UNL     1      31.621  10.084  34.833  1.00  0.00     0.115 A 
ATOM     16  C   UNL     1      32.087  10.566  32.501  1.00  0.00     0.016 A 
ATOM     17  C   UNL     1      32.531  10.399  33.816  1.00  0.00     0.047 A 
BRANCH  15  18
ATOM     18  O   UNL     1      32.054   9.914  36.146  1.00  0.00    -0.508 OA
ATOM     19  H   UNL     1      31.885   9.053  36.652  1.00  0.00     0.293 HD
ENDBRANCH  15  18
ENDBRANCH   1  12
BRANCH   2  20
ATOM     20  O   UNL     1      30.084  13.012  31.092  1.00  0.00    -0.502 OA
ATOM     21  H   UNL     1      30.156  13.943  30.699  1.00  0.00     0.293 HD
ENDBRANCH   2  20
BRANCH   6  22
ATOM     22  O   UNL     1      28.623  11.984  26.075  1.00  0.00    -0.507 OA
ATOM     23  H   UNL     1      27.705  12.341  25.863  1.00  0.00     0.293 HD
ENDBRANCH   6  22
BRANCH   8  24
ATOM     24  O   UNL     1      28.873   7.206  26.056  1.00  0.00    -0.508 OA
ATOM     25  H   UNL     1      28.422   6.400  26.473  1.00  0.00     0.293 HD
ENDBRANCH   8  24
TORSDOF 5
ENDMDL
MODEL 5
REMARK VINA RESULT:    -5.571      3.213      5.364
REMARK INTER + INTRA:          -6.758
REMARK INTER:                  -6.700
REMARK INTRA:                  -0.058
REMARK UNBOUND:                -0.210
REMARK SMILES O=c1c(O)c(-c2ccc(O)cc2)oc2cc(O)cc(O)c12
REMARK SMILES IDX 5 1 3 2 2 3 1 4 21 5 19 6 18 7 16 8 15 9 14 10 13 11 6 12
REMARK SMILES IDX 7 13 8 14 9 15 12 16 11 17 10 18 4 20 20 22 17 24
REMARK H PARENT 10 19 4 21 20 23 17 25
REMARK Flexibility Score: inf
ROOT
ATOM      1  C   UNL     1      29.400  11.074  29.873  1.00  0.00     0.180 A 
ATOM      2  C   UNL     1      28.351  11.668  30.595  1.00  0.00     0.208 A 
ATOM      3  C   UNL     1      27.777  12.854  30.110  1.00  0.00     0.238 A 
ATOM      4  O   UNL     1      26.790  13.340  30.721  1.00  0.00    -0.285 OA
ATOM      5  C   UNL     1      28.296  13.463  28.942  1.00  0.00     0.111 A 
ATOM      6  C   UNL     1      27.822  14.689  28.384  1.00  0.00     0.134 A 
ATOM      7  C   UNL     1      28.342  15.140  27.164  1.00  0.00     0.093 A 
ATOM      8  C   UNL     1      29.360  14.445  26.514  1.00  0.00     0.123 A 
ATOM      9  C   UNL     1      29.869  13.274  27.077  1.00  0.00     0.094 A 
ATOM     10  C   UNL     1      29.345  12.779  28.273  1.00  0.00     0.146 A 
ATOM     11  O   UNL     1      29.843  11.650  28.762  1.00  0.00    -0.452 OA
ENDROOT
BRANCH   1  12
ATOM     12  C   UNL     1      30.045   9.816  30.312  1.00  0.00     0.021 A 
ATOM     13  C   UNL     1      30.006   8.689  29.473  1.00  0.00     0.016 A 
ATOM     14  C   UNL     1      30.588   7.485  29.877  1.00  0.00     0.047 A 
ATOM     15  C   UNL     1      31.202   7.384  31.128  1.00  0.00     0.115 A 
ATOM     16  C   UNL     1      30.647   9.703  31.579  1.00  0.00     0.016 A 
ATOM     17  C   UNL     1      31.227   8.496  31.980  1.00  0.00     0.047 A 
BRANCH  15  18
ATOM     18  O   UNL     1      31.780   6.177  31.517  1.00  0.00    -0.508 OA
ATOM     19  H   UNL     1      31.217   5.356  31.702  1.00  0.00     0.293 HD
ENDBRANCH  15  18
ENDBRANCH   1  12
BRANCH   2  20
ATOM     20  O   UNL     1      27.904  11.094  31.788  1.00  0.00    -0.502 OA
ATOM     21  H   UNL     1      28.153  10.152  32.066  1.00  0.00     0.293 HD
ENDBRANCH   2  20
BRANCH   6  22
ATOM     22  O   UNL     1      26.869  15.510  28.996  1.00  0.00    -0.507 OA
ATOM     23  H   UNL     1      26.351  16.239  28.531  1.00  0.00     0.293 HD
ENDBRANCH   6  22
BRANCH   8  24
ATOM     24  O   UNL     1      29.865  14.932  25.311  1.00  0.00    -0.508 OA
ATOM     25  H   UNL     1      29.757  14.419  24.443  1.00  0.00     0.293 HD
ENDBRANCH   8  24
TORSDOF 5
ENDMDL
MODEL 6
REMARK VINA RESULT:    -5.439      1.903      6.329
REMARK INTER + INTRA:          -6.603
REMARK INTER:                  -6.307
REMARK INTRA:                  -0.295
REMARK UNBOUND:                -0.210
REMARK SMILES O=c1c(O)c(-c2ccc(O)cc2)oc2cc(O)cc(O)c12
REMARK SMILES IDX 5 1 3 2 2 3 1 4 21 5 19 6 18 7 16 8 15 9 14 10 13 11 6 12
REMARK SMILES IDX 7 13 8 14 9 15 12 16 11 17 10 18 4 20 20 22 17 24
REMARK H PARENT 10 19 4 21 20 23 17 25
REMARK Flexibility Score: inf
ROOT
ATOM      1  C   UNL     1      29.417  10.134  28.746  1.00  0.00     0.180 A 
ATOM      2  C   UNL     1      29.550   8.850  28.190  1.00  0.00     0.208 A 
ATOM      3  C   UNL     1      30.131   7.831  28.961  1.00  0.00     0.238 A 
ATOM      4  O   UNL     1      30.179   6.667  28.485  1.00  0.00    -0.285 OA
ATOM      5  C   UNL     1      30.622   8.120  30.258  1.00  0.00     0.111 A 
ATOM      6  C   UNL     1      31.269   7.176  31.111  1.00  0.00     0.134 A 
ATOM      7  C   UNL     1      31.618   7.549  32.416  1.00  0.00     0.093 A 
ATOM      8  C   UNL     1      31.402   8.847  32.875  1.00  0.00     0.123 A 
ATOM      9  C   UNL     1      30.820   9.794  32.031  1.00  0.00     0.094 A 
ATOM     10  C   UNL     1      30.427   9.442  30.738  1.00  0.00     0.146 A 
ATOM     11  O   UNL     1      29.857  10.367  29.976  1.00  0.00    -0.452 OA
ENDROOT
BRANCH   1  12
ATOM     12  C   UNL     1      28.803  11.255  28.000  1.00  0.00     0.021 A 
ATOM     13  C   UNL     1      29.618  12.101  27.228  1.00  0.00     0.016 A 
ATOM     14  C   UNL     1      29.063  13.180  26.534  1.00  0.00     0.047 A 
ATOM     15  C   UNL     1      27.692  13.437  26.613  1.00  0.00     0.115 A 
ATOM     16  C   UNL     1      27.426  11.531  28.091  1.00  0.00     0.016 A 
ATOM     17  C   UNL     1      26.874  12.612  27.396  1.00  0.00     0.047 A 
BRANCH  15  18
ATOM     18  O   UNL     1      27.151  14.515  25.915  1.00  0.00    -0.508 OA
ATOM     19  H   UNL     1      26.410  14.389  25.236  1.00  0.00     0.293 HD
ENDBRANCH  15  18
ENDBRANCH   1  12
BRANCH   2  20
ATOM     20  O   UNL     1      29.130   8.603  26.880  1.00  0.00    -0.502 OA
ATOM     21  H   UNL     1      29.676   8.876  26.072  1.00  0.00     0.293 HD
ENDBRANCH   2  20
BRANCH   6  22
ATOM     22  O   UNL     1      31.613   5.877  30.724  1.00  0.00    -0.507 OA
ATOM     23  H   UNL     1      32.556   5.537  30.616  1.00  0.00     0.293 HD
ENDBRANCH   6  22
BRANCH   8  24
ATOM     24  O   UNL     1      31.777   9.188  34.173  1.00  0.00    -0.508 OA
ATOM     25  H   UNL     1      31.141   9.666  34.801  1.00  0.00     0.293 HD
ENDBRANCH   8  24
TORSDOF 5
ENDMDL
MODEL 7
REMARK VINA RESULT:    -5.397      5.901      7.998
REMARK INTER + INTRA:          -6.553
REMARK INTER:                  -6.255
REMARK INTRA:                  -0.298
REMARK UNBOUND:                -0.210
REMARK SMILES O=c1c(O)c(-c2ccc(O)cc2)oc2cc(O)cc(O)c12
REMARK SMILES IDX 5 1 3 2 2 3 1 4 21 5 19 6 18 7 16 8 15 9 14 10 13 11 6 12
REMARK SMILES IDX 7 13 8 14 9 15 12 16 11 17 10 18 4 20 20 22 17 24
REMARK H PARENT 10 19 4 21 20 23 17 25
REMARK Flexibility Score: inf
ROOT
ATOM      1  C   UNL     1      29.378  12.647  24.824  1.00  0.00     0.180 A 
ATOM      2  C   UNL     1      30.339  12.588  23.799  1.00  0.00     0.208 A 
ATOM      3  C   UNL     1      30.839  11.336  23.408  1.00  0.00     0.238 A 
ATOM      4  O   UNL     1      31.642  11.283  22.440  1.00  0.00    -0.285 OA
ATOM      5  C   UNL     1      30.418  10.165  24.083  1.00  0.00     0.111 A 
ATOM      6  C   UNL     1      30.892   8.848  23.800  1.00  0.00     0.134 A 
ATOM      7  C   UNL     1      30.323   7.752  24.461  1.00  0.00     0.093 A 
ATOM      8  C   UNL     1      29.345   7.928  25.439  1.00  0.00     0.123 A 
ATOM      9  C   UNL     1      28.912   9.215  25.761  1.00  0.00     0.094 A 
ATOM     10  C   UNL     1      29.432  10.325  25.093  1.00  0.00     0.146 A 
ATOM     11  O   UNL     1      28.977  11.529  25.416  1.00  0.00    -0.452 OA
ENDROOT
BRANCH   1  12
ATOM     12  C   UNL     1      28.793  13.928  25.281  1.00  0.00     0.021 A 
ATOM     13  C   UNL     1      29.342  14.579  26.399  1.00  0.00     0.016 A 
ATOM     14  C   UNL     1      28.791  15.777  26.862  1.00  0.00     0.047 A 
ATOM     15  C   UNL     1      27.678  16.333  26.226  1.00  0.00     0.115 A 
ATOM     16  C   UNL     1      27.660  14.481  24.657  1.00  0.00     0.016 A 
ATOM     17  C   UNL     1      27.111  15.680  25.124  1.00  0.00     0.047 A 
BRANCH  15  18
ATOM     18  O   UNL     1      27.140  17.528  26.698  1.00  0.00    -0.508 OA
ATOM     19  H   UNL     1      26.407  17.540  27.397  1.00  0.00     0.293 HD
ENDBRANCH  15  18
ENDBRANCH   1  12
BRANCH   2  20
ATOM     20  O   UNL     1      30.800  13.761  23.197  1.00  0.00    -0.502 OA
ATOM     21  H   UNL     1      31.346  13.758  22.344  1.00  0.00     0.293 HD
ENDBRANCH   2  20
BRANCH   6  22
ATOM     22  O   UNL     1      31.929   8.565  22.906  1.00  0.00    -0.507 OA
ATOM     23  H   UNL     1      32.047   7.692  22.416  1.00  0.00     0.293 HD
ENDBRANCH   6  22
BRANCH   8  24
ATOM     24  O   UNL     1      28.814   6.816  26.088  1.00  0.00    -0.508 OA
ATOM     25  H   UNL     1      28.452   6.876  27.033  1.00  0.00     0.293 HD
ENDBRANCH   8  24
TORSDOF 5
ENDMDL
MODEL 8
REMARK VINA RESULT:    -5.329      2.413      5.935
REMARK INTER + INTRA:          -6.474
REMARK INTER:                  -6.189
REMARK INTRA:                  -0.285
REMARK UNBOUND:                -0.210
REMARK SMILES O=c1c(O)c(-c2ccc(O)cc2)oc2cc(O)cc(O)c12
REMARK SMILES IDX 5 1 3 2 2 3 1 4 21 5 19 6 18 7 16 8 15 9 14 10 13 11 6 12
REMARK SMILES IDX 7 13 8 14 9 15 12 16 11 17 10 18 4 20 20 22 17 24
REMARK H PARENT 10 19 4 21 20 23 17 25
REMARK Flexibility Score: inf
ROOT
ATOM      1  C   UNL     1      28.982  10.344  28.075  1.00  0.00     0.180 A 
ATOM      2  C   UNL     1      29.158   9.622  26.882  1.00  0.00     0.208 A 
ATOM      3  C   UNL     1      29.820   8.385  26.927  1.00  0.00     0.238 A 
ATOM      4  O   UNL     1      29.908   7.709  25.869  1.00  0.00    -0.285 OA
ATOM      5  C   UNL     1      30.348   7.911  28.153  1.00  0.00     0.111 A 
ATOM      6  C   UNL     1      31.076   6.693  28.308  1.00  0.00     0.134 A 
ATOM      7  C   UNL     1      31.458   6.274  29.589  1.00  0.00     0.093 A 
ATOM      8  C   UNL     1      31.196   7.058  30.711  1.00  0.00     0.123 A 
ATOM      9  C   UNL     1      30.533   8.277  30.565  1.00  0.00     0.094 A 
ATOM     10  C   UNL     1      30.105   8.704  29.306  1.00  0.00     0.146 A 
ATOM     11  O   UNL     1      29.459   9.859  29.214  1.00  0.00    -0.452 OA
ENDROOT
BRANCH   1  12
ATOM     12  C   UNL     1      28.282  11.648  28.110  1.00  0.00     0.021 A 
ATOM     13  C   UNL     1      26.880  11.677  28.213  1.00  0.00     0.016 A 
ATOM     14  C   UNL     1      26.196  12.896  28.224  1.00  0.00     0.047 A 
ATOM     15  C   UNL     1      26.899  14.099  28.118  1.00  0.00     0.115 A 
ATOM     16  C   UNL     1      28.982  12.861  27.983  1.00  0.00     0.016 A 
ATOM     17  C   UNL     1      28.294  14.079  27.994  1.00  0.00     0.047 A 
BRANCH  15  18
ATOM     18  O   UNL     1      26.204  15.307  28.133  1.00  0.00    -0.508 OA
ATOM     19  H   UNL     1      25.651  15.609  27.340  1.00  0.00     0.293 HD
ENDBRANCH  15  18
ENDBRANCH   1  12
BRANCH   2  20
ATOM     20  O   UNL     1      28.698  10.142  25.670  1.00  0.00    -0.502 OA
ATOM     21  H   UNL     1      27.959  10.834  25.619  1.00  0.00     0.293 HD
ENDBRANCH   2  20
BRANCH   6  22
ATOM     22  O   UNL     1      31.470   5.875  27.243  1.00  0.00    -0.507 OA
ATOM     23  H   UNL     1      30.912   5.137  26.844  1.00  0.00     0.293 HD
ENDBRANCH   6  22
BRANCH   8  24
ATOM     24  O   UNL     1      31.605   6.618  31.967  1.00  0.00    -0.508 OA
ATOM     25  H   UNL     1      32.083   5.733  32.090  1.00  0.00     0.293 HD
ENDBRANCH   8  24
TORSDOF 5
ENDMDL
MODEL 9
REMARK VINA RESULT:    -5.242      4.217      5.990
REMARK INTER + INTRA:          -6.372
REMARK INTER:                  -6.078
REMARK INTRA:                  -0.294
REMARK UNBOUND:                -0.210
REMARK SMILES O=c1c(O)c(-c2ccc(O)cc2)oc2cc(O)cc(O)c12
REMARK SMILES IDX 5 1 3 2 2 3 1 4 21 5 19 6 18 7 16 8 15 9 14 10 13 11 6 12
REMARK SMILES IDX 7 13 8 14 9 15 12 16 11 17 10 18 4 20 20 22 17 24
REMARK H PARENT 10 19 4 21 20 23 17 25
REMARK Flexibility Score: inf
ROOT
ATOM      1  C   UNL     1      29.502   9.945  25.903  1.00  0.00     0.180 A 
ATOM      2  C   UNL     1      29.415   8.599  25.507  1.00  0.00     0.208 A 
ATOM      3  C   UNL     1      30.110   8.180  24.362  1.00  0.00     0.238 A 
ATOM      4  O   UNL     1      30.088   6.960  24.056  1.00  0.00    -0.285 OA
ATOM      5  C   UNL     1      30.837   9.122  23.594  1.00  0.00     0.111 A 
ATOM      6  C   UNL     1      31.543   8.818  22.390  1.00  0.00     0.134 A 
ATOM      7  C   UNL     1      32.316   9.810  21.774  1.00  0.00     0.093 A 
ATOM      8  C   UNL     1      32.359  11.108  22.279  1.00  0.00     0.123 A 
ATOM      9  C   UNL     1      31.630  11.430  23.424  1.00  0.00     0.094 A 
ATOM     10  C   UNL     1      30.880  10.454  24.083  1.00  0.00     0.146 A 
ATOM     11  O   UNL     1      30.219  10.798  25.182  1.00  0.00    -0.452 OA
ENDROOT
BRANCH   1  12
ATOM     12  C   UNL     1      28.810  10.458  27.107  1.00  0.00     0.021 A 
ATOM     13  C   UNL     1      27.505  10.966  26.990  1.00  0.00     0.016 A 
ATOM     14  C   UNL     1      26.841  11.477  28.108  1.00  0.00     0.047 A 
ATOM     15  C   UNL     1      27.474  11.502  29.353  1.00  0.00     0.115 A 
ATOM     16  C   UNL     1      29.450  10.504  28.358  1.00  0.00     0.016 A 
ATOM     17  C   UNL     1      28.783  11.017  29.475  1.00  0.00     0.047 A 
BRANCH  15  18
ATOM     18  O   UNL     1      26.800  12.013  30.460  1.00  0.00    -0.508 OA
ATOM     19  H   UNL     1      27.254  12.107  31.360  1.00  0.00     0.293 HD
ENDBRANCH  15  18
ENDBRANCH   1  12
BRANCH   2  20
ATOM     20  O   UNL     1      28.629   7.701  26.234  1.00  0.00    -0.502 OA
ATOM     21  H   UNL     1      28.457   7.808  27.227  1.00  0.00     0.293 HD
ENDBRANCH   2  20
BRANCH   6  22
ATOM     22  O   UNL     1      31.498   7.576  21.749  1.00  0.00    -0.507 OA
ATOM     23  H   UNL     1      31.311   7.439  20.768  1.00  0.00     0.293 HD
ENDBRANCH   6  22
BRANCH   8  24
ATOM     24  O   UNL     1      33.125  12.074  21.630  1.00  0.00    -0.508 OA
ATOM     25  H   UNL     1      33.926  11.822  21.061  1.00  0.00     0.293 HD
ENDBRANCH   8  24
TORSDOF 5
ENDMDL
