MODEL 1
REMARK VINA RESULT:    -6.604      0.000      0.000
REMARK INTER + INTRA:         -10.227
REMARK INTER:                  -9.693
REMARK INTRA:                  -0.534
REMARK UNBOUND:                -0.534
REMARK SMILES O=c1c(O[C@H]2O[C@H](CO)[C@@H](O)[C@@H](O)[C@H]2O)c(-c2ccc(O)c(O)c2)oc2cc(O)cc(O)c12
REMARK SMILES IDX 4 1 3 2 16 3 25 4 2 5 26 6 1 7 33 8 27 9 31 10 28 11 30 12
REMARK SMILES IDX 17 13 18 14 19 15 20 16 24 17 22 18 21 19 23 21 32 23 29 25
REMARK SMILES IDX 5 27 14 28 6 29 12 30 7 31 10 32 15 33 13 35 8 37 9 38 11 40
REMARK H PARENT 21 20 23 22 32 24 29 26 15 34 13 36 9 39 11 41
REMARK Flexibility Score: inf
ROOT
ATOM      1  O   UNL     1       4.286  27.075  60.964  1.00  0.00    -0.454 OA
ENDROOT
BRANCH   1   2
ATOM      2  C   UNL     1       5.648  26.930  60.620  1.00  0.00     0.214 A 
ATOM      3  C   UNL     1       6.086  27.486  59.401  1.00  0.00     0.180 A 
ATOM      4  O   UNL     1       7.335  27.297  58.986  1.00  0.00    -0.452 OA
ATOM      5  C   UNL     1       6.590  26.229  61.410  1.00  0.00     0.239 A 
ATOM      6  C   UNL     1       8.241  26.626  59.684  1.00  0.00     0.146 A 
ATOM      7  O   UNL     1       6.258  25.750  62.525  1.00  0.00    -0.285 OA
ATOM      8  C   UNL     1       7.912  26.069  60.940  1.00  0.00     0.111 A 
ATOM      9  C   UNL     1       9.529  26.484  59.162  1.00  0.00     0.094 A 
ATOM     10  C   UNL     1       8.913  25.374  61.665  1.00  0.00     0.134 A 
ATOM     11  C   UNL     1      10.510  25.795  59.877  1.00  0.00     0.123 A 
ATOM     12  C   UNL     1      10.201  25.243  61.126  1.00  0.00     0.093 A 
BRANCH   3  13
ATOM     13  C   UNL     1       5.186  28.280  58.540  1.00  0.00     0.025 A 
ATOM     14  C   UNL     1       5.582  29.554  58.104  1.00  0.00     0.016 A 
ATOM     15  C   UNL     1       4.729  30.322  57.308  1.00  0.00     0.051 A 
ATOM     16  C   UNL     1       3.466  29.839  56.951  1.00  0.00     0.157 A 
ATOM     17  C   UNL     1       3.907  27.806  58.205  1.00  0.00     0.062 A 
ATOM     18  C   UNL     1       3.049  28.576  57.405  1.00  0.00     0.158 A 
BRANCH  16  19
ATOM     19  O   UNL     1       2.639  30.625  56.151  1.00  0.00    -0.504 OA
ATOM     20  H   UNL     1       2.886  31.574  55.891  1.00  0.00     0.293 HD
ENDBRANCH  16  19
BRANCH  18  21
ATOM     21  O   UNL     1       1.787  28.094  57.067  1.00  0.00    -0.504 OA
ATOM     22  H   UNL     1       1.584  27.100  57.057  1.00  0.00     0.293 HD
ENDBRANCH  18  21
ENDBRANCH   3  13
BRANCH  10  23
ATOM     23  O   UNL     1       8.636  24.809  62.912  1.00  0.00    -0.507 OA
ATOM     24  H   UNL     1       7.689  24.603  63.206  1.00  0.00     0.293 HD
ENDBRANCH  10  23
BRANCH  11  25
ATOM     25  O   UNL     1      11.788  25.664  59.341  1.00  0.00    -0.508 OA
ATOM     26  H   UNL     1      12.336  24.822  59.471  1.00  0.00     0.293 HD
ENDBRANCH  11  25
ENDBRANCH   1   2
BRANCH   1  27
ATOM     27  C   UNL     1       3.622  28.274  61.382  1.00  0.00     0.339 C 
ATOM     28  C   UNL     1       3.923  28.586  62.861  1.00  0.00     0.214 C 
ATOM     29  O   UNL     1       2.224  28.202  61.148  1.00  0.00    -0.332 OA
ATOM     30  C   UNL     1       3.243  27.565  63.797  1.00  0.00     0.180 C 
ATOM     31  C   UNL     1       1.621  27.152  61.889  1.00  0.00     0.179 C 
ATOM     32  C   UNL     1       1.761  27.415  63.410  1.00  0.00     0.177 C 
BRANCH  28  33
ATOM     33  O   UNL     1       5.312  28.606  63.065  1.00  0.00    -0.384 OA
ATOM     34  H   UNL     1       5.626  29.513  62.809  1.00  0.00     0.211 HD
ENDBRANCH  28  33
BRANCH  30  35
ATOM     35  O   UNL     1       3.892  26.320  63.720  1.00  0.00    -0.387 OA
ATOM     36  H   UNL     1       4.561  26.293  64.452  1.00  0.00     0.211 HD
ENDBRANCH  30  35
BRANCH  31  37
ATOM     37  C   UNL     1       0.142  27.065  61.487  1.00  0.00     0.191 C 
BRANCH  37  38
ATOM     38  O   UNL     1      -0.564  28.171  61.981  1.00  0.00    -0.394 OA
ATOM     39  H   UNL     1      -0.921  27.906  62.869  1.00  0.00     0.210 HD
ENDBRANCH  37  38
ENDBRANCH  31  37
BRANCH  32  40
ATOM     40  O   UNL     1       1.145  26.409  64.178  1.00  0.00    -0.387 OA
ATOM     41  H   UNL     1       0.544  25.894  63.582  1.00  0.00     0.211 HD
ENDBRANCH  32  40
ENDBRANCH   1  27
TORSDOF 12
ENDMDL
MODEL 2
REMARK VINA RESULT:    -6.595      1.123      1.993
REMARK INTER + INTRA:         -10.213
REMARK INTER:                  -9.720
REMARK INTRA:                  -0.493
REMARK UNBOUND:                -0.534
REMARK SMILES O=c1c(O[C@H]2O[C@H](CO)[C@@H](O)[C@@H](O)[C@H]2O)c(-c2ccc(O)c(O)c2)oc2cc(O)cc(O)c12
REMARK SMILES IDX 4 1 3 2 16 3 25 4 2 5 26 6 1 7 33 8 27 9 31 10 28 11 30 12
REMARK SMILES IDX 17 13 18 14 19 15 20 16 24 17 22 18 21 19 23 21 32 23 29 25
REMARK SMILES IDX 5 27 14 28 6 29 12 30 7 31 10 32 15 33 13 35 8 37 9 38 11 40
REMARK H PARENT 21 20 23 22 32 24 29 26 15 34 13 36 9 39 11 41
REMARK Flexibility Score: inf
ROOT
ATOM      1  O   UNL     1       4.355  27.548  61.184  1.00  0.00    -0.454 OA
ENDROOT
BRANCH   1   2
ATOM      2  C   UNL     1       5.678  27.274  60.776  1.00  0.00     0.214 A 
ATOM      3  C   UNL     1       6.063  27.655  59.475  1.00  0.00     0.180 A 
ATOM      4  O   UNL     1       7.266  27.336  59.008  1.00  0.00    -0.452 OA
ATOM      5  C   UNL     1       6.630  26.606  61.583  1.00  0.00     0.239 A 
ATOM      6  C   UNL     1       8.177  26.690  59.723  1.00  0.00     0.146 A 
ATOM      7  O   UNL     1       6.349  26.282  62.766  1.00  0.00    -0.285 OA
ATOM      8  C   UNL     1       7.904  26.305  61.055  1.00  0.00     0.111 A 
ATOM      9  C   UNL     1       9.415  26.402  59.142  1.00  0.00     0.094 A 
ATOM     10  C   UNL     1       8.909  25.632  61.794  1.00  0.00     0.134 A 
ATOM     11  C   UNL     1      10.400  25.737  59.873  1.00  0.00     0.123 A 
ATOM     12  C   UNL     1      10.147  25.354  61.195  1.00  0.00     0.093 A 
BRANCH   3  13
ATOM     13  C   UNL     1       5.154  28.403  58.583  1.00  0.00     0.025 A 
ATOM     14  C   UNL     1       5.520  29.676  58.122  1.00  0.00     0.016 A 
ATOM     15  C   UNL     1       4.658  30.403  57.296  1.00  0.00     0.051 A 
ATOM     16  C   UNL     1       3.414  29.876  56.934  1.00  0.00     0.157 A 
ATOM     17  C   UNL     1       3.893  27.886  58.241  1.00  0.00     0.062 A 
ATOM     18  C   UNL     1       3.026  28.613  57.412  1.00  0.00     0.158 A 
BRANCH  16  19
ATOM     19  O   UNL     1       2.578  30.620  56.104  1.00  0.00    -0.504 OA
ATOM     20  H   UNL     1       2.163  30.227  55.266  1.00  0.00     0.293 HD
ENDBRANCH  16  19
BRANCH  18  21
ATOM     21  O   UNL     1       1.782  28.088  57.069  1.00  0.00    -0.504 OA
ATOM     22  H   UNL     1       1.676  27.124  56.772  1.00  0.00     0.293 HD
ENDBRANCH  18  21
ENDBRANCH   3  13
BRANCH  10  23
ATOM     23  O   UNL     1       8.688  25.235  63.114  1.00  0.00    -0.507 OA
ATOM     24  H   UNL     1       7.764  24.989  63.449  1.00  0.00     0.293 HD
ENDBRANCH  10  23
BRANCH  11  25
ATOM     25  O   UNL     1      11.628  25.459  59.277  1.00  0.00    -0.508 OA
ATOM     26  H   UNL     1      11.874  24.523  58.977  1.00  0.00     0.293 HD
ENDBRANCH  11  25
ENDBRANCH   1   2
BRANCH   1  27
ATOM     27  C   UNL     1       3.183  26.774  60.898  1.00  0.00     0.339 C 
ATOM     28  C   UNL     1       1.909  27.507  61.357  1.00  0.00     0.214 C 
ATOM     29  O   UNL     1       3.264  25.478  61.474  1.00  0.00    -0.332 OA
ATOM     30  C   UNL     1       1.820  27.565  62.895  1.00  0.00     0.180 C 
ATOM     31  C   UNL     1       3.347  25.538  62.889  1.00  0.00     0.179 C 
ATOM     32  C   UNL     1       2.057  26.161  63.480  1.00  0.00     0.177 C 
BRANCH  28  33
ATOM     33  O   UNL     1       1.884  28.798  60.805  1.00  0.00    -0.384 OA
ATOM     34  H   UNL     1       2.831  29.074  60.679  1.00  0.00     0.211 HD
ENDBRANCH  28  33
BRANCH  30  35
ATOM     35  O   UNL     1       2.766  28.469  63.409  1.00  0.00    -0.387 OA
ATOM     36  H   UNL     1       2.464  29.381  63.160  1.00  0.00     0.211 HD
ENDBRANCH  30  35
BRANCH  31  37
ATOM     37  C   UNL     1       3.554  24.112  63.420  1.00  0.00     0.191 C 
BRANCH  37  38
ATOM     38  O   UNL     1       4.900  23.738  63.301  1.00  0.00    -0.394 OA
ATOM     39  H   UNL     1       5.312  24.362  62.647  1.00  0.00     0.210 HD
ENDBRANCH  37  38
ENDBRANCH  31  37
BRANCH  32  40
ATOM     40  O   UNL     1       2.089  26.207  64.886  1.00  0.00    -0.387 OA
ATOM     41  H   UNL     1       2.167  27.156  65.160  1.00  0.00     0.211 HD
ENDBRANCH  32  40
ENDBRANCH   1  27
TORSDOF 12
ENDMDL
MODEL 3
REMARK VINA RESULT:    -6.522      2.119      6.947
REMARK INTER + INTRA:         -10.106
REMARK INTER:                  -8.404
REMARK INTRA:                  -1.702
REMARK UNBOUND:                -0.534
REMARK SMILES O=c1c(O[C@H]2O[C@H](CO)[C@@H](O)[C@@H](O)[C@H]2O)c(-c2ccc(O)c(O)c2)oc2cc(O)cc(O)c12
REMARK SMILES IDX 4 1 3 2 16 3 25 4 2 5 26 6 1 7 33 8 27 9 31 10 28 11 30 12
REMARK SMILES IDX 17 13 18 14 19 15 20 16 24 17 22 18 21 19 23 21 32 23 29 25
REMARK SMILES IDX 5 27 14 28 6 29 12 30 7 31 10 32 15 33 13 35 8 37 9 38 11 40
REMARK H PARENT 21 20 23 22 32 24 29 26 15 34 13 36 9 39 11 41
REMARK Flexibility Score: inf
ROOT
ATOM      1  O   UNL     1       6.623  25.457  62.041  1.00  0.00    -0.454 OA
ENDROOT
BRANCH   1   2
ATOM      2  C   UNL     1       6.211  26.316  60.999  1.00  0.00     0.214 A 
ATOM      3  C   UNL     1       7.208  26.933  60.216  1.00  0.00     0.180 A 
ATOM      4  O   UNL     1       6.877  27.822  59.285  1.00  0.00    -0.452 OA
ATOM      5  C   UNL     1       4.858  26.622  60.717  1.00  0.00     0.239 A 
ATOM      6  C   UNL     1       5.624  28.155  59.007  1.00  0.00     0.146 A 
ATOM      7  O   UNL     1       3.931  26.066  61.360  1.00  0.00    -0.285 OA
ATOM      8  C   UNL     1       4.551  27.558  59.705  1.00  0.00     0.111 A 
ATOM      9  C   UNL     1       5.380  29.100  58.007  1.00  0.00     0.094 A 
ATOM     10  C   UNL     1       3.224  27.926  59.368  1.00  0.00     0.134 A 
ATOM     11  C   UNL     1       4.072  29.462  57.681  1.00  0.00     0.123 A 
ATOM     12  C   UNL     1       2.998  28.874  58.360  1.00  0.00     0.093 A 
BRANCH   3  13
ATOM     13  C   UNL     1       8.641  26.631  60.403  1.00  0.00     0.025 A 
ATOM     14  C   UNL     1       9.324  27.147  61.514  1.00  0.00     0.016 A 
ATOM     15  C   UNL     1      10.686  26.886  61.689  1.00  0.00     0.051 A 
ATOM     16  C   UNL     1      11.387  26.123  60.750  1.00  0.00     0.157 A 
ATOM     17  C   UNL     1       9.351  25.887  59.446  1.00  0.00     0.062 A 
ATOM     18  C   UNL     1      10.718  25.624  59.619  1.00  0.00     0.158 A 
BRANCH  16  19
ATOM     19  O   UNL     1      12.743  25.873  60.954  1.00  0.00    -0.504 OA
ATOM     20  H   UNL     1      13.217  25.091  60.518  1.00  0.00     0.293 HD
ENDBRANCH  16  19
BRANCH  18  21
ATOM     21  O   UNL     1      11.413  24.875  58.671  1.00  0.00    -0.504 OA
ATOM     22  H   UNL     1      12.028  24.116  58.942  1.00  0.00     0.293 HD
ENDBRANCH  18  21
ENDBRANCH   3  13
BRANCH  10  23
ATOM     23  O   UNL     1       2.131  27.360  60.027  1.00  0.00    -0.507 OA
ATOM     24  H   UNL     1       1.846  26.402  59.863  1.00  0.00     0.293 HD
ENDBRANCH  10  23
BRANCH  11  25
ATOM     25  O   UNL     1       3.849  30.405  56.681  1.00  0.00    -0.508 OA
ATOM     26  H   UNL     1       4.615  30.844  56.183  1.00  0.00     0.293 HD
ENDBRANCH  11  25
ENDBRANCH   1   2
BRANCH   1  27
ATOM     27  C   UNL     1       6.468  24.034  62.101  1.00  0.00     0.339 C 
ATOM     28  C   UNL     1       5.846  23.600  63.443  1.00  0.00     0.214 C 
ATOM     29  O   UNL     1       7.699  23.367  61.868  1.00  0.00    -0.332 OA
ATOM     30  C   UNL     1       6.833  23.810  64.609  1.00  0.00     0.180 C 
ATOM     31  C   UNL     1       8.665  23.689  62.857  1.00  0.00     0.179 C 
ATOM     32  C   UNL     1       8.197  23.195  64.250  1.00  0.00     0.177 C 
BRANCH  28  33
ATOM     33  O   UNL     1       4.654  24.310  63.661  1.00  0.00    -0.384 OA
ATOM     34  H   UNL     1       4.636  24.549  64.625  1.00  0.00     0.211 HD
ENDBRANCH  28  33
BRANCH  30  35
ATOM     35  O   UNL     1       6.978  25.180  64.890  1.00  0.00    -0.387 OA
ATOM     36  H   UNL     1       6.138  25.627  64.608  1.00  0.00     0.211 HD
ENDBRANCH  30  35
BRANCH  31  37
ATOM     37  C   UNL     1       9.995  23.030  62.465  1.00  0.00     0.191 C 
BRANCH  37  38
ATOM     38  O   UNL     1       9.762  21.876  61.704  1.00  0.00    -0.394 OA
ATOM     39  H   UNL     1       9.566  21.145  62.347  1.00  0.00     0.210 HD
ENDBRANCH  37  38
ENDBRANCH  31  37
BRANCH  32  40
ATOM     40  O   UNL     1       9.146  23.468  65.253  1.00  0.00    -0.387 OA
ATOM     41  H   UNL     1       9.704  22.658  65.375  1.00  0.00     0.211 HD
ENDBRANCH  32  40
ENDBRANCH   1  27
TORSDOF 12
ENDMDL
MODEL 4
REMARK VINA RESULT:    -6.518      1.559      2.486
REMARK INTER + INTRA:         -10.100
REMARK INTER:                  -8.117
REMARK INTRA:                  -1.982
REMARK UNBOUND:                -0.534
REMARK SMILES O=c1c(O[C@H]2O[C@H](CO)[C@@H](O)[C@@H](O)[C@H]2O)c(-c2ccc(O)c(O)c2)oc2cc(O)cc(O)c12
REMARK SMILES IDX 4 1 3 2 16 3 25 4 2 5 26 6 1 7 33 8 27 9 31 10 28 11 30 12
REMARK SMILES IDX 17 13 18 14 19 15 20 16 24 17 22 18 21 19 23 21 32 23 29 25
REMARK SMILES IDX 5 27 14 28 6 29 12 30 7 31 10 32 15 33 13 35 8 37 9 38 11 40
REMARK H PARENT 21 20 23 22 32 24 29 26 15 34 13 36 9 39 11 41
REMARK Flexibility Score: inf
ROOT
ATOM      1  O   UNL     1       6.395  27.032  62.099  1.00  0.00    -0.454 OA
ENDROOT
BRANCH   1   2
ATOM      2  C   UNL     1       7.589  26.721  61.413  1.00  0.00     0.214 A 
ATOM      3  C   UNL     1       7.576  26.768  60.004  1.00  0.00     0.180 A 
ATOM      4  O   UNL     1       8.644  26.393  59.308  1.00  0.00    -0.452 OA
ATOM      5  C   UNL     1       8.789  26.329  62.054  1.00  0.00     0.239 A 
ATOM      6  C   UNL     1       9.778  25.996  59.870  1.00  0.00     0.146 A 
ATOM      7  O   UNL     1       8.864  26.310  63.311  1.00  0.00    -0.285 OA
ATOM      8  C   UNL     1       9.907  25.958  61.277  1.00  0.00     0.111 A 
ATOM      9  C   UNL     1      10.846  25.624  59.050  1.00  0.00     0.094 A 
ATOM     10  C   UNL     1      11.140  25.545  61.842  1.00  0.00     0.134 A 
ATOM     11  C   UNL     1      12.057  25.214  59.611  1.00  0.00     0.123 A 
ATOM     12  C   UNL     1      12.202  25.177  61.003  1.00  0.00     0.093 A 
BRANCH   3  13
ATOM     13  C   UNL     1       6.387  27.218  59.253  1.00  0.00     0.025 A 
ATOM     14  C   UNL     1       5.294  26.354  59.093  1.00  0.00     0.016 A 
ATOM     15  C   UNL     1       4.173  26.761  58.365  1.00  0.00     0.051 A 
ATOM     16  C   UNL     1       4.135  28.028  57.773  1.00  0.00     0.157 A 
ATOM     17  C   UNL     1       6.360  28.480  58.636  1.00  0.00     0.062 A 
ATOM     18  C   UNL     1       5.236  28.892  57.904  1.00  0.00     0.158 A 
BRANCH  16  19
ATOM     19  O   UNL     1       3.001  28.410  57.058  1.00  0.00    -0.504 OA
ATOM     20  H   UNL     1       2.495  27.761  56.465  1.00  0.00     0.293 HD
ENDBRANCH  16  19
BRANCH  18  21
ATOM     21  O   UNL     1       5.212  30.149  57.305  1.00  0.00    -0.504 OA
ATOM     22  H   UNL     1       4.723  30.311  56.431  1.00  0.00     0.293 HD
ENDBRANCH  18  21
ENDBRANCH   3  13
BRANCH  10  23
ATOM     23  O   UNL     1      11.317  25.494  63.225  1.00  0.00    -0.507 OA
ATOM     24  H   UNL     1      12.238  25.436  63.644  1.00  0.00     0.293 HD
ENDBRANCH  10  23
BRANCH  11  25
ATOM     25  O   UNL     1      13.111  24.847  58.778  1.00  0.00    -0.508 OA
ATOM     26  H   UNL     1      13.855  25.495  58.545  1.00  0.00     0.293 HD
ENDBRANCH  11  25
ENDBRANCH   1   2
BRANCH   1  27
ATOM     27  C   UNL     1       6.133  28.196  62.893  1.00  0.00     0.339 C 
ATOM     28  C   UNL     1       5.470  27.815  64.231  1.00  0.00     0.214 C 
ATOM     29  O   UNL     1       5.347  29.142  62.184  1.00  0.00    -0.332 OA
ATOM     30  C   UNL     1       4.029  27.308  64.017  1.00  0.00     0.180 C 
ATOM     31  C   UNL     1       4.074  28.615  61.843  1.00  0.00     0.179 C 
ATOM     32  C   UNL     1       3.261  28.297  63.123  1.00  0.00     0.177 C 
BRANCH  28  33
ATOM     33  O   UNL     1       6.250  26.848  64.884  1.00  0.00    -0.384 OA
ATOM     34  H   UNL     1       6.943  26.552  64.235  1.00  0.00     0.211 HD
ENDBRANCH  28  33
BRANCH  30  35
ATOM     35  O   UNL     1       4.040  26.031  63.430  1.00  0.00    -0.387 OA
ATOM     36  H   UNL     1       4.012  26.162  62.446  1.00  0.00     0.211 HD
ENDBRANCH  30  35
BRANCH  31  37
ATOM     37  C   UNL     1       3.341  29.650  60.977  1.00  0.00     0.191 C 
BRANCH  37  38
ATOM     38  O   UNL     1       2.154  29.106  60.465  1.00  0.00    -0.394 OA
ATOM     39  H   UNL     1       1.426  29.379  61.083  1.00  0.00     0.210 HD
ENDBRANCH  37  38
ENDBRANCH  31  37
BRANCH  32  40
ATOM     40  O   UNL     1       1.977  27.803  62.823  1.00  0.00    -0.387 OA
ATOM     41  H   UNL     1       1.338  28.559  62.876  1.00  0.00     0.211 HD
ENDBRANCH  32  40
ENDBRANCH   1  27
TORSDOF 12
ENDMDL
MODEL 5
REMARK VINA RESULT:    -6.281      1.539      2.132
REMARK INTER + INTRA:          -9.752
REMARK INTER:                  -7.745
REMARK INTRA:                  -2.007
REMARK UNBOUND:                -0.534
REMARK SMILES O=c1c(O[C@H]2O[C@H](CO)[C@@H](O)[C@@H](O)[C@H]2O)c(-c2ccc(O)c(O)c2)oc2cc(O)cc(O)c12
REMARK SMILES IDX 4 1 3 2 16 3 25 4 2 5 26 6 1 7 33 8 27 9 31 10 28 11 30 12
REMARK SMILES IDX 17 13 18 14 19 15 20 16 24 17 22 18 21 19 23 21 32 23 29 25
REMARK SMILES IDX 5 27 14 28 6 29 12 30 7 31 10 32 15 33 13 35 8 37 9 38 11 40
REMARK H PARENT 21 20 23 22 32 24 29 26 15 34 13 36 9 39 11 41
REMARK Flexibility Score: inf
ROOT
ATOM      1  O   UNL     1       5.446  25.899  61.846  1.00  0.00    -0.454 OA
ENDROOT
BRANCH   1   2
ATOM      2  C   UNL     1       6.767  25.920  61.348  1.00  0.00     0.214 A 
ATOM      3  C   UNL     1       7.007  26.593  60.133  1.00  0.00     0.180 A 
ATOM      4  O   UNL     1       8.212  26.562  59.573  1.00  0.00    -0.452 OA
ATOM      5  C   UNL     1       7.858  25.273  61.977  1.00  0.00     0.239 A 
ATOM      6  C   UNL     1       9.253  25.947  60.117  1.00  0.00     0.146 A 
ATOM      7  O   UNL     1       7.704  24.692  63.083  1.00  0.00    -0.285 OA
ATOM      8  C   UNL     1       9.126  25.282  61.357  1.00  0.00     0.111 A 
ATOM      9  C   UNL     1      10.481  25.974  59.450  1.00  0.00     0.094 A 
ATOM     10  C   UNL     1      10.266  24.650  61.917  1.00  0.00     0.134 A 
ATOM     11  C   UNL     1      11.599  25.348  60.003  1.00  0.00     0.123 A 
ATOM     12  C   UNL     1      11.490  24.690  61.233  1.00  0.00     0.093 A 
BRANCH   3  13
ATOM     13  C   UNL     1       5.942  27.341  59.435  1.00  0.00     0.025 A 
ATOM     14  C   UNL     1       5.154  26.696  58.470  1.00  0.00     0.016 A 
ATOM     15  C   UNL     1       4.158  27.400  57.788  1.00  0.00     0.051 A 
ATOM     16  C   UNL     1       3.947  28.758  58.046  1.00  0.00     0.157 A 
ATOM     17  C   UNL     1       5.749  28.712  59.675  1.00  0.00     0.062 A 
ATOM     18  C   UNL     1       4.749  29.421  58.991  1.00  0.00     0.158 A 
BRANCH  16  19
ATOM     19  O   UNL     1       2.942  29.433  57.355  1.00  0.00    -0.504 OA
ATOM     20  H   UNL     1       3.084  29.795  56.418  1.00  0.00     0.293 HD
ENDBRANCH  16  19
BRANCH  18  21
ATOM     21  O   UNL     1       4.556  30.777  59.243  1.00  0.00    -0.504 OA
ATOM     22  H   UNL     1       4.504  31.454  58.490  1.00  0.00     0.293 HD
ENDBRANCH  18  21
ENDBRANCH   3  13
BRANCH  10  23
ATOM     23  O   UNL     1      10.191  23.983  63.141  1.00  0.00    -0.507 OA
ATOM     24  H   UNL     1       9.360  23.475  63.421  1.00  0.00     0.293 HD
ENDBRANCH  10  23
BRANCH  11  25
ATOM     25  O   UNL     1      12.814  25.385  59.324  1.00  0.00    -0.508 OA
ATOM     26  H   UNL     1      12.906  25.841  58.423  1.00  0.00     0.293 HD
ENDBRANCH  11  25
ENDBRANCH   1   2
BRANCH   1  27
ATOM     27  C   UNL     1       4.895  26.737  62.869  1.00  0.00     0.339 C 
ATOM     28  C   UNL     1       4.280  25.895  64.003  1.00  0.00     0.214 C 
ATOM     29  O   UNL     1       3.946  27.650  62.337  1.00  0.00    -0.332 OA
ATOM     30  C   UNL     1       3.001  25.173  63.533  1.00  0.00     0.180 C 
ATOM     31  C   UNL     1       2.841  26.977  61.755  1.00  0.00     0.179 C 
ATOM     32  C   UNL     1       2.067  26.178  62.834  1.00  0.00     0.177 C 
BRANCH  28  33
ATOM     33  O   UNL     1       5.230  24.975  64.475  1.00  0.00    -0.384 OA
ATOM     34  H   UNL     1       5.980  24.978  63.822  1.00  0.00     0.211 HD
ENDBRANCH  28  33
BRANCH  30  35
ATOM     35  O   UNL     1       3.324  24.122  62.656  1.00  0.00    -0.387 OA
ATOM     36  H   UNL     1       3.494  24.526  61.766  1.00  0.00     0.211 HD
ENDBRANCH  30  35
BRANCH  31  37
ATOM     37  C   UNL     1       1.930  28.025  61.098  1.00  0.00     0.191 C 
BRANCH  37  38
ATOM     38  O   UNL     1       0.748  28.176  61.837  1.00  0.00    -0.394 OA
ATOM     39  H   UNL     1       0.013  27.819  61.273  1.00  0.00     0.210 HD
ENDBRANCH  37  38
ENDBRANCH  31  37
BRANCH  32  40
ATOM     40  O   UNL     1       0.942  25.522  62.299  1.00  0.00    -0.387 OA
ATOM     41  H   UNL     1       0.242  26.204  62.131  1.00  0.00     0.211 HD
ENDBRANCH  32  40
ENDBRANCH   1  27
TORSDOF 12
ENDMDL
MODEL 6
REMARK VINA RESULT:    -6.273      2.159      6.306
REMARK INTER + INTRA:          -9.740
REMARK INTER:                  -8.239
REMARK INTRA:                  -1.501
REMARK UNBOUND:                -0.534
REMARK SMILES O=c1c(O[C@H]2O[C@H](CO)[C@@H](O)[C@@H](O)[C@H]2O)c(-c2ccc(O)c(O)c2)oc2cc(O)cc(O)c12
REMARK SMILES IDX 4 1 3 2 16 3 25 4 2 5 26 6 1 7 33 8 27 9 31 10 28 11 30 12
REMARK SMILES IDX 17 13 18 14 19 15 20 16 24 17 22 18 21 19 23 21 32 23 29 25
REMARK SMILES IDX 5 27 14 28 6 29 12 30 7 31 10 32 15 33 13 35 8 37 9 38 11 40
REMARK H PARENT 21 20 23 22 32 24 29 26 15 34 13 36 9 39 11 41
REMARK Flexibility Score: inf
ROOT
ATOM      1  O   UNL     1       6.694  25.174  61.524  1.00  0.00    -0.454 OA
ENDROOT
BRANCH   1   2
ATOM      2  C   UNL     1       6.292  26.141  60.577  1.00  0.00     0.214 A 
ATOM      3  C   UNL     1       7.292  26.905  59.942  1.00  0.00     0.180 A 
ATOM      4  O   UNL     1       6.962  27.892  59.115  1.00  0.00    -0.452 OA
ATOM      5  C   UNL     1       4.941  26.414  60.254  1.00  0.00     0.239 A 
ATOM      6  C   UNL     1       5.709  28.195  58.806  1.00  0.00     0.146 A 
ATOM      7  O   UNL     1       4.013  25.733  60.763  1.00  0.00    -0.285 OA
ATOM      8  C   UNL     1       4.635  27.459  59.354  1.00  0.00     0.111 A 
ATOM      9  C   UNL     1       5.466  29.251  57.923  1.00  0.00     0.094 A 
ATOM     10  C   UNL     1       3.309  27.801  58.986  1.00  0.00     0.134 A 
ATOM     11  C   UNL     1       4.159  29.586  57.566  1.00  0.00     0.123 A 
ATOM     12  C   UNL     1       3.085  28.862  58.097  1.00  0.00     0.093 A 
BRANCH   3  13
ATOM     13  C   UNL     1       8.728  26.653  60.177  1.00  0.00     0.025 A 
ATOM     14  C   UNL     1       9.397  27.330  61.207  1.00  0.00     0.016 A 
ATOM     15  C   UNL     1      10.760  27.116  61.424  1.00  0.00     0.051 A 
ATOM     16  C   UNL     1      11.478  26.238  60.605  1.00  0.00     0.157 A 
ATOM     17  C   UNL     1       9.455  25.792  59.337  1.00  0.00     0.062 A 
ATOM     18  C   UNL     1      10.824  25.576  59.552  1.00  0.00     0.158 A 
BRANCH  16  19
ATOM     19  O   UNL     1      12.836  26.039  60.848  1.00  0.00    -0.504 OA
ATOM     20  H   UNL     1      13.331  26.543  61.575  1.00  0.00     0.293 HD
ENDBRANCH  16  19
BRANCH  18  21
ATOM     21  O   UNL     1      11.535  24.711  58.722  1.00  0.00    -0.504 OA
ATOM     22  H   UNL     1      11.664  24.910  57.736  1.00  0.00     0.293 HD
ENDBRANCH  18  21
ENDBRANCH   3  13
BRANCH  10  23
ATOM     23  O   UNL     1       2.217  27.100  59.499  1.00  0.00    -0.507 OA
ATOM     24  H   UNL     1       1.287  27.503  59.522  1.00  0.00     0.293 HD
ENDBRANCH  10  23
BRANCH  11  25
ATOM     25  O   UNL     1       3.936  30.641  56.684  1.00  0.00    -0.508 OA
ATOM     26  H   UNL     1       4.702  31.170  56.284  1.00  0.00     0.293 HD
ENDBRANCH  11  25
ENDBRANCH   1   2
BRANCH   1  27
ATOM     27  C   UNL     1       6.705  25.313  62.950  1.00  0.00     0.339 C 
ATOM     28  C   UNL     1       7.761  24.391  63.588  1.00  0.00     0.214 C 
ATOM     29  O   UNL     1       5.419  25.078  63.504  1.00  0.00    -0.332 OA
ATOM     30  C   UNL     1       7.355  22.908  63.467  1.00  0.00     0.180 C 
ATOM     31  C   UNL     1       4.973  23.754  63.250  1.00  0.00     0.179 C 
ATOM     32  C   UNL     1       5.903  22.729  63.946  1.00  0.00     0.177 C 
BRANCH  28  33
ATOM     33  O   UNL     1       9.010  24.619  62.987  1.00  0.00    -0.384 OA
ATOM     34  H   UNL     1       9.655  24.791  63.723  1.00  0.00     0.211 HD
ENDBRANCH  28  33
BRANCH  30  35
ATOM     35  O   UNL     1       7.484  22.469  62.138  1.00  0.00    -0.387 OA
ATOM     36  H   UNL     1       8.455  22.418  61.940  1.00  0.00     0.211 HD
ENDBRANCH  30  35
BRANCH  31  37
ATOM     37  C   UNL     1       3.534  23.623  63.771  1.00  0.00     0.191 C 
BRANCH  37  38
ATOM     38  O   UNL     1       2.677  24.473  63.057  1.00  0.00    -0.394 OA
ATOM     39  H   UNL     1       1.932  24.705  63.671  1.00  0.00     0.210 HD
ENDBRANCH  37  38
ENDBRANCH  31  37
BRANCH  32  40
ATOM     40  O   UNL     1       5.472  21.404  63.743  1.00  0.00    -0.387 OA
ATOM     41  H   UNL     1       5.486  20.941  64.620  1.00  0.00     0.211 HD
ENDBRANCH  32  40
ENDBRANCH   1  27
TORSDOF 12
ENDMDL
MODEL 7
REMARK VINA RESULT:    -6.143      1.720      4.680
REMARK INTER + INTRA:          -9.549
REMARK INTER:                  -7.531
REMARK INTRA:                  -2.018
REMARK UNBOUND:                -0.534
REMARK SMILES O=c1c(O[C@H]2O[C@H](CO)[C@@H](O)[C@@H](O)[C@H]2O)c(-c2ccc(O)c(O)c2)oc2cc(O)cc(O)c12
REMARK SMILES IDX 4 1 3 2 16 3 25 4 2 5 26 6 1 7 33 8 27 9 31 10 28 11 30 12
REMARK SMILES IDX 17 13 18 14 19 15 20 16 24 17 22 18 21 19 23 21 32 23 29 25
REMARK SMILES IDX 5 27 14 28 6 29 12 30 7 31 10 32 15 33 13 35 8 37 9 38 11 40
REMARK H PARENT 21 20 23 22 32 24 29 26 15 34 13 36 9 39 11 41
REMARK Flexibility Score: inf
ROOT
ATOM      1  O   UNL     1       6.097  27.577  60.087  1.00  0.00    -0.454 OA
ENDROOT
BRANCH   1   2
ATOM      2  C   UNL     1       7.125  26.765  60.612  1.00  0.00     0.214 A 
ATOM      3  C   UNL     1       6.887  26.100  61.832  1.00  0.00     0.180 A 
ATOM      4  O   UNL     1       7.855  25.400  62.417  1.00  0.00    -0.452 OA
ATOM      5  C   UNL     1       8.394  26.608  60.005  1.00  0.00     0.239 A 
ATOM      6  C   UNL     1       9.063  25.249  61.893  1.00  0.00     0.146 A 
ATOM      7  O   UNL     1       8.642  27.148  58.895  1.00  0.00    -0.285 OA
ATOM      8  C   UNL     1       9.387  25.839  60.651  1.00  0.00     0.111 A 
ATOM      9  C   UNL     1      10.012  24.491  62.586  1.00  0.00     0.094 A 
ATOM     10  C   UNL     1      10.684  25.641  60.114  1.00  0.00     0.134 A 
ATOM     11  C   UNL     1      11.288  24.302  62.055  1.00  0.00     0.123 A 
ATOM     12  C   UNL     1      11.622  24.875  60.822  1.00  0.00     0.093 A 
BRANCH   3  13
ATOM     13  C   UNL     1       5.576  26.162  62.509  1.00  0.00     0.025 A 
ATOM     14  C   UNL     1       5.260  27.263  63.318  1.00  0.00     0.016 A 
ATOM     15  C   UNL     1       4.031  27.322  63.980  1.00  0.00     0.051 A 
ATOM     16  C   UNL     1       3.110  26.276  63.858  1.00  0.00     0.157 A 
ATOM     17  C   UNL     1       4.663  25.099  62.408  1.00  0.00     0.062 A 
ATOM     18  C   UNL     1       3.428  25.156  63.072  1.00  0.00     0.158 A 
BRANCH  16  19
ATOM     19  O   UNL     1       1.889  26.365  64.526  1.00  0.00    -0.504 OA
ATOM     20  H   UNL     1       1.295  25.556  64.669  1.00  0.00     0.293 HD
ENDBRANCH  16  19
BRANCH  18  21
ATOM     21  O   UNL     1       2.523  24.103  62.958  1.00  0.00    -0.504 OA
ATOM     22  H   UNL     1       2.401  23.425  63.702  1.00  0.00     0.293 HD
ENDBRANCH  18  21
ENDBRANCH   3  13
BRANCH  10  23
ATOM     23  O   UNL     1      11.049  26.200  58.888  1.00  0.00    -0.507 OA
ATOM     24  H   UNL     1      11.639  25.705  58.230  1.00  0.00     0.293 HD
ENDBRANCH  10  23
BRANCH  11  25
ATOM     25  O   UNL     1      12.220  23.544  62.759  1.00  0.00    -0.508 OA
ATOM     26  H   UNL     1      12.101  22.546  62.894  1.00  0.00     0.293 HD
ENDBRANCH  11  25
ENDBRANCH   1   2
BRANCH   1  27
ATOM     27  C   UNL     1       5.271  27.299  58.949  1.00  0.00     0.339 C 
ATOM     28  C   UNL     1       5.175  28.526  58.022  1.00  0.00     0.214 C 
ATOM     29  O   UNL     1       3.982  26.850  59.339  1.00  0.00    -0.332 OA
ATOM     30  C   UNL     1       4.355  29.657  58.675  1.00  0.00     0.180 C 
ATOM     31  C   UNL     1       3.287  27.837  60.085  1.00  0.00     0.179 C 
ATOM     32  C   UNL     1       3.028  29.090  59.211  1.00  0.00     0.177 C 
BRANCH  28  33
ATOM     33  O   UNL     1       6.466  28.969  57.692  1.00  0.00    -0.384 OA
ATOM     34  H   UNL     1       6.404  29.952  57.552  1.00  0.00     0.211 HD
ENDBRANCH  28  33
BRANCH  30  35
ATOM     35  O   UNL     1       5.084  30.252  59.719  1.00  0.00    -0.387 OA
ATOM     36  H   UNL     1       5.046  31.234  59.579  1.00  0.00     0.211 HD
ENDBRANCH  30  35
BRANCH  31  37
ATOM     37  C   UNL     1       1.963  27.230  60.570  1.00  0.00     0.191 C 
BRANCH  37  38
ATOM     38  O   UNL     1       1.324  28.102  61.462  1.00  0.00    -0.394 OA
ATOM     39  H   UNL     1       1.572  27.806  62.377  1.00  0.00     0.210 HD
ENDBRANCH  37  38
ENDBRANCH  31  37
BRANCH  32  40
ATOM     40  O   UNL     1       2.310  30.080  59.909  1.00  0.00    -0.387 OA
ATOM     41  H   UNL     1       2.964  30.670  60.362  1.00  0.00     0.211 HD
ENDBRANCH  32  40
ENDBRANCH   1  27
TORSDOF 12
ENDMDL
MODEL 8
REMARK VINA RESULT:    -5.906      2.381      8.626
REMARK INTER + INTRA:          -9.202
REMARK INTER:                  -7.058
REMARK INTRA:                  -2.144
REMARK UNBOUND:                -0.534
REMARK SMILES O=c1c(O[C@H]2O[C@H](CO)[C@@H](O)[C@@H](O)[C@H]2O)c(-c2ccc(O)c(O)c2)oc2cc(O)cc(O)c12
REMARK SMILES IDX 4 1 3 2 16 3 25 4 2 5 26 6 1 7 33 8 27 9 31 10 28 11 30 12
REMARK SMILES IDX 17 13 18 14 19 15 20 16 24 17 22 18 21 19 23 21 32 23 29 25
REMARK SMILES IDX 5 27 14 28 6 29 12 30 7 31 10 32 15 33 13 35 8 37 9 38 11 40
REMARK H PARENT 21 20 23 22 32 24 29 26 15 34 13 36 9 39 11 41
REMARK Flexibility Score: inf
ROOT
ATOM      1  O   UNL     1       8.753  25.493  60.779  1.00  0.00    -0.454 OA
ENDROOT
BRANCH   1   2
ATOM      2  C   UNL     1       7.369  25.745  60.898  1.00  0.00     0.214 A 
ATOM      3  C   UNL     1       6.655  25.065  61.906  1.00  0.00     0.180 A 
ATOM      4  O   UNL     1       5.336  25.194  62.000  1.00  0.00    -0.452 OA
ATOM      5  C   UNL     1       6.649  26.612  60.042  1.00  0.00     0.239 A 
ATOM      6  C   UNL     1       4.622  25.976  61.203  1.00  0.00     0.146 A 
ATOM      7  O   UNL     1       7.246  27.273  59.153  1.00  0.00    -0.285 OA
ATOM      8  C   UNL     1       5.250  26.735  60.190  1.00  0.00     0.111 A 
ATOM      9  C   UNL     1       3.238  26.045  61.385  1.00  0.00     0.094 A 
ATOM     10  C   UNL     1       4.455  27.574  59.369  1.00  0.00     0.134 A 
ATOM     11  C   UNL     1       2.459  26.870  60.571  1.00  0.00     0.123 A 
ATOM     12  C   UNL     1       3.068  27.632  59.567  1.00  0.00     0.093 A 
BRANCH   3  13
ATOM     13  C   UNL     1       7.333  24.183  62.878  1.00  0.00     0.025 A 
ATOM     14  C   UNL     1       7.533  22.829  62.571  1.00  0.00     0.016 A 
ATOM     15  C   UNL     1       8.153  21.981  63.493  1.00  0.00     0.051 A 
ATOM     16  C   UNL     1       8.565  22.468  64.737  1.00  0.00     0.157 A 
ATOM     17  C   UNL     1       7.723  24.666  64.139  1.00  0.00     0.062 A 
ATOM     18  C   UNL     1       8.345  23.817  65.066  1.00  0.00     0.158 A 
BRANCH  16  19
ATOM     19  O   UNL     1       9.186  21.600  65.634  1.00  0.00    -0.504 OA
ATOM     20  H   UNL     1       8.821  20.675  65.828  1.00  0.00     0.293 HD
ENDBRANCH  16  19
BRANCH  18  21
ATOM     21  O   UNL     1       8.739  24.306  66.309  1.00  0.00    -0.504 OA
ATOM     22  H   UNL     1       8.834  23.695  67.114  1.00  0.00     0.293 HD
ENDBRANCH  18  21
ENDBRANCH   3  13
BRANCH  10  23
ATOM     23  O   UNL     1       5.031  28.345  58.358  1.00  0.00    -0.507 OA
ATOM     24  H   UNL     1       5.096  29.354  58.427  1.00  0.00     0.293 HD
ENDBRANCH  10  23
BRANCH  11  25
ATOM     25  O   UNL     1       1.082  26.926  60.767  1.00  0.00    -0.508 OA
ATOM     26  H   UNL     1       0.528  26.087  60.896  1.00  0.00     0.293 HD
ENDBRANCH  11  25
ENDBRANCH   1   2
BRANCH   1  27
ATOM     27  C   UNL     1       9.825  26.291  61.295  1.00  0.00     0.339 C 
ATOM     28  C   UNL     1      10.816  26.675  60.180  1.00  0.00     0.214 C 
ATOM     29  O   UNL     1      10.489  25.639  62.368  1.00  0.00    -0.332 OA
ATOM     30  C   UNL     1      11.611  25.447  59.691  1.00  0.00     0.180 C 
ATOM     31  C   UNL     1      11.085  24.420  61.951  1.00  0.00     0.179 C 
ATOM     32  C   UNL     1      12.191  24.691  60.900  1.00  0.00     0.177 C 
BRANCH  28  33
ATOM     33  O   UNL     1      10.121  27.277  59.119  1.00  0.00    -0.384 OA
ATOM     34  H   UNL     1       9.157  27.077  59.258  1.00  0.00     0.211 HD
ENDBRANCH  28  33
BRANCH  30  35
ATOM     35  O   UNL     1      10.784  24.595  58.939  1.00  0.00    -0.387 OA
ATOM     36  H   UNL     1      10.235  25.169  58.345  1.00  0.00     0.211 HD
ENDBRANCH  30  35
BRANCH  31  37
ATOM     37  C   UNL     1      11.670  23.723  63.188  1.00  0.00     0.191 C 
BRANCH  37  38
ATOM     38  O   UNL     1      11.685  22.333  63.004  1.00  0.00    -0.394 OA
ATOM     39  H   UNL     1      11.822  22.177  62.033  1.00  0.00     0.210 HD
ENDBRANCH  37  38
ENDBRANCH  31  37
BRANCH  32  40
ATOM     40  O   UNL     1      12.828  23.506  60.488  1.00  0.00    -0.387 OA
ATOM     41  H   UNL     1      13.315  23.698  59.646  1.00  0.00     0.211 HD
ENDBRANCH  32  40
ENDBRANCH   1  27
TORSDOF 12
ENDMDL
MODEL 9
REMARK VINA RESULT:    -5.681      1.991      2.969
REMARK INTER + INTRA:          -8.871
REMARK INTER:                  -7.309
REMARK INTRA:                  -1.562
REMARK UNBOUND:                -0.534
REMARK SMILES O=c1c(O[C@H]2O[C@H](CO)[C@@H](O)[C@@H](O)[C@H]2O)c(-c2ccc(O)c(O)c2)oc2cc(O)cc(O)c12
REMARK SMILES IDX 4 1 3 2 16 3 25 4 2 5 26 6 1 7 33 8 27 9 31 10 28 11 30 12
REMARK SMILES IDX 17 13 18 14 19 15 20 16 24 17 22 18 21 19 23 21 32 23 29 25
REMARK SMILES IDX 5 27 14 28 6 29 12 30 7 31 10 32 15 33 13 35 8 37 9 38 11 40
REMARK H PARENT 21 20 23 22 32 24 29 26 15 34 13 36 9 39 11 41
REMARK Flexibility Score: inf
ROOT
ATOM      1  O   UNL     1       3.657  26.246  62.014  1.00  0.00    -0.454 OA
ENDROOT
BRANCH   1   2
ATOM      2  C   UNL     1       5.037  25.949  62.001  1.00  0.00     0.214 A 
ATOM      3  C   UNL     1       5.833  26.535  60.996  1.00  0.00     0.180 A 
ATOM      4  O   UNL     1       7.117  26.214  60.882  1.00  0.00    -0.452 OA
ATOM      5  C   UNL     1       5.663  25.068  62.916  1.00  0.00     0.239 A 
ATOM      6  C   UNL     1       7.734  25.375  61.702  1.00  0.00     0.146 A 
ATOM      7  O   UNL     1       5.004  24.551  63.856  1.00  0.00    -0.285 OA
ATOM      8  C   UNL     1       7.035  24.770  62.770  1.00  0.00     0.111 A 
ATOM      9  C   UNL     1       9.091  25.104  61.500  1.00  0.00     0.094 A 
ATOM     10  C   UNL     1       7.733  23.892  63.638  1.00  0.00     0.134 A 
ATOM     11  C   UNL     1       9.772  24.236  62.354  1.00  0.00     0.123 A 
ATOM     12  C   UNL     1       9.094  23.634  63.421  1.00  0.00     0.093 A 
BRANCH   3  13
ATOM     13  C   UNL     1       5.277  27.507  60.033  1.00  0.00     0.025 A 
ATOM     14  C   UNL     1       5.058  27.123  58.701  1.00  0.00     0.016 A 
ATOM     15  C   UNL     1       4.553  28.041  57.776  1.00  0.00     0.051 A 
ATOM     16  C   UNL     1       4.277  29.356  58.163  1.00  0.00     0.157 A 
ATOM     17  C   UNL     1       5.026  28.835  60.414  1.00  0.00     0.062 A 
ATOM     18  C   UNL     1       4.519  29.759  59.488  1.00  0.00     0.158 A 
BRANCH  16  19
ATOM     19  O   UNL     1       3.769  30.249  57.220  1.00  0.00    -0.504 OA
ATOM     20  H   UNL     1       3.029  29.989  56.579  1.00  0.00     0.293 HD
ENDBRANCH  16  19
BRANCH  18  21
ATOM     21  O   UNL     1       4.262  31.072  59.877  1.00  0.00    -0.504 OA
ATOM     22  H   UNL     1       4.996  31.771  59.904  1.00  0.00     0.293 HD
ENDBRANCH  18  21
ENDBRANCH   3  13
BRANCH  10  23
ATOM     23  O   UNL     1       7.086  23.274  64.710  1.00  0.00    -0.507 OA
ATOM     24  H   UNL     1       6.271  23.685  65.149  1.00  0.00     0.293 HD
ENDBRANCH  10  23
BRANCH  11  25
ATOM     25  O   UNL     1      11.124  23.978  62.137  1.00  0.00    -0.508 OA
ATOM     26  H   UNL     1      11.436  23.386  61.377  1.00  0.00     0.293 HD
ENDBRANCH  11  25
ENDBRANCH   1   2
BRANCH   1  27
ATOM     27  C   UNL     1       2.591  25.423  61.524  1.00  0.00     0.339 C 
ATOM     28  C   UNL     1       1.430  26.283  60.987  1.00  0.00     0.214 C 
ATOM     29  O   UNL     1       2.138  24.515  62.517  1.00  0.00    -0.332 OA
ATOM     30  C   UNL     1       0.699  27.013  62.132  1.00  0.00     0.180 C 
ATOM     31  C   UNL     1       1.611  25.193  63.647  1.00  0.00     0.179 C 
ATOM     32  C   UNL     1       0.357  26.011  63.249  1.00  0.00     0.177 C 
BRANCH  28  33
ATOM     33  O   UNL     1       1.920  27.198  60.042  1.00  0.00    -0.384 OA
ATOM     34  H   UNL     1       1.600  26.890  59.152  1.00  0.00     0.211 HD
ENDBRANCH  28  33
BRANCH  30  35
ATOM     35  O   UNL     1       1.497  28.052  62.642  1.00  0.00    -0.387 OA
ATOM     36  H   UNL     1       0.896  28.666  63.138  1.00  0.00     0.211 HD
ENDBRANCH  30  35
BRANCH  31  37
ATOM     37  C   UNL     1       1.262  24.148  64.716  1.00  0.00     0.191 C 
BRANCH  37  38
ATOM     38  O   UNL     1       1.260  24.734  65.990  1.00  0.00    -0.394 OA
ATOM     39  H   UNL     1       1.639  25.646  65.884  1.00  0.00     0.210 HD
ENDBRANCH  37  38
ENDBRANCH  31  37
BRANCH  32  40
ATOM     40  O   UNL     1      -0.214  26.672  64.353  1.00  0.00    -0.387 OA
ATOM     41  H   UNL     1       0.525  26.996  64.931  1.00  0.00     0.211 HD
ENDBRANCH  32  40
ENDBRANCH   1  27
TORSDOF 12
ENDMDL
