MODEL 1
REMARK VINA RESULT:    -3.444      0.000      0.000
REMARK INTER + INTRA:          -6.162
REMARK INTER:                  -5.458
REMARK INTRA:                  -0.705
REMARK UNBOUND:                -0.705
REMARK SMILES CCCCCCCCCCCC(=O)[O-]
REMARK SMILES IDX 7 1 8 2 9 3 10 4 11 5 12 6 13 7 14 8 6 9 5 10 4 11 3 12 2 13
REMARK SMILES IDX 1 14
REMARK H PARENT
REMARK Flexibility Score: inf
ROOT
ATOM      1  C   UNL     1     -97.110 -40.790  94.074  1.00  0.00     0.000 C 
ENDROOT
BRANCH   1   2
ATOM      2  C   UNL     1     -96.119 -41.192  92.970  1.00  0.00     0.000 C 
BRANCH   2   3
ATOM      3  C   UNL     1     -96.816 -41.819  91.751  1.00  0.00     0.000 C 
BRANCH   3   4
ATOM      4  C   UNL     1     -96.449 -41.116  90.434  1.00  0.00     0.006 C 
BRANCH   4   5
ATOM      5  C   UNL     1     -97.670 -40.514  89.726  1.00  0.00     0.053 C 
BRANCH   5   6
ATOM      6  C   UNL     1     -97.272 -39.920  88.412  1.00  0.00     0.041 C 
ATOM      7  O   UNL     1     -97.348 -40.606  87.359  1.00  0.00    -0.550 OA
ATOM      8  O   UNL     1     -96.865 -38.594  88.343  1.00  0.00    -0.550 OA
ENDBRANCH   5   6
ENDBRANCH   4   5
ENDBRANCH   3   4
ENDBRANCH   2   3
ENDBRANCH   1   2
BRANCH   1   9
ATOM      9  C   UNL     1     -98.564 -41.154  93.722  1.00  0.00     0.000 C 
BRANCH   9  10
ATOM     10  C   UNL     1     -99.553 -40.031  94.071  1.00  0.00    -0.000 C 
BRANCH  10  11
ATOM     11  C   UNL     1     -99.885 -39.140  92.861  1.00  0.00    -0.000 C 
BRANCH  11  12
ATOM     12  C   UNL     1    -100.964 -38.092  93.178  1.00  0.00    -0.000 C 
BRANCH  12  13
ATOM     13  C   UNL     1    -100.609 -36.699  92.638  1.00  0.00    -0.003 C 
ATOM     14  C   UNL     1    -100.575 -35.667  93.762  1.00  0.00     0.004 C 
ENDBRANCH  12  13
ENDBRANCH  11  12
ENDBRANCH  10  11
ENDBRANCH   9  10
ENDBRANCH   1   9
TORSDOF 10
ENDMDL
MODEL 2
REMARK VINA RESULT:    -3.426      2.855      5.495
REMARK INTER + INTRA:          -6.134
REMARK INTER:                  -5.054
REMARK INTRA:                  -1.080
REMARK UNBOUND:                -0.705
REMARK SMILES CCCCCCCCCCCC(=O)[O-]
REMARK SMILES IDX 7 1 8 2 9 3 10 4 11 5 12 6 13 7 14 8 6 9 5 10 4 11 3 12 2 13
REMARK SMILES IDX 1 14
REMARK H PARENT
REMARK Flexibility Score: inf
ROOT
ATOM      1  C   UNL     1     -96.480 -41.422  91.429  1.00  0.00     0.000 C 
ENDROOT
BRANCH   1   2
ATOM      2  C   UNL     1     -97.678 -41.142  92.351  1.00  0.00     0.000 C 
BRANCH   2   3
ATOM      3  C   UNL     1     -98.905 -40.624  91.582  1.00  0.00     0.000 C 
BRANCH   3   4
ATOM      4  C   UNL     1     -99.629 -39.487  92.321  1.00  0.00     0.006 C 
BRANCH   4   5
ATOM      5  C   UNL     1    -100.005 -38.325  91.392  1.00  0.00     0.053 C 
BRANCH   5   6
ATOM      6  C   UNL     1    -101.346 -37.776  91.759  1.00  0.00     0.041 C 
ATOM      7  O   UNL     1    -102.244 -37.658  90.883  1.00  0.00    -0.550 OA
ATOM      8  O   UNL     1    -101.624 -37.441  93.079  1.00  0.00    -0.550 OA
ENDBRANCH   5   6
ENDBRANCH   4   5
ENDBRANCH   3   4
ENDBRANCH   2   3
ENDBRANCH   1   2
BRANCH   1   9
ATOM      9  C   UNL     1     -96.622 -42.749  90.662  1.00  0.00     0.000 C 
BRANCH   9  10
ATOM     10  C   UNL     1     -95.983 -42.693  89.266  1.00  0.00    -0.000 C 
BRANCH  10  11
ATOM     11  C   UNL     1     -97.021 -42.817  88.137  1.00  0.00    -0.000 C 
BRANCH  11  12
ATOM     12  C   UNL     1     -97.882 -41.553  87.985  1.00  0.00    -0.000 C 
BRANCH  12  13
ATOM     13  C   UNL     1     -97.057 -40.325  87.572  1.00  0.00    -0.003 C 
ATOM     14  C   UNL     1     -97.225 -39.188  88.577  1.00  0.00     0.004 C 
ENDBRANCH  12  13
ENDBRANCH  11  12
ENDBRANCH  10  11
ENDBRANCH   9  10
ENDBRANCH   1   9
TORSDOF 10
ENDMDL
MODEL 3
REMARK VINA RESULT:    -3.410     14.329     16.856
REMARK INTER + INTRA:          -6.108
REMARK INTER:                  -4.624
REMARK INTRA:                  -1.485
REMARK UNBOUND:                -0.705
REMARK SMILES CCCCCCCCCCCC(=O)[O-]
REMARK SMILES IDX 7 1 8 2 9 3 10 4 11 5 12 6 13 7 14 8 6 9 5 10 4 11 3 12 2 13
REMARK SMILES IDX 1 14
REMARK H PARENT
REMARK Flexibility Score: inf
ROOT
ATOM      1  C   UNL     1     -96.201 -25.218  80.015  1.00  0.00     0.000 C 
ENDROOT
BRANCH   1   2
ATOM      2  C   UNL     1     -96.858 -25.341  81.398  1.00  0.00     0.000 C 
BRANCH   2   3
ATOM      3  C   UNL     1     -96.174 -26.397  82.284  1.00  0.00     0.000 C 
BRANCH   3   4
ATOM      4  C   UNL     1     -97.075 -26.877  83.433  1.00  0.00     0.006 C 
BRANCH   4   5
ATOM      5  C   UNL     1     -96.879 -28.366  83.753  1.00  0.00     0.053 C 
BRANCH   5   6
ATOM      6  C   UNL     1     -96.168 -28.530  85.059  1.00  0.00     0.041 C 
ATOM      7  O   UNL     1     -95.974 -27.532  85.803  1.00  0.00    -0.550 OA
ATOM      8  O   UNL     1     -95.763 -29.791  85.477  1.00  0.00    -0.550 OA
ENDBRANCH   5   6
ENDBRANCH   4   5
ENDBRANCH   3   4
ENDBRANCH   2   3
ENDBRANCH   1   2
BRANCH   1   9
ATOM      9  C   UNL     1     -95.121 -26.289  79.777  1.00  0.00     0.000 C 
BRANCH   9  10
ATOM     10  C   UNL     1     -95.311 -27.030  78.444  1.00  0.00    -0.000 C 
BRANCH  10  11
ATOM     11  C   UNL     1     -96.675 -27.735  78.350  1.00  0.00    -0.000 C 
BRANCH  11  12
ATOM     12  C   UNL     1     -96.739 -29.013  79.202  1.00  0.00    -0.000 C 
BRANCH  12  13
ATOM     13  C   UNL     1     -97.895 -28.988  80.214  1.00  0.00    -0.003 C 
ATOM     14  C   UNL     1     -98.955 -27.966  79.811  1.00  0.00     0.004 C 
ENDBRANCH  12  13
ENDBRANCH  11  12
ENDBRANCH  10  11
ENDBRANCH   9  10
ENDBRANCH   1   9
TORSDOF 10
ENDMDL
MODEL 4
REMARK VINA RESULT:    -3.394      3.081      6.153
REMARK INTER + INTRA:          -6.082
REMARK INTER:                  -5.347
REMARK INTRA:                  -0.736
REMARK UNBOUND:                -0.705
REMARK SMILES CCCCCCCCCCCC(=O)[O-]
REMARK SMILES IDX 7 1 8 2 9 3 10 4 11 5 12 6 13 7 14 8 6 9 5 10 4 11 3 12 2 13
REMARK SMILES IDX 1 14
REMARK H PARENT
REMARK Flexibility Score: inf
ROOT
ATOM      1  C   UNL     1     -98.275 -41.117  92.435  1.00  0.00     0.000 C 
ENDROOT
BRANCH   1   2
ATOM      2  C   UNL     1     -99.686 -40.545  92.224  1.00  0.00     0.000 C 
BRANCH   2   3
ATOM      3  C   UNL     1     -99.885 -39.192  92.928  1.00  0.00     0.000 C 
BRANCH   3   4
ATOM      4  C   UNL     1    -100.213 -38.057  91.945  1.00  0.00     0.006 C 
BRANCH   4   5
ATOM      5  C   UNL     1    -100.607 -36.755  92.657  1.00  0.00     0.053 C 
BRANCH   5   6
ATOM      6  C   UNL     1    -101.941 -36.280  92.175  1.00  0.00     0.041 C 
ATOM      7  O   UNL     1    -102.598 -36.969  91.351  1.00  0.00    -0.550 OA
ATOM      8  O   UNL     1    -102.481 -35.101  92.674  1.00  0.00    -0.550 OA
ENDBRANCH   5   6
ENDBRANCH   4   5
ENDBRANCH   3   4
ENDBRANCH   2   3
ENDBRANCH   1   2
BRANCH   1   9
ATOM      9  C   UNL     1     -97.439 -41.116  91.142  1.00  0.00     0.000 C 
BRANCH   9  10
ATOM     10  C   UNL     1     -98.283 -40.805  89.896  1.00  0.00    -0.000 C 
BRANCH  10  11
ATOM     11  C   UNL     1     -97.628 -39.746  88.991  1.00  0.00    -0.000 C 
BRANCH  11  12
ATOM     12  C   UNL     1     -97.025 -40.353  87.714  1.00  0.00    -0.000 C 
BRANCH  12  13
ATOM     13  C   UNL     1     -97.574 -41.755  87.412  1.00  0.00    -0.003 C 
ATOM     14  C   UNL     1     -96.452 -42.791  87.387  1.00  0.00     0.004 C 
ENDBRANCH  12  13
ENDBRANCH  11  12
ENDBRANCH  10  11
ENDBRANCH   9  10
ENDBRANCH   1   9
TORSDOF 10
ENDMDL
MODEL 5
REMARK VINA RESULT:    -3.338     14.007     16.032
REMARK INTER + INTRA:          -5.994
REMARK INTER:                  -4.911
REMARK INTRA:                  -1.083
REMARK UNBOUND:                -0.705
REMARK SMILES CCCCCCCCCCCC(=O)[O-]
REMARK SMILES IDX 7 1 8 2 9 3 10 4 11 5 12 6 13 7 14 8 6 9 5 10 4 11 3 12 2 13
REMARK SMILES IDX 1 14
REMARK H PARENT
REMARK Flexibility Score: inf
ROOT
ATOM      1  C   UNL     1     -99.079 -27.544  81.448  1.00  0.00     0.000 C 
ENDROOT
BRANCH   1   2
ATOM      2  C   UNL     1     -98.378 -28.788  80.880  1.00  0.00     0.000 C 
BRANCH   2   3
ATOM      3  C   UNL     1     -97.021 -28.458  80.234  1.00  0.00     0.000 C 
BRANCH   3   4
ATOM      4  C   UNL     1     -96.319 -27.270  80.909  1.00  0.00     0.006 C 
BRANCH   4   5
ATOM      5  C   UNL     1     -95.464 -26.455  79.928  1.00  0.00     0.053 C 
BRANCH   5   6
ATOM      6  C   UNL     1     -94.674 -25.418  80.662  1.00  0.00     0.041 C 
ATOM      7  O   UNL     1     -95.231 -24.358  81.051  1.00  0.00    -0.550 OA
ATOM      8  O   UNL     1     -93.336 -25.644  80.960  1.00  0.00    -0.550 OA
ENDBRANCH   5   6
ENDBRANCH   4   5
ENDBRANCH   3   4
ENDBRANCH   2   3
ENDBRANCH   1   2
BRANCH   1   9
ATOM      9  C   UNL     1     -99.867 -27.847  82.735  1.00  0.00     0.000 C 
BRANCH   9  10
ATOM     10  C   UNL     1     -98.950 -28.163  83.927  1.00  0.00    -0.000 C 
BRANCH  10  11
ATOM     11  C   UNL     1     -98.118 -26.946  84.369  1.00  0.00    -0.000 C 
BRANCH  11  12
ATOM     12  C   UNL     1     -96.758 -27.345  84.963  1.00  0.00    -0.000 C 
BRANCH  12  13
ATOM     13  C   UNL     1     -96.282 -28.721  84.472  1.00  0.00    -0.003 C 
ATOM     14  C   UNL     1     -95.846 -29.600  85.642  1.00  0.00     0.004 C 
ENDBRANCH  12  13
ENDBRANCH  11  12
ENDBRANCH  10  11
ENDBRANCH   9  10
ENDBRANCH   1   9
TORSDOF 10
ENDMDL
MODEL 6
REMARK VINA RESULT:    -3.323      3.539      6.531
REMARK INTER + INTRA:          -5.969
REMARK INTER:                  -5.254
REMARK INTRA:                  -0.715
REMARK UNBOUND:                -0.705
REMARK SMILES CCCCCCCCCCCC(=O)[O-]
REMARK SMILES IDX 7 1 8 2 9 3 10 4 11 5 12 6 13 7 14 8 6 9 5 10 4 11 3 12 2 13
REMARK SMILES IDX 1 14
REMARK H PARENT
REMARK Flexibility Score: inf
ROOT
ATOM      1  C   UNL     1     -99.090 -40.850  91.140  1.00  0.00     0.000 C 
ENDROOT
BRANCH   1   2
ATOM      2  C   UNL     1     -99.511 -39.750  92.127  1.00  0.00     0.000 C 
BRANCH   2   3
ATOM      3  C   UNL     1    -100.063 -38.501  91.417  1.00  0.00     0.000 C 
BRANCH   3   4
ATOM      4  C   UNL     1    -100.312 -37.334  92.385  1.00  0.00     0.006 C 
BRANCH   4   5
ATOM      5  C   UNL     1    -101.690 -36.686  92.184  1.00  0.00     0.053 C 
BRANCH   5   6
ATOM      6  C   UNL     1    -101.788 -35.416  92.968  1.00  0.00     0.041 C 
ATOM      7  O   UNL     1    -100.964 -35.176  93.891  1.00  0.00    -0.550 OA
ATOM      8  O   UNL     1    -102.757 -34.473  92.647  1.00  0.00    -0.550 OA
ENDBRANCH   5   6
ENDBRANCH   4   5
ENDBRANCH   3   4
ENDBRANCH   2   3
ENDBRANCH   1   2
BRANCH   1   9
ATOM      9  C   UNL     1     -97.601 -41.220  91.269  1.00  0.00     0.000 C 
BRANCH   9  10
ATOM     10  C   UNL     1     -96.770 -40.742  90.068  1.00  0.00    -0.000 C 
BRANCH  10  11
ATOM     11  C   UNL     1     -97.640 -40.142  88.950  1.00  0.00    -0.000 C 
BRANCH  11  12
ATOM     12  C   UNL     1     -97.217 -40.620  87.552  1.00  0.00    -0.000 C 
BRANCH  12  13
ATOM     13  C   UNL     1     -97.369 -42.138  87.377  1.00  0.00    -0.003 C 
ATOM     14  C   UNL     1     -98.827 -42.565  87.533  1.00  0.00     0.004 C 
ENDBRANCH  12  13
ENDBRANCH  11  12
ENDBRANCH  10  11
ENDBRANCH   9  10
ENDBRANCH   1   9
TORSDOF 10
ENDMDL
MODEL 7
REMARK VINA RESULT:    -3.322      1.440      1.880
REMARK INTER + INTRA:          -5.968
REMARK INTER:                  -5.078
REMARK INTRA:                  -0.890
REMARK UNBOUND:                -0.705
REMARK SMILES CCCCCCCCCCCC(=O)[O-]
REMARK SMILES IDX 7 1 8 2 9 3 10 4 11 5 12 6 13 7 14 8 6 9 5 10 4 11 3 12 2 13
REMARK SMILES IDX 1 14
REMARK H PARENT
REMARK Flexibility Score: inf
ROOT
ATOM      1  C   UNL     1     -96.669 -41.087  92.452  1.00  0.00     0.000 C 
ENDROOT
BRANCH   1   2
ATOM      2  C   UNL     1     -96.525 -41.486  90.975  1.00  0.00     0.000 C 
BRANCH   2   3
ATOM      3  C   UNL     1     -97.865 -41.450  90.220  1.00  0.00     0.000 C 
BRANCH   3   4
ATOM      4  C   UNL     1     -97.992 -40.226  89.299  1.00  0.00     0.006 C 
BRANCH   4   5
ATOM      5  C   UNL     1     -96.989 -40.254  88.138  1.00  0.00     0.053 C 
BRANCH   5   6
ATOM      6  C   UNL     1     -97.054 -41.568  87.425  1.00  0.00     0.041 C 
ATOM      7  O   UNL     1     -98.115 -41.922  86.847  1.00  0.00    -0.550 OA
ATOM      8  O   UNL     1     -95.928 -42.379  87.356  1.00  0.00    -0.550 OA
ENDBRANCH   5   6
ENDBRANCH   4   5
ENDBRANCH   3   4
ENDBRANCH   2   3
ENDBRANCH   1   2
BRANCH   1   9
ATOM      9  C   UNL     1     -98.039 -41.477  93.036  1.00  0.00     0.000 C 
BRANCH   9  10
ATOM     10  C   UNL     1     -98.750 -40.294  93.711  1.00  0.00    -0.000 C 
BRANCH  10  11
ATOM     11  C   UNL     1    -100.064 -39.915  93.005  1.00  0.00    -0.000 C 
BRANCH  11  12
ATOM     12  C   UNL     1     -99.877 -38.790  91.974  1.00  0.00    -0.000 C 
BRANCH  12  13
ATOM     13  C   UNL     1    -100.755 -37.566  92.272  1.00  0.00    -0.003 C 
ATOM     14  C   UNL     1    -100.711 -37.207  93.755  1.00  0.00     0.004 C 
ENDBRANCH  12  13
ENDBRANCH  11  12
ENDBRANCH  10  11
ENDBRANCH   9  10
ENDBRANCH   1   9
TORSDOF 10
ENDMDL
MODEL 8
REMARK VINA RESULT:    -3.297      2.489      5.906
REMARK INTER + INTRA:          -5.930
REMARK INTER:                  -5.143
REMARK INTRA:                  -0.786
REMARK UNBOUND:                -0.705
REMARK SMILES CCCCCCCCCCCC(=O)[O-]
REMARK SMILES IDX 7 1 8 2 9 3 10 4 11 5 12 6 13 7 14 8 6 9 5 10 4 11 3 12 2 13
REMARK SMILES IDX 1 14
REMARK H PARENT
REMARK Flexibility Score: inf
ROOT
ATOM      1  C   UNL     1     -97.504 -41.589  91.415  1.00  0.00     0.000 C 
ENDROOT
BRANCH   1   2
ATOM      2  C   UNL     1     -96.977 -41.120  92.780  1.00  0.00     0.000 C 
BRANCH   2   3
ATOM      3  C   UNL     1     -98.109 -40.730  93.747  1.00  0.00     0.000 C 
BRANCH   3   4
ATOM      4  C   UNL     1     -99.393 -40.310  93.014  1.00  0.00     0.006 C 
BRANCH   4   5
ATOM      5  C   UNL     1     -99.912 -38.940  93.471  1.00  0.00     0.053 C 
BRANCH   5   6
ATOM      6  C   UNL     1    -100.236 -38.084  92.288  1.00  0.00     0.041 C 
ATOM      7  O   UNL     1    -100.874 -37.009  92.441  1.00  0.00    -0.550 OA
ATOM      8  O   UNL     1     -99.792 -38.448  91.023  1.00  0.00    -0.550 OA
ENDBRANCH   5   6
ENDBRANCH   4   5
ENDBRANCH   3   4
ENDBRANCH   2   3
ENDBRANCH   1   2
BRANCH   1   9
ATOM      9  C   UNL     1     -96.735 -40.960  90.238  1.00  0.00     0.000 C 
BRANCH   9  10
ATOM     10  C   UNL     1     -97.672 -40.371  89.171  1.00  0.00    -0.000 C 
BRANCH  10  11
ATOM     11  C   UNL     1     -97.129 -40.556  87.744  1.00  0.00    -0.000 C 
BRANCH  11  12
ATOM     12  C   UNL     1     -96.247 -41.807  87.605  1.00  0.00    -0.000 C 
BRANCH  12  13
ATOM     13  C   UNL     1     -97.068 -43.084  87.369  1.00  0.00    -0.003 C 
ATOM     14  C   UNL     1     -96.786 -44.125  88.450  1.00  0.00     0.004 C 
ENDBRANCH  12  13
ENDBRANCH  11  12
ENDBRANCH  10  11
ENDBRANCH   9  10
ENDBRANCH   1   9
TORSDOF 10
ENDMDL
MODEL 9
REMARK VINA RESULT:    -3.249      2.758      4.590
REMARK INTER + INTRA:          -5.853
REMARK INTER:                  -4.537
REMARK INTRA:                  -1.316
REMARK UNBOUND:                -0.705
REMARK SMILES CCCCCCCCCCCC(=O)[O-]
REMARK SMILES IDX 7 1 8 2 9 3 10 4 11 5 12 6 13 7 14 8 6 9 5 10 4 11 3 12 2 13
REMARK SMILES IDX 1 14
REMARK H PARENT
REMARK Flexibility Score: inf
ROOT
ATOM      1  C   UNL     1     -99.004 -41.670  90.640  1.00  0.00     0.000 C 
ENDROOT
BRANCH   1   2
ATOM      2  C   UNL     1     -98.409 -40.332  90.173  1.00  0.00     0.000 C 
BRANCH   2   3
ATOM      3  C   UNL     1     -97.046 -40.502  89.480  1.00  0.00     0.000 C 
BRANCH   3   4
ATOM      4  C   UNL     1     -97.173 -40.661  87.957  1.00  0.00     0.006 C 
BRANCH   4   5
ATOM      5  C   UNL     1     -96.297 -41.796  87.408  1.00  0.00     0.053 C 
BRANCH   5   6
ATOM      6  C   UNL     1     -96.994 -43.111  87.553  1.00  0.00     0.041 C 
ATOM      7  O   UNL     1     -96.568 -43.965  88.374  1.00  0.00    -0.550 OA
ATOM      8  O   UNL     1     -98.143 -43.374  86.819  1.00  0.00    -0.550 OA
ENDBRANCH   5   6
ENDBRANCH   4   5
ENDBRANCH   3   4
ENDBRANCH   2   3
ENDBRANCH   1   2
BRANCH   1   9
ATOM      9  C   UNL     1     -99.211 -41.723  92.165  1.00  0.00     0.000 C 
BRANCH   9  10
ATOM     10  C   UNL     1     -98.607 -40.507  92.884  1.00  0.00    -0.000 C 
BRANCH  10  11
ATOM     11  C   UNL     1     -97.462 -40.895  93.836  1.00  0.00    -0.000 C 
BRANCH  11  12
ATOM     12  C   UNL     1     -96.137 -41.139  93.097  1.00  0.00    -0.000 C 
BRANCH  12  13
ATOM     13  C   UNL     1     -95.705 -42.612  93.134  1.00  0.00    -0.003 C 
ATOM     14  C   UNL     1     -95.840 -43.258  91.757  1.00  0.00     0.004 C 
ENDBRANCH  12  13
ENDBRANCH  11  12
ENDBRANCH  10  11
ENDBRANCH   9  10
ENDBRANCH   1   9
TORSDOF 10
ENDMDL
