MODEL 1
REMARK VINA RESULT:    -6.431      0.000      0.000
REMARK INTER + INTRA:          -7.998
REMARK INTER:                  -7.747
REMARK INTRA:                  -0.252
REMARK UNBOUND:                -0.252
REMARK SMILES O=c1c(O)c(-c2ccc(O)c(O)c2)oc2cc(O)cc(O)c12
REMARK SMILES IDX 5 1 3 2 2 3 1 4 22 5 20 6 19 7 17 8 16 9 15 10 14 11 6 12
REMARK SMILES IDX 7 13 8 14 9 15 13 16 11 17 10 18 12 20 4 22 21 24 18 26
REMARK H PARENT 10 19 12 21 4 23 21 25 18 27
REMARK Flexibility Score: inf
ROOT
ATOM      1  C   UNL     1     163.362 157.406 163.665  1.00  0.00     0.180 A 
ATOM      2  C   UNL     1     164.148 156.837 162.648  1.00  0.00     0.208 A 
ATOM      3  C   UNL     1     163.964 155.484 162.321  1.00  0.00     0.238 A 
ATOM      4  O   UNL     1     164.632 154.995 161.372  1.00  0.00    -0.285 OA
ATOM      5  C   UNL     1     163.009 154.713 163.026  1.00  0.00     0.111 A 
ATOM      6  C   UNL     1     162.768 153.324 162.805  1.00  0.00     0.134 A 
ATOM      7  C   UNL     1     161.709 152.692 163.470  1.00  0.00     0.093 A 
ATOM      8  C   UNL     1     160.924 153.385 164.395  1.00  0.00     0.123 A 
ATOM      9  C   UNL     1     161.190 154.726 164.661  1.00  0.00     0.094 A 
ATOM     10  C   UNL     1     162.216 155.392 163.987  1.00  0.00     0.146 A 
ATOM     11  O   UNL     1     162.429 156.673 164.262  1.00  0.00    -0.452 OA
ENDROOT
BRANCH   1  12
ATOM     12  C   UNL     1     163.515 158.818 164.084  1.00  0.00     0.025 A 
ATOM     13  C   UNL     1     164.644 159.251 164.800  1.00  0.00     0.016 A 
ATOM     14  C   UNL     1     164.755 160.583 165.205  1.00  0.00     0.051 A 
ATOM     15  C   UNL     1     163.737 161.499 164.913  1.00  0.00     0.157 A 
ATOM     16  C   UNL     1     162.487 159.735 163.810  1.00  0.00     0.062 A 
ATOM     17  C   UNL     1     162.595 161.071 164.214  1.00  0.00     0.158 A 
BRANCH  15  18
ATOM     18  O   UNL     1     163.853 162.828 165.316  1.00  0.00    -0.504 OA
ATOM     19  H   UNL     1     163.585 163.126 166.248  1.00  0.00     0.293 HD
ENDBRANCH  15  18
BRANCH  17  20
ATOM     20  O   UNL     1     161.561 161.956 163.912  1.00  0.00    -0.504 OA
ATOM     21  H   UNL     1     161.684 162.728 163.267  1.00  0.00     0.293 HD
ENDBRANCH  17  20
ENDBRANCH   1  12
BRANCH   2  22
ATOM     22  O   UNL     1     165.069 157.623 161.950  1.00  0.00    -0.502 OA
ATOM     23  H   UNL     1     165.680 157.242 161.238  1.00  0.00     0.293 HD
ENDBRANCH   2  22
BRANCH   6  24
ATOM     24  O   UNL     1     163.551 152.518 161.972  1.00  0.00    -0.507 OA
ATOM     25  H   UNL     1     163.425 152.429 160.976  1.00  0.00     0.293 HD
ENDBRANCH   6  24
BRANCH   8  26
ATOM     26  O   UNL     1     159.883 152.745 165.063  1.00  0.00    -0.508 OA
ATOM     27  H   UNL     1     158.914 152.900 164.808  1.00  0.00     0.293 HD
ENDBRANCH   8  26
TORSDOF 6
ENDMDL
MODEL 2
REMARK VINA RESULT:    -6.032      1.688      6.788
REMARK INTER + INTRA:          -7.518
REMARK INTER:                  -7.188
REMARK INTRA:                  -0.330
REMARK UNBOUND:                -0.252
REMARK SMILES O=c1c(O)c(-c2ccc(O)c(O)c2)oc2cc(O)cc(O)c12
REMARK SMILES IDX 5 1 3 2 2 3 1 4 22 5 20 6 19 7 17 8 16 9 15 10 14 11 6 12
REMARK SMILES IDX 7 13 8 14 9 15 13 16 11 17 10 18 12 20 4 22 21 24 18 26
REMARK H PARENT 10 19 12 21 4 23 21 25 18 27
REMARK Flexibility Score: inf
ROOT
ATOM      1  C   UNL     1     162.950 156.447 164.175  1.00  0.00     0.180 A 
ATOM      2  C   UNL     1     164.281 156.331 164.612  1.00  0.00     0.208 A 
ATOM      3  C   UNL     1     164.967 157.486 165.020  1.00  0.00     0.238 A 
ATOM      4  O   UNL     1     166.140 157.369 165.462  1.00  0.00    -0.285 OA
ATOM      5  C   UNL     1     164.319 158.744 164.971  1.00  0.00     0.111 A 
ATOM      6  C   UNL     1     164.931 159.985 165.323  1.00  0.00     0.134 A 
ATOM      7  C   UNL     1     164.157 161.151 165.361  1.00  0.00     0.093 A 
ATOM      8  C   UNL     1     162.808 161.131 164.998  1.00  0.00     0.123 A 
ATOM      9  C   UNL     1     162.217 159.936 164.596  1.00  0.00     0.094 A 
ATOM     10  C   UNL     1     162.955 158.750 164.583  1.00  0.00     0.146 A 
ATOM     11  O   UNL     1     162.350 157.631 164.203  1.00  0.00    -0.452 OA
ENDROOT
BRANCH   1  12
ATOM     12  C   UNL     1     162.170 155.279 163.705  1.00  0.00     0.025 A 
ATOM     13  C   UNL     1     162.149 154.910 162.349  1.00  0.00     0.016 A 
ATOM     14  C   UNL     1     161.387 153.819 161.925  1.00  0.00     0.051 A 
ATOM     15  C   UNL     1     160.624 153.089 162.846  1.00  0.00     0.157 A 
ATOM     16  C   UNL     1     161.388 154.557 164.621  1.00  0.00     0.062 A 
ATOM     17  C   UNL     1     160.623 153.463 164.200  1.00  0.00     0.158 A 
BRANCH  15  18
ATOM     18  O   UNL     1     159.867 151.999 162.420  1.00  0.00    -0.504 OA
ATOM     19  H   UNL     1     159.432 151.364 163.079  1.00  0.00     0.293 HD
ENDBRANCH  15  18
BRANCH  17  20
ATOM     20  O   UNL     1     159.870 152.760 165.141  1.00  0.00    -0.504 OA
ATOM     21  H   UNL     1     160.301 152.164 165.837  1.00  0.00     0.293 HD
ENDBRANCH  17  20
ENDBRANCH   1  12
BRANCH   2  22
ATOM     22  O   UNL     1     164.894 155.077 164.673  1.00  0.00    -0.502 OA
ATOM     23  H   UNL     1     165.052 154.590 165.546  1.00  0.00     0.293 HD
ENDBRANCH   2  22
BRANCH   6  24
ATOM     24  O   UNL     1     166.292 160.129 165.613  1.00  0.00    -0.507 OA
ATOM     25  H   UNL     1     167.038 160.001 164.946  1.00  0.00     0.293 HD
ENDBRANCH   6  24
BRANCH   8  26
ATOM     26  O   UNL     1     162.049 162.299 165.024  1.00  0.00    -0.508 OA
ATOM     27  H   UNL     1     161.990 162.912 164.219  1.00  0.00     0.293 HD
ENDBRANCH   8  26
TORSDOF 6
ENDMDL
MODEL 3
REMARK VINA RESULT:    -5.881      2.097      6.777
REMARK INTER + INTRA:          -7.336
REMARK INTER:                  -7.031
REMARK INTRA:                  -0.305
REMARK UNBOUND:                -0.252
REMARK SMILES O=c1c(O)c(-c2ccc(O)c(O)c2)oc2cc(O)cc(O)c12
REMARK SMILES IDX 5 1 3 2 2 3 1 4 22 5 20 6 19 7 17 8 16 9 15 10 14 11 6 12
REMARK SMILES IDX 7 13 8 14 9 15 13 16 11 17 10 18 12 20 4 22 21 24 18 26
REMARK H PARENT 10 19 12 21 4 23 21 25 18 27
REMARK Flexibility Score: inf
ROOT
ATOM      1  C   UNL     1     164.146 155.005 162.668  1.00  0.00     0.180 A 
ATOM      2  C   UNL     1     165.144 154.779 161.704  1.00  0.00     0.208 A 
ATOM      3  C   UNL     1     165.968 155.846 161.314  1.00  0.00     0.238 A 
ATOM      4  O   UNL     1     166.895 155.625 160.491  1.00  0.00    -0.285 OA
ATOM      5  C   UNL     1     165.773 157.130 161.879  1.00  0.00     0.111 A 
ATOM      6  C   UNL     1     166.524 158.292 161.528  1.00  0.00     0.134 A 
ATOM      7  C   UNL     1     166.333 159.480 162.245  1.00  0.00     0.093 A 
ATOM      8  C   UNL     1     165.374 159.564 163.257  1.00  0.00     0.123 A 
ATOM      9  C   UNL     1     164.596 158.452 163.567  1.00  0.00     0.094 A 
ATOM     10  C   UNL     1     164.788 157.243 162.894  1.00  0.00     0.146 A 
ATOM     11  O   UNL     1     164.032 156.204 163.227  1.00  0.00    -0.452 OA
ENDROOT
BRANCH   1  12
ATOM     12  C   UNL     1     163.222 153.936 163.112  1.00  0.00     0.025 A 
ATOM     13  C   UNL     1     163.600 153.003 164.093  1.00  0.00     0.016 A 
ATOM     14  C   UNL     1     162.720 151.989 164.479  1.00  0.00     0.051 A 
ATOM     15  C   UNL     1     161.456 151.884 163.885  1.00  0.00     0.157 A 
ATOM     16  C   UNL     1     161.962 153.815 162.504  1.00  0.00     0.062 A 
ATOM     17  C   UNL     1     161.077 152.801 162.889  1.00  0.00     0.158 A 
BRANCH  15  18
ATOM     18  O   UNL     1     160.580 150.873 164.274  1.00  0.00    -0.504 OA
ATOM     19  H   UNL     1     159.890 151.019 165.002  1.00  0.00     0.293 HD
ENDBRANCH  15  18
BRANCH  17  20
ATOM     20  O   UNL     1     159.829 152.721 162.273  1.00  0.00    -0.504 OA
ATOM     21  H   UNL     1     159.721 152.774 161.267  1.00  0.00     0.293 HD
ENDBRANCH  17  20
ENDBRANCH   1  12
BRANCH   2  22
ATOM     22  O   UNL     1     165.333 153.499 161.175  1.00  0.00    -0.502 OA
ATOM     23  H   UNL     1     165.766 152.751 161.703  1.00  0.00     0.293 HD
ENDBRANCH   2  22
BRANCH   6  24
ATOM     24  O   UNL     1     167.440 158.340 160.473  1.00  0.00    -0.507 OA
ATOM     25  H   UNL     1     167.204 158.558 159.517  1.00  0.00     0.293 HD
ENDBRANCH   6  24
BRANCH   8  26
ATOM     26  O   UNL     1     165.181 160.755 163.955  1.00  0.00    -0.508 OA
ATOM     27  H   UNL     1     165.072 160.767 164.962  1.00  0.00     0.293 HD
ENDBRANCH   8  26
TORSDOF 6
ENDMDL
MODEL 4
REMARK VINA RESULT:    -5.868      1.684      3.419
REMARK INTER + INTRA:          -7.321
REMARK INTER:                  -7.005
REMARK INTRA:                  -0.316
REMARK UNBOUND:                -0.252
REMARK SMILES O=c1c(O)c(-c2ccc(O)c(O)c2)oc2cc(O)cc(O)c12
REMARK SMILES IDX 5 1 3 2 2 3 1 4 22 5 20 6 19 7 17 8 16 9 15 10 14 11 6 12
REMARK SMILES IDX 7 13 8 14 9 15 13 16 11 17 10 18 12 20 4 22 21 24 18 26
REMARK H PARENT 10 19 12 21 4 23 21 25 18 27
REMARK Flexibility Score: inf
ROOT
ATOM      1  C   UNL     1     163.336 158.274 163.869  1.00  0.00     0.180 A 
ATOM      2  C   UNL     1     162.447 157.238 164.203  1.00  0.00     0.208 A 
ATOM      3  C   UNL     1     162.612 155.979 163.605  1.00  0.00     0.238 A 
ATOM      4  O   UNL     1     161.846 155.040 163.949  1.00  0.00    -0.285 OA
ATOM      5  C   UNL     1     163.653 155.775 162.667  1.00  0.00     0.111 A 
ATOM      6  C   UNL     1     163.888 154.552 161.970  1.00  0.00     0.134 A 
ATOM      7  C   UNL     1     165.026 154.424 161.163  1.00  0.00     0.093 A 
ATOM      8  C   UNL     1     165.902 155.497 160.979  1.00  0.00     0.123 A 
ATOM      9  C   UNL     1     165.649 156.714 161.609  1.00  0.00     0.094 A 
ATOM     10  C   UNL     1     164.541 156.860 162.448  1.00  0.00     0.146 A 
ATOM     11  O   UNL     1     164.343 158.033 163.036  1.00  0.00    -0.452 OA
ENDROOT
BRANCH   1  12
ATOM     12  C   UNL     1     163.212 159.635 164.439  1.00  0.00     0.025 A 
ATOM     13  C   UNL     1     163.922 160.014 165.591  1.00  0.00     0.016 A 
ATOM     14  C   UNL     1     163.770 161.296 166.125  1.00  0.00     0.051 A 
ATOM     15  C   UNL     1     162.900 162.214 165.523  1.00  0.00     0.157 A 
ATOM     16  C   UNL     1     162.325 160.551 163.851  1.00  0.00     0.062 A 
ATOM     17  C   UNL     1     162.171 161.837 164.383  1.00  0.00     0.158 A 
BRANCH  15  18
ATOM     18  O   UNL     1     162.753 163.493 166.057  1.00  0.00    -0.504 OA
ATOM     19  H   UNL     1     162.101 164.162 165.663  1.00  0.00     0.293 HD
ENDBRANCH  15  18
BRANCH  17  20
ATOM     20  O   UNL     1     161.291 162.725 163.764  1.00  0.00    -0.504 OA
ATOM     21  H   UNL     1     160.299 162.731 163.970  1.00  0.00     0.293 HD
ENDBRANCH  17  20
ENDBRANCH   1  12
BRANCH   2  22
ATOM     22  O   UNL     1     161.439 157.454 165.147  1.00  0.00    -0.502 OA
ATOM     23  H   UNL     1     161.608 157.403 166.144  1.00  0.00     0.293 HD
ENDBRANCH   2  22
BRANCH   6  24
ATOM     24  O   UNL     1     163.027 153.452 162.012  1.00  0.00    -0.507 OA
ATOM     25  H   UNL     1     163.326 152.489 162.032  1.00  0.00     0.293 HD
ENDBRANCH   6  24
BRANCH   8  26
ATOM     26  O   UNL     1     167.023 155.366 160.163  1.00  0.00    -0.508 OA
ATOM     27  H   UNL     1     167.608 154.539 160.193  1.00  0.00     0.293 HD
ENDBRANCH   8  26
TORSDOF 6
ENDMDL
MODEL 5
REMARK VINA RESULT:    -5.728      1.550      6.748
REMARK INTER + INTRA:          -7.152
REMARK INTER:                  -6.930
REMARK INTRA:                  -0.222
REMARK UNBOUND:                -0.252
REMARK SMILES O=c1c(O)c(-c2ccc(O)c(O)c2)oc2cc(O)cc(O)c12
REMARK SMILES IDX 5 1 3 2 2 3 1 4 22 5 20 6 19 7 17 8 16 9 15 10 14 11 6 12
REMARK SMILES IDX 7 13 8 14 9 15 13 16 11 17 10 18 12 20 4 22 21 24 18 26
REMARK H PARENT 10 19 12 21 4 23 21 25 18 27
REMARK Flexibility Score: inf
ROOT
ATOM      1  C   UNL     1     163.143 157.396 163.528  1.00  0.00     0.180 A 
ATOM      2  C   UNL     1     164.535 157.520 163.380  1.00  0.00     0.208 A 
ATOM      3  C   UNL     1     165.113 158.799 163.416  1.00  0.00     0.238 A 
ATOM      4  O   UNL     1     166.365 158.899 163.337  1.00  0.00    -0.285 OA
ATOM      5  C   UNL     1     164.290 159.939 163.583  1.00  0.00     0.111 A 
ATOM      6  C   UNL     1     164.764 161.285 163.595  1.00  0.00     0.134 A 
ATOM      7  C   UNL     1     163.878 162.327 163.897  1.00  0.00     0.093 A 
ATOM      8  C   UNL     1     162.523 162.075 164.126  1.00  0.00     0.123 A 
ATOM      9  C   UNL     1     162.040 160.771 164.059  1.00  0.00     0.094 A 
ATOM     10  C   UNL     1     162.906 159.707 163.794  1.00  0.00     0.146 A 
ATOM     11  O   UNL     1     162.406 158.478 163.749  1.00  0.00    -0.452 OA
ENDROOT
BRANCH   1  12
ATOM     12  C   UNL     1     162.458 156.084 163.475  1.00  0.00     0.025 A 
ATOM     13  C   UNL     1     162.398 155.336 162.286  1.00  0.00     0.016 A 
ATOM     14  C   UNL     1     161.726 154.112 162.255  1.00  0.00     0.051 A 
ATOM     15  C   UNL     1     161.093 153.622 163.405  1.00  0.00     0.157 A 
ATOM     16  C   UNL     1     161.805 155.599 164.620  1.00  0.00     0.062 A 
ATOM     17  C   UNL     1     161.130 154.373 164.592  1.00  0.00     0.158 A 
BRANCH  15  18
ATOM     18  O   UNL     1     160.425 152.400 163.370  1.00  0.00    -0.504 OA
ATOM     19  H   UNL     1     160.399 151.786 164.176  1.00  0.00     0.293 HD
ENDBRANCH  15  18
BRANCH  17  20
ATOM     20  O   UNL     1     160.506 153.916 165.753  1.00  0.00    -0.504 OA
ATOM     21  H   UNL     1     161.026 153.498 166.514  1.00  0.00     0.293 HD
ENDBRANCH  17  20
ENDBRANCH   1  12
BRANCH   2  22
ATOM     22  O   UNL     1     165.331 156.380 163.237  1.00  0.00    -0.502 OA
ATOM     23  H   UNL     1     166.271 156.322 163.610  1.00  0.00     0.293 HD
ENDBRANCH   2  22
BRANCH   6  24
ATOM     24  O   UNL     1     166.078 161.653 163.289  1.00  0.00    -0.507 OA
ATOM     25  H   UNL     1     166.877 161.466 163.875  1.00  0.00     0.293 HD
ENDBRANCH   6  24
BRANCH   8  26
ATOM     26  O   UNL     1     161.645 163.119 164.412  1.00  0.00    -0.508 OA
ATOM     27  H   UNL     1     161.016 163.081 165.205  1.00  0.00     0.293 HD
ENDBRANCH   8  26
TORSDOF 6
ENDMDL
MODEL 6
REMARK VINA RESULT:    -5.679      2.135      2.394
REMARK INTER + INTRA:          -7.092
REMARK INTER:                  -6.785
REMARK INTRA:                  -0.307
REMARK UNBOUND:                -0.252
REMARK SMILES O=c1c(O)c(-c2ccc(O)c(O)c2)oc2cc(O)cc(O)c12
REMARK SMILES IDX 5 1 3 2 2 3 1 4 22 5 20 6 19 7 17 8 16 9 15 10 14 11 6 12
REMARK SMILES IDX 7 13 8 14 9 15 13 16 11 17 10 18 12 20 4 22 21 24 18 26
REMARK H PARENT 10 19 12 21 4 23 21 25 18 27
REMARK Flexibility Score: inf
ROOT
ATOM      1  C   UNL     1     162.634 156.418 164.675  1.00  0.00     0.180 A 
ATOM      2  C   UNL     1     163.705 155.691 165.225  1.00  0.00     0.208 A 
ATOM      3  C   UNL     1     163.735 154.297 165.063  1.00  0.00     0.238 A 
ATOM      4  O   UNL     1     164.724 153.658 165.510  1.00  0.00    -0.285 OA
ATOM      5  C   UNL     1     162.687 153.645 164.369  1.00  0.00     0.111 A 
ATOM      6  C   UNL     1     162.596 152.233 164.181  1.00  0.00     0.134 A 
ATOM      7  C   UNL     1     161.584 151.709 163.367  1.00  0.00     0.093 A 
ATOM      8  C   UNL     1     160.623 152.541 162.786  1.00  0.00     0.123 A 
ATOM      9  C   UNL     1     160.669 153.914 163.013  1.00  0.00     0.094 A 
ATOM     10  C   UNL     1     161.688 154.470 163.791  1.00  0.00     0.146 A 
ATOM     11  O   UNL     1     161.701 155.785 163.974  1.00  0.00    -0.452 OA
ENDROOT
BRANCH   1  12
ATOM     12  C   UNL     1     162.519 157.887 164.825  1.00  0.00     0.025 A 
ATOM     13  C   UNL     1     162.042 158.466 166.014  1.00  0.00     0.016 A 
ATOM     14  C   UNL     1     161.919 159.853 166.125  1.00  0.00     0.051 A 
ATOM     15  C   UNL     1     162.258 160.681 165.047  1.00  0.00     0.157 A 
ATOM     16  C   UNL     1     162.837 158.719 163.741  1.00  0.00     0.062 A 
ATOM     17  C   UNL     1     162.716 160.110 163.847  1.00  0.00     0.158 A 
BRANCH  15  18
ATOM     18  O   UNL     1     162.136 162.065 165.161  1.00  0.00    -0.504 OA
ATOM     19  H   UNL     1     162.691 162.695 164.595  1.00  0.00     0.293 HD
ENDBRANCH  15  18
BRANCH  17  20
ATOM     20  O   UNL     1     163.055 160.906 162.754  1.00  0.00    -0.504 OA
ATOM     21  H   UNL     1     162.393 161.118 162.017  1.00  0.00     0.293 HD
ENDBRANCH  17  20
ENDBRANCH   1  12
BRANCH   2  22
ATOM     22  O   UNL     1     164.739 156.357 165.887  1.00  0.00    -0.502 OA
ATOM     23  H   UNL     1     164.595 157.224 166.389  1.00  0.00     0.293 HD
ENDBRANCH   2  22
BRANCH   6  24
ATOM     24  O   UNL     1     163.449 151.308 164.790  1.00  0.00    -0.507 OA
ATOM     25  H   UNL     1     163.412 151.047 165.763  1.00  0.00     0.293 HD
ENDBRANCH   6  24
BRANCH   8  26
ATOM     26  O   UNL     1     159.611 152.009 161.990  1.00  0.00    -0.508 OA
ATOM     27  H   UNL     1     159.421 152.370 161.062  1.00  0.00     0.293 HD
ENDBRANCH   8  26
TORSDOF 6
ENDMDL
MODEL 7
REMARK VINA RESULT:    -5.661      1.519      3.329
REMARK INTER + INTRA:          -7.071
REMARK INTER:                  -6.739
REMARK INTRA:                  -0.331
REMARK UNBOUND:                -0.252
REMARK SMILES O=c1c(O)c(-c2ccc(O)c(O)c2)oc2cc(O)cc(O)c12
REMARK SMILES IDX 5 1 3 2 2 3 1 4 22 5 20 6 19 7 17 8 16 9 15 10 14 11 6 12
REMARK SMILES IDX 7 13 8 14 9 15 13 16 11 17 10 18 12 20 4 22 21 24 18 26
REMARK H PARENT 10 19 12 21 4 23 21 25 18 27
REMARK Flexibility Score: inf
ROOT
ATOM      1  C   UNL     1     163.306 156.795 163.891  1.00  0.00     0.180 A 
ATOM      2  C   UNL     1     162.486 155.968 164.679  1.00  0.00     0.208 A 
ATOM      3  C   UNL     1     162.437 154.593 164.400  1.00  0.00     0.238 A 
ATOM      4  O   UNL     1     161.744 153.850 165.143  1.00  0.00    -0.285 OA
ATOM      5  C   UNL     1     163.195 154.064 163.327  1.00  0.00     0.111 A 
ATOM      6  C   UNL     1     163.191 152.694 162.931  1.00  0.00     0.134 A 
ATOM      7  C   UNL     1     164.079 152.258 161.939  1.00  0.00     0.093 A 
ATOM      8  C   UNL     1     164.926 153.157 161.286  1.00  0.00     0.123 A 
ATOM      9  C   UNL     1     164.895 154.508 161.625  1.00  0.00     0.094 A 
ATOM     10  C   UNL     1     164.045 154.966 162.635  1.00  0.00     0.146 A 
ATOM     11  O   UNL     1     164.055 156.259 162.935  1.00  0.00    -0.452 OA
ENDROOT
BRANCH   1  12
ATOM     12  C   UNL     1     163.391 158.258 164.107  1.00  0.00     0.025 A 
ATOM     13  C   UNL     1     162.473 159.140 163.510  1.00  0.00     0.016 A 
ATOM     14  C   UNL     1     162.587 160.518 163.709  1.00  0.00     0.051 A 
ATOM     15  C   UNL     1     163.625 161.036 164.495  1.00  0.00     0.157 A 
ATOM     16  C   UNL     1     164.441 158.783 164.877  1.00  0.00     0.062 A 
ATOM     17  C   UNL     1     164.558 160.163 165.078  1.00  0.00     0.158 A 
BRANCH  15  18
ATOM     18  O   UNL     1     163.734 162.412 164.693  1.00  0.00    -0.504 OA
ATOM     19  H   UNL     1     162.920 162.990 164.866  1.00  0.00     0.293 HD
ENDBRANCH  15  18
BRANCH  17  20
ATOM     20  O   UNL     1     165.606 160.647 165.861  1.00  0.00    -0.504 OA
ATOM     21  H   UNL     1     165.443 161.162 166.719  1.00  0.00     0.293 HD
ENDBRANCH  17  20
ENDBRANCH   1  12
BRANCH   2  22
ATOM     22  O   UNL     1     161.763 156.508 165.746  1.00  0.00    -0.502 OA
ATOM     23  H   UNL     1     160.775 156.723 165.681  1.00  0.00     0.293 HD
ENDBRANCH   2  22
BRANCH   6  24
ATOM     24  O   UNL     1     162.321 151.732 163.455  1.00  0.00    -0.507 OA
ATOM     25  H   UNL     1     162.610 150.920 163.978  1.00  0.00     0.293 HD
ENDBRANCH   6  24
BRANCH   8  26
ATOM     26  O   UNL     1     165.795 152.719 160.290  1.00  0.00    -0.508 OA
ATOM     27  H   UNL     1     165.486 152.599 159.332  1.00  0.00     0.293 HD
ENDBRANCH   8  26
TORSDOF 6
ENDMDL
MODEL 8
REMARK VINA RESULT:    -5.552      1.484      1.764
REMARK INTER + INTRA:          -6.939
REMARK INTER:                  -6.701
REMARK INTRA:                  -0.239
REMARK UNBOUND:                -0.252
REMARK SMILES O=c1c(O)c(-c2ccc(O)c(O)c2)oc2cc(O)cc(O)c12
REMARK SMILES IDX 5 1 3 2 2 3 1 4 22 5 20 6 19 7 17 8 16 9 15 10 14 11 6 12
REMARK SMILES IDX 7 13 8 14 9 15 13 16 11 17 10 18 12 20 4 22 21 24 18 26
REMARK H PARENT 10 19 12 21 4 23 21 25 18 27
REMARK Flexibility Score: inf
ROOT
ATOM      1  C   UNL     1     164.389 156.235 163.326  1.00  0.00     0.180 A 
ATOM      2  C   UNL     1     164.924 155.431 162.305  1.00  0.00     0.208 A 
ATOM      3  C   UNL     1     164.358 154.169 162.065  1.00  0.00     0.238 A 
ATOM      4  O   UNL     1     164.806 153.476 161.113  1.00  0.00    -0.285 OA
ATOM      5  C   UNL     1     163.276 153.719 162.860  1.00  0.00     0.111 A 
ATOM      6  C   UNL     1     162.652 152.442 162.730  1.00  0.00     0.134 A 
ATOM      7  C   UNL     1     161.505 152.154 163.482  1.00  0.00     0.093 A 
ATOM      8  C   UNL     1     160.999 153.073 164.404  1.00  0.00     0.123 A 
ATOM      9  C   UNL     1     161.637 154.299 164.580  1.00  0.00     0.094 A 
ATOM     10  C   UNL     1     162.761 154.629 163.819  1.00  0.00     0.146 A 
ATOM     11  O   UNL     1     163.332 155.812 164.010  1.00  0.00    -0.452 OA
ENDROOT
BRANCH   1  12
ATOM     12  C   UNL     1     164.947 157.566 163.656  1.00  0.00     0.025 A 
ATOM     13  C   UNL     1     166.210 157.702 164.257  1.00  0.00     0.016 A 
ATOM     14  C   UNL     1     166.706 158.967 164.581  1.00  0.00     0.051 A 
ATOM     15  C   UNL     1     165.944 160.114 164.322  1.00  0.00     0.157 A 
ATOM     16  C   UNL     1     164.178 158.716 163.417  1.00  0.00     0.062 A 
ATOM     17  C   UNL     1     164.671 159.986 163.740  1.00  0.00     0.158 A 
BRANCH  15  18
ATOM     18  O   UNL     1     166.443 161.375 164.644  1.00  0.00    -0.504 OA
ATOM     19  H   UNL     1     166.482 161.701 165.603  1.00  0.00     0.293 HD
ENDBRANCH  15  18
BRANCH  17  20
ATOM     20  O   UNL     1     163.885 161.107 163.475  1.00  0.00    -0.504 OA
ATOM     21  H   UNL     1     163.019 161.285 163.969  1.00  0.00     0.293 HD
ENDBRANCH  17  20
ENDBRANCH   1  12
BRANCH   2  22
ATOM     22  O   UNL     1     165.978 155.903 161.518  1.00  0.00    -0.502 OA
ATOM     23  H   UNL     1     166.477 156.757 161.734  1.00  0.00     0.293 HD
ENDBRANCH   2  22
BRANCH   6  24
ATOM     24  O   UNL     1     163.131 151.419 161.907  1.00  0.00    -0.507 OA
ATOM     25  H   UNL     1     163.960 151.482 161.335  1.00  0.00     0.293 HD
ENDBRANCH   6  24
BRANCH   8  26
ATOM     26  O   UNL     1     159.868 152.772 165.159  1.00  0.00    -0.508 OA
ATOM     27  H   UNL     1     159.412 151.870 165.094  1.00  0.00     0.293 HD
ENDBRANCH   8  26
TORSDOF 6
ENDMDL
MODEL 9
REMARK VINA RESULT:    -5.521      2.309      7.008
REMARK INTER + INTRA:          -6.903
REMARK INTER:                  -6.601
REMARK INTRA:                  -0.302
REMARK UNBOUND:                -0.252
REMARK SMILES O=c1c(O)c(-c2ccc(O)c(O)c2)oc2cc(O)cc(O)c12
REMARK SMILES IDX 5 1 3 2 2 3 1 4 22 5 20 6 19 7 17 8 16 9 15 10 14 11 6 12
REMARK SMILES IDX 7 13 8 14 9 15 13 16 11 17 10 18 12 20 4 22 21 24 18 26
REMARK H PARENT 10 19 12 21 4 23 21 25 18 27
REMARK Flexibility Score: inf
ROOT
ATOM      1  C   UNL     1     163.417 155.450 163.214  1.00  0.00     0.180 A 
ATOM      2  C   UNL     1     163.080 156.686 163.791  1.00  0.00     0.208 A 
ATOM      3  C   UNL     1     163.877 157.808 163.511  1.00  0.00     0.238 A 
ATOM      4  O   UNL     1     163.539 158.924 163.987  1.00  0.00    -0.285 OA
ATOM      5  C   UNL     1     165.009 157.676 162.671  1.00  0.00     0.111 A 
ATOM      6  C   UNL     1     165.909 158.737 162.351  1.00  0.00     0.134 A 
ATOM      7  C   UNL     1     166.920 158.524 161.406  1.00  0.00     0.093 A 
ATOM      8  C   UNL     1     167.103 157.270 160.817  1.00  0.00     0.123 A 
ATOM      9  C   UNL     1     166.266 156.212 161.168  1.00  0.00     0.094 A 
ATOM     10  C   UNL     1     165.226 156.404 162.080  1.00  0.00     0.146 A 
ATOM     11  O   UNL     1     164.446 155.372 162.378  1.00  0.00    -0.452 OA
ENDROOT
BRANCH   1  12
ATOM     12  C   UNL     1     162.641 154.217 163.482  1.00  0.00     0.025 A 
ATOM     13  C   UNL     1     163.077 153.268 164.423  1.00  0.00     0.016 A 
ATOM     14  C   UNL     1     162.341 152.101 164.642  1.00  0.00     0.051 A 
ATOM     15  C   UNL     1     161.167 151.858 163.917  1.00  0.00     0.157 A 
ATOM     16  C   UNL     1     161.475 153.960 162.743  1.00  0.00     0.062 A 
ATOM     17  C   UNL     1     160.735 152.792 162.960  1.00  0.00     0.158 A 
BRANCH  15  18
ATOM     18  O   UNL     1     160.434 150.694 164.140  1.00  0.00    -0.504 OA
ATOM     19  H   UNL     1     160.250 150.353 165.076  1.00  0.00     0.293 HD
ENDBRANCH  15  18
BRANCH  17  20
ATOM     20  O   UNL     1     159.574 152.577 162.217  1.00  0.00    -0.504 OA
ATOM     21  H   UNL     1     158.701 152.301 162.651  1.00  0.00     0.293 HD
ENDBRANCH  17  20
ENDBRANCH   1  12
BRANCH   2  22
ATOM     22  O   UNL     1     161.946 156.799 164.601  1.00  0.00    -0.502 OA
ATOM     23  H   UNL     1     161.187 156.130 164.569  1.00  0.00     0.293 HD
ENDBRANCH   2  22
BRANCH   6  24
ATOM     24  O   UNL     1     165.871 159.999 162.951  1.00  0.00    -0.507 OA
ATOM     25  H   UNL     1     166.672 160.479 163.330  1.00  0.00     0.293 HD
ENDBRANCH   6  24
BRANCH   8  26
ATOM     26  O   UNL     1     168.121 157.062 159.890  1.00  0.00    -0.508 OA
ATOM     27  H   UNL     1     168.258 156.162 159.444  1.00  0.00     0.293 HD
ENDBRANCH   8  26
TORSDOF 6
ENDMDL
