MODEL 1
REMARK VINA RESULT:    -4.961      0.000      0.000
REMARK INTER + INTRA:         -11.488
REMARK INTER:                  -9.311
REMARK INTRA:                  -2.177
REMARK UNBOUND:                -2.177
REMARK SMILES CCCCCCCCC=CCCCCCCCC(=O)[O-]
REMARK SMILES IDX 10 1 9 2 11 3 12 4 13 5 14 6 15 7 16 8 17 9 18 10 19 11
REMARK SMILES IDX 20 12 8 13 7 14 6 15 5 16 4 17 3 18 2 19 1 20
REMARK H PARENT
REMARK Flexibility Score: inf
ROOT
ATOM      1  C   UNL     1     -24.563 -31.934 -10.816  1.00  0.00    -0.031 C 
ATOM      2  C   UNL     1     -24.284 -32.049 -12.123  1.00  0.00    -0.031 C 
ENDROOT
BRANCH   1   3
ATOM      3  C   UNL     1     -25.839 -31.300 -10.336  1.00  0.00     0.027 C 
BRANCH   3   4
ATOM      4  C   UNL     1     -26.443 -30.387 -11.414  1.00  0.00     0.004 C 
BRANCH   4   5
ATOM      5  C   UNL     1     -27.951 -30.612 -11.603  1.00  0.00     0.000 C 
BRANCH   5   6
ATOM      6  C   UNL     1     -28.281 -31.333 -12.919  1.00  0.00     0.000 C 
BRANCH   6   7
ATOM      7  C   UNL     1     -28.330 -32.854 -12.714  1.00  0.00     0.000 C 
BRANCH   7   8
ATOM      8  C   UNL     1     -27.458 -33.621 -13.726  1.00  0.00     0.006 C 
BRANCH   8   9
ATOM      9  C   UNL     1     -27.210 -35.094 -13.361  1.00  0.00     0.053 C 
BRANCH   9  10
ATOM     10  C   UNL     1     -25.974 -35.268 -12.534  1.00  0.00     0.041 C 
ATOM     11  O   UNL     1     -24.907 -35.669 -13.068  1.00  0.00    -0.550 OA
ATOM     12  O   UNL     1     -26.010 -35.019 -11.168  1.00  0.00    -0.550 OA
ENDBRANCH   9  10
ENDBRANCH   8   9
ENDBRANCH   7   8
ENDBRANCH   6   7
ENDBRANCH   5   6
ENDBRANCH   4   5
ENDBRANCH   3   4
ENDBRANCH   1   3
BRANCH   2  13
ATOM     13  C   UNL     1     -23.013 -32.694 -12.606  1.00  0.00     0.027 C 
BRANCH  13  14
ATOM     14  C   UNL     1     -21.838 -32.484 -11.635  1.00  0.00     0.004 C 
BRANCH  14  15
ATOM     15  C   UNL     1     -20.801 -33.624 -11.643  1.00  0.00     0.000 C 
BRANCH  15  16
ATOM     16  C   UNL     1     -21.232 -34.884 -12.419  1.00  0.00     0.000 C 
BRANCH  16  17
ATOM     17  C   UNL     1     -20.308 -35.227 -13.608  1.00  0.00    -0.000 C 
BRANCH  17  18
ATOM     18  C   UNL     1     -19.651 -33.975 -14.215  1.00  0.00    -0.000 C 
BRANCH  18  19
ATOM     19  C   UNL     1     -20.556 -33.271 -15.238  1.00  0.00    -0.003 C 
ATOM     20  C   UNL     1     -20.441 -31.748 -15.182  1.00  0.00     0.004 C 
ENDBRANCH  18  19
ENDBRANCH  17  18
ENDBRANCH  16  17
ENDBRANCH  15  16
ENDBRANCH  14  15
ENDBRANCH  13  14
ENDBRANCH   2  13
TORSDOF 15
ENDMDL
MODEL 2
REMARK VINA RESULT:    -4.873      0.645      1.798
REMARK INTER + INTRA:         -11.324
REMARK INTER:                  -9.248
REMARK INTRA:                  -2.075
REMARK UNBOUND:                -2.177
REMARK SMILES CCCCCCCCC=CCCCCCCCC(=O)[O-]
REMARK SMILES IDX 10 1 9 2 11 3 12 4 13 5 14 6 15 7 16 8 17 9 18 10 19 11
REMARK SMILES IDX 20 12 8 13 7 14 6 15 5 16 4 17 3 18 2 19 1 20
REMARK H PARENT
REMARK Flexibility Score: inf
ROOT
ATOM      1  C   UNL     1     -24.884 -31.818 -10.787  1.00  0.00    -0.031 C 
ATOM      2  C   UNL     1     -24.325 -31.820 -12.006  1.00  0.00    -0.031 C 
ENDROOT
BRANCH   1   3
ATOM      3  C   UNL     1     -26.111 -31.002 -10.487  1.00  0.00     0.027 C 
BRANCH   3   4
ATOM      4  C   UNL     1     -26.697 -30.390 -11.769  1.00  0.00     0.004 C 
BRANCH   4   5
ATOM      5  C   UNL     1     -28.217 -30.587 -11.877  1.00  0.00     0.000 C 
BRANCH   5   6
ATOM      6  C   UNL     1     -28.614 -31.490 -13.055  1.00  0.00     0.000 C 
BRANCH   6   7
ATOM      7  C   UNL     1     -28.339 -32.966 -12.731  1.00  0.00     0.000 C 
BRANCH   7   8
ATOM      8  C   UNL     1     -27.232 -33.575 -13.612  1.00  0.00     0.006 C 
BRANCH   8   9
ATOM      9  C   UNL     1     -27.033 -35.088 -13.426  1.00  0.00     0.053 C 
BRANCH   9  10
ATOM     10  C   UNL     1     -25.832 -35.398 -12.586  1.00  0.00     0.041 C 
ATOM     11  O   UNL     1     -25.766 -34.986 -11.399  1.00  0.00    -0.550 OA
ATOM     12  O   UNL     1     -24.771 -36.113 -13.128  1.00  0.00    -0.550 OA
ENDBRANCH   9  10
ENDBRANCH   8   9
ENDBRANCH   7   8
ENDBRANCH   6   7
ENDBRANCH   5   6
ENDBRANCH   4   5
ENDBRANCH   3   4
ENDBRANCH   1   3
BRANCH   2  13
ATOM     13  C   UNL     1     -23.104 -32.646 -12.313  1.00  0.00     0.027 C 
BRANCH  13  14
ATOM     14  C   UNL     1     -21.811 -32.014 -11.767  1.00  0.00     0.004 C 
BRANCH  14  15
ATOM     15  C   UNL     1     -20.660 -31.949 -12.790  1.00  0.00     0.000 C 
BRANCH  15  16
ATOM     16  C   UNL     1     -21.076 -32.226 -14.248  1.00  0.00     0.000 C 
BRANCH  16  17
ATOM     17  C   UNL     1     -20.446 -33.505 -14.840  1.00  0.00    -0.000 C 
BRANCH  17  18
ATOM     18  C   UNL     1     -19.528 -34.221 -13.834  1.00  0.00    -0.000 C 
BRANCH  18  19
ATOM     19  C   UNL     1     -20.069 -35.596 -13.416  1.00  0.00    -0.003 C 
ATOM     20  C   UNL     1     -20.759 -35.572 -12.052  1.00  0.00     0.004 C 
ENDBRANCH  18  19
ENDBRANCH  17  18
ENDBRANCH  16  17
ENDBRANCH  15  16
ENDBRANCH  14  15
ENDBRANCH  13  14
ENDBRANCH   2  13
TORSDOF 15
ENDMDL
MODEL 3
REMARK VINA RESULT:    -4.775      1.676      6.535
REMARK INTER + INTRA:         -11.139
REMARK INTER:                  -9.088
REMARK INTRA:                  -2.052
REMARK UNBOUND:                -2.177
REMARK SMILES CCCCCCCCC=CCCCCCCCC(=O)[O-]
REMARK SMILES IDX 10 1 9 2 11 3 12 4 13 5 14 6 15 7 16 8 17 9 18 10 19 11
REMARK SMILES IDX 20 12 8 13 7 14 6 15 5 16 4 17 3 18 2 19 1 20
REMARK H PARENT
REMARK Flexibility Score: inf
ROOT
ATOM      1  C   UNL     1     -24.218 -33.051 -11.698  1.00  0.00    -0.031 C 
ATOM      2  C   UNL     1     -24.908 -34.157 -12.015  1.00  0.00    -0.031 C 
ENDROOT
BRANCH   1   3
ATOM      3  C   UNL     1     -23.179 -32.479 -12.624  1.00  0.00     0.027 C 
BRANCH   3   4
ATOM      4  C   UNL     1     -21.888 -32.138 -11.863  1.00  0.00     0.004 C 
BRANCH   4   5
ATOM      5  C   UNL     1     -20.666 -32.035 -12.789  1.00  0.00     0.000 C 
BRANCH   5   6
ATOM      6  C   UNL     1     -21.029 -32.223 -14.270  1.00  0.00     0.000 C 
BRANCH   6   7
ATOM      7  C   UNL     1     -20.570 -33.598 -14.777  1.00  0.00     0.000 C 
BRANCH   7   8
ATOM      8  C   UNL     1     -19.448 -34.208 -13.916  1.00  0.00     0.006 C 
BRANCH   8   9
ATOM      9  C   UNL     1     -19.744 -35.625 -13.399  1.00  0.00     0.053 C 
BRANCH   9  10
ATOM     10  C   UNL     1     -20.610 -35.607 -12.178  1.00  0.00     0.041 C 
ATOM     11  O   UNL     1     -21.848 -35.810 -12.276  1.00  0.00    -0.550 OA
ATOM     12  O   UNL     1     -20.054 -35.333 -10.934  1.00  0.00    -0.550 OA
ENDBRANCH   9  10
ENDBRANCH   8   9
ENDBRANCH   7   8
ENDBRANCH   6   7
ENDBRANCH   5   6
ENDBRANCH   4   5
ENDBRANCH   3   4
ENDBRANCH   1   3
BRANCH   2  13
ATOM     13  C   UNL     1     -25.957 -34.724 -11.096  1.00  0.00     0.027 C 
BRANCH  13  14
ATOM     14  C   UNL     1     -27.370 -34.659 -11.702  1.00  0.00     0.004 C 
BRANCH  14  15
ATOM     15  C   UNL     1     -27.397 -34.649 -13.242  1.00  0.00     0.000 C 
BRANCH  15  16
ATOM     16  C   UNL     1     -27.898 -33.334 -13.871  1.00  0.00     0.000 C 
BRANCH  16  17
ATOM     17  C   UNL     1     -28.535 -32.363 -12.854  1.00  0.00    -0.000 C 
BRANCH  17  18
ATOM     18  C   UNL     1     -27.859 -30.980 -12.868  1.00  0.00    -0.000 C 
BRANCH  18  19
ATOM     19  C   UNL     1     -27.800 -30.339 -11.473  1.00  0.00    -0.003 C 
ATOM     20  C   UNL     1     -26.720 -30.953 -10.583  1.00  0.00     0.004 C 
ENDBRANCH  18  19
ENDBRANCH  17  18
ENDBRANCH  16  17
ENDBRANCH  15  16
ENDBRANCH  14  15
ENDBRANCH  13  14
ENDBRANCH   2  13
TORSDOF 15
ENDMDL
MODEL 4
REMARK VINA RESULT:    -4.773      2.527      6.659
REMARK INTER + INTRA:         -11.135
REMARK INTER:                  -8.899
REMARK INTRA:                  -2.236
REMARK UNBOUND:                -2.177
REMARK SMILES CCCCCCCCC=CCCCCCCCC(=O)[O-]
REMARK SMILES IDX 10 1 9 2 11 3 12 4 13 5 14 6 15 7 16 8 17 9 18 10 19 11
REMARK SMILES IDX 20 12 8 13 7 14 6 15 5 16 4 17 3 18 2 19 1 20
REMARK H PARENT
REMARK Flexibility Score: inf
ROOT
ATOM      1  C   UNL     1     -26.516 -34.640 -11.658  1.00  0.00    -0.031 C 
ATOM      2  C   UNL     1     -26.834 -34.056 -12.824  1.00  0.00    -0.031 C 
ENDROOT
BRANCH   1   3
ATOM      3  C   UNL     1     -25.176 -35.288 -11.443  1.00  0.00     0.027 C 
BRANCH   3   4
ATOM      4  C   UNL     1     -24.333 -35.257 -12.727  1.00  0.00     0.004 C 
BRANCH   4   5
ATOM      5  C   UNL     1     -22.863 -35.627 -12.478  1.00  0.00     0.000 C 
BRANCH   5   6
ATOM      6  C   UNL     1     -21.893 -34.514 -12.904  1.00  0.00     0.000 C 
BRANCH   6   7
ATOM      7  C   UNL     1     -20.759 -35.077 -13.773  1.00  0.00     0.000 C 
BRANCH   7   8
ATOM      8  C   UNL     1     -19.404 -35.106 -13.043  1.00  0.00     0.006 C 
BRANCH   8   9
ATOM      9  C   UNL     1     -19.234 -36.281 -12.067  1.00  0.00     0.053 C 
BRANCH   9  10
ATOM     10  C   UNL     1     -19.154 -35.823 -10.643  1.00  0.00     0.041 C 
ATOM     11  O   UNL     1     -19.026 -36.661  -9.714  1.00  0.00    -0.550 OA
ATOM     12  O   UNL     1     -19.256 -34.470 -10.341  1.00  0.00    -0.550 OA
ENDBRANCH   9  10
ENDBRANCH   8   9
ENDBRANCH   7   8
ENDBRANCH   6   7
ENDBRANCH   5   6
ENDBRANCH   4   5
ENDBRANCH   3   4
ENDBRANCH   1   3
BRANCH   2  13
ATOM     13  C   UNL     1     -28.170 -33.396 -13.037  1.00  0.00     0.027 C 
BRANCH  13  14
ATOM     14  C   UNL     1     -28.084 -31.860 -12.993  1.00  0.00     0.004 C 
BRANCH  14  15
ATOM     15  C   UNL     1     -28.086 -31.269 -11.570  1.00  0.00     0.000 C 
BRANCH  15  16
ATOM     16  C   UNL     1     -27.436 -29.877 -11.447  1.00  0.00     0.000 C 
BRANCH  16  17
ATOM     17  C   UNL     1     -25.974 -29.916 -10.952  1.00  0.00    -0.000 C 
BRANCH  17  18
ATOM     18  C   UNL     1     -25.596 -31.286 -10.361  1.00  0.00    -0.000 C 
BRANCH  18  19
ATOM     19  C   UNL     1     -24.209 -31.764 -10.817  1.00  0.00    -0.003 C 
ATOM     20  C   UNL     1     -23.989 -31.593 -12.320  1.00  0.00     0.004 C 
ENDBRANCH  18  19
ENDBRANCH  17  18
ENDBRANCH  16  17
ENDBRANCH  15  16
ENDBRANCH  14  15
ENDBRANCH  13  14
ENDBRANCH   2  13
TORSDOF 15
ENDMDL
MODEL 5
REMARK VINA RESULT:    -4.638      1.172      2.245
REMARK INTER + INTRA:         -10.882
REMARK INTER:                  -8.980
REMARK INTRA:                  -1.902
REMARK UNBOUND:                -2.177
REMARK SMILES CCCCCCCCC=CCCCCCCCC(=O)[O-]
REMARK SMILES IDX 10 1 9 2 11 3 12 4 13 5 14 6 15 7 16 8 17 9 18 10 19 11
REMARK SMILES IDX 20 12 8 13 7 14 6 15 5 16 4 17 3 18 2 19 1 20
REMARK H PARENT
REMARK Flexibility Score: inf
ROOT
ATOM      1  C   UNL     1     -23.628 -31.759 -12.057  1.00  0.00    -0.031 C 
ATOM      2  C   UNL     1     -23.517 -30.481 -12.450  1.00  0.00    -0.031 C 
ENDROOT
BRANCH   1   3
ATOM      3  C   UNL     1     -24.714 -32.201 -11.116  1.00  0.00     0.027 C 
BRANCH   3   4
ATOM      4  C   UNL     1     -25.544 -31.004 -10.628  1.00  0.00     0.004 C 
BRANCH   4   5
ATOM      5  C   UNL     1     -27.021 -31.101 -11.041  1.00  0.00     0.000 C 
BRANCH   5   6
ATOM      6  C   UNL     1     -27.242 -30.777 -12.526  1.00  0.00     0.000 C 
BRANCH   6   7
ATOM      7  C   UNL     1     -28.530 -31.433 -13.045  1.00  0.00     0.000 C 
BRANCH   7   8
ATOM      8  C   UNL     1     -28.526 -32.964 -12.887  1.00  0.00     0.006 C 
BRANCH   8   9
ATOM      9  C   UNL     1     -27.380 -33.675 -13.625  1.00  0.00     0.053 C 
BRANCH   9  10
ATOM     10  C   UNL     1     -26.747 -34.742 -12.785  1.00  0.00     0.041 C 
ATOM     11  O   UNL     1     -26.012 -35.613 -13.317  1.00  0.00    -0.550 OA
ATOM     12  O   UNL     1     -26.998 -34.792 -11.419  1.00  0.00    -0.550 OA
ENDBRANCH   9  10
ENDBRANCH   8   9
ENDBRANCH   7   8
ENDBRANCH   6   7
ENDBRANCH   5   6
ENDBRANCH   4   5
ENDBRANCH   3   4
ENDBRANCH   1   3
BRANCH   2  13
ATOM     13  C   UNL     1     -22.438 -30.039 -13.402  1.00  0.00     0.027 C 
BRANCH  13  14
ATOM     14  C   UNL     1     -21.179 -30.921 -13.320  1.00  0.00     0.004 C 
BRANCH  14  15
ATOM     15  C   UNL     1     -20.740 -31.520 -14.671  1.00  0.00     0.000 C 
BRANCH  15  16
ATOM     16  C   UNL     1     -19.897 -32.806 -14.564  1.00  0.00     0.000 C 
BRANCH  16  17
ATOM     17  C   UNL     1     -20.740 -34.098 -14.511  1.00  0.00    -0.000 C 
BRANCH  17  18
ATOM     18  C   UNL     1     -20.142 -35.145 -13.556  1.00  0.00    -0.000 C 
BRANCH  18  19
ATOM     19  C   UNL     1     -21.079 -35.481 -12.386  1.00  0.00    -0.003 C 
ATOM     20  C   UNL     1     -22.542 -35.156 -12.687  1.00  0.00     0.004 C 
ENDBRANCH  18  19
ENDBRANCH  17  18
ENDBRANCH  16  17
ENDBRANCH  15  16
ENDBRANCH  14  15
ENDBRANCH  13  14
ENDBRANCH   2  13
TORSDOF 15
ENDMDL
MODEL 6
REMARK VINA RESULT:    -4.637      2.286      6.392
REMARK INTER + INTRA:         -10.881
REMARK INTER:                  -8.892
REMARK INTRA:                  -1.989
REMARK UNBOUND:                -2.177
REMARK SMILES CCCCCCCCC=CCCCCCCCC(=O)[O-]
REMARK SMILES IDX 10 1 9 2 11 3 12 4 13 5 14 6 15 7 16 8 17 9 18 10 19 11
REMARK SMILES IDX 20 12 8 13 7 14 6 15 5 16 4 17 3 18 2 19 1 20
REMARK H PARENT
REMARK Flexibility Score: inf
ROOT
ATOM      1  C   UNL     1     -24.630 -31.284 -11.804  1.00  0.00    -0.031 C 
ATOM      2  C   UNL     1     -25.453 -31.299 -10.745  1.00  0.00    -0.031 C 
ENDROOT
BRANCH   1   3
ATOM      3  C   UNL     1     -23.138 -31.208 -11.640  1.00  0.00     0.027 C 
BRANCH   3   4
ATOM      4  C   UNL     1     -22.488 -32.587 -11.839  1.00  0.00     0.004 C 
BRANCH   4   5
ATOM      5  C   UNL     1     -21.606 -32.649 -13.096  1.00  0.00     0.000 C 
BRANCH   5   6
ATOM      6  C   UNL     1     -21.525 -34.062 -13.692  1.00  0.00     0.000 C 
BRANCH   6   7
ATOM      7  C   UNL     1     -20.112 -34.355 -14.219  1.00  0.00     0.000 C 
BRANCH   7   8
ATOM      8  C   UNL     1     -19.250 -35.139 -13.211  1.00  0.00     0.006 C 
BRANCH   8   9
ATOM      9  C   UNL     1     -20.054 -35.878 -12.129  1.00  0.00     0.053 C 
BRANCH   9  10
ATOM     10  C   UNL     1     -19.742 -35.373 -10.754  1.00  0.00     0.041 C 
ATOM     11  O   UNL     1     -19.738 -36.163  -9.775  1.00  0.00    -0.550 OA
ATOM     12  O   UNL     1     -19.489 -34.021 -10.550  1.00  0.00    -0.550 OA
ENDBRANCH   9  10
ENDBRANCH   8   9
ENDBRANCH   7   8
ENDBRANCH   6   7
ENDBRANCH   5   6
ENDBRANCH   4   5
ENDBRANCH   3   4
ENDBRANCH   1   3
BRANCH   2  13
ATOM     13  C   UNL     1     -26.947 -31.387 -10.906  1.00  0.00     0.027 C 
BRANCH  13  14
ATOM     14  C   UNL     1     -27.423 -30.887 -12.282  1.00  0.00     0.004 C 
BRANCH  14  15
ATOM     15  C   UNL     1     -28.419 -31.829 -12.985  1.00  0.00     0.000 C 
BRANCH  15  16
ATOM     16  C   UNL     1     -28.256 -33.320 -12.635  1.00  0.00     0.000 C 
BRANCH  16  17
ATOM     17  C   UNL     1     -27.911 -34.209 -13.849  1.00  0.00    -0.000 C 
BRANCH  17  18
ATOM     18  C   UNL     1     -26.780 -35.205 -13.539  1.00  0.00    -0.000 C 
BRANCH  18  19
ATOM     19  C   UNL     1     -26.009 -34.844 -12.261  1.00  0.00    -0.003 C 
ATOM     20  C   UNL     1     -24.644 -35.527 -12.179  1.00  0.00     0.004 C 
ENDBRANCH  18  19
ENDBRANCH  17  18
ENDBRANCH  16  17
ENDBRANCH  15  16
ENDBRANCH  14  15
ENDBRANCH  13  14
ENDBRANCH   2  13
TORSDOF 15
ENDMDL
MODEL 7
REMARK VINA RESULT:    -4.587      2.300      6.839
REMARK INTER + INTRA:         -10.787
REMARK INTER:                  -8.767
REMARK INTRA:                  -2.020
REMARK UNBOUND:                -2.177
REMARK SMILES CCCCCCCCC=CCCCCCCCC(=O)[O-]
REMARK SMILES IDX 10 1 9 2 11 3 12 4 13 5 14 6 15 7 16 8 17 9 18 10 19 11
REMARK SMILES IDX 20 12 8 13 7 14 6 15 5 16 4 17 3 18 2 19 1 20
REMARK H PARENT
REMARK Flexibility Score: inf
ROOT
ATOM      1  C   UNL     1     -24.679 -33.477 -12.254  1.00  0.00    -0.031 C 
ATOM      2  C   UNL     1     -24.921 -32.659 -11.219  1.00  0.00    -0.031 C 
ENDROOT
BRANCH   1   3
ATOM      3  C   UNL     1     -24.713 -34.973 -12.100  1.00  0.00     0.027 C 
BRANCH   3   4
ATOM      4  C   UNL     1     -23.400 -35.609 -12.583  1.00  0.00     0.004 C 
BRANCH   4   5
ATOM      5  C   UNL     1     -22.245 -34.598 -12.653  1.00  0.00     0.000 C 
BRANCH   5   6
ATOM      6  C   UNL     1     -21.050 -35.122 -13.464  1.00  0.00     0.000 C 
BRANCH   6   7
ATOM      7  C   UNL     1     -19.815 -34.230 -13.260  1.00  0.00     0.000 C 
BRANCH   7   8
ATOM      8  C   UNL     1     -19.402 -33.480 -14.540  1.00  0.00     0.006 C 
BRANCH   8   9
ATOM      9  C   UNL     1     -20.427 -32.442 -15.025  1.00  0.00     0.053 C 
BRANCH   9  10
ATOM     10  C   UNL     1     -20.676 -31.378 -14.001  1.00  0.00     0.041 C 
ATOM     11  O   UNL     1     -21.834 -31.202 -13.540  1.00  0.00    -0.550 OA
ATOM     12  O   UNL     1     -19.636 -30.557 -13.582  1.00  0.00    -0.550 OA
ENDBRANCH   9  10
ENDBRANCH   8   9
ENDBRANCH   7   8
ENDBRANCH   6   7
ENDBRANCH   5   6
ENDBRANCH   4   5
ENDBRANCH   3   4
ENDBRANCH   1   3
BRANCH   2  13
ATOM     13  C   UNL     1     -24.900 -31.162 -11.373  1.00  0.00     0.027 C 
BRANCH  13  14
ATOM     14  C   UNL     1     -26.115 -30.483 -10.716  1.00  0.00     0.004 C 
BRANCH  14  15
ATOM     15  C   UNL     1     -27.473 -31.072 -11.141  1.00  0.00     0.000 C 
BRANCH  15  16
ATOM     16  C   UNL     1     -27.782 -30.962 -12.647  1.00  0.00     0.000 C 
BRANCH  16  17
ATOM     17  C   UNL     1     -28.492 -32.205 -13.227  1.00  0.00    -0.000 C 
BRANCH  17  18
ATOM     18  C   UNL     1     -28.322 -33.444 -12.329  1.00  0.00    -0.000 C 
BRANCH  18  19
ATOM     19  C   UNL     1     -28.222 -34.747 -13.135  1.00  0.00    -0.003 C 
ATOM     20  C   UNL     1     -27.553 -34.552 -14.496  1.00  0.00     0.004 C 
ENDBRANCH  18  19
ENDBRANCH  17  18
ENDBRANCH  16  17
ENDBRANCH  15  16
ENDBRANCH  14  15
ENDBRANCH  13  14
ENDBRANCH   2  13
TORSDOF 15
ENDMDL
MODEL 8
REMARK VINA RESULT:    -4.558      1.889      3.763
REMARK INTER + INTRA:         -10.731
REMARK INTER:                  -8.731
REMARK INTRA:                  -2.001
REMARK UNBOUND:                -2.177
REMARK SMILES CCCCCCCCC=CCCCCCCCC(=O)[O-]
REMARK SMILES IDX 10 1 9 2 11 3 12 4 13 5 14 6 15 7 16 8 17 9 18 10 19 11
REMARK SMILES IDX 20 12 8 13 7 14 6 15 5 16 4 17 3 18 2 19 1 20
REMARK H PARENT
REMARK Flexibility Score: inf
ROOT
ATOM      1  C   UNL     1     -23.485 -34.933 -12.516  1.00  0.00    -0.031 C 
ATOM      2  C   UNL     1     -22.200 -34.549 -12.482  1.00  0.00    -0.031 C 
ENDROOT
BRANCH   1   3
ATOM      3  C   UNL     1     -24.604 -33.960 -12.265  1.00  0.00     0.027 C 
BRANCH   3   4
ATOM      4  C   UNL     1     -25.923 -34.695 -11.978  1.00  0.00     0.004 C 
BRANCH   4   5
ATOM      5  C   UNL     1     -26.563 -35.279 -13.247  1.00  0.00     0.000 C 
BRANCH   5   6
ATOM      6  C   UNL     1     -27.913 -34.627 -13.582  1.00  0.00     0.000 C 
BRANCH   6   7
ATOM      7  C   UNL     1     -28.291 -33.576 -12.529  1.00  0.00     0.000 C 
BRANCH   7   8
ATOM      8  C   UNL     1     -28.491 -32.173 -13.131  1.00  0.00     0.006 C 
BRANCH   8   9
ATOM      9  C   UNL     1     -28.158 -31.018 -12.172  1.00  0.00     0.053 C 
BRANCH   9  10
ATOM     10  C   UNL     1     -26.693 -30.940 -11.872  1.00  0.00     0.041 C 
ATOM     11  O   UNL     1     -25.874 -30.658 -12.785  1.00  0.00    -0.550 OA
ATOM     12  O   UNL     1     -26.229 -31.215 -10.591  1.00  0.00    -0.550 OA
ENDBRANCH   9  10
ENDBRANCH   8   9
ENDBRANCH   7   8
ENDBRANCH   6   7
ENDBRANCH   5   6
ENDBRANCH   4   5
ENDBRANCH   3   4
ENDBRANCH   1   3
BRANCH   2  13
ATOM     13  C   UNL     1     -21.079 -35.518 -12.745  1.00  0.00     0.027 C 
BRANCH  13  14
ATOM     14  C   UNL     1     -20.162 -35.063 -13.894  1.00  0.00     0.004 C 
BRANCH  14  15
ATOM     15  C   UNL     1     -19.802 -33.565 -13.859  1.00  0.00     0.000 C 
BRANCH  15  16
ATOM     16  C   UNL     1     -20.217 -32.772 -15.113  1.00  0.00     0.000 C 
BRANCH  16  17
ATOM     17  C   UNL     1     -20.765 -31.362 -14.802  1.00  0.00    -0.000 C 
BRANCH  17  18
ATOM     18  C   UNL     1     -20.884 -31.104 -13.289  1.00  0.00    -0.000 C 
BRANCH  18  19
ATOM     19  C   UNL     1     -22.343 -31.003 -12.820  1.00  0.00    -0.003 C 
ATOM     20  C   UNL     1     -22.467 -30.572 -11.359  1.00  0.00     0.004 C 
ENDBRANCH  18  19
ENDBRANCH  17  18
ENDBRANCH  16  17
ENDBRANCH  15  16
ENDBRANCH  14  15
ENDBRANCH  13  14
ENDBRANCH   2  13
TORSDOF 15
ENDMDL
MODEL 9
REMARK VINA RESULT:    -4.386      1.660      3.662
REMARK INTER + INTRA:         -10.410
REMARK INTER:                  -8.075
REMARK INTRA:                  -2.336
REMARK UNBOUND:                -2.177
REMARK SMILES CCCCCCCCC=CCCCCCCCC(=O)[O-]
REMARK SMILES IDX 10 1 9 2 11 3 12 4 13 5 14 6 15 7 16 8 17 9 18 10 19 11
REMARK SMILES IDX 20 12 8 13 7 14 6 15 5 16 4 17 3 18 2 19 1 20
REMARK H PARENT
REMARK Flexibility Score: inf
ROOT
ATOM      1  C   UNL     1     -23.618 -35.063 -12.600  1.00  0.00    -0.031 C 
ATOM      2  C   UNL     1     -22.430 -34.448 -12.699  1.00  0.00    -0.031 C 
ENDROOT
BRANCH   1   3
ATOM      3  C   UNL     1     -24.872 -34.302 -12.271  1.00  0.00     0.027 C 
BRANCH   3   4
ATOM      4  C   UNL     1     -24.576 -32.808 -12.066  1.00  0.00     0.004 C 
BRANCH   4   5
ATOM      5  C   UNL     1     -25.282 -32.230 -10.829  1.00  0.00     0.000 C 
BRANCH   5   6
ATOM      6  C   UNL     1     -25.627 -30.742 -10.988  1.00  0.00     0.000 C 
BRANCH   6   7
ATOM      7  C   UNL     1     -27.127 -30.552 -11.260  1.00  0.00     0.000 C 
BRANCH   7   8
ATOM      8  C   UNL     1     -27.487 -30.701 -12.750  1.00  0.00     0.006 C 
BRANCH   8   9
ATOM      9  C   UNL     1     -28.677 -31.634 -13.024  1.00  0.00     0.053 C 
BRANCH   9  10
ATOM     10  C   UNL     1     -28.285 -33.078 -12.963  1.00  0.00     0.041 C 
ATOM     11  O   UNL     1     -28.354 -33.708 -11.875  1.00  0.00    -0.550 OA
ATOM     12  O   UNL     1     -27.811 -33.719 -14.101  1.00  0.00    -0.550 OA
ENDBRANCH   9  10
ENDBRANCH   8   9
ENDBRANCH   7   8
ENDBRANCH   6   7
ENDBRANCH   5   6
ENDBRANCH   4   5
ENDBRANCH   3   4
ENDBRANCH   1   3
BRANCH   2  13
ATOM     13  C   UNL     1     -21.174 -35.206 -13.040  1.00  0.00     0.027 C 
BRANCH  13  14
ATOM     14  C   UNL     1     -20.320 -34.487 -14.100  1.00  0.00     0.004 C 
BRANCH  14  15
ATOM     15  C   UNL     1     -19.969 -33.029 -13.745  1.00  0.00     0.000 C 
BRANCH  15  16
ATOM     16  C   UNL     1     -20.591 -31.971 -14.677  1.00  0.00     0.000 C 
BRANCH  16  17
ATOM     17  C   UNL     1     -21.598 -31.038 -13.971  1.00  0.00    -0.000 C 
BRANCH  17  18
ATOM     18  C   UNL     1     -20.974 -30.310 -12.768  1.00  0.00    -0.000 C 
BRANCH  18  19
ATOM     19  C   UNL     1     -21.917 -30.254 -11.557  1.00  0.00    -0.003 C 
ATOM     20  C   UNL     1     -21.581 -31.299 -10.494  1.00  0.00     0.004 C 
ENDBRANCH  18  19
ENDBRANCH  17  18
ENDBRANCH  16  17
ENDBRANCH  15  16
ENDBRANCH  14  15
ENDBRANCH  13  14
ENDBRANCH   2  13
TORSDOF 15
ENDMDL
