MODEL 1
REMARK VINA RESULT:    -4.042      0.000      0.000
REMARK INTER + INTRA:         -15.455
REMARK INTER:                 -10.187
REMARK INTRA:                  -5.268
REMARK UNBOUND:                -5.268
REMARK SMILES CCCCCCCCCCCCCCCCCCCCCCCCCCCC(=O)[O-]
REMARK SMILES IDX 15 1 16 2 17 3 18 4 19 5 20 6 21 7 22 8 23 9 24 10 25 11
REMARK SMILES IDX 26 12 27 13 28 14 29 15 30 16 14 17 13 18 12 19 11 20 10 21
REMARK SMILES IDX 9 22 8 23 7 24 6 25 5 26 4 27 3 28 2 29 1 30
REMARK H PARENT
REMARK Flexibility Score: inf
ROOT
ATOM      1  C   UNL     1      56.127  36.481  76.707  1.00  0.00     0.000 C 
ENDROOT
BRANCH   1   2
ATOM      2  C   UNL     1      56.579  35.335  75.782  1.00  0.00     0.000 C 
BRANCH   2   3
ATOM      3  C   UNL     1      57.747  35.737  74.867  1.00  0.00     0.000 C 
BRANCH   3   4
ATOM      4  C   UNL     1      59.116  35.587  75.551  1.00  0.00     0.000 C 
BRANCH   4   5
ATOM      5  C   UNL     1      59.844  36.928  75.729  1.00  0.00     0.000 C 
BRANCH   5   6
ATOM      6  C   UNL     1      59.243  38.007  74.815  1.00  0.00     0.000 C 
BRANCH   6   7
ATOM      7  C   UNL     1      58.720  39.223  75.595  1.00  0.00     0.000 C 
BRANCH   7   8
ATOM      8  C   UNL     1      57.296  39.628  75.180  1.00  0.00     0.000 C 
BRANCH   8   9
ATOM      9  C   UNL     1      57.182  39.740  73.651  1.00  0.00     0.000 C 
BRANCH   9  10
ATOM     10  C   UNL     1      55.747  39.529  73.144  1.00  0.00     0.000 C 
BRANCH  10  11
ATOM     11  C   UNL     1      55.010  38.330  73.772  1.00  0.00     0.000 C 
BRANCH  11  12
ATOM     12  C   UNL     1      54.977  37.079  72.869  1.00  0.00     0.006 C 
BRANCH  12  13
ATOM     13  C   UNL     1      55.352  37.399  71.416  1.00  0.00     0.053 C 
BRANCH  13  14
ATOM     14  C   UNL     1      56.385  36.436  70.920  1.00  0.00     0.041 C 
ATOM     15  O   UNL     1      56.688  35.425  71.604  1.00  0.00    -0.550 OA
ATOM     16  O   UNL     1      56.976  36.631  69.678  1.00  0.00    -0.550 OA
ENDBRANCH  13  14
ENDBRANCH  12  13
ENDBRANCH  11  12
ENDBRANCH  10  11
ENDBRANCH   9  10
ENDBRANCH   8   9
ENDBRANCH   7   8
ENDBRANCH   6   7
ENDBRANCH   5   6
ENDBRANCH   4   5
ENDBRANCH   3   4
ENDBRANCH   2   3
ENDBRANCH   1   2
BRANCH   1  17
ATOM     17  C   UNL     1      56.761  36.466  78.110  1.00  0.00     0.000 C 
BRANCH  17  18
ATOM     18  C   UNL     1      57.157  37.867  78.600  1.00  0.00     0.000 C 
BRANCH  18  19
ATOM     19  C   UNL     1      58.557  37.857  79.228  1.00  0.00     0.000 C 
BRANCH  19  20
ATOM     20  C   UNL     1      59.090  36.422  79.355  1.00  0.00     0.000 C 
BRANCH  20  21
ATOM     21  C   UNL     1      58.757  35.785  80.714  1.00  0.00     0.000 C 
BRANCH  21  22
ATOM     22  C   UNL     1      58.615  34.255  80.634  1.00  0.00    -0.000 C 
BRANCH  22  23
ATOM     23  C   UNL     1      59.104  33.688  79.285  1.00  0.00    -0.000 C 
BRANCH  23  24
ATOM     24  C   UNL     1      58.009  32.972  78.477  1.00  0.00    -0.000 C 
BRANCH  24  25
ATOM     25  C   UNL     1      58.523  32.416  77.138  1.00  0.00    -0.000 C 
BRANCH  25  26
ATOM     26  C   UNL     1      57.891  31.063  76.768  1.00  0.00    -0.000 C 
BRANCH  26  27
ATOM     27  C   UNL     1      57.727  30.808  75.257  1.00  0.00    -0.000 C 
BRANCH  27  28
ATOM     28  C   UNL     1      58.182  31.988  74.371  1.00  0.00    -0.000 C 
BRANCH  28  29
ATOM     29  C   UNL     1      57.129  32.361  73.315  1.00  0.00    -0.003 C 
ATOM     30  C   UNL     1      56.092  31.253  73.159  1.00  0.00     0.004 C 
ENDBRANCH  28  29
ENDBRANCH  27  28
ENDBRANCH  26  27
ENDBRANCH  25  26
ENDBRANCH  24  25
ENDBRANCH  23  24
ENDBRANCH  22  23
ENDBRANCH  21  22
ENDBRANCH  20  21
ENDBRANCH  19  20
ENDBRANCH  18  19
ENDBRANCH  17  18
ENDBRANCH   1  17
TORSDOF 26
ENDMDL
MODEL 2
REMARK VINA RESULT:    -4.005      4.022      8.172
REMARK INTER + INTRA:         -15.361
REMARK INTER:                 -11.111
REMARK INTRA:                  -4.249
REMARK UNBOUND:                -5.268
REMARK SMILES CCCCCCCCCCCCCCCCCCCCCCCCCCCC(=O)[O-]
REMARK SMILES IDX 15 1 16 2 17 3 18 4 19 5 20 6 21 7 22 8 23 9 24 10 25 11
REMARK SMILES IDX 26 12 27 13 28 14 29 15 30 16 14 17 13 18 12 19 11 20 10 21
REMARK SMILES IDX 9 22 8 23 7 24 6 25 5 26 4 27 3 28 2 29 1 30
REMARK H PARENT
REMARK Flexibility Score: inf
ROOT
ATOM      1  C   UNL     1      57.767  32.231  73.698  1.00  0.00     0.000 C 
ENDROOT
BRANCH   1   2
ATOM      2  C   UNL     1      56.421  31.623  73.262  1.00  0.00     0.000 C 
BRANCH   2   3
ATOM      3  C   UNL     1      56.072  30.339  74.034  1.00  0.00     0.000 C 
BRANCH   3   4
ATOM      4  C   UNL     1      56.902  30.175  75.317  1.00  0.00     0.000 C 
BRANCH   4   5
ATOM      5  C   UNL     1      57.488  28.763  75.472  1.00  0.00     0.000 C 
BRANCH   5   6
ATOM      6  C   UNL     1      59.019  28.811  75.587  1.00  0.00     0.000 C 
BRANCH   6   7
ATOM      7  C   UNL     1      59.519  30.046  76.353  1.00  0.00     0.000 C 
BRANCH   7   8
ATOM      8  C   UNL     1      60.639  30.792  75.610  1.00  0.00     0.000 C 
BRANCH   8   9
ATOM      9  C   UNL     1      61.154  29.964  74.422  1.00  0.00     0.000 C 
BRANCH   9  10
ATOM     10  C   UNL     1      62.656  30.166  74.163  1.00  0.00     0.000 C 
BRANCH  10  11
ATOM     11  C   UNL     1      63.536  30.166  75.428  1.00  0.00     0.000 C 
BRANCH  11  12
ATOM     12  C   UNL     1      63.796  28.758  76.003  1.00  0.00     0.006 C 
BRANCH  12  13
ATOM     13  C   UNL     1      63.105  28.543  77.356  1.00  0.00     0.053 C 
BRANCH  13  14
ATOM     14  C   UNL     1      62.096  27.442  77.259  1.00  0.00     0.041 C 
ATOM     15  O   UNL     1      61.914  26.846  76.166  1.00  0.00    -0.550 OA
ATOM     16  O   UNL     1      61.393  27.043  78.388  1.00  0.00    -0.550 OA
ENDBRANCH  13  14
ENDBRANCH  12  13
ENDBRANCH  11  12
ENDBRANCH  10  11
ENDBRANCH   9  10
ENDBRANCH   8   9
ENDBRANCH   7   8
ENDBRANCH   6   7
ENDBRANCH   5   6
ENDBRANCH   4   5
ENDBRANCH   3   4
ENDBRANCH   2   3
ENDBRANCH   1   2
BRANCH   1  17
ATOM     17  C   UNL     1      57.659  33.574  74.445  1.00  0.00     0.000 C 
BRANCH  17  18
ATOM     18  C   UNL     1      58.491  33.607  75.735  1.00  0.00     0.000 C 
BRANCH  18  19
ATOM     19  C   UNL     1      57.600  33.843  76.961  1.00  0.00     0.000 C 
BRANCH  19  20
ATOM     20  C   UNL     1      57.973  32.886  78.103  1.00  0.00     0.000 C 
BRANCH  20  21
ATOM     21  C   UNL     1      58.932  33.525  79.121  1.00  0.00     0.000 C 
BRANCH  21  22
ATOM     22  C   UNL     1      58.199  34.110  80.341  1.00  0.00    -0.000 C 
BRANCH  22  23
ATOM     23  C   UNL     1      58.889  35.377  80.888  1.00  0.00    -0.000 C 
BRANCH  23  24
ATOM     24  C   UNL     1      58.544  36.658  80.110  1.00  0.00    -0.000 C 
BRANCH  24  25
ATOM     25  C   UNL     1      57.059  37.042  80.221  1.00  0.00    -0.000 C 
BRANCH  25  26
ATOM     26  C   UNL     1      56.459  37.509  78.883  1.00  0.00    -0.000 C 
BRANCH  26  27
ATOM     27  C   UNL     1      57.386  38.386  78.020  1.00  0.00    -0.000 C 
BRANCH  27  28
ATOM     28  C   UNL     1      57.681  37.797  76.623  1.00  0.00    -0.000 C 
BRANCH  28  29
ATOM     29  C   UNL     1      56.417  37.243  75.948  1.00  0.00    -0.003 C 
ATOM     30  C   UNL     1      56.633  37.052  74.450  1.00  0.00     0.004 C 
ENDBRANCH  28  29
ENDBRANCH  27  28
ENDBRANCH  26  27
ENDBRANCH  25  26
ENDBRANCH  24  25
ENDBRANCH  23  24
ENDBRANCH  22  23
ENDBRANCH  21  22
ENDBRANCH  20  21
ENDBRANCH  19  20
ENDBRANCH  18  19
ENDBRANCH  17  18
ENDBRANCH   1  17
TORSDOF 26
ENDMDL
MODEL 3
REMARK VINA RESULT:    -3.906      2.194      6.054
REMARK INTER + INTRA:         -15.111
REMARK INTER:                 -10.731
REMARK INTRA:                  -4.379
REMARK UNBOUND:                -5.268
REMARK SMILES CCCCCCCCCCCCCCCCCCCCCCCCCCCC(=O)[O-]
REMARK SMILES IDX 15 1 16 2 17 3 18 4 19 5 20 6 21 7 22 8 23 9 24 10 25 11
REMARK SMILES IDX 26 12 27 13 28 14 29 15 30 16 14 17 13 18 12 19 11 20 10 21
REMARK SMILES IDX 9 22 8 23 7 24 6 25 5 26 4 27 3 28 2 29 1 30
REMARK H PARENT
REMARK Flexibility Score: inf
ROOT
ATOM      1  C   UNL     1      58.755  31.781  77.366  1.00  0.00     0.000 C 
ENDROOT
BRANCH   1   2
ATOM      2  C   UNL     1      57.877  32.970  76.933  1.00  0.00     0.000 C 
BRANCH   2   3
ATOM      3  C   UNL     1      57.982  34.165  77.895  1.00  0.00     0.000 C 
BRANCH   3   4
ATOM      4  C   UNL     1      57.932  33.744  79.372  1.00  0.00     0.000 C 
BRANCH   4   5
ATOM      5  C   UNL     1      59.169  34.197  80.164  1.00  0.00     0.000 C 
BRANCH   5   6
ATOM      6  C   UNL     1      58.813  35.323  81.147  1.00  0.00     0.000 C 
BRANCH   6   7
ATOM      7  C   UNL     1      58.576  36.670  80.448  1.00  0.00     0.000 C 
BRANCH   7   8
ATOM      8  C   UNL     1      57.143  37.194  80.636  1.00  0.00     0.000 C 
BRANCH   8   9
ATOM      9  C   UNL     1      56.499  37.527  79.281  1.00  0.00     0.000 C 
BRANCH   9  10
ATOM     10  C   UNL     1      57.520  38.018  78.241  1.00  0.00     0.000 C 
BRANCH  10  11
ATOM     11  C   UNL     1      57.253  37.543  76.800  1.00  0.00     0.000 C 
BRANCH  11  12
ATOM     12  C   UNL     1      57.257  38.684  75.761  1.00  0.00     0.006 C 
BRANCH  12  13
ATOM     13  C   UNL     1      58.448  39.635  75.943  1.00  0.00     0.053 C 
BRANCH  13  14
ATOM     14  C   UNL     1      59.706  38.998  75.443  1.00  0.00     0.041 C 
ATOM     15  O   UNL     1      60.644  38.738  76.241  1.00  0.00    -0.550 OA
ATOM     16  O   UNL     1      59.822  38.646  74.105  1.00  0.00    -0.550 OA
ENDBRANCH  13  14
ENDBRANCH  12  13
ENDBRANCH  11  12
ENDBRANCH  10  11
ENDBRANCH   9  10
ENDBRANCH   8   9
ENDBRANCH   7   8
ENDBRANCH   6   7
ENDBRANCH   5   6
ENDBRANCH   4   5
ENDBRANCH   3   4
ENDBRANCH   2   3
ENDBRANCH   1   2
BRANCH   1  17
ATOM     17  C   UNL     1      59.742  31.282  76.294  1.00  0.00     0.000 C 
BRANCH  17  18
ATOM     18  C   UNL     1      59.853  29.751  76.250  1.00  0.00     0.000 C 
BRANCH  18  19
ATOM     19  C   UNL     1      59.017  29.169  75.103  1.00  0.00     0.000 C 
BRANCH  19  20
ATOM     20  C   UNL     1      57.677  28.625  75.622  1.00  0.00     0.000 C 
BRANCH  20  21
ATOM     21  C   UNL     1      56.527  29.632  75.458  1.00  0.00     0.000 C 
BRANCH  21  22
ATOM     22  C   UNL     1      55.815  29.505  74.099  1.00  0.00    -0.000 C 
BRANCH  22  23
ATOM     23  C   UNL     1      55.766  30.844  73.333  1.00  0.00    -0.000 C 
BRANCH  23  24
ATOM     24  C   UNL     1      56.860  31.841  73.754  1.00  0.00    -0.000 C 
BRANCH  24  25
ATOM     25  C   UNL     1      56.780  33.171  72.986  1.00  0.00    -0.000 C 
BRANCH  25  26
ATOM     26  C   UNL     1      56.379  34.357  73.881  1.00  0.00    -0.000 C 
BRANCH  26  27
ATOM     27  C   UNL     1      57.089  35.687  73.563  1.00  0.00    -0.000 C 
BRANCH  27  28
ATOM     28  C   UNL     1      58.580  35.527  73.192  1.00  0.00    -0.000 C 
BRANCH  28  29
ATOM     29  C   UNL     1      59.435  35.103  74.396  1.00  0.00    -0.003 C 
ATOM     30  C   UNL     1      60.571  34.180  73.966  1.00  0.00     0.004 C 
ENDBRANCH  28  29
ENDBRANCH  27  28
ENDBRANCH  26  27
ENDBRANCH  25  26
ENDBRANCH  24  25
ENDBRANCH  23  24
ENDBRANCH  22  23
ENDBRANCH  21  22
ENDBRANCH  20  21
ENDBRANCH  19  20
ENDBRANCH  18  19
ENDBRANCH  17  18
ENDBRANCH   1  17
TORSDOF 26
ENDMDL
MODEL 4
REMARK VINA RESULT:    -3.891      1.593      4.597
REMARK INTER + INTRA:         -15.074
REMARK INTER:                 -10.451
REMARK INTRA:                  -4.623
REMARK UNBOUND:                -5.268
REMARK SMILES CCCCCCCCCCCCCCCCCCCCCCCCCCCC(=O)[O-]
REMARK SMILES IDX 15 1 16 2 17 3 18 4 19 5 20 6 21 7 22 8 23 9 24 10 25 11
REMARK SMILES IDX 26 12 27 13 28 14 29 15 30 16 14 17 13 18 12 19 11 20 10 21
REMARK SMILES IDX 9 22 8 23 7 24 6 25 5 26 4 27 3 28 2 29 1 30
REMARK H PARENT
REMARK Flexibility Score: inf
ROOT
ATOM      1  C   UNL     1      58.741  33.727  78.920  1.00  0.00     0.000 C 
ENDROOT
BRANCH   1   2
ATOM      2  C   UNL     1      58.240  33.893  80.367  1.00  0.00     0.000 C 
BRANCH   2   3
ATOM      3  C   UNL     1      58.820  35.139  81.057  1.00  0.00     0.000 C 
BRANCH   3   4
ATOM      4  C   UNL     1      58.714  36.402  80.187  1.00  0.00     0.000 C 
BRANCH   4   5
ATOM      5  C   UNL     1      57.265  36.883  80.009  1.00  0.00     0.000 C 
BRANCH   5   6
ATOM      6  C   UNL     1      57.093  37.634  78.680  1.00  0.00     0.000 C 
BRANCH   6   7
ATOM      7  C   UNL     1      58.337  38.448  78.291  1.00  0.00     0.000 C 
BRANCH   7   8
ATOM      8  C   UNL     1      58.755  38.232  76.827  1.00  0.00     0.000 C 
BRANCH   8   9
ATOM      9  C   UNL     1      58.692  36.743  76.454  1.00  0.00     0.000 C 
BRANCH   9  10
ATOM     10  C   UNL     1      57.872  36.483  75.179  1.00  0.00     0.000 C 
BRANCH  10  11
ATOM     11  C   UNL     1      56.388  36.148  75.423  1.00  0.00     0.000 C 
BRANCH  11  12
ATOM     12  C   UNL     1      55.415  37.225  74.898  1.00  0.00     0.006 C 
BRANCH  12  13
ATOM     13  C   UNL     1      56.015  38.041  73.745  1.00  0.00     0.053 C 
BRANCH  13  14
ATOM     14  C   UNL     1      55.404  37.630  72.442  1.00  0.00     0.041 C 
ATOM     15  O   UNL     1      54.648  38.420  71.820  1.00  0.00    -0.550 OA
ATOM     16  O   UNL     1      55.711  36.392  71.892  1.00  0.00    -0.550 OA
ENDBRANCH  13  14
ENDBRANCH  12  13
ENDBRANCH  11  12
ENDBRANCH  10  11
ENDBRANCH   9  10
ENDBRANCH   8   9
ENDBRANCH   7   8
ENDBRANCH   6   7
ENDBRANCH   5   6
ENDBRANCH   4   5
ENDBRANCH   3   4
ENDBRANCH   2   3
ENDBRANCH   1   2
BRANCH   1  17
ATOM     17  C   UNL     1      57.630  33.659  77.855  1.00  0.00     0.000 C 
BRANCH  17  18
ATOM     18  C   UNL     1      57.976  32.716  76.693  1.00  0.00     0.000 C 
BRANCH  18  19
ATOM     19  C   UNL     1      59.207  31.862  77.022  1.00  0.00     0.000 C 
BRANCH  19  20
ATOM     20  C   UNL     1      59.593  30.974  75.829  1.00  0.00     0.000 C 
BRANCH  20  21
ATOM     21  C   UNL     1      59.907  29.528  76.246  1.00  0.00     0.000 C 
BRANCH  21  22
ATOM     22  C   UNL     1      58.967  28.503  75.588  1.00  0.00    -0.000 C 
BRANCH  22  23
ATOM     23  C   UNL     1      57.479  28.872  75.763  1.00  0.00    -0.000 C 
BRANCH  23  24
ATOM     24  C   UNL     1      56.698  28.949  74.441  1.00  0.00    -0.000 C 
BRANCH  24  25
ATOM     25  C   UNL     1      55.699  30.118  74.406  1.00  0.00    -0.000 C 
BRANCH  25  26
ATOM     26  C   UNL     1      55.902  31.045  73.196  1.00  0.00    -0.000 C 
BRANCH  26  27
ATOM     27  C   UNL     1      57.244  31.803  73.169  1.00  0.00    -0.000 C 
BRANCH  27  28
ATOM     28  C   UNL     1      57.093  33.339  73.106  1.00  0.00    -0.000 C 
BRANCH  28  29
ATOM     29  C   UNL     1      58.330  34.019  72.500  1.00  0.00    -0.003 C 
ATOM     30  C   UNL     1      59.561  33.799  73.374  1.00  0.00     0.004 C 
ENDBRANCH  28  29
ENDBRANCH  27  28
ENDBRANCH  26  27
ENDBRANCH  25  26
ENDBRANCH  24  25
ENDBRANCH  23  24
ENDBRANCH  22  23
ENDBRANCH  21  22
ENDBRANCH  20  21
ENDBRANCH  19  20
ENDBRANCH  18  19
ENDBRANCH  17  18
ENDBRANCH   1  17
TORSDOF 26
ENDMDL
MODEL 5
REMARK VINA RESULT:    -3.877      1.566      3.756
REMARK INTER + INTRA:         -15.038
REMARK INTER:                 -10.296
REMARK INTRA:                  -4.742
REMARK UNBOUND:                -5.268
REMARK SMILES CCCCCCCCCCCCCCCCCCCCCCCCCCCC(=O)[O-]
REMARK SMILES IDX 15 1 16 2 17 3 18 4 19 5 20 6 21 7 22 8 23 9 24 10 25 11
REMARK SMILES IDX 26 12 27 13 28 14 29 15 30 16 14 17 13 18 12 19 11 20 10 21
REMARK SMILES IDX 9 22 8 23 7 24 6 25 5 26 4 27 3 28 2 29 1 30
REMARK H PARENT
REMARK Flexibility Score: inf
ROOT
ATOM      1  C   UNL     1      58.678  36.543  80.277  1.00  0.00     0.000 C 
ENDROOT
BRANCH   1   2
ATOM      2  C   UNL     1      57.257  37.132  80.198  1.00  0.00     0.000 C 
BRANCH   2   3
ATOM      3  C   UNL     1      56.902  37.637  78.790  1.00  0.00     0.000 C 
BRANCH   3   4
ATOM      4  C   UNL     1      58.101  38.268  78.066  1.00  0.00     0.000 C 
BRANCH   4   5
ATOM      5  C   UNL     1      57.681  39.247  76.957  1.00  0.00     0.000 C 
BRANCH   5   6
ATOM      6  C   UNL     1      58.520  39.036  75.688  1.00  0.00     0.000 C 
BRANCH   6   7
ATOM      7  C   UNL     1      59.360  37.749  75.737  1.00  0.00     0.000 C 
BRANCH   7   8
ATOM      8  C   UNL     1      58.835  36.661  74.787  1.00  0.00     0.000 C 
BRANCH   8   9
ATOM      9  C   UNL     1      58.211  35.499  75.575  1.00  0.00     0.000 C 
BRANCH   9  10
ATOM     10  C   UNL     1      56.677  35.577  75.637  1.00  0.00     0.000 C 
BRANCH  10  11
ATOM     11  C   UNL     1      56.009  36.156  74.374  1.00  0.00     0.000 C 
BRANCH  11  12
ATOM     12  C   UNL     1      55.342  37.529  74.600  1.00  0.00     0.006 C 
BRANCH  12  13
ATOM     13  C   UNL     1      55.596  38.500  73.439  1.00  0.00     0.053 C 
BRANCH  13  14
ATOM     14  C   UNL     1      54.644  38.231  72.316  1.00  0.00     0.041 C 
ATOM     15  O   UNL     1      55.061  37.730  71.239  1.00  0.00    -0.550 OA
ATOM     16  O   UNL     1      53.289  38.487  72.478  1.00  0.00    -0.550 OA
ENDBRANCH  13  14
ENDBRANCH  12  13
ENDBRANCH  11  12
ENDBRANCH  10  11
ENDBRANCH   9  10
ENDBRANCH   8   9
ENDBRANCH   7   8
ENDBRANCH   6   7
ENDBRANCH   5   6
ENDBRANCH   4   5
ENDBRANCH   3   4
ENDBRANCH   2   3
ENDBRANCH   1   2
BRANCH   1  17
ATOM     17  C   UNL     1      58.789  35.226  81.068  1.00  0.00     0.000 C 
BRANCH  17  18
ATOM     18  C   UNL     1      59.138  34.024  80.179  1.00  0.00     0.000 C 
BRANCH  18  19
ATOM     19  C   UNL     1      58.453  34.131  78.811  1.00  0.00     0.000 C 
BRANCH  19  20
ATOM     20  C   UNL     1      57.935  32.761  78.347  1.00  0.00     0.000 C 
BRANCH  20  21
ATOM     21  C   UNL     1      58.840  32.115  77.286  1.00  0.00     0.000 C 
BRANCH  21  22
ATOM     22  C   UNL     1      58.094  31.093  76.411  1.00  0.00    -0.000 C 
BRANCH  22  23
ATOM     23  C   UNL     1      58.987  30.511  75.295  1.00  0.00    -0.000 C 
BRANCH  23  24
ATOM     24  C   UNL     1      60.371  31.173  75.199  1.00  0.00    -0.000 C 
BRANCH  24  25
ATOM     25  C   UNL     1      60.555  31.984  73.905  1.00  0.00    -0.000 C 
BRANCH  25  26
ATOM     26  C   UNL     1      59.407  32.975  73.650  1.00  0.00    -0.000 C 
BRANCH  26  27
ATOM     27  C   UNL     1      58.781  32.905  72.243  1.00  0.00    -0.000 C 
BRANCH  27  28
ATOM     28  C   UNL     1      57.298  33.334  72.197  1.00  0.00    -0.000 C 
BRANCH  28  29
ATOM     29  C   UNL     1      56.481  32.721  73.344  1.00  0.00    -0.003 C 
ATOM     30  C   UNL     1      56.108  31.273  73.040  1.00  0.00     0.004 C 
ENDBRANCH  28  29
ENDBRANCH  27  28
ENDBRANCH  26  27
ENDBRANCH  25  26
ENDBRANCH  24  25
ENDBRANCH  23  24
ENDBRANCH  22  23
ENDBRANCH  21  22
ENDBRANCH  20  21
ENDBRANCH  19  20
ENDBRANCH  18  19
ENDBRANCH  17  18
ENDBRANCH   1  17
TORSDOF 26
ENDMDL
MODEL 6
REMARK VINA RESULT:    -3.855      3.131      7.042
REMARK INTER + INTRA:         -14.984
REMARK INTER:                 -10.404
REMARK INTRA:                  -4.580
REMARK UNBOUND:                -5.268
REMARK SMILES CCCCCCCCCCCCCCCCCCCCCCCCCCCC(=O)[O-]
REMARK SMILES IDX 15 1 16 2 17 3 18 4 19 5 20 6 21 7 22 8 23 9 24 10 25 11
REMARK SMILES IDX 26 12 27 13 28 14 29 15 30 16 14 17 13 18 12 19 11 20 10 21
REMARK SMILES IDX 9 22 8 23 7 24 6 25 5 26 4 27 3 28 2 29 1 30
REMARK H PARENT
REMARK Flexibility Score: inf
ROOT
ATOM      1  C   UNL     1      58.139  34.092  77.253  1.00  0.00     0.000 C 
ENDROOT
BRANCH   1   2
ATOM      2  C   UNL     1      57.582  33.522  75.935  1.00  0.00     0.000 C 
BRANCH   2   3
ATOM      3  C   UNL     1      58.641  33.462  74.822  1.00  0.00     0.000 C 
BRANCH   3   4
ATOM      4  C   UNL     1      58.130  32.755  73.556  1.00  0.00     0.000 C 
BRANCH   4   5
ATOM      5  C   UNL     1      56.601  32.597  73.536  1.00  0.00     0.000 C 
BRANCH   5   6
ATOM      6  C   UNL     1      56.194  31.244  72.934  1.00  0.00     0.000 C 
BRANCH   6   7
ATOM      7  C   UNL     1      55.756  30.227  74.000  1.00  0.00     0.000 C 
BRANCH   7   8
ATOM      8  C   UNL     1      56.940  29.462  74.613  1.00  0.00     0.000 C 
BRANCH   8   9
ATOM      9  C   UNL     1      57.162  29.876  76.076  1.00  0.00     0.000 C 
BRANCH   9  10
ATOM     10  C   UNL     1      58.643  30.120  76.408  1.00  0.00     0.000 C 
BRANCH  10  11
ATOM     11  C   UNL     1      59.639  29.506  75.405  1.00  0.00     0.000 C 
BRANCH  11  12
ATOM     12  C   UNL     1      60.777  30.464  74.996  1.00  0.00     0.006 C 
BRANCH  12  13
ATOM     13  C   UNL     1      61.717  30.787  76.165  1.00  0.00     0.053 C 
BRANCH  13  14
ATOM     14  C   UNL     1      62.892  29.860  76.162  1.00  0.00     0.041 C 
ATOM     15  O   UNL     1      63.698  29.857  77.128  1.00  0.00    -0.550 OA
ATOM     16  O   UNL     1      63.067  28.965  75.115  1.00  0.00    -0.550 OA
ENDBRANCH  13  14
ENDBRANCH  12  13
ENDBRANCH  11  12
ENDBRANCH  10  11
ENDBRANCH   9  10
ENDBRANCH   8   9
ENDBRANCH   7   8
ENDBRANCH   6   7
ENDBRANCH   5   6
ENDBRANCH   4   5
ENDBRANCH   3   4
ENDBRANCH   2   3
ENDBRANCH   1   2
BRANCH   1  17
ATOM     17  C   UNL     1      58.044  33.141  78.461  1.00  0.00     0.000 C 
BRANCH  17  18
ATOM     18  C   UNL     1      57.710  33.870  79.770  1.00  0.00     0.000 C 
BRANCH  18  19
ATOM     19  C   UNL     1      58.980  34.158  80.581  1.00  0.00     0.000 C 
BRANCH  19  20
ATOM     20  C   UNL     1      58.942  35.576  81.173  1.00  0.00     0.000 C 
BRANCH  20  21
ATOM     21  C   UNL     1      57.997  36.513  80.405  1.00  0.00     0.000 C 
BRANCH  21  22
ATOM     22  C   UNL     1      58.747  37.622  79.646  1.00  0.00    -0.000 C 
BRANCH  22  23
ATOM     23  C   UNL     1      58.541  37.532  78.119  1.00  0.00    -0.000 C 
BRANCH  23  24
ATOM     24  C   UNL     1      57.144  37.976  77.653  1.00  0.00    -0.000 C 
BRANCH  24  25
ATOM     25  C   UNL     1      56.699  37.279  76.356  1.00  0.00    -0.000 C 
BRANCH  25  26
ATOM     26  C   UNL     1      57.733  37.401  75.224  1.00  0.00    -0.000 C 
BRANCH  26  27
ATOM     27  C   UNL     1      57.352  36.692  73.909  1.00  0.00    -0.000 C 
BRANCH  27  28
ATOM     28  C   UNL     1      55.869  36.270  73.834  1.00  0.00    -0.000 C 
BRANCH  28  29
ATOM     29  C   UNL     1      55.106  37.024  72.734  1.00  0.00    -0.003 C 
ATOM     30  C   UNL     1      54.359  38.225  73.307  1.00  0.00     0.004 C 
ENDBRANCH  28  29
ENDBRANCH  27  28
ENDBRANCH  26  27
ENDBRANCH  25  26
ENDBRANCH  24  25
ENDBRANCH  23  24
ENDBRANCH  22  23
ENDBRANCH  21  22
ENDBRANCH  20  21
ENDBRANCH  19  20
ENDBRANCH  18  19
ENDBRANCH  17  18
ENDBRANCH   1  17
TORSDOF 26
ENDMDL
MODEL 7
REMARK VINA RESULT:    -3.832      1.773      3.575
REMARK INTER + INTRA:         -14.925
REMARK INTER:                  -9.247
REMARK INTRA:                  -5.678
REMARK UNBOUND:                -5.268
REMARK SMILES CCCCCCCCCCCCCCCCCCCCCCCCCCCC(=O)[O-]
REMARK SMILES IDX 15 1 16 2 17 3 18 4 19 5 20 6 21 7 22 8 23 9 24 10 25 11
REMARK SMILES IDX 26 12 27 13 28 14 29 15 30 16 14 17 13 18 12 19 11 20 10 21
REMARK SMILES IDX 9 22 8 23 7 24 6 25 5 26 4 27 3 28 2 29 1 30
REMARK H PARENT
REMARK Flexibility Score: inf
ROOT
ATOM      1  C   UNL     1      58.729  38.021  78.892  1.00  0.00     0.000 C 
ENDROOT
BRANCH   1   2
ATOM      2  C   UNL     1      58.906  39.225  77.949  1.00  0.00     0.000 C 
BRANCH   2   3
ATOM      3  C   UNL     1      57.675  39.469  77.060  1.00  0.00     0.000 C 
BRANCH   3   4
ATOM      4  C   UNL     1      58.045  40.013  75.671  1.00  0.00     0.000 C 
BRANCH   4   5
ATOM      5  C   UNL     1      59.445  39.576  75.212  1.00  0.00     0.000 C 
BRANCH   5   6
ATOM      6  C   UNL     1      59.374  38.285  74.381  1.00  0.00     0.000 C 
BRANCH   6   7
ATOM      7  C   UNL     1      60.074  37.100  75.064  1.00  0.00     0.000 C 
BRANCH   7   8
ATOM      8  C   UNL     1      59.084  36.119  75.712  1.00  0.00     0.000 C 
BRANCH   8   9
ATOM      9  C   UNL     1      57.885  35.859  74.787  1.00  0.00     0.000 C 
BRANCH   9  10
ATOM     10  C   UNL     1      56.539  35.916  75.527  1.00  0.00     0.000 C 
BRANCH  10  11
ATOM     11  C   UNL     1      55.682  37.158  75.214  1.00  0.00     0.000 C 
BRANCH  11  12
ATOM     12  C   UNL     1      55.768  37.617  73.743  1.00  0.00     0.006 C 
BRANCH  12  13
ATOM     13  C   UNL     1      54.500  37.277  72.950  1.00  0.00     0.053 C 
BRANCH  13  14
ATOM     14  C   UNL     1      53.810  38.529  72.506  1.00  0.00     0.041 C 
ATOM     15  O   UNL     1      53.491  39.408  73.348  1.00  0.00    -0.550 OA
ATOM     16  O   UNL     1      53.565  38.745  71.156  1.00  0.00    -0.550 OA
ENDBRANCH  13  14
ENDBRANCH  12  13
ENDBRANCH  11  12
ENDBRANCH  10  11
ENDBRANCH   9  10
ENDBRANCH   8   9
ENDBRANCH   7   8
ENDBRANCH   6   7
ENDBRANCH   5   6
ENDBRANCH   4   5
ENDBRANCH   3   4
ENDBRANCH   2   3
ENDBRANCH   1   2
BRANCH   1  17
ATOM     17  C   UNL     1      57.369  37.305  78.778  1.00  0.00     0.000 C 
BRANCH  17  18
ATOM     18  C   UNL     1      57.450  35.813  79.130  1.00  0.00     0.000 C 
BRANCH  18  19
ATOM     19  C   UNL     1      58.814  35.461  79.737  1.00  0.00     0.000 C 
BRANCH  19  20
ATOM     20  C   UNL     1      59.070  33.948  79.671  1.00  0.00     0.000 C 
BRANCH  20  21
ATOM     21  C   UNL     1      57.977  33.196  78.894  1.00  0.00     0.000 C 
BRANCH  21  22
ATOM     22  C   UNL     1      58.543  32.357  77.735  1.00  0.00    -0.000 C 
BRANCH  22  23
ATOM     23  C   UNL     1      57.814  32.628  76.402  1.00  0.00    -0.000 C 
BRANCH  23  24
ATOM     24  C   UNL     1      58.169  31.632  75.285  1.00  0.00    -0.000 C 
BRANCH  24  25
ATOM     25  C   UNL     1      57.989  32.225  73.878  1.00  0.00    -0.000 C 
BRANCH  25  26
ATOM     26  C   UNL     1      59.285  32.828  73.310  1.00  0.00    -0.000 C 
BRANCH  26  27
ATOM     27  C   UNL     1      59.124  33.598  71.985  1.00  0.00    -0.000 C 
BRANCH  27  28
ATOM     28  C   UNL     1      57.663  33.702  71.496  1.00  0.00    -0.000 C 
BRANCH  28  29
ATOM     29  C   UNL     1      57.232  35.157  71.256  1.00  0.00    -0.003 C 
ATOM     30  C   UNL     1      58.441  36.088  71.216  1.00  0.00     0.004 C 
ENDBRANCH  28  29
ENDBRANCH  27  28
ENDBRANCH  26  27
ENDBRANCH  25  26
ENDBRANCH  24  25
ENDBRANCH  23  24
ENDBRANCH  22  23
ENDBRANCH  21  22
ENDBRANCH  20  21
ENDBRANCH  19  20
ENDBRANCH  18  19
ENDBRANCH  17  18
ENDBRANCH   1  17
TORSDOF 26
ENDMDL
MODEL 8
REMARK VINA RESULT:    -3.830      3.071      6.391
REMARK INTER + INTRA:         -14.919
REMARK INTER:                  -9.690
REMARK INTRA:                  -5.229
REMARK UNBOUND:                -5.268
REMARK SMILES CCCCCCCCCCCCCCCCCCCCCCCCCCCC(=O)[O-]
REMARK SMILES IDX 15 1 16 2 17 3 18 4 19 5 20 6 21 7 22 8 23 9 24 10 25 11
REMARK SMILES IDX 26 12 27 13 28 14 29 15 30 16 14 17 13 18 12 19 11 20 10 21
REMARK SMILES IDX 9 22 8 23 7 24 6 25 5 26 4 27 3 28 2 29 1 30
REMARK H PARENT
REMARK Flexibility Score: inf
ROOT
ATOM      1  C   UNL     1      57.931  33.104  78.727  1.00  0.00     0.000 C 
ENDROOT
BRANCH   1   2
ATOM      2  C   UNL     1      58.771  32.400  77.645  1.00  0.00     0.000 C 
BRANCH   2   3
ATOM      3  C   UNL     1      57.994  31.289  76.920  1.00  0.00     0.000 C 
BRANCH   3   4
ATOM      4  C   UNL     1      57.551  31.701  75.507  1.00  0.00     0.000 C 
BRANCH   4   5
ATOM      5  C   UNL     1      56.844  30.565  74.749  1.00  0.00     0.000 C 
BRANCH   5   6
ATOM      6  C   UNL     1      56.275  31.066  73.413  1.00  0.00     0.000 C 
BRANCH   6   7
ATOM      7  C   UNL     1      56.691  32.510  73.092  1.00  0.00     0.000 C 
BRANCH   7   8
ATOM      8  C   UNL     1      57.486  32.622  71.782  1.00  0.00     0.000 C 
BRANCH   8   9
ATOM      9  C   UNL     1      58.674  33.584  71.943  1.00  0.00     0.000 C 
BRANCH   9  10
ATOM     10  C   UNL     1      60.007  32.851  72.168  1.00  0.00     0.000 C 
BRANCH  10  11
ATOM     11  C   UNL     1      60.365  32.601  73.646  1.00  0.00     0.000 C 
BRANCH  11  12
ATOM     12  C   UNL     1      61.335  31.420  73.858  1.00  0.00     0.006 C 
BRANCH  12  13
ATOM     13  C   UNL     1      60.670  30.239  74.577  1.00  0.00     0.053 C 
BRANCH  13  14
ATOM     14  C   UNL     1      61.325  29.997  75.900  1.00  0.00     0.041 C 
ATOM     15  O   UNL     1      61.845  30.952  76.533  1.00  0.00    -0.550 OA
ATOM     16  O   UNL     1      61.317  28.724  76.456  1.00  0.00    -0.550 OA
ENDBRANCH  13  14
ENDBRANCH  12  13
ENDBRANCH  11  12
ENDBRANCH  10  11
ENDBRANCH   9  10
ENDBRANCH   8   9
ENDBRANCH   7   8
ENDBRANCH   6   7
ENDBRANCH   5   6
ENDBRANCH   4   5
ENDBRANCH   3   4
ENDBRANCH   2   3
ENDBRANCH   1   2
BRANCH   1  17
ATOM     17  C   UNL     1      58.747  33.885  79.774  1.00  0.00     0.000 C 
BRANCH  17  18
ATOM     18  C   UNL     1      59.056  35.325  79.336  1.00  0.00     0.000 C 
BRANCH  18  19
ATOM     19  C   UNL     1      57.992  36.299  79.856  1.00  0.00     0.000 C 
BRANCH  19  20
ATOM     20  C   UNL     1      58.338  37.746  79.471  1.00  0.00     0.000 C 
BRANCH  20  21
ATOM     21  C   UNL     1      58.624  37.905  77.969  1.00  0.00     0.000 C 
BRANCH  21  22
ATOM     22  C   UNL     1      57.528  38.699  77.236  1.00  0.00    -0.000 C 
BRANCH  22  23
ATOM     23  C   UNL     1      56.802  37.851  76.170  1.00  0.00    -0.000 C 
BRANCH  23  24
ATOM     24  C   UNL     1      56.057  36.635  76.745  1.00  0.00    -0.000 C 
BRANCH  24  25
ATOM     25  C   UNL     1      56.659  35.296  76.287  1.00  0.00    -0.000 C 
BRANCH  25  26
ATOM     26  C   UNL     1      57.488  35.421  74.998  1.00  0.00    -0.000 C 
BRANCH  26  27
ATOM     27  C   UNL     1      59.016  35.439  75.201  1.00  0.00    -0.000 C 
BRANCH  27  28
ATOM     28  C   UNL     1      59.763  36.392  74.243  1.00  0.00    -0.000 C 
BRANCH  28  29
ATOM     29  C   UNL     1      61.207  36.656  74.696  1.00  0.00    -0.003 C 
ATOM     30  C   UNL     1      62.202  35.861  73.855  1.00  0.00     0.004 C 
ENDBRANCH  28  29
ENDBRANCH  27  28
ENDBRANCH  26  27
ENDBRANCH  25  26
ENDBRANCH  24  25
ENDBRANCH  23  24
ENDBRANCH  22  23
ENDBRANCH  21  22
ENDBRANCH  20  21
ENDBRANCH  19  20
ENDBRANCH  18  19
ENDBRANCH  17  18
ENDBRANCH   1  17
TORSDOF 26
ENDMDL
MODEL 9
REMARK VINA RESULT:    -3.786      2.902      5.563
REMARK INTER + INTRA:         -14.808
REMARK INTER:                 -11.528
REMARK INTRA:                  -3.281
REMARK UNBOUND:                -5.268
REMARK SMILES CCCCCCCCCCCCCCCCCCCCCCCCCCCC(=O)[O-]
REMARK SMILES IDX 15 1 16 2 17 3 18 4 19 5 20 6 21 7 22 8 23 9 24 10 25 11
REMARK SMILES IDX 26 12 27 13 28 14 29 15 30 16 14 17 13 18 12 19 11 20 10 21
REMARK SMILES IDX 9 22 8 23 7 24 6 25 5 26 4 27 3 28 2 29 1 30
REMARK H PARENT
REMARK Flexibility Score: inf
ROOT
ATOM      1  C   UNL     1      57.620  34.296  77.229  1.00  0.00     0.000 C 
ENDROOT
BRANCH   1   2
ATOM      2  C   UNL     1      57.968  33.105  78.141  1.00  0.00     0.000 C 
BRANCH   2   3
ATOM      3  C   UNL     1      58.766  33.525  79.387  1.00  0.00     0.000 C 
BRANCH   3   4
ATOM      4  C   UNL     1      59.056  35.034  79.424  1.00  0.00     0.000 C 
BRANCH   4   5
ATOM      5  C   UNL     1      58.636  35.690  80.750  1.00  0.00     0.000 C 
BRANCH   5   6
ATOM      6  C   UNL     1      58.159  37.133  80.524  1.00  0.00     0.000 C 
BRANCH   6   7
ATOM      7  C   UNL     1      56.684  37.212  80.101  1.00  0.00     0.000 C 
BRANCH   7   8
ATOM      8  C   UNL     1      56.511  37.482  78.598  1.00  0.00     0.000 C 
BRANCH   8   9
ATOM      9  C   UNL     1      57.739  38.210  78.027  1.00  0.00     0.000 C 
BRANCH   9  10
ATOM     10  C   UNL     1      57.515  38.722  76.595  1.00  0.00     0.000 C 
BRANCH  10  11
ATOM     11  C   UNL     1      56.775  37.739  75.666  1.00  0.00     0.000 C 
BRANCH  11  12
ATOM     12  C   UNL     1      56.989  38.024  74.165  1.00  0.00     0.006 C 
BRANCH  12  13
ATOM     13  C   UNL     1      56.944  36.746  73.316  1.00  0.00     0.053 C 
BRANCH  13  14
ATOM     14  C   UNL     1      55.528  36.308  73.107  1.00  0.00     0.041 C 
ATOM     15  O   UNL     1      55.197  35.114  73.321  1.00  0.00    -0.550 OA
ATOM     16  O   UNL     1      54.566  37.233  72.722  1.00  0.00    -0.550 OA
ENDBRANCH  13  14
ENDBRANCH  12  13
ENDBRANCH  11  12
ENDBRANCH  10  11
ENDBRANCH   9  10
ENDBRANCH   8   9
ENDBRANCH   7   8
ENDBRANCH   6   7
ENDBRANCH   5   6
ENDBRANCH   4   5
ENDBRANCH   3   4
ENDBRANCH   2   3
ENDBRANCH   1   2
BRANCH   1  17
ATOM     17  C   UNL     1      57.594  33.971  75.724  1.00  0.00     0.000 C 
BRANCH  17  18
ATOM     18  C   UNL     1      58.771  33.088  75.284  1.00  0.00     0.000 C 
BRANCH  18  19
ATOM     19  C   UNL     1      58.430  32.311  74.006  1.00  0.00     0.000 C 
BRANCH  19  20
ATOM     20  C   UNL     1      56.924  32.016  73.928  1.00  0.00     0.000 C 
BRANCH  20  21
ATOM     21  C   UNL     1      56.606  30.519  74.073  1.00  0.00     0.000 C 
BRANCH  21  22
ATOM     22  C   UNL     1      56.946  29.973  75.471  1.00  0.00    -0.000 C 
BRANCH  22  23
ATOM     23  C   UNL     1      58.135  28.990  75.445  1.00  0.00    -0.000 C 
BRANCH  23  24
ATOM     24  C   UNL     1      59.371  29.488  76.212  1.00  0.00    -0.000 C 
BRANCH  24  25
ATOM     25  C   UNL     1      60.689  28.930  75.647  1.00  0.00    -0.000 C 
BRANCH  25  26
ATOM     26  C   UNL     1      61.878  29.114  76.605  1.00  0.00    -0.000 C 
BRANCH  26  27
ATOM     27  C   UNL     1      62.434  27.814  77.218  1.00  0.00    -0.000 C 
BRANCH  27  28
ATOM     28  C   UNL     1      61.419  27.055  78.099  1.00  0.00    -0.000 C 
BRANCH  28  29
ATOM     29  C   UNL     1      62.103  26.056  79.045  1.00  0.00    -0.003 C 
ATOM     30  C   UNL     1      62.464  26.716  80.373  1.00  0.00     0.004 C 
ENDBRANCH  28  29
ENDBRANCH  27  28
ENDBRANCH  26  27
ENDBRANCH  25  26
ENDBRANCH  24  25
ENDBRANCH  23  24
ENDBRANCH  22  23
ENDBRANCH  21  22
ENDBRANCH  20  21
ENDBRANCH  19  20
ENDBRANCH  18  19
ENDBRANCH  17  18
ENDBRANCH   1  17
TORSDOF 26
ENDMDL
