MODEL 1
REMARK VINA RESULT:    62.927      0.000      0.000
REMARK INTER + INTRA:          96.344
REMARK INTER:                  92.357
REMARK INTRA:                   3.987
REMARK UNBOUND:                 3.987
REMARK SMILES O=c1c(O[C@H]2O[C@@H](CO)[C@@H](O)[C@@H](O)[C@H]2O)c(-c2ccc(O)c(O)c2)oc2cc(O)cc(O)c12
REMARK SMILES IDX 4 1 3 2 16 3 25 4 2 5 26 6 1 7 33 8 27 9 31 10 28 11 30 12
REMARK SMILES IDX 17 13 18 14 19 15 20 16 24 17 22 18 21 19 23 21 32 23 29 25
REMARK SMILES IDX 5 27 14 28 6 29 12 30 7 31 10 32 15 33 13 35 8 37 9 38 11 40
REMARK H PARENT 21 20 23 22 32 24 29 26 15 34 13 36 9 39 11 41
REMARK Flexibility Score: inf
ROOT
ATOM      1  O   UNL     1      -0.637  -1.796   1.717  1.00  0.00    -0.454 OA
ENDROOT
BRANCH   1   2
ATOM      2  C   UNL     1      -1.044  -0.447   1.664  1.00  0.00     0.214 A 
ATOM      3  C   UNL     1      -0.047   0.541   1.536  1.00  0.00     0.180 A 
ATOM      4  O   UNL     1      -0.371   1.829   1.542  1.00  0.00    -0.452 OA
ATOM      5  C   UNL     1      -2.391  -0.025   1.767  1.00  0.00     0.239 A 
ATOM      6  C   UNL     1      -1.619   2.265   1.639  1.00  0.00     0.146 A 
ATOM      7  O   UNL     1      -3.318  -0.869   1.886  1.00  0.00    -0.285 OA
ATOM      8  C   UNL     1      -2.694   1.354   1.748  1.00  0.00     0.111 A 
ATOM      9  C   UNL     1      -1.859   3.643   1.628  1.00  0.00     0.094 A 
ATOM     10  C   UNL     1      -4.016   1.859   1.842  1.00  0.00     0.134 A 
ATOM     11  C   UNL     1      -3.165   4.134   1.723  1.00  0.00     0.123 A 
ATOM     12  C   UNL     1      -4.236   3.244   1.827  1.00  0.00     0.093 A 
BRANCH   3  13
ATOM     13  C   UNL     1       1.386   0.188   1.412  1.00  0.00     0.025 A 
ATOM     14  C   UNL     1       2.087  -0.266   2.537  1.00  0.00     0.016 A 
ATOM     15  C   UNL     1       3.439  -0.597   2.440  1.00  0.00     0.051 A 
ATOM     16  C   UNL     1       4.121  -0.469   1.224  1.00  0.00     0.157 A 
ATOM     17  C   UNL     1       2.073   0.347   0.197  1.00  0.00     0.062 A 
ATOM     18  C   UNL     1       3.430   0.018   0.089  1.00  0.00     0.158 A 
BRANCH  16  19
ATOM     19  O   UNL     1       5.469  -0.830   1.190  1.00  0.00    -0.504 OA
ATOM     20  H   UNL     1       5.879  -1.412   0.474  1.00  0.00     0.293 HD
ENDBRANCH  16  19
BRANCH  18  21
ATOM     21  O   UNL     1       4.047   0.193  -1.152  1.00  0.00    -0.504 OA
ATOM     22  H   UNL     1       4.259  -0.561  -1.788  1.00  0.00     0.293 HD
ENDBRANCH  18  21
ENDBRANCH   3  13
BRANCH  10  23
ATOM     23  O   UNL     1      -5.108   0.997   1.947  1.00  0.00    -0.507 OA
ATOM     24  H   UNL     1      -5.501   0.742   2.846  1.00  0.00     0.293 HD
ENDBRANCH  10  23
BRANCH  11  25
ATOM     25  O   UNL     1      -3.410   5.505   1.713  1.00  0.00    -0.508 OA
ATOM     26  H   UNL     1      -3.073   6.108   2.455  1.00  0.00     0.293 HD
ENDBRANCH  11  25
ENDBRANCH   1   2
BRANCH   1  27
ATOM     27  C   UNL     1      -0.700  -2.767   0.673  1.00  0.00     0.339 C 
ATOM     28  C   UNL     1       0.748  -3.123   0.210  1.00  0.00     0.214 C 
ATOM     29  O   UNL     1      -1.508  -2.250  -0.379  1.00  0.00    -0.332 OA
ATOM     30  C   UNL     1       1.104  -2.431  -1.119  1.00  0.00     0.180 C 
ATOM     31  C   UNL     1      -1.354  -3.011  -1.561  1.00  0.00     0.179 C 
ATOM     32  C   UNL     1       0.031  -2.720  -2.207  1.00  0.00     0.177 C 
BRANCH  28  33
ATOM     33  O   UNL     1       1.700  -2.791   1.188  1.00  0.00    -0.384 OA
ATOM     34  H   UNL     1       1.274  -2.119   1.782  1.00  0.00     0.211 HD
ENDBRANCH  28  33
BRANCH  30  35
ATOM     35  O   UNL     1       1.302  -1.049  -0.927  1.00  0.00    -0.387 OA
ATOM     36  H   UNL     1       0.567  -0.564  -1.381  1.00  0.00     0.211 HD
ENDBRANCH  30  35
BRANCH  31  37
ATOM     37  C   UNL     1      -2.535  -2.738  -2.503  1.00  0.00     0.191 C 
BRANCH  37  38
ATOM     38  O   UNL     1      -2.398  -1.484  -3.116  1.00  0.00    -0.394 OA
ATOM     39  H   UNL     1      -2.715  -0.817  -2.454  1.00  0.00     0.210 HD
ENDBRANCH  37  38
ENDBRANCH  31  37
BRANCH  32  40
ATOM     40  O   UNL     1      -0.042  -1.649  -3.115  1.00  0.00    -0.387 OA
ATOM     41  H   UNL     1       0.307  -0.848  -2.641  1.00  0.00     0.211 HD
ENDBRANCH  32  40
ENDBRANCH   1  27
TORSDOF 12
ENDMDL
