MODEL 1
REMARK VINA RESULT:    -4.173      0.000      0.000
REMARK INTER + INTRA:          -4.295
REMARK INTER:                  -4.295
REMARK INTRA:                   0.000
REMARK UNBOUND:                 0.000
REMARK SMILES O=c1ccc2ccc(O)cc2o1
REMARK SMILES IDX 6 1 7 2 8 3 10 4 11 5 5 6 4 7 3 8 2 9 1 10 12 11 9 12
REMARK H PARENT 9 13
REMARK Flexibility Score: inf
ROOT
ATOM      1  C   UNL     1      13.105   4.556  -1.195  1.00  0.00     0.016 A 
ATOM      2  C   UNL     1      11.801   4.692  -1.682  1.00  0.00     0.047 A 
ATOM      3  C   UNL     1      11.307   3.798  -2.640  1.00  0.00     0.119 A 
ATOM      4  C   UNL     1      12.122   2.760  -3.115  1.00  0.00     0.094 A 
ATOM      5  C   UNL     1      13.428   2.616  -2.633  1.00  0.00     0.142 A 
ATOM      6  C   UNL     1      13.923   3.520  -1.667  1.00  0.00     0.018 A 
ATOM      7  C   UNL     1      15.232   3.351  -1.204  1.00  0.00     0.019 A 
ATOM      8  C   UNL     1      16.005   2.304  -1.705  1.00  0.00     0.094 A 
ATOM      9  C   UNL     1      15.448   1.448  -2.661  1.00  0.00     0.336 A 
ATOM     10  O   UNL     1      16.130   0.497  -3.125  1.00  0.00    -0.246 OA
ATOM     11  O   UNL     1      14.200   1.631  -3.085  1.00  0.00    -0.423 OA
ENDROOT
BRANCH   3  12
ATOM     12  O   UNL     1      10.005   3.950  -3.114  1.00  0.00    -0.508 OA
ATOM     13  H   UNL     1       9.757   3.709  -4.066  1.00  0.00     0.293 HD
ENDBRANCH   3  12
TORSDOF 1
ENDMDL
MODEL 2
REMARK VINA RESULT:    -4.088      0.800      4.256
REMARK INTER + INTRA:          -4.207
REMARK INTER:                  -4.207
REMARK INTRA:                   0.000
REMARK UNBOUND:                 0.000
REMARK SMILES O=c1ccc2ccc(O)cc2o1
REMARK SMILES IDX 6 1 7 2 8 3 10 4 11 5 5 6 4 7 3 8 2 9 1 10 12 11 9 12
REMARK H PARENT 9 13
REMARK Flexibility Score: inf
ROOT
ATOM      1  C   UNL     1      14.771   3.505  -1.041  1.00  0.00     0.016 A 
ATOM      2  C   UNL     1      15.470   2.415  -1.570  1.00  0.00     0.047 A 
ATOM      3  C   UNL     1      14.915   1.654  -2.607  1.00  0.00     0.119 A 
ATOM      4  C   UNL     1      13.652   1.987  -3.119  1.00  0.00     0.094 A 
ATOM      5  C   UNL     1      12.946   3.075  -2.596  1.00  0.00     0.142 A 
ATOM      6  C   UNL     1      13.509   3.840  -1.550  1.00  0.00     0.018 A 
ATOM      7  C   UNL     1      12.780   4.923  -1.048  1.00  0.00     0.019 A 
ATOM      8  C   UNL     1      11.529   5.215  -1.589  1.00  0.00     0.094 A 
ATOM      9  C   UNL     1      11.033   4.413  -2.623  1.00  0.00     0.336 A 
ATOM     10  O   UNL     1       9.905   4.661  -3.124  1.00  0.00    -0.246 OA
ATOM     11  O   UNL     1      11.747   3.389  -3.083  1.00  0.00    -0.423 OA
ENDROOT
BRANCH   3  12
ATOM     12  O   UNL     1      15.625   0.572  -3.121  1.00  0.00    -0.508 OA
ATOM     13  H   UNL     1      15.245  -0.367  -3.106  1.00  0.00     0.293 HD
ENDBRANCH   3  12
TORSDOF 1
ENDMDL
MODEL 3
REMARK VINA RESULT:    -4.088      1.754      2.509
REMARK INTER + INTRA:          -4.207
REMARK INTER:                  -4.207
REMARK INTRA:                   0.000
REMARK UNBOUND:                 0.000
REMARK SMILES O=c1ccc2ccc(O)cc2o1
REMARK SMILES IDX 6 1 7 2 8 3 10 4 11 5 5 6 4 7 3 8 2 9 1 10 12 11 9 12
REMARK H PARENT 9 13
REMARK Flexibility Score: inf
ROOT
ATOM      1  C   UNL     1      11.238   3.648  -2.867  1.00  0.00     0.016 A 
ATOM      2  C   UNL     1      10.519   4.650  -2.208  1.00  0.00     0.047 A 
ATOM      3  C   UNL     1      11.113   5.383  -1.173  1.00  0.00     0.119 A 
ATOM      4  C   UNL     1      12.436   5.111  -0.793  1.00  0.00     0.094 A 
ATOM      5  C   UNL     1      13.162   4.110  -1.446  1.00  0.00     0.142 A 
ATOM      6  C   UNL     1      12.560   3.373  -2.490  1.00  0.00     0.018 A 
ATOM      7  C   UNL     1      13.311   2.379  -3.125  1.00  0.00     0.019 A 
ATOM      8  C   UNL     1      14.623   2.144  -2.713  1.00  0.00     0.094 A 
ATOM      9  C   UNL     1      15.154   2.913  -1.671  1.00  0.00     0.336 A 
ATOM     10  O   UNL     1      16.335   2.716  -1.285  1.00  0.00    -0.246 OA
ATOM     11  O   UNL     1      14.418   3.853  -1.084  1.00  0.00    -0.423 OA
ENDROOT
BRANCH   3  12
ATOM     12  O   UNL     1      10.381   6.378  -0.528  1.00  0.00    -0.508 OA
ATOM     13  H   UNL     1      10.703   7.338  -0.500  1.00  0.00     0.293 HD
ENDBRANCH   3  12
TORSDOF 1
ENDMDL
MODEL 4
REMARK VINA RESULT:    -4.035      1.853      4.841
REMARK INTER + INTRA:          -4.153
REMARK INTER:                  -4.153
REMARK INTRA:                   0.000
REMARK UNBOUND:                 0.000
REMARK SMILES O=c1ccc2ccc(O)cc2o1
REMARK SMILES IDX 6 1 7 2 8 3 10 4 11 5 5 6 4 7 3 8 2 9 1 10 12 11 9 12
REMARK H PARENT 9 13
REMARK Flexibility Score: inf
ROOT
ATOM      1  C   UNL     1      13.686   2.362  -3.125  1.00  0.00     0.016 A 
ATOM      2  C   UNL     1      14.988   2.035  -2.732  1.00  0.00     0.047 A 
ATOM      3  C   UNL     1      15.563   2.645  -1.611  1.00  0.00     0.119 A 
ATOM      4  C   UNL     1      14.831   3.591  -0.876  1.00  0.00     0.094 A 
ATOM      5  C   UNL     1      13.529   3.925  -1.262  1.00  0.00     0.142 A 
ATOM      6  C   UNL     1      12.952   3.307  -2.394  1.00  0.00     0.018 A 
ATOM      7  C   UNL     1      11.648   3.661  -2.756  1.00  0.00     0.019 A 
ATOM      8  C   UNL     1      10.960   4.605  -1.995  1.00  0.00     0.094 A 
ATOM      9  C   UNL     1      11.595   5.177  -0.887  1.00  0.00     0.336 A 
ATOM     10  O   UNL     1      10.990   6.031  -0.188  1.00  0.00    -0.246 OA
ATOM     11  O   UNL     1      12.837   4.823  -0.564  1.00  0.00    -0.423 OA
ENDROOT
BRANCH   3  12
ATOM     12  O   UNL     1      16.861   2.306  -1.235  1.00  0.00    -0.508 OA
ATOM     13  H   UNL     1      17.131   2.246  -0.260  1.00  0.00     0.293 HD
ENDBRANCH   3  12
TORSDOF 1
ENDMDL
MODEL 5
REMARK VINA RESULT:    -3.968      1.040      1.189
REMARK INTER + INTRA:          -4.084
REMARK INTER:                  -4.084
REMARK INTRA:                   0.000
REMARK UNBOUND:                 0.000
REMARK SMILES O=c1ccc2ccc(O)cc2o1
REMARK SMILES IDX 6 1 7 2 8 3 10 4 11 5 5 6 4 7 3 8 2 9 1 10 12 11 9 12
REMARK H PARENT 9 13
REMARK Flexibility Score: inf
ROOT
ATOM      1  C   UNL     1      12.130   4.999  -0.579  1.00  0.00     0.016 A 
ATOM      2  C   UNL     1      10.850   5.176  -1.115  1.00  0.00     0.047 A 
ATOM      3  C   UNL     1      10.469   4.491  -2.276  1.00  0.00     0.119 A 
ATOM      4  C   UNL     1      11.374   3.623  -2.905  1.00  0.00     0.094 A 
ATOM      5  C   UNL     1      12.656   3.441  -2.376  1.00  0.00     0.142 A 
ATOM      6  C   UNL     1      13.037   4.134  -1.206  1.00  0.00     0.018 A 
ATOM      7  C   UNL     1      14.325   3.931  -0.700  1.00  0.00     0.019 A 
ATOM      8  C   UNL     1      15.190   3.059  -1.360  1.00  0.00     0.094 A 
ATOM      9  C   UNL     1      14.744   2.407  -2.516  1.00  0.00     0.336 A 
ATOM     10  O   UNL     1      15.510   1.616  -3.125  1.00  0.00    -0.246 OA
ATOM     11  O   UNL     1      13.513   2.618  -2.976  1.00  0.00    -0.423 OA
ENDROOT
BRANCH   3  12
ATOM     12  O   UNL     1       9.190   4.680  -2.795  1.00  0.00    -0.508 OA
ATOM     13  H   UNL     1       8.689   3.928  -3.254  1.00  0.00     0.293 HD
ENDBRANCH   3  12
TORSDOF 1
ENDMDL
MODEL 6
REMARK VINA RESULT:    -3.771      1.181      4.789
REMARK INTER + INTRA:          -3.881
REMARK INTER:                  -3.881
REMARK INTRA:                   0.000
REMARK UNBOUND:                 0.000
REMARK SMILES O=c1ccc2ccc(O)cc2o1
REMARK SMILES IDX 6 1 7 2 8 3 10 4 11 5 5 6 4 7 3 8 2 9 1 10 12 11 9 12
REMARK H PARENT 9 13
REMARK Flexibility Score: inf
ROOT
ATOM      1  C   UNL     1      13.265   4.532  -1.143  1.00  0.00     0.016 A 
ATOM      2  C   UNL     1      14.053   3.492  -1.647  1.00  0.00     0.047 A 
ATOM      3  C   UNL     1      13.548   2.637  -2.635  1.00  0.00     0.119 A 
ATOM      4  C   UNL     1      12.245   2.823  -3.122  1.00  0.00     0.094 A 
ATOM      5  C   UNL     1      11.450   3.860  -2.623  1.00  0.00     0.142 A 
ATOM      6  C   UNL     1      11.963   4.720  -1.626  1.00  0.00     0.018 A 
ATOM      7  C   UNL     1      11.145   5.749  -1.147  1.00  0.00     0.019 A 
ATOM      8  C   UNL     1       9.857   5.894  -1.661  1.00  0.00     0.094 A 
ATOM      9  C   UNL     1       9.415   5.003  -2.646  1.00  0.00     0.336 A 
ATOM     10  O   UNL     1       8.256   5.119  -3.123  1.00  0.00    -0.246 OA
ATOM     11  O   UNL     1      10.214   4.034  -3.085  1.00  0.00    -0.423 OA
ENDROOT
BRANCH   3  12
ATOM     12  O   UNL     1      14.348   1.607  -3.125  1.00  0.00    -0.508 OA
ATOM     13  H   UNL     1      15.246   1.391  -2.710  1.00  0.00     0.293 HD
ENDBRANCH   3  12
TORSDOF 1
ENDMDL
MODEL 7
REMARK VINA RESULT:    -3.634      2.249      5.633
REMARK INTER + INTRA:          -3.740
REMARK INTER:                  -3.740
REMARK INTRA:                   0.000
REMARK UNBOUND:                 0.000
REMARK SMILES O=c1ccc2ccc(O)cc2o1
REMARK SMILES IDX 6 1 7 2 8 3 10 4 11 5 5 6 4 7 3 8 2 9 1 10 12 11 9 12
REMARK H PARENT 9 13
REMARK Flexibility Score: inf
ROOT
ATOM      1  C   UNL     1      11.524   3.266  -3.115  1.00  0.00     0.016 A 
ATOM      2  C   UNL     1      12.854   3.040  -2.746  1.00  0.00     0.047 A 
ATOM      3  C   UNL     1      13.507   3.922  -1.876  1.00  0.00     0.119 A 
ATOM      4  C   UNL     1      12.825   5.039  -1.371  1.00  0.00     0.094 A 
ATOM      5  C   UNL     1      11.495   5.274  -1.736  1.00  0.00     0.142 A 
ATOM      6  C   UNL     1      10.841   4.381  -2.614  1.00  0.00     0.018 A 
ATOM      7  C   UNL     1       9.510   4.642  -2.960  1.00  0.00     0.019 A 
ATOM      8  C   UNL     1       8.874   5.765  -2.433  1.00  0.00     0.094 A 
ATOM      9  C   UNL     1       9.586   6.606  -1.570  1.00  0.00     0.336 A 
ATOM     10  O   UNL     1       9.028   7.624  -1.084  1.00  0.00    -0.246 OA
ATOM     11  O   UNL     1      10.850   6.335  -1.256  1.00  0.00    -0.423 OA
ENDROOT
BRANCH   3  12
ATOM     12  O   UNL     1      14.832   3.679  -1.520  1.00  0.00    -0.508 OA
ATOM     13  H   UNL     1      15.249   4.112  -0.704  1.00  0.00     0.293 HD
ENDBRANCH   3  12
TORSDOF 1
ENDMDL
MODEL 8
REMARK VINA RESULT:    -3.421      2.596      4.082
REMARK INTER + INTRA:          -3.521
REMARK INTER:                  -3.521
REMARK INTRA:                   0.000
REMARK UNBOUND:                 0.000
REMARK SMILES O=c1ccc2ccc(O)cc2o1
REMARK SMILES IDX 6 1 7 2 8 3 10 4 11 5 5 6 4 7 3 8 2 9 1 10 12 11 9 12
REMARK H PARENT 9 13
REMARK Flexibility Score: inf
ROOT
ATOM      1  C   UNL     1       9.316   5.068  -2.970  1.00  0.00     0.016 A 
ATOM      2  C   UNL     1       8.677   6.162  -2.378  1.00  0.00     0.047 A 
ATOM      3  C   UNL     1       9.312   6.888  -1.362  1.00  0.00     0.119 A 
ATOM      4  C   UNL     1      10.596   6.517  -0.935  1.00  0.00     0.094 A 
ATOM      5  C   UNL     1      11.242   5.423  -1.521  1.00  0.00     0.142 A 
ATOM      6  C   UNL     1      10.598   4.694  -2.545  1.00  0.00     0.018 A 
ATOM      7  C   UNL     1      11.270   3.605  -3.112  1.00  0.00     0.019 A 
ATOM      8  C   UNL     1      12.544   3.274  -2.655  1.00  0.00     0.094 A 
ATOM      9  C   UNL     1      13.120   4.042  -1.636  1.00  0.00     0.336 A 
ATOM     10  O   UNL     1      14.270   3.758  -1.210  1.00  0.00    -0.246 OA
ATOM     11  O   UNL     1      12.460   5.072  -1.114  1.00  0.00    -0.423 OA
ENDROOT
BRANCH   3  12
ATOM     12  O   UNL     1       8.660   7.975  -0.785  1.00  0.00    -0.508 OA
ATOM     13  H   UNL     1       9.175   8.740  -0.366  1.00  0.00     0.293 HD
ENDBRANCH   3  12
TORSDOF 1
ENDMDL
