MODEL 1
REMARK VINA RESULT:    -5.398      0.000      0.000
REMARK INTER + INTRA:          -9.255
REMARK INTER:                  -7.449
REMARK INTRA:                  -1.806
REMARK UNBOUND:                -1.806
REMARK SMILES CC[C@H](CC[C@@H](C)[C@@H]1CC[C@@H]2[C@H]3CC=C4C[C@@H](O)CC[C@]4(C)[C@@H]3CC[C@@]21C)C(C)C
REMARK SMILES IDX 5 1 4 2 3 3 2 4 1 5 28 6 29 7 30 8 6 9 7 10 8 11 9 12 26 13
REMARK SMILES IDX 10 14 11 15 25 16 27 17 12 18 24 19 23 20 13 21 21 22 14 23
REMARK SMILES IDX 15 24 20 25 22 26 16 27 19 28 17 29 18 30
REMARK H PARENT 18 31
REMARK Flexibility Score: inf
ROOT
ATOM      1  C   UNL     1      18.395  -3.697 -37.671  1.00  0.00     0.004 C 
ENDROOT
BRANCH   1   2
ATOM      2  C   UNL     1      17.233  -4.480 -37.013  1.00  0.00     0.004 C 
BRANCH   2   3
ATOM      3  C   UNL     1      17.404  -6.022 -37.127  1.00  0.00    -0.009 C 
BRANCH   3   4
ATOM      4  C   UNL     1      17.501  -6.676 -35.719  1.00  0.00     0.000 C 
ATOM      5  C   UNL     1      16.732  -5.902 -34.646  1.00  0.00     0.004 C 
ENDBRANCH   3   4
BRANCH   3   6
ATOM      6  C   UNL     1      16.265  -6.661 -37.996  1.00  0.00    -0.014 C 
ATOM      7  C   UNL     1      16.097  -5.922 -39.332  1.00  0.00     0.007 C 
ATOM      8  C   UNL     1      16.438  -8.171 -38.247  1.00  0.00     0.007 C 
ENDBRANCH   3   6
ENDBRANCH   2   3
ENDBRANCH   1   2
BRANCH   1   9
ATOM      9  C   UNL     1      19.221  -2.830 -36.682  1.00  0.00    -0.011 C 
ATOM     10  C   UNL     1      18.644  -1.394 -36.630  1.00  0.00     0.008 C 
BRANCH   9  11
ATOM     11  C   UNL     1      19.447  -3.568 -35.303  1.00  0.00    -0.002 C 
ATOM     12  C   UNL     1      19.129  -2.787 -34.025  1.00  0.00     0.005 C 
ATOM     13  C   UNL     1      20.839  -4.216 -35.033  1.00  0.00    -0.026 C 
ATOM     14  C   UNL     1      19.845  -3.536 -32.896  1.00  0.00     0.005 C 
ATOM     15  C   UNL     1      20.682  -4.654 -33.551  1.00  0.00    -0.001 C 
ATOM     16  C   UNL     1      22.013  -3.190 -35.219  1.00  0.00     0.007 C 
ATOM     17  C   UNL     1      21.031  -5.450 -35.956  1.00  0.00     0.012 C 
ATOM     18  C   UNL     1      21.996  -4.977 -32.759  1.00  0.00     0.000 C 
ATOM     19  C   UNL     1      23.103  -3.194 -34.130  1.00  0.00     0.005 C 
ATOM     20  C   UNL     1      23.289  -4.578 -33.497  1.00  0.00     0.003 C 
ATOM     21  C   UNL     1      22.109  -6.465 -32.405  1.00  0.00     0.031 C 
ATOM     22  C   UNL     1      24.563  -4.722 -32.569  1.00  0.00    -0.008 C 
ATOM     23  C   UNL     1      23.328  -6.708 -31.564  1.00  0.00    -0.027 C 
ATOM     24  C   UNL     1      24.448  -5.952 -31.646  1.00  0.00    -0.065 C 
ATOM     25  C   UNL     1      24.756  -3.467 -31.657  1.00  0.00     0.014 C 
ATOM     26  C   UNL     1      25.805  -4.905 -33.484  1.00  0.00     0.016 C 
ATOM     27  C   UNL     1      25.543  -6.159 -30.620  1.00  0.00     0.063 C 
ATOM     28  C   UNL     1      25.864  -3.633 -30.597  1.00  0.00     0.033 C 
ATOM     29  C   UNL     1      25.659  -4.901 -29.745  1.00  0.00     0.118 C 
BRANCH  29  30
ATOM     30  O   UNL     1      26.698  -5.048 -28.810  1.00  0.00    -0.393 OA
ATOM     31  H   UNL     1      26.917  -4.144 -28.458  1.00  0.00     0.210 HD
ENDBRANCH  29  30
ENDBRANCH   9  11
ENDBRANCH   1   9
TORSDOF 7
ENDMDL
MODEL 2
REMARK VINA RESULT:    -5.142      3.158      8.333
REMARK INTER + INTRA:          -8.901
REMARK INTER:                  -6.844
REMARK INTRA:                  -2.057
REMARK UNBOUND:                -1.806
REMARK SMILES CC[C@H](CC[C@@H](C)[C@@H]1CC[C@@H]2[C@H]3CC=C4C[C@@H](O)CC[C@]4(C)[C@@H]3CC[C@@]21C)C(C)C
REMARK SMILES IDX 5 1 4 2 3 3 2 4 1 5 28 6 29 7 30 8 6 9 7 10 8 11 9 12 26 13
REMARK SMILES IDX 10 14 11 15 25 16 27 17 12 18 24 19 23 20 13 21 21 22 14 23
REMARK SMILES IDX 15 24 20 25 22 26 16 27 19 28 17 29 18 30
REMARK H PARENT 18 31
REMARK Flexibility Score: inf
ROOT
ATOM      1  C   UNL     1      25.181  -3.107 -29.191  1.00  0.00     0.004 C 
ENDROOT
BRANCH   1   2
ATOM      2  C   UNL     1      26.192  -4.181 -29.662  1.00  0.00     0.004 C 
BRANCH   2   3
ATOM      3  C   UNL     1      25.693  -5.632 -29.407  1.00  0.00    -0.009 C 
BRANCH   3   4
ATOM      4  C   UNL     1      24.427  -5.633 -28.504  1.00  0.00     0.000 C 
ATOM      5  C   UNL     1      24.633  -6.386 -27.188  1.00  0.00     0.004 C 
ENDBRANCH   3   4
BRANCH   3   6
ATOM      6  C   UNL     1      25.456  -6.399 -30.755  1.00  0.00    -0.014 C 
ATOM      7  C   UNL     1      26.300  -5.806 -31.894  1.00  0.00     0.007 C 
ATOM      8  C   UNL     1      25.691  -7.919 -30.663  1.00  0.00     0.007 C 
ENDBRANCH   3   6
ENDBRANCH   2   3
ENDBRANCH   1   2
BRANCH   1   9
ATOM      9  C   UNL     1      24.668  -2.173 -30.322  1.00  0.00    -0.011 C 
ATOM     10  C   UNL     1      25.505  -0.870 -30.350  1.00  0.00     0.008 C 
BRANCH   9  11
ATOM     11  C   UNL     1      24.493  -2.948 -31.687  1.00  0.00    -0.002 C 
ATOM     12  C   UNL     1      25.197  -2.373 -32.920  1.00  0.00     0.005 C 
ATOM     13  C   UNL     1      23.046  -3.266 -32.174  1.00  0.00    -0.026 C 
ATOM     14  C   UNL     1      24.511  -3.022 -34.126  1.00  0.00     0.005 C 
ATOM     15  C   UNL     1      23.327  -3.850 -33.585  1.00  0.00    -0.001 C 
ATOM     16  C   UNL     1      22.150  -1.978 -32.240  1.00  0.00     0.007 C 
ATOM     17  C   UNL     1      22.406  -4.339 -31.250  1.00  0.00     0.012 C 
ATOM     18  C   UNL     1      22.120  -3.916 -34.584  1.00  0.00     0.000 C 
ATOM     19  C   UNL     1      21.284  -1.814 -33.505  1.00  0.00     0.005 C 
ATOM     20  C   UNL     1      20.865  -3.161 -34.103  1.00  0.00     0.003 C 
ATOM     21  C   UNL     1      21.700  -5.359 -34.891  1.00  0.00     0.031 C 
ATOM     22  C   UNL     1      19.763  -3.075 -35.236  1.00  0.00    -0.008 C 
ATOM     23  C   UNL     1      20.611  -5.374 -35.925  1.00  0.00    -0.027 C 
ATOM     24  C   UNL     1      19.716  -4.368 -36.074  1.00  0.00    -0.065 C 
ATOM     25  C   UNL     1      20.038  -1.890 -36.218  1.00  0.00     0.014 C 
ATOM     26  C   UNL     1      18.384  -2.880 -34.550  1.00  0.00     0.016 C 
ATOM     27  C   UNL     1      18.786  -4.393 -37.268  1.00  0.00     0.063 C 
ATOM     28  C   UNL     1      19.110  -1.874 -37.450  1.00  0.00     0.033 C 
ATOM     29  C   UNL     1      19.130  -3.221 -38.201  1.00  0.00     0.118 C 
BRANCH  29  30
ATOM     30  O   UNL     1      18.252  -3.193 -39.298  1.00  0.00    -0.393 OA
ATOM     31  H   UNL     1      17.576  -3.908 -39.161  1.00  0.00     0.210 HD
ENDBRANCH  29  30
ENDBRANCH   9  11
ENDBRANCH   1   9
TORSDOF 7
ENDMDL
MODEL 3
REMARK VINA RESULT:    -5.140      7.809      9.321
REMARK INTER + INTRA:          -8.898
REMARK INTER:                  -7.605
REMARK INTRA:                  -1.293
REMARK UNBOUND:                -1.806
REMARK SMILES CC[C@H](CC[C@@H](C)[C@@H]1CC[C@@H]2[C@H]3CC=C4C[C@@H](O)CC[C@]4(C)[C@@H]3CC[C@@]21C)C(C)C
REMARK SMILES IDX 5 1 4 2 3 3 2 4 1 5 28 6 29 7 30 8 6 9 7 10 8 11 9 12 26 13
REMARK SMILES IDX 10 14 11 15 25 16 27 17 12 18 24 19 23 20 13 21 21 22 14 23
REMARK SMILES IDX 15 24 20 25 22 26 16 27 19 28 17 29 18 30
REMARK H PARENT 18 31
REMARK Flexibility Score: inf
ROOT
ATOM      1  C   UNL     1      17.180  -0.578 -29.627  1.00  0.00     0.004 C 
ENDROOT
BRANCH   1   2
ATOM      2  C   UNL     1      16.301  -1.222 -28.527  1.00  0.00     0.004 C 
BRANCH   2   3
ATOM      3  C   UNL     1      14.832  -0.711 -28.553  1.00  0.00    -0.009 C 
BRANCH   3   4
ATOM      4  C   UNL     1      14.528   0.036 -29.883  1.00  0.00     0.000 C 
ATOM      5  C   UNL     1      13.388   1.049 -29.752  1.00  0.00     0.004 C 
ENDBRANCH   3   4
BRANCH   3   6
ATOM      6  C   UNL     1      13.818  -1.878 -28.287  1.00  0.00    -0.014 C 
ATOM      7  C   UNL     1      14.533  -3.235 -28.202  1.00  0.00     0.007 C 
ATOM      8  C   UNL     1      12.934  -1.669 -27.043  1.00  0.00     0.007 C 
ENDBRANCH   3   6
ENDBRANCH   2   3
ENDBRANCH   1   2
BRANCH   1   9
ATOM      9  C   UNL     1      18.609  -0.191 -29.158  1.00  0.00    -0.011 C 
ATOM     10  C   UNL     1      19.088   1.075 -29.912  1.00  0.00     0.008 C 
BRANCH   9  11
ATOM     11  C   UNL     1      18.726  -0.180 -27.583  1.00  0.00    -0.002 C 
ATOM     12  C   UNL     1      18.904   1.179 -26.898  1.00  0.00     0.005 C 
ATOM     13  C   UNL     1      19.794  -1.100 -26.916  1.00  0.00    -0.026 C 
ATOM     14  C   UNL     1      19.431   0.865 -25.494  1.00  0.00     0.005 C 
ATOM     15  C   UNL     1      19.687  -0.655 -25.432  1.00  0.00    -0.001 C 
ATOM     16  C   UNL     1      21.232  -0.853 -27.500  1.00  0.00     0.007 C 
ATOM     17  C   UNL     1      19.379  -2.588 -27.078  1.00  0.00     0.012 C 
ATOM     18  C   UNL     1      20.878  -1.036 -24.485  1.00  0.00     0.000 C 
ATOM     19  C   UNL     1      22.377  -0.753 -26.475  1.00  0.00     0.005 C 
ATOM     20  C   UNL     1      22.112  -1.594 -25.221  1.00  0.00     0.003 C 
ATOM     21  C   UNL     1      20.469  -2.066 -23.425  1.00  0.00     0.031 C 
ATOM     22  C   UNL     1      23.351  -1.753 -24.249  1.00  0.00    -0.008 C 
ATOM     23  C   UNL     1      21.609  -2.323 -22.483  1.00  0.00    -0.027 C 
ATOM     24  C   UNL     1      22.910  -2.215 -22.847  1.00  0.00    -0.065 C 
ATOM     25  C   UNL     1      24.126  -0.407 -24.078  1.00  0.00     0.014 C 
ATOM     26  C   UNL     1      24.296  -2.831 -24.850  1.00  0.00     0.016 C 
ATOM     27  C   UNL     1      23.974  -2.305 -21.774  1.00  0.00     0.063 C 
ATOM     28  C   UNL     1      25.224  -0.453 -22.996  1.00  0.00     0.033 C 
ATOM     29  C   UNL     1      24.674  -0.943 -21.641  1.00  0.00     0.118 C 
BRANCH  29  30
ATOM     30  O   UNL     1      25.698  -1.009 -20.681  1.00  0.00    -0.393 OA
ATOM     31  H   UNL     1      25.575  -1.850 -20.166  1.00  0.00     0.210 HD
ENDBRANCH  29  30
ENDBRANCH   9  11
ENDBRANCH   1   9
TORSDOF 7
ENDMDL
MODEL 4
REMARK VINA RESULT:    -4.990      7.285     10.121
REMARK INTER + INTRA:          -8.692
REMARK INTER:                  -6.334
REMARK INTRA:                  -2.358
REMARK UNBOUND:                -1.806
REMARK SMILES CC[C@H](CC[C@@H](C)[C@@H]1CC[C@@H]2[C@H]3CC=C4C[C@@H](O)CC[C@]4(C)[C@@H]3CC[C@@]21C)C(C)C
REMARK SMILES IDX 5 1 4 2 3 3 2 4 1 5 28 6 29 7 30 8 6 9 7 10 8 11 9 12 26 13
REMARK SMILES IDX 10 14 11 15 25 16 27 17 12 18 24 19 23 20 13 21 21 22 14 23
REMARK SMILES IDX 15 24 20 25 22 26 16 27 19 28 17 29 18 30
REMARK H PARENT 18 31
REMARK Flexibility Score: inf
ROOT
ATOM      1  C   UNL     1      19.073   2.441 -28.751  1.00  0.00     0.004 C 
ENDROOT
BRANCH   1   2
ATOM      2  C   UNL     1      20.501   2.971 -29.032  1.00  0.00     0.004 C 
BRANCH   2   3
ATOM      3  C   UNL     1      20.963   2.710 -30.494  1.00  0.00    -0.009 C 
BRANCH   3   4
ATOM      4  C   UNL     1      22.334   1.976 -30.520  1.00  0.00     0.000 C 
ATOM      5  C   UNL     1      23.203   2.288 -29.301  1.00  0.00     0.004 C 
ENDBRANCH   3   4
BRANCH   3   6
ATOM      6  C   UNL     1      19.867   1.941 -31.311  1.00  0.00    -0.014 C 
ATOM      7  C   UNL     1      19.408   2.749 -32.534  1.00  0.00     0.007 C 
ATOM      8  C   UNL     1      20.286   0.523 -31.744  1.00  0.00     0.007 C 
ENDBRANCH   3   6
ENDBRANCH   2   3
ENDBRANCH   1   2
BRANCH   1   9
ATOM      9  C   UNL     1      19.026   1.191 -27.832  1.00  0.00    -0.011 C 
ATOM     10  C   UNL     1      17.957   0.196 -28.349  1.00  0.00     0.008 C 
BRANCH   9  11
ATOM     11  C   UNL     1      20.470   0.616 -27.548  1.00  0.00    -0.002 C 
ATOM     12  C   UNL     1      20.861  -0.687 -28.252  1.00  0.00     0.005 C 
ATOM     13  C   UNL     1      20.903   0.408 -26.065  1.00  0.00    -0.026 C 
ATOM     14  C   UNL     1      22.065  -1.228 -27.474  1.00  0.00     0.005 C 
ATOM     15  C   UNL     1      22.266  -0.312 -26.250  1.00  0.00    -0.001 C 
ATOM     16  C   UNL     1      19.876  -0.475 -25.269  1.00  0.00     0.007 C 
ATOM     17  C   UNL     1      21.096   1.788 -25.377  1.00  0.00     0.012 C 
ATOM     18  C   UNL     1      22.847  -1.071 -25.007  1.00  0.00     0.000 C 
ATOM     19  C   UNL     1      20.475  -1.578 -24.375  1.00  0.00     0.005 C 
ATOM     20  C   UNL     1      21.858  -1.202 -23.832  1.00  0.00     0.003 C 
ATOM     21  C   UNL     1      24.120  -0.408 -24.466  1.00  0.00     0.031 C 
ATOM     22  C   UNL     1      22.414  -2.159 -22.701  1.00  0.00    -0.008 C 
ATOM     23  C   UNL     1      24.693  -1.225 -23.343  1.00  0.00    -0.027 C 
ATOM     24  C   UNL     1      23.937  -1.993 -22.524  1.00  0.00    -0.065 C 
ATOM     25  C   UNL     1      22.141  -3.662 -23.032  1.00  0.00     0.014 C 
ATOM     26  C   UNL     1      21.717  -1.779 -21.366  1.00  0.00     0.016 C 
ATOM     27  C   UNL     1      24.632  -2.924 -21.553  1.00  0.00     0.063 C 
ATOM     28  C   UNL     1      22.829  -4.647 -22.065  1.00  0.00     0.033 C 
ATOM     29  C   UNL     1      24.343  -4.379 -21.953  1.00  0.00     0.118 C 
BRANCH  29  30
ATOM     30  O   UNL     1      24.941  -5.267 -21.042  1.00  0.00    -0.393 OA
ATOM     31  H   UNL     1      25.180  -6.093 -21.540  1.00  0.00     0.210 HD
ENDBRANCH  29  30
ENDBRANCH   9  11
ENDBRANCH   1   9
TORSDOF 7
ENDMDL
MODEL 5
REMARK VINA RESULT:    -4.974      4.577      8.703
REMARK INTER + INTRA:          -8.670
REMARK INTER:                  -6.722
REMARK INTRA:                  -1.948
REMARK UNBOUND:                -1.806
REMARK SMILES CC[C@H](CC[C@@H](C)[C@@H]1CC[C@@H]2[C@H]3CC=C4C[C@@H](O)CC[C@]4(C)[C@@H]3CC[C@@]21C)C(C)C
REMARK SMILES IDX 5 1 4 2 3 3 2 4 1 5 28 6 29 7 30 8 6 9 7 10 8 11 9 12 26 13
REMARK SMILES IDX 10 14 11 15 25 16 27 17 12 18 24 19 23 20 13 21 21 22 14 23
REMARK SMILES IDX 15 24 20 25 22 26 16 27 19 28 17 29 18 30
REMARK H PARENT 18 31
REMARK Flexibility Score: inf
ROOT
ATOM      1  C   UNL     1      26.099  -5.480 -32.245  1.00  0.00     0.004 C 
ENDROOT
BRANCH   1   2
ATOM      2  C   UNL     1      25.457  -4.742 -33.446  1.00  0.00     0.004 C 
BRANCH   2   3
ATOM      3  C   UNL     1      24.799  -3.392 -33.042  1.00  0.00    -0.009 C 
BRANCH   3   4
ATOM      4  C   UNL     1      25.448  -2.206 -33.811  1.00  0.00     0.000 C 
ATOM      5  C   UNL     1      25.666  -0.972 -32.933  1.00  0.00     0.004 C 
ENDBRANCH   3   4
BRANCH   3   6
ATOM      6  C   UNL     1      23.243  -3.436 -33.233  1.00  0.00    -0.014 C 
ATOM      7  C   UNL     1      22.781  -4.802 -33.764  1.00  0.00     0.007 C 
ATOM      8  C   UNL     1      22.444  -3.066 -31.968  1.00  0.00     0.007 C 
ENDBRANCH   3   6
ENDBRANCH   2   3
ENDBRANCH   1   2
BRANCH   1   9
ATOM      9  C   UNL     1      25.164  -5.629 -31.014  1.00  0.00    -0.011 C 
ATOM     10  C   UNL     1      24.361  -6.950 -31.117  1.00  0.00     0.008 C 
BRANCH   9  11
ATOM     11  C   UNL     1      25.930  -5.353 -29.660  1.00  0.00    -0.002 C 
ATOM     12  C   UNL     1      25.708  -6.341 -28.510  1.00  0.00     0.005 C 
ATOM     13  C   UNL     1      25.785  -3.946 -29.004  1.00  0.00    -0.026 C 
ATOM     14  C   UNL     1      26.175  -5.612 -27.246  1.00  0.00     0.005 C 
ATOM     15  C   UNL     1      26.526  -4.167 -27.657  1.00  0.00    -0.001 C 
ATOM     16  C   UNL     1      24.281  -3.549 -28.787  1.00  0.00     0.007 C 
ATOM     17  C   UNL     1      26.518  -2.885 -29.870  1.00  0.00     0.012 C 
ATOM     18  C   UNL     1      26.258  -3.125 -26.516  1.00  0.00     0.000 C 
ATOM     19  C   UNL     1      23.928  -2.933 -27.420  1.00  0.00     0.005 C 
ATOM     20  C   UNL     1      25.099  -2.153 -26.812  1.00  0.00     0.003 C 
ATOM     21  C   UNL     1      27.498  -2.280 -26.200  1.00  0.00     0.031 C 
ATOM     22  C   UNL     1      24.732  -1.276 -25.547  1.00  0.00    -0.008 C 
ATOM     23  C   UNL     1      27.224  -1.370 -25.037  1.00  0.00    -0.027 C 
ATOM     24  C   UNL     1      25.992  -0.888 -24.748  1.00  0.00    -0.065 C 
ATOM     25  C   UNL     1      23.776  -2.039 -24.574  1.00  0.00     0.014 C 
ATOM     26  C   UNL     1      24.044   0.024 -26.048  1.00  0.00     0.016 C 
ATOM     27  C   UNL     1      25.791  -0.140 -23.447  1.00  0.00     0.063 C 
ATOM     28  C   UNL     1      23.541  -1.311 -23.234  1.00  0.00     0.033 C 
ATOM     29  C   UNL     1      24.866  -0.958 -22.532  1.00  0.00     0.118 C 
BRANCH  29  30
ATOM     30  O   UNL     1      24.626  -0.267 -21.332  1.00  0.00    -0.393 OA
ATOM     31  H   UNL     1      25.426   0.291 -21.141  1.00  0.00     0.210 HD
ENDBRANCH  29  30
ENDBRANCH   9  11
ENDBRANCH   1   9
TORSDOF 7
ENDMDL
MODEL 6
REMARK VINA RESULT:    -4.922      2.927      8.469
REMARK INTER + INTRA:          -8.597
REMARK INTER:                  -6.499
REMARK INTRA:                  -2.098
REMARK UNBOUND:                -1.806
REMARK SMILES CC[C@H](CC[C@@H](C)[C@@H]1CC[C@@H]2[C@H]3CC=C4C[C@@H](O)CC[C@]4(C)[C@@H]3CC[C@@]21C)C(C)C
REMARK SMILES IDX 5 1 4 2 3 3 2 4 1 5 28 6 29 7 30 8 6 9 7 10 8 11 9 12 26 13
REMARK SMILES IDX 10 14 11 15 25 16 27 17 12 18 24 19 23 20 13 21 21 22 14 23
REMARK SMILES IDX 15 24 20 25 22 26 16 27 19 28 17 29 18 30
REMARK H PARENT 18 31
REMARK Flexibility Score: inf
ROOT
ATOM      1  C   UNL     1      25.977  -1.424 -30.974  1.00  0.00     0.004 C 
ENDROOT
BRANCH   1   2
ATOM      2  C   UNL     1      25.599  -2.567 -30.000  1.00  0.00     0.004 C 
BRANCH   2   3
ATOM      3  C   UNL     1      26.602  -3.755 -30.047  1.00  0.00    -0.009 C 
BRANCH   3   4
ATOM      4  C   UNL     1      27.667  -3.628 -28.921  1.00  0.00     0.000 C 
ATOM      5  C   UNL     1      27.153  -2.873 -27.694  1.00  0.00     0.004 C 
ENDBRANCH   3   4
BRANCH   3   6
ATOM      6  C   UNL     1      25.856  -5.134 -29.998  1.00  0.00    -0.014 C 
ATOM      7  C   UNL     1      24.357  -4.952 -29.719  1.00  0.00     0.007 C 
ATOM      8  C   UNL     1      26.055  -6.000 -31.257  1.00  0.00     0.007 C 
ENDBRANCH   3   6
ENDBRANCH   2   3
ENDBRANCH   1   2
BRANCH   1   9
ATOM      9  C   UNL     1      25.144  -1.400 -32.284  1.00  0.00    -0.011 C 
ATOM     10  C   UNL     1      26.003  -0.843 -33.446  1.00  0.00     0.008 C 
BRANCH   9  11
ATOM     11  C   UNL     1      24.400  -2.772 -32.531  1.00  0.00    -0.002 C 
ATOM     12  C   UNL     1      24.934  -3.673 -33.649  1.00  0.00     0.005 C 
ATOM     13  C   UNL     1      22.856  -2.745 -32.751  1.00  0.00    -0.026 C 
ATOM     14  C   UNL     1      23.803  -4.660 -33.957  1.00  0.00     0.005 C 
ATOM     15  C   UNL     1      22.581  -4.229 -33.120  1.00  0.00    -0.001 C 
ATOM     16  C   UNL     1      22.443  -1.767 -33.908  1.00  0.00     0.007 C 
ATOM     17  C   UNL     1      22.144  -2.365 -31.424  1.00  0.00     0.012 C 
ATOM     18  C   UNL     1      21.216  -4.548 -33.822  1.00  0.00     0.000 C 
ATOM     19  C   UNL     1      21.401  -2.298 -34.911  1.00  0.00     0.005 C 
ATOM     20  C   UNL     1      20.432  -3.298 -34.271  1.00  0.00     0.003 C 
ATOM     21  C   UNL     1      20.285  -5.378 -32.929  1.00  0.00     0.031 C 
ATOM     22  C   UNL     1      19.180  -3.680 -35.160  1.00  0.00    -0.008 C 
ATOM     23  C   UNL     1      19.036  -5.743 -33.678  1.00  0.00    -0.027 C 
ATOM     24  C   UNL     1      18.512  -4.976 -34.663  1.00  0.00    -0.065 C 
ATOM     25  C   UNL     1      19.582  -3.902 -36.655  1.00  0.00     0.014 C 
ATOM     26  C   UNL     1      18.150  -2.522 -35.059  1.00  0.00     0.016 C 
ATOM     27  C   UNL     1      17.365  -5.529 -35.482  1.00  0.00     0.063 C 
ATOM     28  C   UNL     1      18.442  -4.463 -37.528  1.00  0.00     0.033 C 
ATOM     29  C   UNL     1      17.838  -5.748 -36.929  1.00  0.00     0.118 C 
BRANCH  29  30
ATOM     30  O   UNL     1      16.780  -6.221 -37.724  1.00  0.00    -0.393 OA
ATOM     31  H   UNL     1      16.442  -5.456 -38.261  1.00  0.00     0.210 HD
ENDBRANCH  29  30
ENDBRANCH   9  11
ENDBRANCH   1   9
TORSDOF 7
ENDMDL
MODEL 7
REMARK VINA RESULT:    -4.901      3.178      8.920
REMARK INTER + INTRA:          -8.568
REMARK INTER:                  -6.707
REMARK INTRA:                  -1.861
REMARK UNBOUND:                -1.806
REMARK SMILES CC[C@H](CC[C@@H](C)[C@@H]1CC[C@@H]2[C@H]3CC=C4C[C@@H](O)CC[C@]4(C)[C@@H]3CC[C@@]21C)C(C)C
REMARK SMILES IDX 5 1 4 2 3 3 2 4 1 5 28 6 29 7 30 8 6 9 7 10 8 11 9 12 26 13
REMARK SMILES IDX 10 14 11 15 25 16 27 17 12 18 24 19 23 20 13 21 21 22 14 23
REMARK SMILES IDX 15 24 20 25 22 26 16 27 19 28 17 29 18 30
REMARK H PARENT 18 31
REMARK Flexibility Score: inf
ROOT
ATOM      1  C   UNL     1      25.824  -5.282 -30.082  1.00  0.00     0.004 C 
ENDROOT
BRANCH   1   2
ATOM      2  C   UNL     1      26.537  -3.909 -30.149  1.00  0.00     0.004 C 
BRANCH   2   3
ATOM      3  C   UNL     1      26.046  -2.920 -29.053  1.00  0.00    -0.009 C 
BRANCH   3   4
ATOM      4  C   UNL     1      27.117  -2.750 -27.939  1.00  0.00     0.000 C 
ATOM      5  C   UNL     1      28.321  -3.676 -28.120  1.00  0.00     0.004 C 
ENDBRANCH   3   4
BRANCH   3   6
ATOM      6  C   UNL     1      25.618  -1.545 -29.674  1.00  0.00    -0.014 C 
ATOM      7  C   UNL     1      26.064  -1.428 -31.140  1.00  0.00     0.007 C 
ATOM      8  C   UNL     1      24.111  -1.245 -29.557  1.00  0.00     0.007 C 
ENDBRANCH   3   6
ENDBRANCH   2   3
ENDBRANCH   1   2
BRANCH   1   9
ATOM      9  C   UNL     1      24.883  -5.572 -31.283  1.00  0.00    -0.011 C 
ATOM     10  C   UNL     1      24.293  -6.999 -31.158  1.00  0.00     0.008 C 
BRANCH   9  11
ATOM     11  C   UNL     1      23.866  -4.389 -31.530  1.00  0.00    -0.002 C 
ATOM     12  C   UNL     1      22.537  -4.432 -30.771  1.00  0.00     0.005 C 
ATOM     13  C   UNL     1      23.469  -4.053 -33.000  1.00  0.00    -0.026 C 
ATOM     14  C   UNL     1      21.607  -3.467 -31.515  1.00  0.00     0.005 C 
ATOM     15  C   UNL     1      22.359  -2.990 -32.774  1.00  0.00    -0.001 C 
ATOM     16  C   UNL     1      22.928  -5.312 -33.767  1.00  0.00     0.007 C 
ATOM     17  C   UNL     1      24.684  -3.433 -33.743  1.00  0.00     0.012 C 
ATOM     18  C   UNL     1      21.403  -2.689 -33.980  1.00  0.00     0.000 C 
ATOM     19  C   UNL     1      21.655  -5.103 -34.610  1.00  0.00     0.005 C 
ATOM     20  C   UNL     1      21.546  -3.675 -35.157  1.00  0.00     0.003 C 
ATOM     21  C   UNL     1      21.601  -1.275 -34.538  1.00  0.00     0.031 C 
ATOM     22  C   UNL     1      20.416  -3.460 -36.243  1.00  0.00    -0.008 C 
ATOM     23  C   UNL     1      20.598  -0.998 -35.621  1.00  0.00    -0.027 C 
ATOM     24  C   UNL     1      20.078  -1.965 -36.414  1.00  0.00    -0.065 C 
ATOM     25  C   UNL     1      19.094  -4.198 -35.853  1.00  0.00     0.014 C 
ATOM     26  C   UNL     1      20.942  -4.006 -37.598  1.00  0.00     0.016 C 
ATOM     27  C   UNL     1      18.935  -1.609 -37.340  1.00  0.00     0.063 C 
ATOM     28  C   UNL     1      17.901  -3.866 -36.772  1.00  0.00     0.033 C 
ATOM     29  C   UNL     1      17.666  -2.347 -36.882  1.00  0.00     0.118 C 
BRANCH  29  30
ATOM     30  O   UNL     1      16.596  -2.068 -37.751  1.00  0.00    -0.393 OA
ATOM     31  H   UNL     1      16.677  -1.119 -38.033  1.00  0.00     0.210 HD
ENDBRANCH  29  30
ENDBRANCH   9  11
ENDBRANCH   1   9
TORSDOF 7
ENDMDL
MODEL 8
REMARK VINA RESULT:    -4.802      1.234      2.033
REMARK INTER + INTRA:          -8.432
REMARK INTER:                  -6.697
REMARK INTRA:                  -1.735
REMARK UNBOUND:                -1.806
REMARK SMILES CC[C@H](CC[C@@H](C)[C@@H]1CC[C@@H]2[C@H]3CC=C4C[C@@H](O)CC[C@]4(C)[C@@H]3CC[C@@]21C)C(C)C
REMARK SMILES IDX 5 1 4 2 3 3 2 4 1 5 28 6 29 7 30 8 6 9 7 10 8 11 9 12 26 13
REMARK SMILES IDX 10 14 11 15 25 16 27 17 12 18 24 19 23 20 13 21 21 22 14 23
REMARK SMILES IDX 15 24 20 25 22 26 16 27 19 28 17 29 18 30
REMARK H PARENT 18 31
REMARK Flexibility Score: inf
ROOT
ATOM      1  C   UNL     1      17.157  -2.610 -38.119  1.00  0.00     0.004 C 
ENDROOT
BRANCH   1   2
ATOM      2  C   UNL     1      17.493  -4.014 -38.681  1.00  0.00     0.004 C 
BRANCH   2   3
ATOM      3  C   UNL     1      16.406  -5.074 -38.344  1.00  0.00    -0.009 C 
BRANCH   3   4
ATOM      4  C   UNL     1      15.921  -5.801 -39.630  1.00  0.00     0.000 C 
ATOM      5  C   UNL     1      14.487  -5.437 -40.018  1.00  0.00     0.004 C 
ENDBRANCH   3   4
BRANCH   3   6
ATOM      6  C   UNL     1      16.911  -6.082 -37.252  1.00  0.00    -0.014 C 
ATOM      7  C   UNL     1      16.265  -5.799 -35.887  1.00  0.00     0.007 C 
ATOM      8  C   UNL     1      16.719  -7.563 -37.629  1.00  0.00     0.007 C 
ENDBRANCH   3   6
ENDBRANCH   2   3
ENDBRANCH   1   2
BRANCH   1   9
ATOM      9  C   UNL     1      18.246  -2.020 -37.182  1.00  0.00    -0.011 C 
ATOM     10  C   UNL     1      17.850  -0.587 -36.750  1.00  0.00     0.008 C 
BRANCH   9  11
ATOM     11  C   UNL     1      18.648  -3.034 -36.039  1.00  0.00    -0.002 C 
ATOM     12  C   UNL     1      18.074  -2.784 -34.641  1.00  0.00     0.005 C 
ATOM     13  C   UNL     1      20.164  -3.311 -35.798  1.00  0.00    -0.026 C 
ATOM     14  C   UNL     1      18.952  -3.597 -33.684  1.00  0.00     0.005 C 
ATOM     15  C   UNL     1      20.107  -4.189 -34.518  1.00  0.00    -0.001 C 
ATOM     16  C   UNL     1      20.975  -1.987 -35.565  1.00  0.00     0.007 C 
ATOM     17  C   UNL     1      20.746  -4.114 -36.993  1.00  0.00     0.012 C 
ATOM     18  C   UNL     1      21.435  -4.345 -33.700  1.00  0.00     0.000 C 
ATOM     19  C   UNL     1      21.985  -2.001 -34.401  1.00  0.00     0.005 C 
ATOM     20  C   UNL     1      22.565  -3.398 -34.150  1.00  0.00     0.003 C 
ATOM     21  C   UNL     1      21.985  -5.775 -33.752  1.00  0.00     0.031 C 
ATOM     22  C   UNL     1      23.797  -3.441 -33.158  1.00  0.00    -0.008 C 
ATOM     23  C   UNL     1      23.198  -5.899 -32.875  1.00  0.00    -0.027 C 
ATOM     24  C   UNL     1      24.037  -4.866 -32.622  1.00  0.00    -0.065 C 
ATOM     25  C   UNL     1      23.576  -2.507 -31.924  1.00  0.00     0.014 C 
ATOM     26  C   UNL     1      25.060  -2.988 -33.941  1.00  0.00     0.016 C 
ATOM     27  C   UNL     1      25.115  -5.046 -31.574  1.00  0.00     0.063 C 
ATOM     28  C   UNL     1      24.653  -2.655 -30.830  1.00  0.00     0.033 C 
ATOM     29  C   UNL     1      24.819  -4.121 -30.382  1.00  0.00     0.118 C 
BRANCH  29  30
ATOM     30  O   UNL     1      25.828  -4.234 -29.411  1.00  0.00    -0.393 OA
ATOM     31  H   UNL     1      26.097  -5.190 -29.366  1.00  0.00     0.210 HD
ENDBRANCH  29  30
ENDBRANCH   9  11
ENDBRANCH   1   9
TORSDOF 7
ENDMDL
MODEL 9
REMARK VINA RESULT:    -4.780      4.559      8.541
REMARK INTER + INTRA:          -8.401
REMARK INTER:                  -6.273
REMARK INTRA:                  -2.128
REMARK UNBOUND:                -1.806
REMARK SMILES CC[C@H](CC[C@@H](C)[C@@H]1CC[C@@H]2[C@H]3CC=C4C[C@@H](O)CC[C@]4(C)[C@@H]3CC[C@@]21C)C(C)C
REMARK SMILES IDX 5 1 4 2 3 3 2 4 1 5 28 6 29 7 30 8 6 9 7 10 8 11 9 12 26 13
REMARK SMILES IDX 10 14 11 15 25 16 27 17 12 18 24 19 23 20 13 21 21 22 14 23
REMARK SMILES IDX 15 24 20 25 22 26 16 27 19 28 17 29 18 30
REMARK H PARENT 18 31
REMARK Flexibility Score: inf
ROOT
ATOM      1  C   UNL     1      24.402  -5.199 -32.689  1.00  0.00     0.004 C 
ENDROOT
BRANCH   1   2
ATOM      2  C   UNL     1      25.351  -4.204 -33.401  1.00  0.00     0.004 C 
BRANCH   2   3
ATOM      3  C   UNL     1      24.664  -2.847 -33.729  1.00  0.00    -0.009 C 
BRANCH   3   4
ATOM      4  C   UNL     1      23.129  -2.930 -33.495  1.00  0.00     0.000 C 
ATOM      5  C   UNL     1      22.326  -2.955 -34.798  1.00  0.00     0.004 C 
ENDBRANCH   3   4
BRANCH   3   6
ATOM      6  C   UNL     1      25.319  -1.668 -32.928  1.00  0.00    -0.014 C 
ATOM      7  C   UNL     1      26.196  -0.791 -33.836  1.00  0.00     0.007 C 
ATOM      8  C   UNL     1      24.309  -0.790 -32.165  1.00  0.00     0.007 C 
ENDBRANCH   3   6
ENDBRANCH   2   3
ENDBRANCH   1   2
BRANCH   1   9
ATOM      9  C   UNL     1      24.729  -5.433 -31.189  1.00  0.00    -0.011 C 
ATOM     10  C   UNL     1      25.819  -6.525 -31.050  1.00  0.00     0.008 C 
BRANCH   9  11
ATOM     11  C   UNL     1      24.969  -4.072 -30.423  1.00  0.00    -0.002 C 
ATOM     12  C   UNL     1      26.350  -3.848 -29.798  1.00  0.00     0.005 C 
ATOM     13  C   UNL     1      23.961  -3.667 -29.305  1.00  0.00    -0.026 C 
ATOM     14  C   UNL     1      26.162  -2.721 -28.778  1.00  0.00     0.005 C 
ATOM     15  C   UNL     1      24.653  -2.405 -28.721  1.00  0.00    -0.001 C 
ATOM     16  C   UNL     1      23.793  -4.796 -28.225  1.00  0.00     0.007 C 
ATOM     17  C   UNL     1      22.591  -3.302 -29.940  1.00  0.00     0.012 C 
ATOM     18  C   UNL     1      24.182  -1.924 -27.305  1.00  0.00     0.000 C 
ATOM     19  C   UNL     1      23.809  -4.341 -26.754  1.00  0.00     0.005 C 
ATOM     20  C   UNL     1      23.258  -2.921 -26.577  1.00  0.00     0.003 C 
ATOM     21  C   UNL     1      23.449  -0.578 -27.364  1.00  0.00     0.031 C 
ATOM     22  C   UNL     1      22.995  -2.489 -25.078  1.00  0.00    -0.008 C 
ATOM     23  C   UNL     1      23.108  -0.111 -25.978  1.00  0.00    -0.027 C 
ATOM     24  C   UNL     1      22.873  -0.958 -24.948  1.00  0.00    -0.065 C 
ATOM     25  C   UNL     1      24.151  -2.949 -24.133  1.00  0.00     0.014 C 
ATOM     26  C   UNL     1      21.656  -3.131 -24.622  1.00  0.00     0.016 C 
ATOM     27  C   UNL     1      22.729  -0.384 -23.554  1.00  0.00     0.063 C 
ATOM     28  C   UNL     1      24.045  -2.390 -22.700  1.00  0.00     0.033 C 
ATOM     29  C   UNL     1      23.912  -0.854 -22.691  1.00  0.00     0.118 C 
BRANCH  29  30
ATOM     30  O   UNL     1      23.782  -0.372 -21.377  1.00  0.00    -0.393 OA
ATOM     31  H   UNL     1      24.454  -0.842 -20.816  1.00  0.00     0.210 HD
ENDBRANCH  29  30
ENDBRANCH   9  11
ENDBRANCH   1   9
TORSDOF 7
ENDMDL
