MODEL 1
REMARK VINA RESULT:    -3.980      0.000      0.000
REMARK INTER + INTRA:          -8.035
REMARK INTER:                  -6.772
REMARK INTRA:                  -1.263
REMARK UNBOUND:                -1.263
REMARK SMILES CCCCCCCCCCCCCC(=O)[O-]
REMARK SMILES IDX 8 1 9 2 10 3 11 4 12 5 13 6 14 7 15 8 16 9 7 10 6 11 5 12
REMARK SMILES IDX 4 13 3 14 2 15 1 16
REMARK H PARENT
REMARK Flexibility Score: inf
ROOT
ATOM      1  C   UNL     1      25.004   5.670  41.599  1.00  0.00     0.000 C 
ENDROOT
BRANCH   1   2
ATOM      2  C   UNL     1      23.950   5.608  42.720  1.00  0.00     0.000 C 
BRANCH   2   3
ATOM      3  C   UNL     1      22.530   5.361  42.190  1.00  0.00     0.000 C 
BRANCH   3   4
ATOM      4  C   UNL     1      22.228   3.857  42.112  1.00  0.00     0.000 C 
BRANCH   4   5
ATOM      5  C   UNL     1      21.025   3.540  41.209  1.00  0.00     0.006 C 
BRANCH   5   6
ATOM      6  C   UNL     1      19.815   3.021  41.997  1.00  0.00     0.053 C 
BRANCH   6   7
ATOM      7  C   UNL     1      18.547   3.587  41.439  1.00  0.00     0.041 C 
ATOM      8  O   UNL     1      18.014   3.066  40.423  1.00  0.00    -0.550 OA
ATOM      9  O   UNL     1      17.926   4.657  42.070  1.00  0.00    -0.550 OA
ENDBRANCH   6   7
ENDBRANCH   5   6
ENDBRANCH   4   5
ENDBRANCH   3   4
ENDBRANCH   2   3
ENDBRANCH   1   2
BRANCH   1  10
ATOM     10  C   UNL     1      25.626   4.311  41.214  1.00  0.00     0.000 C 
BRANCH  10  11
ATOM     11  C   UNL     1      25.440   3.899  39.741  1.00  0.00    -0.000 C 
BRANCH  11  12
ATOM     12  C   UNL     1      24.929   2.462  39.528  1.00  0.00    -0.000 C 
BRANCH  12  13
ATOM     13  C   UNL     1      23.614   2.408  38.736  1.00  0.00    -0.000 C 
BRANCH  13  14
ATOM     14  C   UNL     1      22.856   1.103  39.023  1.00  0.00    -0.000 C 
BRANCH  14  15
ATOM     15  C   UNL     1      23.533   0.253  40.109  1.00  0.00    -0.003 C 
ATOM     16  C   UNL     1      23.933  -1.135  39.612  1.00  0.00     0.004 C 
ENDBRANCH  14  15
ENDBRANCH  13  14
ENDBRANCH  12  13
ENDBRANCH  11  12
ENDBRANCH  10  11
ENDBRANCH   1  10
TORSDOF 12
ENDMDL
MODEL 2
REMARK VINA RESULT:    -3.909     11.612     12.548
REMARK INTER + INTRA:          -7.914
REMARK INTER:                  -6.998
REMARK INTRA:                  -0.916
REMARK UNBOUND:                -1.263
REMARK SMILES CCCCCCCCCCCCCC(=O)[O-]
REMARK SMILES IDX 8 1 9 2 10 3 11 4 12 5 13 6 14 7 15 8 16 9 7 10 6 11 5 12
REMARK SMILES IDX 4 13 3 14 2 15 1 16
REMARK H PARENT
REMARK Flexibility Score: inf
ROOT
ATOM      1  C   UNL     1      33.391   8.398  46.316  1.00  0.00     0.000 C 
ENDROOT
BRANCH   1   2
ATOM      2  C   UNL     1      32.005   7.758  46.521  1.00  0.00     0.000 C 
BRANCH   2   3
ATOM      3  C   UNL     1      31.920   6.329  45.966  1.00  0.00     0.000 C 
BRANCH   3   4
ATOM      4  C   UNL     1      31.436   5.349  47.046  1.00  0.00     0.000 C 
BRANCH   4   5
ATOM      5  C   UNL     1      31.727   5.848  48.471  1.00  0.00     0.006 C 
BRANCH   5   6
ATOM      6  C   UNL     1      31.126   4.938  49.550  1.00  0.00     0.053 C 
BRANCH   6   7
ATOM      7  C   UNL     1      32.133   3.927  50.000  1.00  0.00     0.041 C 
ATOM      8  O   UNL     1      32.603   3.979  51.167  1.00  0.00    -0.550 OA
ATOM      9  O   UNL     1      32.514   2.898  49.149  1.00  0.00    -0.550 OA
ENDBRANCH   6   7
ENDBRANCH   5   6
ENDBRANCH   4   5
ENDBRANCH   3   4
ENDBRANCH   2   3
ENDBRANCH   1   2
BRANCH   1  10
ATOM     10  C   UNL     1      34.230   7.783  45.178  1.00  0.00     0.000 C 
BRANCH  10  11
ATOM     11  C   UNL     1      34.530   8.730  43.999  1.00  0.00    -0.000 C 
BRANCH  11  12
ATOM     12  C   UNL     1      34.214   8.155  42.607  1.00  0.00    -0.000 C 
BRANCH  12  13
ATOM     13  C   UNL     1      32.961   7.268  42.597  1.00  0.00    -0.000 C 
BRANCH  13  14
ATOM     14  C   UNL     1      33.341   5.784  42.474  1.00  0.00    -0.000 C 
BRANCH  14  15
ATOM     15  C   UNL     1      33.604   5.362  41.020  1.00  0.00    -0.003 C 
ATOM     16  C   UNL     1      34.895   4.561  40.859  1.00  0.00     0.004 C 
ENDBRANCH  14  15
ENDBRANCH  13  14
ENDBRANCH  12  13
ENDBRANCH  11  12
ENDBRANCH  10  11
ENDBRANCH   1  10
TORSDOF 12
ENDMDL
MODEL 3
REMARK VINA RESULT:    -3.892     14.957     15.982
REMARK INTER + INTRA:          -7.885
REMARK INTER:                  -6.732
REMARK INTRA:                  -1.154
REMARK UNBOUND:                -1.263
REMARK SMILES CCCCCCCCCCCCCC(=O)[O-]
REMARK SMILES IDX 8 1 9 2 10 3 11 4 12 5 13 6 14 7 15 8 16 9 7 10 6 11 5 12
REMARK SMILES IDX 4 13 3 14 2 15 1 16
REMARK H PARENT
REMARK Flexibility Score: inf
ROOT
ATOM      1  C   UNL     1      23.412  -5.312  51.644  1.00  0.00     0.000 C 
ENDROOT
BRANCH   1   2
ATOM      2  C   UNL     1      22.671  -3.977  51.840  1.00  0.00     0.000 C 
BRANCH   2   3
ATOM      3  C   UNL     1      23.598  -2.843  52.303  1.00  0.00     0.000 C 
BRANCH   3   4
ATOM      4  C   UNL     1      23.106  -2.238  53.626  1.00  0.00     0.000 C 
BRANCH   4   5
ATOM      5  C   UNL     1      24.000  -2.615  54.819  1.00  0.00     0.006 C 
BRANCH   5   6
ATOM      6  C   UNL     1      23.277  -3.499  55.843  1.00  0.00     0.053 C 
BRANCH   6   7
ATOM      7  C   UNL     1      23.239  -2.827  57.179  1.00  0.00     0.041 C 
ATOM      8  O   UNL     1      23.976  -3.234  58.115  1.00  0.00    -0.550 OA
ATOM      9  O   UNL     1      22.425  -1.717  57.376  1.00  0.00    -0.550 OA
ENDBRANCH   6   7
ENDBRANCH   5   6
ENDBRANCH   4   5
ENDBRANCH   3   4
ENDBRANCH   2   3
ENDBRANCH   1   2
BRANCH   1  10
ATOM     10  C   UNL     1      23.366  -6.267  52.855  1.00  0.00     0.000 C 
BRANCH  10  11
ATOM     11  C   UNL     1      24.554  -6.146  53.830  1.00  0.00    -0.000 C 
BRANCH  11  12
ATOM     12  C   UNL     1      25.824  -5.513  53.233  1.00  0.00    -0.000 C 
BRANCH  12  13
ATOM     13  C   UNL     1      27.116  -6.099  53.820  1.00  0.00    -0.000 C 
BRANCH  13  14
ATOM     14  C   UNL     1      28.296  -5.897  52.857  1.00  0.00    -0.000 C 
BRANCH  14  15
ATOM     15  C   UNL     1      29.386  -6.966  53.028  1.00  0.00    -0.003 C 
ATOM     16  C   UNL     1      30.588  -6.739  52.112  1.00  0.00     0.004 C 
ENDBRANCH  14  15
ENDBRANCH  13  14
ENDBRANCH  12  13
ENDBRANCH  11  12
ENDBRANCH  10  11
ENDBRANCH   1  10
TORSDOF 12
ENDMDL
MODEL 4
REMARK VINA RESULT:    -3.872     12.159     13.436
REMARK INTER + INTRA:          -7.851
REMARK INTER:                  -7.287
REMARK INTRA:                  -0.564
REMARK UNBOUND:                -1.263
REMARK SMILES CCCCCCCCCCCCCC(=O)[O-]
REMARK SMILES IDX 8 1 9 2 10 3 11 4 12 5 13 6 14 7 15 8 16 9 7 10 6 11 5 12
REMARK SMILES IDX 4 13 3 14 2 15 1 16
REMARK H PARENT
REMARK Flexibility Score: inf
ROOT
ATOM      1  C   UNL     1      34.132   8.609  44.017  1.00  0.00     0.000 C 
ENDROOT
BRANCH   1   2
ATOM      2  C   UNL     1      33.267   7.938  42.934  1.00  0.00     0.000 C 
BRANCH   2   3
ATOM      3  C   UNL     1      34.096   7.126  41.927  1.00  0.00     0.000 C 
BRANCH   3   4
ATOM      4  C   UNL     1      33.572   5.685  41.823  1.00  0.00     0.000 C 
BRANCH   4   5
ATOM      5  C   UNL     1      33.952   5.012  40.495  1.00  0.00     0.006 C 
BRANCH   5   6
ATOM      6  C   UNL     1      35.278   4.245  40.579  1.00  0.00     0.053 C 
BRANCH   6   7
ATOM      7  C   UNL     1      36.084   4.456  39.336  1.00  0.00     0.041 C 
ATOM      8  O   UNL     1      36.428   3.473  38.629  1.00  0.00    -0.550 OA
ATOM      9  O   UNL     1      36.411   5.744  38.930  1.00  0.00    -0.550 OA
ENDBRANCH   6   7
ENDBRANCH   5   6
ENDBRANCH   4   5
ENDBRANCH   3   4
ENDBRANCH   2   3
ENDBRANCH   1   2
BRANCH   1  10
ATOM     10  C   UNL     1      33.841   8.149  45.460  1.00  0.00     0.000 C 
BRANCH  10  11
ATOM     11  C   UNL     1      32.926   6.914  45.583  1.00  0.00    -0.000 C 
BRANCH  11  12
ATOM     12  C   UNL     1      32.009   6.905  46.819  1.00  0.00    -0.000 C 
BRANCH  12  13
ATOM     13  C   UNL     1      31.629   5.487  47.269  1.00  0.00    -0.000 C 
BRANCH  13  14
ATOM     14  C   UNL     1      30.989   5.509  48.666  1.00  0.00    -0.000 C 
BRANCH  14  15
ATOM     15  C   UNL     1      31.821   4.744  49.707  1.00  0.00    -0.003 C 
ATOM     16  C   UNL     1      32.130   3.310  49.282  1.00  0.00     0.004 C 
ENDBRANCH  14  15
ENDBRANCH  13  14
ENDBRANCH  12  13
ENDBRANCH  11  12
ENDBRANCH  10  11
ENDBRANCH   1  10
TORSDOF 12
ENDMDL
MODEL 5
REMARK VINA RESULT:    -3.782      9.601     11.629
REMARK INTER + INTRA:          -7.698
REMARK INTER:                  -6.000
REMARK INTRA:                  -1.698
REMARK UNBOUND:                -1.263
REMARK SMILES CCCCCCCCCCCCCC(=O)[O-]
REMARK SMILES IDX 8 1 9 2 10 3 11 4 12 5 13 6 14 7 15 8 16 9 7 10 6 11 5 12
REMARK SMILES IDX 4 13 3 14 2 15 1 16
REMARK H PARENT
REMARK Flexibility Score: inf
ROOT
ATOM      1  C   UNL     1      30.239   9.048  46.077  1.00  0.00     0.000 C 
ENDROOT
BRANCH   1   2
ATOM      2  C   UNL     1      31.724   8.701  46.291  1.00  0.00     0.000 C 
BRANCH   2   3
ATOM      3  C   UNL     1      32.487   8.506  44.973  1.00  0.00     0.000 C 
BRANCH   3   4
ATOM      4  C   UNL     1      33.440   7.305  45.064  1.00  0.00     0.000 C 
BRANCH   4   5
ATOM      5  C   UNL     1      33.021   6.145  44.145  1.00  0.00     0.006 C 
BRANCH   5   6
ATOM      6  C   UNL     1      31.911   6.542  43.163  1.00  0.00     0.053 C 
BRANCH   6   7
ATOM      7  C   UNL     1      31.384   5.333  42.456  1.00  0.00     0.041 C 
ATOM      8  O   UNL     1      31.832   5.016  41.322  1.00  0.00    -0.550 OA
ATOM      9  O   UNL     1      30.433   4.528  43.070  1.00  0.00    -0.550 OA
ENDBRANCH   6   7
ENDBRANCH   5   6
ENDBRANCH   4   5
ENDBRANCH   3   4
ENDBRANCH   2   3
ENDBRANCH   1   2
BRANCH   1  10
ATOM     10  C   UNL     1      29.274   7.846  46.138  1.00  0.00     0.000 C 
BRANCH  10  11
ATOM     11  C   UNL     1      29.671   6.735  47.131  1.00  0.00    -0.000 C 
BRANCH  11  12
ATOM     12  C   UNL     1      30.315   5.492  46.492  1.00  0.00    -0.000 C 
BRANCH  12  13
ATOM     13  C   UNL     1      31.486   4.936  47.315  1.00  0.00    -0.000 C 
BRANCH  13  14
ATOM     14  C   UNL     1      31.634   5.698  48.641  1.00  0.00    -0.000 C 
BRANCH  14  15
ATOM     15  C   UNL     1      31.958   4.771  49.822  1.00  0.00    -0.003 C 
ATOM     16  C   UNL     1      32.084   3.306  49.407  1.00  0.00     0.004 C 
ENDBRANCH  14  15
ENDBRANCH  13  14
ENDBRANCH  12  13
ENDBRANCH  11  12
ENDBRANCH  10  11
ENDBRANCH   1  10
TORSDOF 12
ENDMDL
MODEL 6
REMARK VINA RESULT:    -3.679     15.142     16.433
REMARK INTER + INTRA:          -7.522
REMARK INTER:                  -5.600
REMARK INTRA:                  -1.922
REMARK UNBOUND:                -1.263
REMARK SMILES CCCCCCCCCCCCCC(=O)[O-]
REMARK SMILES IDX 8 1 9 2 10 3 11 4 12 5 13 6 14 7 15 8 16 9 7 10 6 11 5 12
REMARK SMILES IDX 4 13 3 14 2 15 1 16
REMARK H PARENT
REMARK Flexibility Score: inf
ROOT
ATOM      1  C   UNL     1      20.269  -1.476  55.192  1.00  0.00     0.000 C 
ENDROOT
BRANCH   1   2
ATOM      2  C   UNL     1      20.092  -2.161  53.825  1.00  0.00     0.000 C 
BRANCH   2   3
ATOM      3  C   UNL     1      21.303  -3.016  53.424  1.00  0.00     0.000 C 
BRANCH   3   4
ATOM      4  C   UNL     1      21.015  -4.509  53.640  1.00  0.00     0.000 C 
BRANCH   4   5
ATOM      5  C   UNL     1      22.279  -5.312  53.990  1.00  0.00     0.006 C 
BRANCH   5   6
ATOM      6  C   UNL     1      23.570  -4.580  53.602  1.00  0.00     0.053 C 
BRANCH   6   7
ATOM      7  C   UNL     1      24.373  -5.407  52.648  1.00  0.00     0.041 C 
ATOM      8  O   UNL     1      25.571  -5.691  52.909  1.00  0.00    -0.550 OA
ATOM      9  O   UNL     1      23.782  -5.906  51.494  1.00  0.00    -0.550 OA
ENDBRANCH   6   7
ENDBRANCH   5   6
ENDBRANCH   4   5
ENDBRANCH   3   4
ENDBRANCH   2   3
ENDBRANCH   1   2
BRANCH   1  10
ATOM     10  C   UNL     1      21.524  -0.587  55.318  1.00  0.00     0.000 C 
BRANCH  10  11
ATOM     11  C   UNL     1      22.524  -1.015  56.409  1.00  0.00    -0.000 C 
BRANCH  11  12
ATOM     12  C   UNL     1      23.650  -1.949  55.929  1.00  0.00    -0.000 C 
BRANCH  12  13
ATOM     13  C   UNL     1      24.070  -2.973  56.994  1.00  0.00    -0.000 C 
BRANCH  13  14
ATOM     14  C   UNL     1      22.900  -3.298  57.934  1.00  0.00    -0.000 C 
BRANCH  14  15
ATOM     15  C   UNL     1      21.988  -4.404  57.380  1.00  0.00    -0.003 C 
ATOM     16  C   UNL     1      20.505  -4.120  57.612  1.00  0.00     0.004 C 
ENDBRANCH  14  15
ENDBRANCH  13  14
ENDBRANCH  12  13
ENDBRANCH  11  12
ENDBRANCH  10  11
ENDBRANCH   1  10
TORSDOF 12
ENDMDL
MODEL 7
REMARK VINA RESULT:    -3.679     10.141     12.011
REMARK INTER + INTRA:          -7.522
REMARK INTER:                  -5.700
REMARK INTRA:                  -1.821
REMARK UNBOUND:                -1.263
REMARK SMILES CCCCCCCCCCCCCC(=O)[O-]
REMARK SMILES IDX 8 1 9 2 10 3 11 4 12 5 13 6 14 7 15 8 16 9 7 10 6 11 5 12
REMARK SMILES IDX 4 13 3 14 2 15 1 16
REMARK H PARENT
REMARK Flexibility Score: inf
ROOT
ATOM      1  C   UNL     1      30.744   9.343  45.609  1.00  0.00     0.000 C 
ENDROOT
BRANCH   1   2
ATOM      2  C   UNL     1      29.987   8.447  46.606  1.00  0.00     0.000 C 
BRANCH   2   3
ATOM      3  C   UNL     1      29.373   7.204  45.944  1.00  0.00     0.000 C 
BRANCH   3   4
ATOM      4  C   UNL     1      29.595   5.956  46.811  1.00  0.00     0.000 C 
BRANCH   4   5
ATOM      5  C   UNL     1      30.828   6.078  47.722  1.00  0.00     0.006 C 
BRANCH   5   6
ATOM      6  C   UNL     1      31.720   4.831  47.678  1.00  0.00     0.053 C 
BRANCH   6   7
ATOM      7  C   UNL     1      31.725   4.147  49.009  1.00  0.00     0.041 C 
ATOM      8  O   UNL     1      32.632   3.320  49.293  1.00  0.00    -0.550 OA
ATOM      9  O   UNL     1      30.757   4.459  49.956  1.00  0.00    -0.550 OA
ENDBRANCH   6   7
ENDBRANCH   5   6
ENDBRANCH   4   5
ENDBRANCH   3   4
ENDBRANCH   2   3
ENDBRANCH   1   2
BRANCH   1  10
ATOM     10  C   UNL     1      31.805  10.268  46.240  1.00  0.00     0.000 C 
BRANCH  10  11
ATOM     11  C   UNL     1      33.269   9.860  45.980  1.00  0.00    -0.000 C 
BRANCH  11  12
ATOM     12  C   UNL     1      33.606   8.398  46.323  1.00  0.00    -0.000 C 
BRANCH  12  13
ATOM     13  C   UNL     1      33.983   7.567  45.087  1.00  0.00    -0.000 C 
BRANCH  13  14
ATOM     14  C   UNL     1      33.003   6.400  44.892  1.00  0.00    -0.000 C 
BRANCH  14  15
ATOM     15  C   UNL     1      32.257   6.474  43.551  1.00  0.00    -0.003 C 
ATOM     16  C   UNL     1      31.458   5.208  43.246  1.00  0.00     0.004 C 
ENDBRANCH  14  15
ENDBRANCH  13  14
ENDBRANCH  12  13
ENDBRANCH  11  12
ENDBRANCH  10  11
ENDBRANCH   1  10
TORSDOF 12
ENDMDL
MODEL 8
REMARK VINA RESULT:    -3.638      8.903     11.303
REMARK INTER + INTRA:          -7.452
REMARK INTER:                  -6.246
REMARK INTRA:                  -1.206
REMARK UNBOUND:                -1.263
REMARK SMILES CCCCCCCCCCCCCC(=O)[O-]
REMARK SMILES IDX 8 1 9 2 10 3 11 4 12 5 13 6 14 7 15 8 16 9 7 10 6 11 5 12
REMARK SMILES IDX 4 13 3 14 2 15 1 16
REMARK H PARENT
REMARK Flexibility Score: inf
ROOT
ATOM      1  C   UNL     1      33.117   7.474  44.032  1.00  0.00     0.000 C 
ENDROOT
BRANCH   1   2
ATOM      2  C   UNL     1      33.018   6.111  43.321  1.00  0.00     0.000 C 
BRANCH   2   3
ATOM      3  C   UNL     1      31.629   5.468  43.455  1.00  0.00     0.000 C 
BRANCH   3   4
ATOM      4  C   UNL     1      30.520   6.510  43.242  1.00  0.00     0.000 C 
BRANCH   4   5
ATOM      5  C   UNL     1      30.083   6.618  41.772  1.00  0.00     0.006 C 
BRANCH   5   6
ATOM      6  C   UNL     1      29.705   5.260  41.167  1.00  0.00     0.053 C 
BRANCH   6   7
ATOM      7  C   UNL     1      30.490   5.008  39.919  1.00  0.00     0.041 C 
ATOM      8  O   UNL     1      29.955   4.424  38.940  1.00  0.00    -0.550 OA
ATOM      9  O   UNL     1      31.799   5.462  39.817  1.00  0.00    -0.550 OA
ENDBRANCH   6   7
ENDBRANCH   5   6
ENDBRANCH   4   5
ENDBRANCH   3   4
ENDBRANCH   2   3
ENDBRANCH   1   2
BRANCH   1  10
ATOM     10  C   UNL     1      33.763   7.432  45.432  1.00  0.00     0.000 C 
BRANCH  10  11
ATOM     11  C   UNL     1      32.888   7.987  46.574  1.00  0.00    -0.000 C 
BRANCH  11  12
ATOM     12  C   UNL     1      31.568   7.231  46.808  1.00  0.00    -0.000 C 
BRANCH  12  13
ATOM     13  C   UNL     1      31.775   5.730  47.057  1.00  0.00    -0.000 C 
BRANCH  13  14
ATOM     14  C   UNL     1      31.008   5.270  48.306  1.00  0.00    -0.000 C 
BRANCH  14  15
ATOM     15  C   UNL     1      31.874   5.298  49.574  1.00  0.00    -0.003 C 
ATOM     16  C   UNL     1      32.209   3.901  50.094  1.00  0.00     0.004 C 
ENDBRANCH  14  15
ENDBRANCH  13  14
ENDBRANCH  12  13
ENDBRANCH  11  12
ENDBRANCH  10  11
ENDBRANCH   1  10
TORSDOF 12
ENDMDL
MODEL 9
REMARK VINA RESULT:    -3.595     14.973     16.270
REMARK INTER + INTRA:          -7.379
REMARK INTER:                  -5.579
REMARK INTRA:                  -1.800
REMARK UNBOUND:                -1.263
REMARK SMILES CCCCCCCCCCCCCC(=O)[O-]
REMARK SMILES IDX 8 1 9 2 10 3 11 4 12 5 13 6 14 7 15 8 16 9 7 10 6 11 5 12
REMARK SMILES IDX 4 13 3 14 2 15 1 16
REMARK H PARENT
REMARK Flexibility Score: inf
ROOT
ATOM      1  C   UNL     1      22.583  -1.738  54.550  1.00  0.00     0.000 C 
ENDROOT
BRANCH   1   2
ATOM      2  C   UNL     1      23.856  -2.123  55.327  1.00  0.00     0.000 C 
BRANCH   2   3
ATOM      3  C   UNL     1      23.953  -3.631  55.601  1.00  0.00     0.000 C 
BRANCH   3   4
ATOM      4  C   UNL     1      23.316  -4.438  54.460  1.00  0.00     0.000 C 
BRANCH   4   5
ATOM      5  C   UNL     1      24.361  -5.042  53.507  1.00  0.00     0.006 C 
BRANCH   5   6
ATOM      6  C   UNL     1      23.854  -5.146  52.063  1.00  0.00     0.053 C 
BRANCH   6   7
ATOM      7  C   UNL     1      23.454  -3.797  51.552  1.00  0.00     0.041 C 
ATOM      8  O   UNL     1      24.319  -2.895  51.400  1.00  0.00    -0.550 OA
ATOM      9  O   UNL     1      22.134  -3.553  51.196  1.00  0.00    -0.550 OA
ENDBRANCH   6   7
ENDBRANCH   5   6
ENDBRANCH   4   5
ENDBRANCH   3   4
ENDBRANCH   2   3
ENDBRANCH   1   2
BRANCH   1  10
ATOM     10  C   UNL     1      21.592  -0.846  55.326  1.00  0.00     0.000 C 
BRANCH  10  11
ATOM     11  C   UNL     1      22.129  -0.267  56.650  1.00  0.00    -0.000 C 
BRANCH  11  12
ATOM     12  C   UNL     1      21.570  -0.929  57.923  1.00  0.00    -0.000 C 
BRANCH  12  13
ATOM     13  C   UNL     1      20.346  -1.814  57.647  1.00  0.00    -0.000 C 
BRANCH  13  14
ATOM     14  C   UNL     1      20.624  -3.272  58.046  1.00  0.00    -0.000 C 
BRANCH  14  15
ATOM     15  C   UNL     1      20.485  -4.243  56.864  1.00  0.00    -0.003 C 
ATOM     16  C   UNL     1      21.010  -5.642  57.182  1.00  0.00     0.004 C 
ENDBRANCH  14  15
ENDBRANCH  13  14
ENDBRANCH  12  13
ENDBRANCH  11  12
ENDBRANCH  10  11
ENDBRANCH   1  10
TORSDOF 12
ENDMDL
