MODEL 1
REMARK VINA RESULT:    24.004      0.000      0.000
REMARK INTER + INTRA:          28.626
REMARK INTER:                  28.915
REMARK INTRA:                  -0.289
REMARK UNBOUND:                -0.289
REMARK SMILES O=c1c(O)c(-c2ccc(O)c(O)c2)oc2cc(O)cc(O)c12
REMARK SMILES IDX 5 1 3 2 2 3 1 4 22 5 20 6 19 7 17 8 16 9 15 10 14 11 6 12
REMARK SMILES IDX 7 13 8 14 9 15 13 16 11 17 10 18 12 20 4 22 21 24 18 26
REMARK H PARENT 10 19 12 21 4 23 21 25 18 27
REMARK Flexibility Score: inf
ROOT
ATOM      1  C   UNL     1      -6.168  -7.520  16.439  1.00  0.00     0.180 A 
ATOM      2  C   UNL     1      -5.742  -8.451  17.403  1.00  0.00     0.208 A 
ATOM      3  C   UNL     1      -6.012  -9.814  17.199  1.00  0.00     0.238 A 
ATOM      4  O   UNL     1      -5.676 -10.636  18.092  1.00  0.00    -0.285 OA
ATOM      5  C   UNL     1      -6.689 -10.232  16.028  1.00  0.00     0.111 A 
ATOM      6  C   UNL     1      -6.979 -11.590  15.701  1.00  0.00     0.134 A 
ATOM      7  C   UNL     1      -7.769 -11.876  14.581  1.00  0.00     0.093 A 
ATOM      8  C   UNL     1      -8.224 -10.858  13.740  1.00  0.00     0.123 A 
ATOM      9  C   UNL     1      -7.896  -9.533  14.019  1.00  0.00     0.094 A 
ATOM     10  C   UNL     1      -7.140  -9.212  15.150  1.00  0.00     0.146 A 
ATOM     11  O   UNL     1      -6.858  -7.937  15.383  1.00  0.00    -0.452 OA
ENDROOT
BRANCH   1  12
ATOM     12  C   UNL     1      -5.899  -6.070  16.570  1.00  0.00     0.025 A 
ATOM     13  C   UNL     1      -4.629  -5.535  16.304  1.00  0.00     0.016 A 
ATOM     14  C   UNL     1      -4.405  -4.162  16.411  1.00  0.00     0.051 A 
ATOM     15  C   UNL     1      -5.442  -3.295  16.772  1.00  0.00     0.157 A 
ATOM     16  C   UNL     1      -6.947  -5.201  16.911  1.00  0.00     0.062 A 
ATOM     17  C   UNL     1      -6.732  -3.821  17.022  1.00  0.00     0.158 A 
BRANCH  15  18
ATOM     18  O   UNL     1      -5.151  -1.932  16.866  1.00  0.00    -0.504 OA
ATOM     19  H   UNL     1      -4.345  -1.559  17.344  1.00  0.00     0.293 HD
ENDBRANCH  15  18
BRANCH  17  20
ATOM     20  O   UNL     1      -7.818  -3.019  17.378  1.00  0.00    -0.504 OA
ATOM     21  H   UNL     1      -8.264  -3.042  18.283  1.00  0.00     0.293 HD
ENDBRANCH  17  20
ENDBRANCH   1  12
BRANCH   2  22
ATOM     22  O   UNL     1      -5.094  -8.015  18.562  1.00  0.00    -0.502 OA
ATOM     23  H   UNL     1      -4.086  -8.024  18.658  1.00  0.00     0.293 HD
ENDBRANCH   2  22
BRANCH   6  24
ATOM     24  O   UNL     1      -6.497 -12.686  16.421  1.00  0.00    -0.507 OA
ATOM     25  H   UNL     1      -6.973 -13.119  17.198  1.00  0.00     0.293 HD
ENDBRANCH   6  24
BRANCH   8  26
ATOM     26  O   UNL     1      -8.996 -11.153  12.618  1.00  0.00    -0.508 OA
ATOM     27  H   UNL     1      -9.823 -10.614  12.387  1.00  0.00     0.293 HD
ENDBRANCH   8  26
TORSDOF 6
ENDMDL
MODEL 2
REMARK VINA RESULT:    25.018      1.243      2.865
REMARK INTER + INTRA:          29.848
REMARK INTER:                  30.047
REMARK INTRA:                  -0.199
REMARK UNBOUND:                -0.289
REMARK SMILES O=c1c(O)c(-c2ccc(O)c(O)c2)oc2cc(O)cc(O)c12
REMARK SMILES IDX 5 1 3 2 2 3 1 4 22 5 20 6 19 7 17 8 16 9 15 10 14 11 6 12
REMARK SMILES IDX 7 13 8 14 9 15 13 16 11 17 10 18 12 20 4 22 21 24 18 26
REMARK H PARENT 10 19 12 21 4 23 21 25 18 27
REMARK Flexibility Score: inf
ROOT
ATOM      1  C   UNL     1      -6.491  -7.751  15.801  1.00  0.00     0.180 A 
ATOM      2  C   UNL     1      -7.313  -8.027  14.694  1.00  0.00     0.208 A 
ATOM      3  C   UNL     1      -7.603  -9.364  14.379  1.00  0.00     0.238 A 
ATOM      4  O   UNL     1      -8.296  -9.606  13.355  1.00  0.00    -0.285 OA
ATOM      5  C   UNL     1      -7.082 -10.407  15.181  1.00  0.00     0.111 A 
ATOM      6  C   UNL     1      -7.344 -11.795  14.976  1.00  0.00     0.134 A 
ATOM      7  C   UNL     1      -6.670 -12.746  15.752  1.00  0.00     0.093 A 
ATOM      8  C   UNL     1      -5.793 -12.358  16.767  1.00  0.00     0.123 A 
ATOM      9  C   UNL     1      -5.576 -11.004  17.013  1.00  0.00     0.094 A 
ATOM     10  C   UNL     1      -6.206 -10.031  16.233  1.00  0.00     0.146 A 
ATOM     11  O   UNL     1      -5.964  -8.754  16.494  1.00  0.00    -0.452 OA
ENDROOT
BRANCH   1  12
ATOM     12  C   UNL     1      -6.159  -6.367  16.211  1.00  0.00     0.025 A 
ATOM     13  C   UNL     1      -4.865  -5.849  16.054  1.00  0.00     0.016 A 
ATOM     14  C   UNL     1      -4.581  -4.534  16.426  1.00  0.00     0.051 A 
ATOM     15  C   UNL     1      -5.581  -3.707  16.948  1.00  0.00     0.157 A 
ATOM     16  C   UNL     1      -7.170  -5.534  16.715  1.00  0.00     0.062 A 
ATOM     17  C   UNL     1      -6.895  -4.213  17.092  1.00  0.00     0.158 A 
BRANCH  15  18
ATOM     18  O   UNL     1      -5.230  -2.403  17.305  1.00  0.00    -0.504 OA
ATOM     19  H   UNL     1      -5.656  -1.893  18.065  1.00  0.00     0.293 HD
ENDBRANCH  15  18
BRANCH  17  20
ATOM     20  O   UNL     1      -7.947  -3.447  17.596  1.00  0.00    -0.504 OA
ATOM     21  H   UNL     1      -7.838  -2.737  18.307  1.00  0.00     0.293 HD
ENDBRANCH  17  20
ENDBRANCH   1  12
BRANCH   2  22
ATOM     22  O   UNL     1      -7.800  -6.983  13.902  1.00  0.00    -0.502 OA
ATOM     23  H   UNL     1      -8.599  -7.092  13.290  1.00  0.00     0.293 HD
ENDBRANCH   2  22
BRANCH   6  24
ATOM     24  O   UNL     1      -8.270 -12.286  14.052  1.00  0.00    -0.507 OA
ATOM     25  H   UNL     1      -8.575 -13.247  13.999  1.00  0.00     0.293 HD
ENDBRANCH   6  24
BRANCH   8  26
ATOM     26  O   UNL     1      -5.139 -13.311  17.545  1.00  0.00    -0.508 OA
ATOM     27  H   UNL     1      -5.314 -14.302  17.427  1.00  0.00     0.293 HD
ENDBRANCH   8  26
TORSDOF 6
ENDMDL
