MODEL 1
REMARK VINA RESULT:    -6.543      0.000      0.000
REMARK INTER + INTRA:          -8.458
REMARK INTER:                  -8.074
REMARK INTRA:                  -0.385
REMARK UNBOUND:                -0.385
REMARK SMILES Oc1cc(O)c2cc(O)c(-c3cc(O)c(O)c(O)c3)[o+]c2c1
REMARK SMILES IDX 10 1 20 2 21 3 22 4 2 5 3 6 4 7 6 8 7 9 8 10 11 11 12 12
REMARK SMILES IDX 13 13 19 14 15 15 17 16 14 17 16 19 18 21 9 23 1 25 5 27
REMARK H PARENT 14 18 16 20 18 22 9 24 1 26 5 28
REMARK Flexibility Score: inf
ROOT
ATOM      1  C   UNL     1      30.485  17.622 -18.500  1.00  0.00     0.402 A 
ATOM      2  O   UNL     1      29.301  17.754 -19.090  1.00  0.00    -0.202 OA
ATOM      3  C   UNL     1      28.413  16.768 -19.173  1.00  0.00     0.368 A 
ATOM      4  C   UNL     1      27.195  17.002 -19.816  1.00  0.00     0.162 A 
ATOM      5  C   UNL     1      26.245  15.985 -19.921  1.00  0.00     0.128 A 
ATOM      6  C   UNL     1      26.513  14.723 -19.379  1.00  0.00     0.093 A 
ATOM      7  C   UNL     1      27.726  14.463 -18.730  1.00  0.00     0.136 A 
ATOM      8  C   UNL     1      28.694  15.496 -18.618  1.00  0.00     0.125 A 
ATOM      9  C   UNL     1      29.930  15.330 -17.973  1.00  0.00     0.078 A 
ATOM     10  C   UNL     1      30.832  16.396 -17.901  1.00  0.00     0.223 A 
ENDROOT
BRANCH   1  11
ATOM     11  C   UNL     1      31.394  18.792 -18.481  1.00  0.00     0.091 A 
ATOM     12  C   UNL     1      31.272  19.742 -17.456  1.00  0.00     0.068 A 
ATOM     13  C   UNL     1      32.103  20.867 -17.423  1.00  0.00     0.162 A 
ATOM     14  C   UNL     1      32.338  19.001 -19.500  1.00  0.00     0.068 A 
ATOM     15  C   UNL     1      33.060  21.062 -18.433  1.00  0.00     0.200 A 
ATOM     16  C   UNL     1      33.173  20.127 -19.476  1.00  0.00     0.162 A 
BRANCH  13  17
ATOM     17  O   UNL     1      31.961  21.781 -16.379  1.00  0.00    -0.504 OA
ATOM     18  H   UNL     1      31.060  22.161 -16.115  1.00  0.00     0.293 HD
ENDBRANCH  13  17
BRANCH  15  19
ATOM     19  O   UNL     1      33.888  22.185 -18.391  1.00  0.00    -0.502 OA
ATOM     20  H   UNL     1      34.740  22.249 -18.935  1.00  0.00     0.293 HD
ENDBRANCH  15  19
BRANCH  16  21
ATOM     21  O   UNL     1      34.111  20.322 -20.489  1.00  0.00    -0.504 OA
ATOM     22  H   UNL     1      34.825  19.631 -20.693  1.00  0.00     0.293 HD
ENDBRANCH  16  21
ENDBRANCH   1  11
BRANCH  10  23
ATOM     23  O   UNL     1      32.038  16.247 -17.217  1.00  0.00    -0.500 OA
ATOM     24  H   UNL     1      32.076  16.207 -16.206  1.00  0.00     0.294 HD
ENDBRANCH  10  23
BRANCH   5  25
ATOM     25  O   UNL     1      25.037  16.239 -20.566  1.00  0.00    -0.507 OA
ATOM     26  H   UNL     1      25.005  16.553 -21.528  1.00  0.00     0.293 HD
ENDBRANCH   5  25
BRANCH   7  27
ATOM     27  O   UNL     1      27.919  13.177 -18.218  1.00  0.00    -0.507 OA
ATOM     28  H   UNL     1      28.297  12.403 -18.746  1.00  0.00     0.293 HD
ENDBRANCH   7  27
TORSDOF 7
ENDMDL
MODEL 2
REMARK VINA RESULT:    -6.472      0.114      1.797
REMARK INTER + INTRA:          -8.370
REMARK INTER:                  -7.992
REMARK INTRA:                  -0.379
REMARK UNBOUND:                -0.385
REMARK SMILES Oc1cc(O)c2cc(O)c(-c3cc(O)c(O)c(O)c3)[o+]c2c1
REMARK SMILES IDX 10 1 20 2 21 3 22 4 2 5 3 6 4 7 6 8 7 9 8 10 11 11 12 12
REMARK SMILES IDX 13 13 19 14 15 15 17 16 14 17 16 19 18 21 9 23 1 25 5 27
REMARK H PARENT 14 18 16 20 18 22 9 24 1 26 5 28
REMARK Flexibility Score: inf
ROOT
ATOM      1  C   UNL     1      30.391  17.620 -18.471  1.00  0.00     0.402 A 
ATOM      2  O   UNL     1      29.194  17.722 -19.041  1.00  0.00    -0.202 OA
ATOM      3  C   UNL     1      28.342  16.707 -19.134  1.00  0.00     0.368 A 
ATOM      4  C   UNL     1      27.107  16.910 -19.754  1.00  0.00     0.162 A 
ATOM      5  C   UNL     1      26.193  15.862 -19.869  1.00  0.00     0.128 A 
ATOM      6  C   UNL     1      26.515  14.598 -19.360  1.00  0.00     0.093 A 
ATOM      7  C   UNL     1      27.746  14.368 -18.735  1.00  0.00     0.136 A 
ATOM      8  C   UNL     1      28.677  15.433 -18.614  1.00  0.00     0.125 A 
ATOM      9  C   UNL     1      29.929  15.298 -17.991  1.00  0.00     0.078 A 
ATOM     10  C   UNL     1      30.792  16.395 -17.906  1.00  0.00     0.223 A 
ENDROOT
BRANCH   1  11
ATOM     11  C   UNL     1      31.257  18.822 -18.438  1.00  0.00     0.091 A 
ATOM     12  C   UNL     1      32.206  19.015 -19.454  1.00  0.00     0.068 A 
ATOM     13  C   UNL     1      33.050  20.130 -19.439  1.00  0.00     0.162 A 
ATOM     14  C   UNL     1      31.188  19.745 -17.381  1.00  0.00     0.068 A 
ATOM     15  C   UNL     1      32.964  21.062 -18.390  1.00  0.00     0.200 A 
ATOM     16  C   UNL     1      32.032  20.864 -17.357  1.00  0.00     0.162 A 
BRANCH  13  17
ATOM     17  O   UNL     1      33.970  20.294 -20.474  1.00  0.00    -0.504 OA
ATOM     18  H   UNL     1      34.794  20.875 -20.377  1.00  0.00     0.293 HD
ENDBRANCH  13  17
BRANCH  15  19
ATOM     19  O   UNL     1      33.808  22.174 -18.385  1.00  0.00    -0.502 OA
ATOM     20  H   UNL     1      33.749  22.899 -19.090  1.00  0.00     0.293 HD
ENDBRANCH  15  19
BRANCH  16  21
ATOM     21  O   UNL     1      31.951  21.778 -16.307  1.00  0.00    -0.504 OA
ATOM     22  H   UNL     1      32.334  21.570 -15.392  1.00  0.00     0.293 HD
ENDBRANCH  16  21
ENDBRANCH   1  11
BRANCH  10  23
ATOM     23  O   UNL     1      32.013  16.274 -17.244  1.00  0.00    -0.500 OA
ATOM     24  H   UNL     1      32.136  16.592 -16.290  1.00  0.00     0.294 HD
ENDBRANCH  10  23
BRANCH   5  25
ATOM     25  O   UNL     1      24.966  16.085 -20.490  1.00  0.00    -0.507 OA
ATOM     26  H   UNL     1      24.120  16.234 -19.954  1.00  0.00     0.293 HD
ENDBRANCH   5  25
BRANCH   7  27
ATOM     27  O   UNL     1      27.994  13.078 -18.257  1.00  0.00    -0.507 OA
ATOM     28  H   UNL     1      27.771  12.762 -17.324  1.00  0.00     0.293 HD
ENDBRANCH   7  27
TORSDOF 7
ENDMDL
MODEL 3
REMARK VINA RESULT:    -6.383      6.104      8.597
REMARK INTER + INTRA:          -8.260
REMARK INTER:                  -7.881
REMARK INTRA:                  -0.379
REMARK UNBOUND:                -0.385
REMARK SMILES Oc1cc(O)c2cc(O)c(-c3cc(O)c(O)c(O)c3)[o+]c2c1
REMARK SMILES IDX 10 1 20 2 21 3 22 4 2 5 3 6 4 7 6 8 7 9 8 10 11 11 12 12
REMARK SMILES IDX 13 13 19 14 15 15 17 16 14 17 16 19 18 21 9 23 1 25 5 27
REMARK H PARENT 14 18 16 20 18 22 9 24 1 26 5 28
REMARK Flexibility Score: inf
ROOT
ATOM      1  C   UNL     1      30.987  12.053 -22.176  1.00  0.00     0.402 A 
ATOM      2  O   UNL     1      29.912  11.828 -21.427  1.00  0.00    -0.202 OA
ATOM      3  C   UNL     1      29.070  12.786 -21.053  1.00  0.00     0.368 A 
ATOM      4  C   UNL     1      27.967  12.451 -20.262  1.00  0.00     0.162 A 
ATOM      5  C   UNL     1      27.067  13.436 -19.852  1.00  0.00     0.128 A 
ATOM      6  C   UNL     1      27.270  14.767 -20.235  1.00  0.00     0.093 A 
ATOM      7  C   UNL     1      28.367  15.128 -21.026  1.00  0.00     0.136 A 
ATOM      8  C   UNL     1      29.282  14.129 -21.448  1.00  0.00     0.125 A 
ATOM      9  C   UNL     1      30.402  14.397 -22.253  1.00  0.00     0.078 A 
ATOM     10  C   UNL     1      31.257  13.357 -22.631  1.00  0.00     0.223 A 
ENDROOT
BRANCH   1  11
ATOM     11  C   UNL     1      31.857  10.904 -22.518  1.00  0.00     0.091 A 
ATOM     12  C   UNL     1      32.974  10.623 -21.716  1.00  0.00     0.068 A 
ATOM     13  C   UNL     1      33.824   9.556 -22.026  1.00  0.00     0.162 A 
ATOM     14  C   UNL     1      31.621  10.122 -23.661  1.00  0.00     0.068 A 
ATOM     15  C   UNL     1      33.572   8.764 -23.158  1.00  0.00     0.200 A 
ATOM     16  C   UNL     1      32.469   9.052 -23.980  1.00  0.00     0.162 A 
BRANCH  13  17
ATOM     17  O   UNL     1      34.915   9.300 -21.196  1.00  0.00    -0.504 OA
ATOM     18  H   UNL     1      35.871   9.406 -21.514  1.00  0.00     0.293 HD
ENDBRANCH  13  17
BRANCH  15  19
ATOM     19  O   UNL     1      34.424   7.699 -23.458  1.00  0.00    -0.502 OA
ATOM     20  H   UNL     1      35.278   7.824 -23.988  1.00  0.00     0.293 HD
ENDBRANCH  15  19
BRANCH  16  21
ATOM     21  O   UNL     1      32.222   8.279 -25.113  1.00  0.00    -0.504 OA
ATOM     22  H   UNL     1      31.514   7.554 -25.117  1.00  0.00     0.293 HD
ENDBRANCH  16  21
ENDBRANCH   1  11
BRANCH  10  23
ATOM     23  O   UNL     1      32.340  13.615 -23.472  1.00  0.00    -0.500 OA
ATOM     24  H   UNL     1      33.273  13.283 -23.257  1.00  0.00     0.294 HD
ENDBRANCH  10  23
BRANCH   5  25
ATOM     25  O   UNL     1      25.974  13.082 -19.064  1.00  0.00    -0.507 OA
ATOM     26  H   UNL     1      25.760  13.573 -18.205  1.00  0.00     0.293 HD
ENDBRANCH   5  25
BRANCH   7  27
ATOM     27  O   UNL     1      28.501  16.478 -21.362  1.00  0.00    -0.507 OA
ATOM     28  H   UNL     1      28.169  17.244 -20.794  1.00  0.00     0.293 HD
ENDBRANCH   7  27
TORSDOF 7
ENDMDL
MODEL 4
REMARK VINA RESULT:    -6.332      6.170      8.774
REMARK INTER + INTRA:          -8.198
REMARK INTER:                  -7.818
REMARK INTRA:                  -0.379
REMARK UNBOUND:                -0.385
REMARK SMILES Oc1cc(O)c2cc(O)c(-c3cc(O)c(O)c(O)c3)[o+]c2c1
REMARK SMILES IDX 10 1 20 2 21 3 22 4 2 5 3 6 4 7 6 8 7 9 8 10 11 11 12 12
REMARK SMILES IDX 13 13 19 14 15 15 17 16 14 17 16 19 18 21 9 23 1 25 5 27
REMARK H PARENT 14 18 16 20 18 22 9 24 1 26 5 28
REMARK Flexibility Score: inf
ROOT
ATOM      1  C   UNL     1      30.545  12.576 -23.113  1.00  0.00     0.402 A 
ATOM      2  O   UNL     1      29.440  12.504 -22.376  1.00  0.00    -0.202 OA
ATOM      3  C   UNL     1      28.604  13.525 -22.214  1.00  0.00     0.368 A 
ATOM      4  C   UNL     1      27.469  13.354 -21.418  1.00  0.00     0.162 A 
ATOM      5  C   UNL     1      26.574  14.408 -21.228  1.00  0.00     0.128 A 
ATOM      6  C   UNL     1      26.815  15.644 -21.839  1.00  0.00     0.093 A 
ATOM      7  C   UNL     1      27.945  15.841 -22.642  1.00  0.00     0.136 A 
ATOM      8  C   UNL     1      28.855  14.770 -22.840  1.00  0.00     0.125 A 
ATOM      9  C   UNL     1      30.007  14.872 -23.638  1.00  0.00     0.078 A 
ATOM     10  C   UNL     1      30.855  13.771 -23.788  1.00  0.00     0.223 A 
ENDROOT
BRANCH   1  11
ATOM     11  C   UNL     1      31.404  11.372 -23.207  1.00  0.00     0.091 A 
ATOM     12  C   UNL     1      31.176  10.443 -24.234  1.00  0.00     0.068 A 
ATOM     13  C   UNL     1      31.959   9.288 -24.337  1.00  0.00     0.162 A 
ATOM     14  C   UNL     1      32.405  11.111 -22.257  1.00  0.00     0.068 A 
ATOM     15  C   UNL     1      32.973   9.041 -23.396  1.00  0.00     0.200 A 
ATOM     16  C   UNL     1      33.192   9.955 -22.352  1.00  0.00     0.162 A 
BRANCH  13  17
ATOM     17  O   UNL     1      31.711   8.396 -25.380  1.00  0.00    -0.504 OA
ATOM     18  H   UNL     1      31.243   7.510 -25.232  1.00  0.00     0.293 HD
ENDBRANCH  13  17
BRANCH  15  19
ATOM     19  O   UNL     1      33.751   7.888 -23.508  1.00  0.00    -0.502 OA
ATOM     20  H   UNL     1      33.628   7.092 -22.894  1.00  0.00     0.293 HD
ENDBRANCH  15  19
BRANCH  16  21
ATOM     21  O   UNL     1      34.188   9.709 -21.407  1.00  0.00    -0.504 OA
ATOM     22  H   UNL     1      34.645  10.464 -20.908  1.00  0.00     0.293 HD
ENDBRANCH  16  21
ENDBRANCH   1  11
BRANCH  10  23
ATOM     23  O   UNL     1      31.971  13.856 -24.621  1.00  0.00    -0.500 OA
ATOM     24  H   UNL     1      32.316  13.054 -25.133  1.00  0.00     0.294 HD
ENDBRANCH  10  23
BRANCH   5  25
ATOM     25  O   UNL     1      25.448  14.218 -20.430  1.00  0.00    -0.507 OA
ATOM     26  H   UNL     1      25.057  13.297 -20.277  1.00  0.00     0.293 HD
ENDBRANCH   5  25
BRANCH   7  27
ATOM     27  O   UNL     1      28.116  17.105 -23.214  1.00  0.00    -0.507 OA
ATOM     28  H   UNL     1      29.013  17.533 -23.394  1.00  0.00     0.293 HD
ENDBRANCH   7  27
TORSDOF 7
ENDMDL
MODEL 5
REMARK VINA RESULT:    -6.252      6.056      8.633
REMARK INTER + INTRA:          -8.098
REMARK INTER:                  -7.729
REMARK INTRA:                  -0.369
REMARK UNBOUND:                -0.385
REMARK SMILES Oc1cc(O)c2cc(O)c(-c3cc(O)c(O)c(O)c3)[o+]c2c1
REMARK SMILES IDX 10 1 20 2 21 3 22 4 2 5 3 6 4 7 6 8 7 9 8 10 11 11 12 12
REMARK SMILES IDX 13 13 19 14 15 15 17 16 14 17 16 19 18 21 9 23 1 25 5 27
REMARK H PARENT 14 18 16 20 18 22 9 24 1 26 5 28
REMARK Flexibility Score: inf
ROOT
ATOM      1  C   UNL     1      30.313  12.697 -23.187  1.00  0.00     0.402 A 
ATOM      2  O   UNL     1      29.185  12.696 -22.483  1.00  0.00    -0.202 OA
ATOM      3  C   UNL     1      28.400  13.761 -22.361  1.00  0.00     0.368 A 
ATOM      4  C   UNL     1      27.234  13.663 -21.597  1.00  0.00     0.162 A 
ATOM      5  C   UNL     1      26.392  14.766 -21.448  1.00  0.00     0.128 A 
ATOM      6  C   UNL     1      26.717  15.978 -22.069  1.00  0.00     0.093 A 
ATOM      7  C   UNL     1      27.879  16.103 -22.839  1.00  0.00     0.136 A 
ATOM      8  C   UNL     1      28.737  14.982 -22.995  1.00  0.00     0.125 A 
ATOM      9  C   UNL     1      29.915  15.011 -23.759  1.00  0.00     0.078 A 
ATOM     10  C   UNL     1      30.707  13.864 -23.868  1.00  0.00     0.223 A 
ENDROOT
BRANCH   1  11
ATOM     11  C   UNL     1      31.109  11.449 -23.238  1.00  0.00     0.091 A 
ATOM     12  C   UNL     1      32.057  11.194 -22.235  1.00  0.00     0.068 A 
ATOM     13  C   UNL     1      32.836  10.033 -22.268  1.00  0.00     0.162 A 
ATOM     14  C   UNL     1      30.976  10.540 -24.301  1.00  0.00     0.068 A 
ATOM     15  C   UNL     1      32.686   9.116 -23.322  1.00  0.00     0.200 A 
ATOM     16  C   UNL     1      31.755   9.374 -24.343  1.00  0.00     0.162 A 
BRANCH  13  17
ATOM     17  O   UNL     1      33.757   9.809 -21.245  1.00  0.00    -0.504 OA
ATOM     18  H   UNL     1      33.493   9.832 -20.267  1.00  0.00     0.293 HD
ENDBRANCH  13  17
BRANCH  15  19
ATOM     19  O   UNL     1      33.465   7.958 -23.345  1.00  0.00    -0.502 OA
ATOM     20  H   UNL     1      34.435   7.967 -23.638  1.00  0.00     0.293 HD
ENDBRANCH  15  19
BRANCH  16  21
ATOM     21  O   UNL     1      31.611   8.476 -25.398  1.00  0.00    -0.504 OA
ATOM     22  H   UNL     1      30.787   7.892 -25.491  1.00  0.00     0.293 HD
ENDBRANCH  16  21
ENDBRANCH   1  11
BRANCH  10  23
ATOM     23  O   UNL     1      31.850  13.877 -24.668  1.00  0.00    -0.500 OA
ATOM     24  H   UNL     1      31.949  14.520 -25.445  1.00  0.00     0.294 HD
ENDBRANCH  10  23
BRANCH   5  25
ATOM     25  O   UNL     1      25.235  14.648 -20.683  1.00  0.00    -0.507 OA
ATOM     26  H   UNL     1      24.339  14.437 -21.106  1.00  0.00     0.293 HD
ENDBRANCH   5  25
BRANCH   7  27
ATOM     27  O   UNL     1      28.135  17.347 -23.422  1.00  0.00    -0.507 OA
ATOM     28  H   UNL     1      27.953  18.235 -22.977  1.00  0.00     0.293 HD
ENDBRANCH   7  27
TORSDOF 7
ENDMDL
MODEL 6
REMARK VINA RESULT:    -5.957      2.236      7.019
REMARK INTER + INTRA:          -7.735
REMARK INTER:                  -7.580
REMARK INTRA:                  -0.154
REMARK UNBOUND:                -0.385
REMARK SMILES Oc1cc(O)c2cc(O)c(-c3cc(O)c(O)c(O)c3)[o+]c2c1
REMARK SMILES IDX 10 1 20 2 21 3 22 4 2 5 3 6 4 7 6 8 7 9 8 10 11 11 12 12
REMARK SMILES IDX 13 13 19 14 15 15 17 16 14 17 16 19 18 21 9 23 1 25 5 27
REMARK H PARENT 14 18 16 20 18 22 9 24 1 26 5 28
REMARK Flexibility Score: inf
ROOT
ATOM      1  C   UNL     1      30.691  17.450 -19.065  1.00  0.00     0.402 A 
ATOM      2  O   UNL     1      31.219  18.437 -19.783  1.00  0.00    -0.202 OA
ATOM      3  C   UNL     1      31.649  19.576 -19.250  1.00  0.00     0.368 A 
ATOM      4  C   UNL     1      32.187  20.558 -20.087  1.00  0.00     0.162 A 
ATOM      5  C   UNL     1      32.645  21.765 -19.557  1.00  0.00     0.128 A 
ATOM      6  C   UNL     1      32.565  21.994 -18.178  1.00  0.00     0.093 A 
ATOM      7  C   UNL     1      32.031  21.028 -17.319  1.00  0.00     0.136 A 
ATOM      8  C   UNL     1      31.567  19.798 -17.854  1.00  0.00     0.125 A 
ATOM      9  C   UNL     1      31.029  18.766 -17.067  1.00  0.00     0.078 A 
ATOM     10  C   UNL     1      30.596  17.580 -17.667  1.00  0.00     0.223 A 
ENDROOT
BRANCH   1  11
ATOM     11  C   UNL     1      30.237  16.232 -19.775  1.00  0.00     0.091 A 
ATOM     12  C   UNL     1      31.117  15.576 -20.649  1.00  0.00     0.068 A 
ATOM     13  C   UNL     1      30.710  14.435 -21.349  1.00  0.00     0.162 A 
ATOM     14  C   UNL     1      28.924  15.751 -19.638  1.00  0.00     0.068 A 
ATOM     15  C   UNL     1      29.402  13.945 -21.192  1.00  0.00     0.200 A 
ATOM     16  C   UNL     1      28.507  14.610 -20.337  1.00  0.00     0.162 A 
BRANCH  13  17
ATOM     17  O   UNL     1      31.619  13.803 -22.196  1.00  0.00    -0.504 OA
ATOM     18  H   UNL     1      32.593  13.680 -21.947  1.00  0.00     0.293 HD
ENDBRANCH  13  17
BRANCH  15  19
ATOM     19  O   UNL     1      29.005  12.804 -21.891  1.00  0.00    -0.502 OA
ATOM     20  H   UNL     1      29.619  12.009 -22.020  1.00  0.00     0.293 HD
ENDBRANCH  15  19
BRANCH  16  21
ATOM     21  O   UNL     1      27.204  14.137 -20.188  1.00  0.00    -0.504 OA
ATOM     22  H   UNL     1      26.819  13.435 -20.810  1.00  0.00     0.293 HD
ENDBRANCH  16  21
ENDBRANCH   1  11
BRANCH  10  23
ATOM     23  O   UNL     1      30.108  16.536 -16.880  1.00  0.00    -0.500 OA
ATOM     24  H   UNL     1      30.639  15.686 -16.734  1.00  0.00     0.294 HD
ENDBRANCH  10  23
BRANCH   5  25
ATOM     25  O   UNL     1      33.178  22.730 -20.408  1.00  0.00    -0.507 OA
ATOM     26  H   UNL     1      33.122  22.638 -21.415  1.00  0.00     0.293 HD
ENDBRANCH   5  25
BRANCH   7  27
ATOM     27  O   UNL     1      31.983  21.334 -15.956  1.00  0.00    -0.507 OA
ATOM     28  H   UNL     1      32.751  21.205 -15.314  1.00  0.00     0.293 HD
ENDBRANCH   7  27
TORSDOF 7
ENDMDL
MODEL 7
REMARK VINA RESULT:    -5.892      1.126      7.165
REMARK INTER + INTRA:          -7.654
REMARK INTER:                  -7.311
REMARK INTRA:                  -0.344
REMARK UNBOUND:                -0.385
REMARK SMILES Oc1cc(O)c2cc(O)c(-c3cc(O)c(O)c(O)c3)[o+]c2c1
REMARK SMILES IDX 10 1 20 2 21 3 22 4 2 5 3 6 4 7 6 8 7 9 8 10 11 11 12 12
REMARK SMILES IDX 13 13 19 14 15 15 17 16 14 17 16 19 18 21 9 23 1 25 5 27
REMARK H PARENT 14 18 16 20 18 22 9 24 1 26 5 28
REMARK Flexibility Score: inf
ROOT
ATOM      1  C   UNL     1      29.676  17.615 -18.361  1.00  0.00     0.402 A 
ATOM      2  O   UNL     1      30.647  17.999 -19.184  1.00  0.00    -0.202 OA
ATOM      3  C   UNL     1      31.450  19.028 -18.934  1.00  0.00     0.368 A 
ATOM      4  C   UNL     1      32.442  19.357 -19.861  1.00  0.00     0.162 A 
ATOM      5  C   UNL     1      33.299  20.434 -19.628  1.00  0.00     0.128 A 
ATOM      6  C   UNL     1      33.163  21.189 -18.457  1.00  0.00     0.093 A 
ATOM      7  C   UNL     1      32.178  20.880 -17.512  1.00  0.00     0.136 A 
ATOM      8  C   UNL     1      31.307  19.784 -17.745  1.00  0.00     0.125 A 
ATOM      9  C   UNL     1      30.299  19.393 -16.848  1.00  0.00     0.078 A 
ATOM     10  C   UNL     1      29.482  18.298 -17.146  1.00  0.00     0.223 A 
ENDROOT
BRANCH   1  11
ATOM     11  C   UNL     1      28.839  16.458 -18.756  1.00  0.00     0.091 A 
ATOM     12  C   UNL     1      27.777  16.651 -19.654  1.00  0.00     0.068 A 
ATOM     13  C   UNL     1      26.958  15.582 -20.030  1.00  0.00     0.162 A 
ATOM     14  C   UNL     1      29.048  15.182 -18.208  1.00  0.00     0.068 A 
ATOM     15  C   UNL     1      27.184  14.302 -19.495  1.00  0.00     0.200 A 
ATOM     16  C   UNL     1      28.230  14.105 -18.578  1.00  0.00     0.162 A 
BRANCH  13  17
ATOM     17  O   UNL     1      25.922  15.811 -20.936  1.00  0.00    -0.504 OA
ATOM     18  H   UNL     1      26.093  16.146 -21.876  1.00  0.00     0.293 HD
ENDBRANCH  13  17
BRANCH  15  19
ATOM     19  O   UNL     1      26.363  13.240 -19.879  1.00  0.00    -0.502 OA
ATOM     20  H   UNL     1      26.072  12.521 -19.228  1.00  0.00     0.293 HD
ENDBRANCH  15  19
BRANCH  16  21
ATOM     21  O   UNL     1      28.451  12.841 -18.033  1.00  0.00    -0.504 OA
ATOM     22  H   UNL     1      27.685  12.208 -17.832  1.00  0.00     0.293 HD
ENDBRANCH  16  21
ENDBRANCH   1  11
BRANCH  10  23
ATOM     23  O   UNL     1      28.515  17.879 -16.232  1.00  0.00    -0.500 OA
ATOM     24  H   UNL     1      28.652  17.062 -15.648  1.00  0.00     0.294 HD
ENDBRANCH  10  23
BRANCH   5  25
ATOM     25  O   UNL     1      34.281  20.746 -20.564  1.00  0.00    -0.507 OA
ATOM     26  H   UNL     1      34.585  21.700 -20.715  1.00  0.00     0.293 HD
ENDBRANCH   5  25
BRANCH   7  27
ATOM     27  O   UNL     1      32.105  21.684 -16.371  1.00  0.00    -0.507 OA
ATOM     28  H   UNL     1      31.527  22.507 -16.288  1.00  0.00     0.293 HD
ENDBRANCH   7  27
TORSDOF 7
ENDMDL
MODEL 8
REMARK VINA RESULT:    -5.860      3.806      6.717
REMARK INTER + INTRA:          -7.615
REMARK INTER:                  -7.232
REMARK INTRA:                  -0.383
REMARK UNBOUND:                -0.385
REMARK SMILES Oc1cc(O)c2cc(O)c(-c3cc(O)c(O)c(O)c3)[o+]c2c1
REMARK SMILES IDX 10 1 20 2 21 3 22 4 2 5 3 6 4 7 6 8 7 9 8 10 11 11 12 12
REMARK SMILES IDX 13 13 19 14 15 15 17 16 14 17 16 19 18 21 9 23 1 25 5 27
REMARK H PARENT 14 18 16 20 18 22 9 24 1 26 5 28
REMARK Flexibility Score: inf
ROOT
ATOM      1  C   UNL     1      30.603  19.723 -15.763  1.00  0.00     0.402 A 
ATOM      2  O   UNL     1      31.009  20.729 -16.531  1.00  0.00    -0.202 OA
ATOM      3  C   UNL     1      31.699  20.557 -17.654  1.00  0.00     0.368 A 
ATOM      4  C   UNL     1      32.084  21.678 -18.394  1.00  0.00     0.162 A 
ATOM      5  C   UNL     1      32.811  21.529 -19.576  1.00  0.00     0.128 A 
ATOM      6  C   UNL     1      33.156  20.248 -20.024  1.00  0.00     0.093 A 
ATOM      7  C   UNL     1      32.782  19.109 -19.301  1.00  0.00     0.136 A 
ATOM      8  C   UNL     1      32.040  19.257 -18.100  1.00  0.00     0.125 A 
ATOM      9  C   UNL     1      31.611  18.172 -17.317  1.00  0.00     0.078 A 
ATOM     10  C   UNL     1      30.880  18.398 -16.147  1.00  0.00     0.223 A 
ENDROOT
BRANCH   1  11
ATOM     11  C   UNL     1      29.851  20.043 -14.527  1.00  0.00     0.091 A 
ATOM     12  C   UNL     1      28.476  20.313 -14.609  1.00  0.00     0.068 A 
ATOM     13  C   UNL     1      27.743  20.637 -13.462  1.00  0.00     0.162 A 
ATOM     14  C   UNL     1      30.494  20.139 -13.283  1.00  0.00     0.068 A 
ATOM     15  C   UNL     1      28.387  20.712 -12.215  1.00  0.00     0.200 A 
ATOM     16  C   UNL     1      29.767  20.466 -12.128  1.00  0.00     0.162 A 
BRANCH  13  17
ATOM     17  O   UNL     1      26.376  20.884 -13.583  1.00  0.00    -0.504 OA
ATOM     18  H   UNL     1      25.681  20.168 -13.406  1.00  0.00     0.293 HD
ENDBRANCH  13  17
BRANCH  15  19
ATOM     19  O   UNL     1      27.648  21.033 -11.076  1.00  0.00    -0.502 OA
ATOM     20  H   UNL     1      26.726  20.648 -10.904  1.00  0.00     0.293 HD
ENDBRANCH  15  19
BRANCH  16  21
ATOM     21  O   UNL     1      30.415  20.552 -10.897  1.00  0.00    -0.504 OA
ATOM     22  H   UNL     1      31.420  20.668 -10.832  1.00  0.00     0.293 HD
ENDBRANCH  16  21
ENDBRANCH   1  11
BRANCH  10  23
ATOM     23  O   UNL     1      30.411  17.319 -15.398  1.00  0.00    -0.500 OA
ATOM     24  H   UNL     1      30.421  17.329 -14.385  1.00  0.00     0.294 HD
ENDBRANCH  10  23
BRANCH   5  25
ATOM     25  O   UNL     1      33.186  22.658 -20.299  1.00  0.00    -0.507 OA
ATOM     26  H   UNL     1      32.614  23.494 -20.311  1.00  0.00     0.293 HD
ENDBRANCH   5  25
BRANCH   7  27
ATOM     27  O   UNL     1      33.168  17.867 -19.812  1.00  0.00    -0.507 OA
ATOM     28  H   UNL     1      33.554  17.723 -20.734  1.00  0.00     0.293 HD
ENDBRANCH   7  27
TORSDOF 7
ENDMDL
MODEL 9
REMARK VINA RESULT:    -5.786      3.863      6.380
REMARK INTER + INTRA:          -7.524
REMARK INTER:                  -7.151
REMARK INTRA:                  -0.373
REMARK UNBOUND:                -0.385
REMARK SMILES Oc1cc(O)c2cc(O)c(-c3cc(O)c(O)c(O)c3)[o+]c2c1
REMARK SMILES IDX 10 1 20 2 21 3 22 4 2 5 3 6 4 7 6 8 7 9 8 10 11 11 12 12
REMARK SMILES IDX 13 13 19 14 15 15 17 16 14 17 16 19 18 21 9 23 1 25 5 27
REMARK H PARENT 14 18 16 20 18 22 9 24 1 26 5 28
REMARK Flexibility Score: inf
ROOT
ATOM      1  C   UNL     1      30.830  20.515 -15.763  1.00  0.00     0.402 A 
ATOM      2  O   UNL     1      31.418  21.056 -16.825  1.00  0.00    -0.202 OA
ATOM      3  C   UNL     1      31.966  20.337 -17.800  1.00  0.00     0.368 A 
ATOM      4  C   UNL     1      32.564  20.996 -18.877  1.00  0.00     0.162 A 
ATOM      5  C   UNL     1      33.149  20.269 -19.914  1.00  0.00     0.128 A 
ATOM      6  C   UNL     1      33.136  18.869 -19.876  1.00  0.00     0.093 A 
ATOM      7  C   UNL     1      32.543  18.185 -18.809  1.00  0.00     0.136 A 
ATOM      8  C   UNL     1      31.944  18.922 -17.754  1.00  0.00     0.125 A 
ATOM      9  C   UNL     1      31.315  18.321 -16.651  1.00  0.00     0.078 A 
ATOM     10  C   UNL     1      30.744  19.114 -15.652  1.00  0.00     0.223 A 
ENDROOT
BRANCH   1  11
ATOM     11  C   UNL     1      30.266  21.422 -14.736  1.00  0.00     0.091 A 
ATOM     12  C   UNL     1      31.084  21.863 -13.684  1.00  0.00     0.068 A 
ATOM     13  C   UNL     1      30.574  22.705 -12.689  1.00  0.00     0.162 A 
ATOM     14  C   UNL     1      28.915  21.805 -14.760  1.00  0.00     0.068 A 
ATOM     15  C   UNL     1      29.227  23.102 -12.729  1.00  0.00     0.200 A 
ATOM     16  C   UNL     1      28.396  22.646 -13.765  1.00  0.00     0.162 A 
BRANCH  13  17
ATOM     17  O   UNL     1      31.422  23.134 -11.669  1.00  0.00    -0.504 OA
ATOM     18  H   UNL     1      32.410  22.909 -11.658  1.00  0.00     0.293 HD
ENDBRANCH  13  17
BRANCH  15  19
ATOM     19  O   UNL     1      28.727  23.944 -11.734  1.00  0.00    -0.502 OA
ATOM     20  H   UNL     1      28.508  24.918 -11.910  1.00  0.00     0.293 HD
ENDBRANCH  15  19
BRANCH  16  21
ATOM     21  O   UNL     1      27.055  23.025 -13.802  1.00  0.00    -0.504 OA
ATOM     22  H   UNL     1      26.409  22.767 -13.064  1.00  0.00     0.293 HD
ENDBRANCH  16  21
ENDBRANCH   1  11
BRANCH  10  23
ATOM     23  O   UNL     1      30.075  18.518 -14.583  1.00  0.00    -0.500 OA
ATOM     24  H   UNL     1      29.623  17.616 -14.673  1.00  0.00     0.294 HD
ENDBRANCH  10  23
BRANCH   5  25
ATOM     25  O   UNL     1      33.741  20.944 -20.979  1.00  0.00    -0.507 OA
ATOM     26  H   UNL     1      33.312  21.764 -21.390  1.00  0.00     0.293 HD
ENDBRANCH   5  25
BRANCH   7  27
ATOM     27  O   UNL     1      32.574  16.788 -18.843  1.00  0.00    -0.507 OA
ATOM     28  H   UNL     1      33.385  16.241 -19.092  1.00  0.00     0.293 HD
ENDBRANCH   7  27
TORSDOF 7
ENDMDL
