MODEL 1
REMARK VINA RESULT:    -9.492      0.000      0.000
REMARK INTER + INTRA:          -9.950
REMARK INTER:                 -10.324
REMARK INTRA:                   0.374
REMARK UNBOUND:                 0.374
REMARK SMILES C[C@@H]1[C@@H](C)CC[C@@]2(C(=O)[O-])CC[C@]3(C)C(=CC[C@H]4[C@]5(C)CC[C@@H](O)C(C)(C)[C@@H]5CC[C@]43C)[C@@H]12
REMARK SMILES IDX 7 1 6 2 11 3 33 4 5 5 12 6 15 7 2 8 3 9 13 10 16 11 1 12
REMARK SMILES IDX 4 13 14 14 31 15 17 16 18 17 30 18 32 19 19 20 29 21 28 22
REMARK SMILES IDX 21 23 20 24 25 25 22 26 23 27 26 28 27 29 8 30 9 31 10 32
REMARK SMILES IDX 24 33
REMARK H PARENT 24 34
REMARK Flexibility Score: inf
ROOT
ATOM      1  C   UNL     1       8.348  19.868  30.152  1.00  0.00     0.017 C 
ATOM      2  C   UNL     1       7.115  19.782  31.129  1.00  0.00     0.014 C 
ATOM      3  C   UNL     1       9.643  19.882  31.018  1.00  0.00     0.014 C 
ATOM      4  C   UNL     1       8.482  18.701  29.045  1.00  0.00     0.030 C 
ATOM      5  C   UNL     1       6.413  18.442  31.198  1.00  0.00     0.004 C 
ATOM      6  C   UNL     1      10.941  20.099  30.201  1.00  0.00     0.013 C 
ATOM      7  C   UNL     1       9.965  18.197  28.926  1.00  0.00    -0.063 C 
ATOM      8  C   UNL     1       7.417  17.537  29.128  1.00  0.00    -0.003 C 
ATOM      9  C   UNL     1       6.088  17.967  29.783  1.00  0.00    -0.011 C 
ATOM     10  C   UNL     1      11.073  19.259  28.872  1.00  0.00    -0.006 C 
ATOM     11  C   UNL     1      10.290  16.899  29.070  1.00  0.00    -0.027 C 
ATOM     12  C   UNL     1       7.185  16.927  27.727  1.00  0.00     0.008 C 
ATOM     13  C   UNL     1       5.062  16.821  29.854  1.00  0.00     0.008 C 
ATOM     14  C   UNL     1      10.767  20.172  27.638  1.00  0.00     0.017 C 
ATOM     15  C   UNL     1      12.576  18.663  28.703  1.00  0.00    -0.020 C 
ATOM     16  C   UNL     1      11.656  16.376  29.354  1.00  0.00     0.032 C 
ATOM     17  C   UNL     1      12.787  17.418  29.643  1.00  0.00     0.006 C 
ATOM     18  C   UNL     1      12.842  18.149  27.256  1.00  0.00     0.008 C 
ATOM     19  C   UNL     1      13.580  19.831  29.013  1.00  0.00     0.012 C 
ATOM     20  C   UNL     1      14.225  16.682  29.579  1.00  0.00    -0.025 C 
ATOM     21  C   UNL     1      14.221  17.495  27.062  1.00  0.00     0.005 C 
ATOM     22  C   UNL     1      14.655  16.386  28.078  1.00  0.00     0.003 C 
ATOM     23  C   UNL     1      15.359  17.449  30.364  1.00  0.00     0.010 C 
ATOM     24  C   UNL     1      14.054  15.323  30.361  1.00  0.00     0.012 C 
ATOM     25  C   UNL     1      16.204  16.061  27.908  1.00  0.00    -0.006 C 
ATOM     26  C   UNL     1      16.485  18.106  29.542  1.00  0.00     0.033 C 
ATOM     27  C   UNL     1      17.084  17.270  28.380  1.00  0.00     0.120 C 
ATOM     28  C   UNL     1      16.611  14.770  28.674  1.00  0.00     0.014 C 
ATOM     29  C   UNL     1      16.529  15.766  26.414  1.00  0.00     0.014 C 
ENDROOT
BRANCH   1  30
ATOM     30  C   UNL     1       8.183  21.234  29.484  1.00  0.00     0.048 C 
ATOM     31  O   UNL     1       7.085  21.551  28.953  1.00  0.00    -0.550 OA
ATOM     32  O   UNL     1       9.177  22.202  29.580  1.00  0.00    -0.550 OA
ENDBRANCH   1  30
BRANCH  27  33
ATOM     33  O   UNL     1      18.383  16.837  28.711  1.00  0.00    -0.393 OA
ATOM     34  H   UNL     1      18.514  15.948  28.290  1.00  0.00     0.210 HD
ENDBRANCH  27  33
TORSDOF 2
ENDMDL
MODEL 2
REMARK VINA RESULT:    -8.945      1.415      8.148
REMARK INTER + INTRA:          -9.354
REMARK INTER:                  -9.190
REMARK INTRA:                  -0.164
REMARK UNBOUND:                 0.374
REMARK SMILES C[C@@H]1[C@@H](C)CC[C@@]2(C(=O)[O-])CC[C@]3(C)C(=CC[C@H]4[C@]5(C)CC[C@@H](O)C(C)(C)[C@@H]5CC[C@]43C)[C@@H]12
REMARK SMILES IDX 7 1 6 2 11 3 33 4 5 5 12 6 15 7 2 8 3 9 13 10 16 11 1 12
REMARK SMILES IDX 4 13 14 14 31 15 17 16 18 17 30 18 32 19 19 20 29 21 28 22
REMARK SMILES IDX 21 23 20 24 25 25 22 26 23 27 26 28 27 29 8 30 9 31 10 32
REMARK SMILES IDX 24 33
REMARK H PARENT 24 34
REMARK Flexibility Score: inf
ROOT
ATOM      1  C   UNL     1      16.772  16.106  27.924  1.00  0.00     0.017 C 
ATOM      2  C   UNL     1      17.383  14.881  27.143  1.00  0.00     0.014 C 
ATOM      3  C   UNL     1      15.781  16.834  26.969  1.00  0.00     0.014 C 
ATOM      4  C   UNL     1      16.007  15.778  29.307  1.00  0.00     0.030 C 
ATOM      5  C   UNL     1      16.869  13.514  27.543  1.00  0.00     0.004 C 
ATOM      6  C   UNL     1      15.195  18.144  27.552  1.00  0.00     0.013 C 
ATOM      7  C   UNL     1      14.666  16.589  29.422  1.00  0.00    -0.063 C 
ATOM      8  C   UNL     1      15.862  14.249  29.677  1.00  0.00    -0.003 C 
ATOM      9  C   UNL     1      16.962  13.362  29.060  1.00  0.00    -0.011 C 
ATOM     10  C   UNL     1      14.704  18.078  29.050  1.00  0.00    -0.006 C 
ATOM     11  C   UNL     1      13.483  15.983  29.636  1.00  0.00    -0.027 C 
ATOM     12  C   UNL     1      15.792  14.076  31.212  1.00  0.00     0.008 C 
ATOM     13  C   UNL     1      16.806  11.875  29.432  1.00  0.00     0.008 C 
ATOM     14  C   UNL     1      15.764  18.752  29.984  1.00  0.00     0.017 C 
ATOM     15  C   UNL     1      13.291  18.860  29.238  1.00  0.00    -0.020 C 
ATOM     16  C   UNL     1      12.145  16.587  29.384  1.00  0.00     0.032 C 
ATOM     17  C   UNL     1      12.099  17.989  28.691  1.00  0.00     0.006 C 
ATOM     18  C   UNL     1      12.964  19.127  30.738  1.00  0.00     0.008 C 
ATOM     19  C   UNL     1      13.419  20.240  28.499  1.00  0.00     0.012 C 
ATOM     20  C   UNL     1      10.612  18.607  28.826  1.00  0.00    -0.025 C 
ATOM     21  C   UNL     1      11.596  19.788  30.978  1.00  0.00     0.005 C 
ATOM     22  C   UNL     1      10.342  19.145  30.296  1.00  0.00     0.003 C 
ATOM     23  C   UNL     1      10.288  19.706  27.741  1.00  0.00     0.010 C 
ATOM     24  C   UNL     1       9.618  17.427  28.500  1.00  0.00     0.012 C 
ATOM     25  C   UNL     1       9.095  20.129  30.401  1.00  0.00    -0.006 C 
ATOM     26  C   UNL     1      10.138  21.165  28.216  1.00  0.00     0.033 C 
ATOM     27  C   UNL     1       9.311  21.400  29.508  1.00  0.00     0.120 C 
ATOM     28  C   UNL     1       7.767  19.420  30.012  1.00  0.00     0.014 C 
ATOM     29  C   UNL     1       8.896  20.588  31.875  1.00  0.00     0.014 C 
ENDROOT
BRANCH   1  30
ATOM     30  C   UNL     1      17.978  17.012  28.172  1.00  0.00     0.048 C 
ATOM     31  O   UNL     1      18.713  16.828  29.181  1.00  0.00    -0.550 OA
ATOM     32  O   UNL     1      18.376  17.950  27.225  1.00  0.00    -0.550 OA
ENDBRANCH   1  30
BRANCH  27  33
ATOM     33  O   UNL     1       8.075  21.998  29.192  1.00  0.00    -0.393 OA
ATOM     34  H   UNL     1       7.970  22.788  29.783  1.00  0.00     0.210 HD
ENDBRANCH  27  33
TORSDOF 2
ENDMDL
MODEL 3
REMARK VINA RESULT:    -8.470      1.227      1.417
REMARK INTER + INTRA:          -8.838
REMARK INTER:                  -9.001
REMARK INTRA:                   0.162
REMARK UNBOUND:                 0.374
REMARK SMILES C[C@@H]1[C@@H](C)CC[C@@]2(C(=O)[O-])CC[C@]3(C)C(=CC[C@H]4[C@]5(C)CC[C@@H](O)C(C)(C)[C@@H]5CC[C@]43C)[C@@H]12
REMARK SMILES IDX 7 1 6 2 11 3 33 4 5 5 12 6 15 7 2 8 3 9 13 10 16 11 1 12
REMARK SMILES IDX 4 13 14 14 31 15 17 16 18 17 30 18 32 19 19 20 29 21 28 22
REMARK SMILES IDX 21 23 20 24 25 25 22 26 23 27 26 28 27 29 8 30 9 31 10 32
REMARK SMILES IDX 24 33
REMARK H PARENT 24 34
REMARK Flexibility Score: inf
ROOT
ATOM      1  C   UNL     1       9.314  20.072  29.867  1.00  0.00     0.017 C 
ATOM      2  C   UNL     1       7.980  20.341  30.661  1.00  0.00     0.014 C 
ATOM      3  C   UNL     1      10.484  20.047  30.893  1.00  0.00     0.014 C 
ATOM      4  C   UNL     1       9.376  18.722  28.983  1.00  0.00     0.030 C 
ATOM      5  C   UNL     1       7.059  19.152  30.836  1.00  0.00     0.004 C 
ATOM      6  C   UNL     1      11.885  19.924  30.246  1.00  0.00     0.013 C 
ATOM      7  C   UNL     1      10.756  17.992  29.155  1.00  0.00    -0.063 C 
ATOM      8  C   UNL     1       8.127  17.760  29.095  1.00  0.00    -0.003 C 
ATOM      9  C   UNL     1       6.824  18.489  29.480  1.00  0.00    -0.011 C 
ATOM     10  C   UNL     1      12.026  18.853  29.095  1.00  0.00    -0.006 C 
ATOM     11  C   UNL     1      10.839  16.706  29.543  1.00  0.00    -0.027 C 
ATOM     12  C   UNL     1       7.958  16.954  27.787  1.00  0.00     0.008 C 
ATOM     13  C   UNL     1       5.617  17.536  29.582  1.00  0.00     0.008 C 
ATOM     14  C   UNL     1      12.022  19.570  27.703  1.00  0.00     0.017 C 
ATOM     15  C   UNL     1      13.416  18.023  29.234  1.00  0.00    -0.020 C 
ATOM     16  C   UNL     1      12.055  16.047  30.095  1.00  0.00     0.032 C 
ATOM     17  C   UNL     1      13.305  16.945  30.376  1.00  0.00     0.006 C 
ATOM     18  C   UNL     1      13.757  17.229  27.937  1.00  0.00     0.008 C 
ATOM     19  C   UNL     1      14.560  19.066  29.498  1.00  0.00     0.012 C 
ATOM     20  C   UNL     1      14.596  16.005  30.631  1.00  0.00    -0.025 C 
ATOM     21  C   UNL     1      15.019  16.356  28.044  1.00  0.00     0.005 C 
ATOM     22  C   UNL     1      15.140  15.391  29.271  1.00  0.00     0.003 C 
ATOM     23  C   UNL     1      15.745  16.723  31.440  1.00  0.00     0.010 C 
ATOM     24  C   UNL     1      14.109  14.845  31.583  1.00  0.00     0.012 C 
ATOM     25  C   UNL     1      16.621  14.817  29.374  1.00  0.00    -0.006 C 
ATOM     26  C   UNL     1      17.052  17.053  30.694  1.00  0.00     0.033 C 
ATOM     27  C   UNL     1      17.632  15.947  29.772  1.00  0.00     0.120 C 
ATOM     28  C   UNL     1      16.713  13.635  30.381  1.00  0.00     0.014 C 
ATOM     29  C   UNL     1      17.061  14.220  28.005  1.00  0.00     0.014 C 
ENDROOT
BRANCH   1  30
ATOM     30  C   UNL     1       9.459  21.309  28.978  1.00  0.00     0.048 C 
ATOM     31  O   UNL     1       9.635  21.180  27.736  1.00  0.00    -0.550 OA
ATOM     32  O   UNL     1       9.252  22.585  29.489  1.00  0.00    -0.550 OA
ENDBRANCH   1  30
BRANCH  27  33
ATOM     33  O   UNL     1      18.792  15.393  30.347  1.00  0.00    -0.393 OA
ATOM     34  H   UNL     1      18.501  14.811  31.096  1.00  0.00     0.210 HD
ENDBRANCH  27  33
TORSDOF 2
ENDMDL
MODEL 4
REMARK VINA RESULT:    -6.608      3.275      8.195
REMARK INTER + INTRA:          -6.814
REMARK INTER:                  -6.729
REMARK INTRA:                  -0.084
REMARK UNBOUND:                 0.374
REMARK SMILES C[C@@H]1[C@@H](C)CC[C@@]2(C(=O)[O-])CC[C@]3(C)C(=CC[C@H]4[C@]5(C)CC[C@@H](O)C(C)(C)[C@@H]5CC[C@]43C)[C@@H]12
REMARK SMILES IDX 7 1 6 2 11 3 33 4 5 5 12 6 15 7 2 8 3 9 13 10 16 11 1 12
REMARK SMILES IDX 4 13 14 14 31 15 17 16 18 17 30 18 32 19 19 20 29 21 28 22
REMARK SMILES IDX 21 23 20 24 25 25 22 26 23 27 26 28 27 29 8 30 9 31 10 32
REMARK SMILES IDX 24 33
REMARK H PARENT 24 34
REMARK Flexibility Score: inf
ROOT
ATOM      1  C   UNL     1      17.366  15.747  33.205  1.00  0.00     0.017 C 
ATOM      2  C   UNL     1      18.214  14.421  33.285  1.00  0.00     0.014 C 
ATOM      3  C   UNL     1      17.402  16.249  31.731  1.00  0.00     0.014 C 
ATOM      4  C   UNL     1      15.826  15.655  33.680  1.00  0.00     0.030 C 
ATOM      5  C   UNL     1      17.427  13.135  33.417  1.00  0.00     0.004 C 
ATOM      6  C   UNL     1      16.718  17.622  31.519  1.00  0.00     0.013 C 
ATOM      7  C   UNL     1      14.879  16.424  32.691  1.00  0.00    -0.063 C 
ATOM      8  C   UNL     1      15.304  14.217  34.076  1.00  0.00    -0.003 C 
ATOM      9  C   UNL     1      16.422  13.271  34.560  1.00  0.00    -0.011 C 
ATOM     10  C   UNL     1      15.320  17.818  32.224  1.00  0.00    -0.006 C 
ATOM     11  C   UNL     1      13.825  15.826  32.104  1.00  0.00    -0.027 C 
ATOM     12  C   UNL     1      14.170  14.331  35.120  1.00  0.00     0.008 C 
ATOM     13  C   UNL     1      15.895  11.875  34.943  1.00  0.00     0.008 C 
ATOM     14  C   UNL     1      15.496  18.693  33.511  1.00  0.00     0.017 C 
ATOM     15  C   UNL     1      14.268  18.570  31.239  1.00  0.00    -0.020 C 
ATOM     16  C   UNL     1      13.112  16.324  30.895  1.00  0.00     0.032 C 
ATOM     17  C   UNL     1      13.709  17.569  30.160  1.00  0.00     0.006 C 
ATOM     18  C   UNL     1      13.021  19.099  32.010  1.00  0.00     0.008 C 
ATOM     19  C   UNL     1      15.018  19.792  30.599  1.00  0.00     0.012 C 
ATOM     20  C   UNL     1      12.622  18.148  29.112  1.00  0.00    -0.025 C 
ATOM     21  C   UNL     1      11.951  19.743  31.111  1.00  0.00     0.005 C 
ATOM     22  C   UNL     1      11.466  18.940  29.859  1.00  0.00     0.003 C 
ATOM     23  C   UNL     1      13.262  19.013  27.958  1.00  0.00     0.010 C 
ATOM     24  C   UNL     1      12.017  16.892  28.374  1.00  0.00     0.012 C 
ATOM     25  C   UNL     1      10.610  19.880  28.901  1.00  0.00    -0.006 C 
ATOM     26  C   UNL     1      12.979  20.528  27.954  1.00  0.00     0.033 C 
ATOM     27  C   UNL     1      11.518  20.970  28.233  1.00  0.00     0.120 C 
ATOM     28  C   UNL     1       9.860  19.064  27.810  1.00  0.00     0.014 C 
ATOM     29  C   UNL     1       9.492  20.598  29.713  1.00  0.00     0.014 C 
ENDROOT
BRANCH   1  30
ATOM     30  C   UNL     1      18.147  16.727  34.082  1.00  0.00     0.048 C 
ATOM     31  O   UNL     1      19.113  17.379  33.599  1.00  0.00    -0.550 OA
ATOM     32  O   UNL     1      17.721  17.031  35.370  1.00  0.00    -0.550 OA
ENDBRANCH   1  30
BRANCH  27  33
ATOM     33  O   UNL     1      10.921  21.453  27.051  1.00  0.00    -0.393 OA
ATOM     34  H   UNL     1      11.268  22.370  26.900  1.00  0.00     0.210 HD
ENDBRANCH  27  33
TORSDOF 2
ENDMDL
