MODEL 1
REMARK VINA RESULT:    -5.886      0.000      0.000
REMARK INTER + INTRA:          -7.304
REMARK INTER:                  -7.090
REMARK INTRA:                  -0.213
REMARK UNBOUND:                -0.213
REMARK SMILES O=c1c(O)c(-c2ccc(O)c(O)c2)oc2cc(O)cc(O)c12
REMARK SMILES IDX 5 1 3 2 2 3 1 4 22 5 20 6 19 7 17 8 16 9 15 10 14 11 6 12
REMARK SMILES IDX 7 13 8 14 9 15 13 16 11 17 10 18 12 20 4 22 21 24 18 26
REMARK H PARENT 10 19 12 21 4 23 21 25 18 27
REMARK Flexibility Score: inf
ROOT
ATOM      1  C   UNL     1       4.476 -60.860  -7.506  1.00  0.00     0.180 A 
ATOM      2  C   UNL     1       3.162 -61.082  -7.954  1.00  0.00     0.208 A 
ATOM      3  C   UNL     1       2.094 -60.530  -7.228  1.00  0.00     0.238 A 
ATOM      4  O   UNL     1       0.923 -60.686  -7.664  1.00  0.00    -0.285 OA
ATOM      5  C   UNL     1       2.351 -59.779  -6.056  1.00  0.00     0.111 A 
ATOM      6  C   UNL     1       1.345 -59.209  -5.221  1.00  0.00     0.134 A 
ATOM      7  C   UNL     1       1.717 -58.375  -4.159  1.00  0.00     0.093 A 
ATOM      8  C   UNL     1       3.063 -58.144  -3.863  1.00  0.00     0.123 A 
ATOM      9  C   UNL     1       4.054 -58.745  -4.636  1.00  0.00     0.094 A 
ATOM     10  C   UNL     1       3.713 -59.552  -5.724  1.00  0.00     0.146 A 
ATOM     11  O   UNL     1       4.689 -60.097  -6.441  1.00  0.00    -0.452 OA
ENDROOT
BRANCH   1  12
ATOM     12  C   UNL     1       5.652 -61.429  -8.204  1.00  0.00     0.025 A 
ATOM     13  C   UNL     1       6.033 -60.910  -9.452  1.00  0.00     0.016 A 
ATOM     14  C   UNL     1       7.151 -61.417 -10.117  1.00  0.00     0.051 A 
ATOM     15  C   UNL     1       7.914 -62.440  -9.540  1.00  0.00     0.157 A 
ATOM     16  C   UNL     1       6.432 -62.442  -7.618  1.00  0.00     0.062 A 
ATOM     17  C   UNL     1       7.554 -62.951  -8.282  1.00  0.00     0.158 A 
BRANCH  15  18
ATOM     18  O   UNL     1       9.029 -62.946 -10.208  1.00  0.00    -0.504 OA
ATOM     19  H   UNL     1       9.956 -62.904  -9.799  1.00  0.00     0.293 HD
ENDBRANCH  15  18
BRANCH  17  20
ATOM     20  O   UNL     1       8.302 -63.959  -7.673  1.00  0.00    -0.504 OA
ATOM     21  H   UNL     1       8.936 -63.771  -6.907  1.00  0.00     0.293 HD
ENDBRANCH  17  20
ENDBRANCH   1  12
BRANCH   2  22
ATOM     22  O   UNL     1       2.931 -61.807  -9.125  1.00  0.00    -0.502 OA
ATOM     23  H   UNL     1       2.284 -62.586  -9.165  1.00  0.00     0.293 HD
ENDBRANCH   2  22
BRANCH   6  24
ATOM     24  O   UNL     1      -0.025 -59.450  -5.374  1.00  0.00    -0.507 OA
ATOM     25  H   UNL     1      -0.660 -58.850  -5.877  1.00  0.00     0.293 HD
ENDBRANCH   6  24
BRANCH   8  26
ATOM     26  O   UNL     1       3.426 -57.326  -2.795  1.00  0.00    -0.508 OA
ATOM     27  H   UNL     1       3.041 -57.463  -1.869  1.00  0.00     0.293 HD
ENDBRANCH   8  26
TORSDOF 6
ENDMDL
MODEL 2
REMARK VINA RESULT:    -5.842      2.404      3.428
REMARK INTER + INTRA:          -7.251
REMARK INTER:                  -7.099
REMARK INTRA:                  -0.152
REMARK UNBOUND:                -0.213
REMARK SMILES O=c1c(O)c(-c2ccc(O)c(O)c2)oc2cc(O)cc(O)c12
REMARK SMILES IDX 5 1 3 2 2 3 1 4 22 5 20 6 19 7 17 8 16 9 15 10 14 11 6 12
REMARK SMILES IDX 7 13 8 14 9 15 13 16 11 17 10 18 12 20 4 22 21 24 18 26
REMARK H PARENT 10 19 12 21 4 23 21 25 18 27
REMARK Flexibility Score: inf
ROOT
ATOM      1  C   UNL     1       5.439 -62.036  -7.066  1.00  0.00     0.180 A 
ATOM      2  C   UNL     1       5.222 -60.673  -6.800  1.00  0.00     0.208 A 
ATOM      3  C   UNL     1       4.216 -60.310  -5.890  1.00  0.00     0.238 A 
ATOM      4  O   UNL     1       4.063 -59.091  -5.613  1.00  0.00    -0.285 OA
ATOM      5  C   UNL     1       3.429 -61.312  -5.271  1.00  0.00     0.111 A 
ATOM      6  C   UNL     1       2.357 -61.056  -4.365  1.00  0.00     0.134 A 
ATOM      7  C   UNL     1       1.733 -62.126  -3.713  1.00  0.00     0.093 A 
ATOM      8  C   UNL     1       2.100 -63.447  -3.984  1.00  0.00     0.123 A 
ATOM      9  C   UNL     1       3.104 -63.709  -4.912  1.00  0.00     0.094 A 
ATOM     10  C   UNL     1       3.771 -62.660  -5.551  1.00  0.00     0.146 A 
ATOM     11  O   UNL     1       4.730 -62.955  -6.421  1.00  0.00    -0.452 OA
ENDROOT
BRANCH   1  12
ATOM     12  C   UNL     1       6.464 -62.496  -8.031  1.00  0.00     0.025 A 
ATOM     13  C   UNL     1       7.480 -63.363  -7.600  1.00  0.00     0.016 A 
ATOM     14  C   UNL     1       8.445 -63.825  -8.498  1.00  0.00     0.051 A 
ATOM     15  C   UNL     1       8.400 -63.442  -9.844  1.00  0.00     0.157 A 
ATOM     16  C   UNL     1       6.410 -62.129  -9.388  1.00  0.00     0.062 A 
ATOM     17  C   UNL     1       7.373 -62.592 -10.291  1.00  0.00     0.158 A 
BRANCH  15  18
ATOM     18  O   UNL     1       9.364 -63.903 -10.738  1.00  0.00    -0.504 OA
ATOM     19  H   UNL     1      10.119 -63.306 -11.058  1.00  0.00     0.293 HD
ENDBRANCH  15  18
BRANCH  17  20
ATOM     20  O   UNL     1       7.292 -62.203 -11.628  1.00  0.00    -0.504 OA
ATOM     21  H   UNL     1       6.870 -62.792 -12.335  1.00  0.00     0.293 HD
ENDBRANCH  17  20
ENDBRANCH   1  12
BRANCH   2  22
ATOM     22  O   UNL     1       6.024 -59.702  -7.403  1.00  0.00    -0.502 OA
ATOM     23  H   UNL     1       6.037 -58.737  -7.095  1.00  0.00     0.293 HD
ENDBRANCH   2  22
BRANCH   6  24
ATOM     24  O   UNL     1       1.852 -59.780  -4.093  1.00  0.00    -0.507 OA
ATOM     25  H   UNL     1       1.724 -59.399  -3.168  1.00  0.00     0.293 HD
ENDBRANCH   6  24
BRANCH   8  26
ATOM     26  O   UNL     1       1.463 -64.508  -3.343  1.00  0.00    -0.508 OA
ATOM     27  H   UNL     1       0.510 -64.767  -3.567  1.00  0.00     0.293 HD
ENDBRANCH   8  26
TORSDOF 6
ENDMDL
MODEL 3
REMARK VINA RESULT:    -5.691      1.904      3.113
REMARK INTER + INTRA:          -7.068
REMARK INTER:                  -6.760
REMARK INTRA:                  -0.308
REMARK UNBOUND:                -0.213
REMARK SMILES O=c1c(O)c(-c2ccc(O)c(O)c2)oc2cc(O)cc(O)c12
REMARK SMILES IDX 5 1 3 2 2 3 1 4 22 5 20 6 19 7 17 8 16 9 15 10 14 11 6 12
REMARK SMILES IDX 7 13 8 14 9 15 13 16 11 17 10 18 12 20 4 22 21 24 18 26
REMARK H PARENT 10 19 12 21 4 23 21 25 18 27
REMARK Flexibility Score: inf
ROOT
ATOM      1  C   UNL     1       4.183 -59.529  -5.657  1.00  0.00     0.180 A 
ATOM      2  C   UNL     1       2.787 -59.586  -5.499  1.00  0.00     0.208 A 
ATOM      3  C   UNL     1       2.188 -58.830  -4.479  1.00  0.00     0.238 A 
ATOM      4  O   UNL     1       0.933 -58.842  -4.375  1.00  0.00    -0.285 OA
ATOM      5  C   UNL     1       2.991 -58.040  -3.620  1.00  0.00     0.111 A 
ATOM      6  C   UNL     1       2.494 -57.267  -2.529  1.00  0.00     0.134 A 
ATOM      7  C   UNL     1       3.363 -56.422  -1.829  1.00  0.00     0.093 A 
ATOM      8  C   UNL     1       4.724 -56.371  -2.140  1.00  0.00     0.123 A 
ATOM      9  C   UNL     1       5.229 -57.168  -3.164  1.00  0.00     0.094 A 
ATOM     10  C   UNL     1       4.380 -57.994  -3.905  1.00  0.00     0.146 A 
ATOM     11  O   UNL     1       4.902 -58.729  -4.880  1.00  0.00    -0.452 OA
ENDROOT
BRANCH   1  12
ATOM     12  C   UNL     1       4.889 -60.316  -6.694  1.00  0.00     0.025 A 
ATOM     13  C   UNL     1       5.186 -61.667  -6.454  1.00  0.00     0.016 A 
ATOM     14  C   UNL     1       5.832 -62.434  -7.426  1.00  0.00     0.051 A 
ATOM     15  C   UNL     1       6.178 -61.867  -8.659  1.00  0.00     0.157 A 
ATOM     16  C   UNL     1       5.220 -59.756  -7.941  1.00  0.00     0.062 A 
ATOM     17  C   UNL     1       5.865 -60.522  -8.918  1.00  0.00     0.158 A 
BRANCH  15  18
ATOM     18  O   UNL     1       6.825 -62.634  -9.627  1.00  0.00    -0.504 OA
ATOM     19  H   UNL     1       7.250 -63.526  -9.400  1.00  0.00     0.293 HD
ENDBRANCH  15  18
BRANCH  17  20
ATOM     20  O   UNL     1       6.183 -59.932 -10.141  1.00  0.00    -0.504 OA
ATOM     21  H   UNL     1       6.836 -60.354 -10.790  1.00  0.00     0.293 HD
ENDBRANCH  17  20
ENDBRANCH   1  12
BRANCH   2  22
ATOM     22  O   UNL     1       2.011 -60.354  -6.370  1.00  0.00    -0.502 OA
ATOM     23  H   UNL     1       2.012 -60.209  -7.373  1.00  0.00     0.293 HD
ENDBRANCH   2  22
BRANCH   6  24
ATOM     24  O   UNL     1       1.171 -57.313  -2.079  1.00  0.00    -0.507 OA
ATOM     25  H   UNL     1       0.421 -57.798  -2.547  1.00  0.00     0.293 HD
ENDBRANCH   6  24
BRANCH   8  26
ATOM     26  O   UNL     1       5.586 -55.539  -1.427  1.00  0.00    -0.508 OA
ATOM     27  H   UNL     1       5.774 -54.591  -1.728  1.00  0.00     0.293 HD
ENDBRANCH   8  26
TORSDOF 6
ENDMDL
MODEL 4
REMARK VINA RESULT:    -5.668      2.338      3.602
REMARK INTER + INTRA:          -7.040
REMARK INTER:                  -6.959
REMARK INTRA:                  -0.081
REMARK UNBOUND:                -0.213
REMARK SMILES O=c1c(O)c(-c2ccc(O)c(O)c2)oc2cc(O)cc(O)c12
REMARK SMILES IDX 5 1 3 2 2 3 1 4 22 5 20 6 19 7 17 8 16 9 15 10 14 11 6 12
REMARK SMILES IDX 7 13 8 14 9 15 13 16 11 17 10 18 12 20 4 22 21 24 18 26
REMARK H PARENT 10 19 12 21 4 23 21 25 18 27
REMARK Flexibility Score: inf
ROOT
ATOM      1  C   UNL     1       6.265 -62.418  -8.492  1.00  0.00     0.180 A 
ATOM      2  C   UNL     1       6.033 -61.078  -8.847  1.00  0.00     0.208 A 
ATOM      3  C   UNL     1       5.106 -60.329  -8.104  1.00  0.00     0.238 A 
ATOM      4  O   UNL     1       4.943 -59.114  -8.391  1.00  0.00    -0.285 OA
ATOM      5  C   UNL     1       4.411 -60.933  -7.028  1.00  0.00     0.111 A 
ATOM      6  C   UNL     1       3.422 -60.281  -6.234  1.00  0.00     0.134 A 
ATOM      7  C   UNL     1       2.894 -60.933  -5.114  1.00  0.00     0.093 A 
ATOM      8  C   UNL     1       3.273 -62.241  -4.797  1.00  0.00     0.123 A 
ATOM      9  C   UNL     1       4.193 -62.907  -5.601  1.00  0.00     0.094 A 
ATOM     10  C   UNL     1       4.765 -62.268  -6.705  1.00  0.00     0.146 A 
ATOM     11  O   UNL     1       5.647 -62.938  -7.439  1.00  0.00    -0.452 OA
ENDROOT
BRANCH   1  12
ATOM     12  C   UNL     1       7.208 -63.279  -9.243  1.00  0.00     0.025 A 
ATOM     13  C   UNL     1       8.210 -63.975  -8.549  1.00  0.00     0.016 A 
ATOM     14  C   UNL     1       9.097 -64.808  -9.234  1.00  0.00     0.051 A 
ATOM     15  C   UNL     1       8.987 -64.971 -10.621  1.00  0.00     0.157 A 
ATOM     16  C   UNL     1       7.088 -63.460 -10.632  1.00  0.00     0.062 A 
ATOM     17  C   UNL     1       7.973 -64.296 -11.322  1.00  0.00     0.158 A 
BRANCH  15  18
ATOM     18  O   UNL     1       9.874 -65.802 -11.303  1.00  0.00    -0.504 OA
ATOM     19  H   UNL     1       9.748 -66.020 -12.285  1.00  0.00     0.293 HD
ENDBRANCH  15  18
BRANCH  17  20
ATOM     20  O   UNL     1       7.827 -64.448 -12.700  1.00  0.00    -0.504 OA
ATOM     21  H   UNL     1       7.131 -63.937 -13.228  1.00  0.00     0.293 HD
ENDBRANCH  17  20
ENDBRANCH   1  12
BRANCH   2  22
ATOM     22  O   UNL     1       6.745 -60.494  -9.897  1.00  0.00    -0.502 OA
ATOM     23  H   UNL     1       6.720 -60.859 -10.842  1.00  0.00     0.293 HD
ENDBRANCH   2  22
BRANCH   6  24
ATOM     24  O   UNL     1       2.907 -59.011  -6.516  1.00  0.00    -0.507 OA
ATOM     25  H   UNL     1       3.182 -58.442  -7.302  1.00  0.00     0.293 HD
ENDBRANCH   6  24
BRANCH   8  26
ATOM     26  O   UNL     1       2.731 -62.890  -3.689  1.00  0.00    -0.508 OA
ATOM     27  H   UNL     1       3.077 -62.718  -2.753  1.00  0.00     0.293 HD
ENDBRANCH   8  26
TORSDOF 6
ENDMDL
MODEL 5
REMARK VINA RESULT:    -5.649      1.655      3.202
REMARK INTER + INTRA:          -7.018
REMARK INTER:                  -7.193
REMARK INTRA:                   0.175
REMARK UNBOUND:                -0.213
REMARK SMILES O=c1c(O)c(-c2ccc(O)c(O)c2)oc2cc(O)cc(O)c12
REMARK SMILES IDX 5 1 3 2 2 3 1 4 22 5 20 6 19 7 17 8 16 9 15 10 14 11 6 12
REMARK SMILES IDX 7 13 8 14 9 15 13 16 11 17 10 18 12 20 4 22 21 24 18 26
REMARK H PARENT 10 19 12 21 4 23 21 25 18 27
REMARK Flexibility Score: inf
ROOT
ATOM      1  C   UNL     1       4.861 -60.933  -8.187  1.00  0.00     0.180 A 
ATOM      2  C   UNL     1       4.877 -60.429  -6.875  1.00  0.00     0.208 A 
ATOM      3  C   UNL     1       3.755 -59.730  -6.402  1.00  0.00     0.238 A 
ATOM      4  O   UNL     1       3.752 -59.328  -5.209  1.00  0.00    -0.285 OA
ATOM      5  C   UNL     1       2.639 -59.529  -7.250  1.00  0.00     0.111 A 
ATOM      6  C   UNL     1       1.467 -58.801  -6.889  1.00  0.00     0.134 A 
ATOM      7  C   UNL     1       0.372 -58.777  -7.761  1.00  0.00     0.093 A 
ATOM      8  C   UNL     1       0.432 -59.401  -9.010  1.00  0.00     0.123 A 
ATOM      9  C   UNL     1       1.594 -60.063  -9.396  1.00  0.00     0.094 A 
ATOM     10  C   UNL     1       2.690 -60.136  -8.532  1.00  0.00     0.146 A 
ATOM     11  O   UNL     1       3.775 -60.787  -8.936  1.00  0.00    -0.452 OA
ENDROOT
BRANCH   1  12
ATOM     12  C   UNL     1       6.015 -61.660  -8.765  1.00  0.00     0.025 A 
ATOM     13  C   UNL     1       6.402 -61.401 -10.089  1.00  0.00     0.016 A 
ATOM     14  C   UNL     1       7.501 -62.058 -10.647  1.00  0.00     0.051 A 
ATOM     15  C   UNL     1       8.239 -62.973  -9.885  1.00  0.00     0.157 A 
ATOM     16  C   UNL     1       6.771 -62.563  -7.997  1.00  0.00     0.062 A 
ATOM     17  C   UNL     1       7.874 -63.222  -8.552  1.00  0.00     0.158 A 
BRANCH  15  18
ATOM     18  O   UNL     1       9.334 -63.629 -10.444  1.00  0.00    -0.504 OA
ATOM     19  H   UNL     1       9.264 -64.116 -11.332  1.00  0.00     0.293 HD
ENDBRANCH  15  18
BRANCH  17  20
ATOM     20  O   UNL     1       8.597 -64.116  -7.762  1.00  0.00    -0.504 OA
ATOM     21  H   UNL     1       9.493 -63.875  -7.359  1.00  0.00     0.293 HD
ENDBRANCH  17  20
ENDBRANCH   1  12
BRANCH   2  22
ATOM     22  O   UNL     1       5.978 -60.658  -6.047  1.00  0.00    -0.502 OA
ATOM     23  H   UNL     1       5.886 -61.027  -5.107  1.00  0.00     0.293 HD
ENDBRANCH   2  22
BRANCH   6  24
ATOM     24  O   UNL     1       1.337 -58.067  -5.706  1.00  0.00    -0.507 OA
ATOM     25  H   UNL     1       1.787 -58.300  -4.833  1.00  0.00     0.293 HD
ENDBRANCH   6  24
BRANCH   8  26
ATOM     26  O   UNL     1      -0.656 -59.359  -9.880  1.00  0.00    -0.508 OA
ATOM     27  H   UNL     1      -0.855 -60.121 -10.516  1.00  0.00     0.293 HD
ENDBRANCH   8  26
TORSDOF 6
ENDMDL
MODEL 6
REMARK VINA RESULT:    -5.648      1.639      3.193
REMARK INTER + INTRA:          -7.016
REMARK INTER:                  -6.693
REMARK INTRA:                  -0.323
REMARK UNBOUND:                -0.213
REMARK SMILES O=c1c(O)c(-c2ccc(O)c(O)c2)oc2cc(O)cc(O)c12
REMARK SMILES IDX 5 1 3 2 2 3 1 4 22 5 20 6 19 7 17 8 16 9 15 10 14 11 6 12
REMARK SMILES IDX 7 13 8 14 9 15 13 16 11 17 10 18 12 20 4 22 21 24 18 26
REMARK H PARENT 10 19 12 21 4 23 21 25 18 27
REMARK Flexibility Score: inf
ROOT
ATOM      1  C   UNL     1       4.117 -61.239  -6.988  1.00  0.00     0.180 A 
ATOM      2  C   UNL     1       4.118 -60.201  -6.039  1.00  0.00     0.208 A 
ATOM      3  C   UNL     1       2.924 -59.896  -5.366  1.00  0.00     0.238 A 
ATOM      4  O   UNL     1       2.943 -59.003  -4.479  1.00  0.00    -0.285 OA
ATOM      5  C   UNL     1       1.743 -60.619  -5.661  1.00  0.00     0.111 A 
ATOM      6  C   UNL     1       0.469 -60.367  -5.069  1.00  0.00     0.134 A 
ATOM      7  C   UNL     1      -0.601 -61.229  -5.339  1.00  0.00     0.093 A 
ATOM      8  C   UNL     1      -0.459 -62.295  -6.230  1.00  0.00     0.123 A 
ATOM      9  C   UNL     1       0.764 -62.513  -6.859  1.00  0.00     0.094 A 
ATOM     10  C   UNL     1       1.860 -61.692  -6.582  1.00  0.00     0.146 A 
ATOM     11  O   UNL     1       3.011 -61.942  -7.195  1.00  0.00    -0.452 OA
ENDROOT
BRANCH   1  12
ATOM     12  C   UNL     1       5.331 -61.603  -7.756  1.00  0.00     0.025 A 
ATOM     13  C   UNL     1       5.615 -60.935  -8.958  1.00  0.00     0.016 A 
ATOM     14  C   UNL     1       6.764 -61.248  -9.687  1.00  0.00     0.051 A 
ATOM     15  C   UNL     1       7.656 -62.221  -9.218  1.00  0.00     0.157 A 
ATOM     16  C   UNL     1       6.239 -62.565  -7.278  1.00  0.00     0.062 A 
ATOM     17  C   UNL     1       7.393 -62.879  -8.005  1.00  0.00     0.158 A 
BRANCH  15  18
ATOM     18  O   UNL     1       8.802 -62.532  -9.948  1.00  0.00    -0.504 OA
ATOM     19  H   UNL     1       9.604 -62.974  -9.512  1.00  0.00     0.293 HD
ENDBRANCH  15  18
BRANCH  17  20
ATOM     20  O   UNL     1       8.268 -63.842  -7.503  1.00  0.00    -0.504 OA
ATOM     21  H   UNL     1       8.781 -64.471  -8.109  1.00  0.00     0.293 HD
ENDBRANCH  17  20
ENDBRANCH   1  12
BRANCH   2  22
ATOM     22  O   UNL     1       5.299 -59.516  -5.747  1.00  0.00    -0.502 OA
ATOM     23  H   UNL     1       5.332 -58.739  -5.097  1.00  0.00     0.293 HD
ENDBRANCH   2  22
BRANCH   6  24
ATOM     24  O   UNL     1       0.197 -59.276  -4.237  1.00  0.00    -0.507 OA
ATOM     25  H   UNL     1      -0.185 -58.396  -4.550  1.00  0.00     0.293 HD
ENDBRANCH   6  24
BRANCH   8  26
ATOM     26  O   UNL     1      -1.534 -63.139  -6.506  1.00  0.00    -0.508 OA
ATOM     27  H   UNL     1      -2.415 -62.779  -6.852  1.00  0.00     0.293 HD
ENDBRANCH   8  26
TORSDOF 6
ENDMDL
MODEL 7
REMARK VINA RESULT:    -5.636      1.573      6.838
REMARK INTER + INTRA:          -7.002
REMARK INTER:                  -6.670
REMARK INTRA:                  -0.332
REMARK UNBOUND:                -0.213
REMARK SMILES O=c1c(O)c(-c2ccc(O)c(O)c2)oc2cc(O)cc(O)c12
REMARK SMILES IDX 5 1 3 2 2 3 1 4 22 5 20 6 19 7 17 8 16 9 15 10 14 11 6 12
REMARK SMILES IDX 7 13 8 14 9 15 13 16 11 17 10 18 12 20 4 22 21 24 18 26
REMARK H PARENT 10 19 12 21 4 23 21 25 18 27
REMARK Flexibility Score: inf
ROOT
ATOM      1  C   UNL     1       4.173 -60.353  -6.446  1.00  0.00     0.180 A 
ATOM      2  C   UNL     1       3.931 -59.909  -7.758  1.00  0.00     0.208 A 
ATOM      3  C   UNL     1       4.740 -60.393  -8.799  1.00  0.00     0.238 A 
ATOM      4  O   UNL     1       4.485 -60.034  -9.979  1.00  0.00    -0.285 OA
ATOM      5  C   UNL     1       5.789 -61.300  -8.514  1.00  0.00     0.111 A 
ATOM      6  C   UNL     1       6.695 -61.821  -9.485  1.00  0.00     0.134 A 
ATOM      7  C   UNL     1       7.612 -62.812  -9.112  1.00  0.00     0.093 A 
ATOM      8  C   UNL     1       7.698 -63.253  -7.789  1.00  0.00     0.123 A 
ATOM      9  C   UNL     1       6.859 -62.705  -6.822  1.00  0.00     0.094 A 
ATOM     10  C   UNL     1       5.909 -61.742  -7.171  1.00  0.00     0.146 A 
ATOM     11  O   UNL     1       5.121 -61.254  -6.220  1.00  0.00    -0.452 OA
ENDROOT
BRANCH   1  12
ATOM     12  C   UNL     1       3.378 -59.870  -5.293  1.00  0.00     0.025 A 
ATOM     13  C   UNL     1       2.292 -60.632  -4.834  1.00  0.00     0.016 A 
ATOM     14  C   UNL     1       1.542 -60.206  -3.736  1.00  0.00     0.051 A 
ATOM     15  C   UNL     1       1.876 -59.021  -3.068  1.00  0.00     0.157 A 
ATOM     16  C   UNL     1       3.723 -58.691  -4.608  1.00  0.00     0.062 A 
ATOM     17  C   UNL     1       2.975 -58.263  -3.506  1.00  0.00     0.158 A 
BRANCH  15  18
ATOM     18  O   UNL     1       1.125 -58.597  -1.973  1.00  0.00    -0.504 OA
ATOM     19  H   UNL     1       0.112 -58.568  -2.004  1.00  0.00     0.293 HD
ENDBRANCH  15  18
BRANCH  17  20
ATOM     20  O   UNL     1       3.342 -57.085  -2.854  1.00  0.00    -0.504 OA
ATOM     21  H   UNL     1       3.950 -57.085  -2.045  1.00  0.00     0.293 HD
ENDBRANCH  17  20
ENDBRANCH   1  12
BRANCH   2  22
ATOM     22  O   UNL     1       2.877 -59.031  -8.021  1.00  0.00    -0.502 OA
ATOM     23  H   UNL     1       2.029 -59.017  -7.466  1.00  0.00     0.293 HD
ENDBRANCH   2  22
BRANCH   6  24
ATOM     24  O   UNL     1       6.754 -61.385 -10.812  1.00  0.00    -0.507 OA
ATOM     25  H   UNL     1       6.950 -61.978 -11.604  1.00  0.00     0.293 HD
ENDBRANCH   6  24
BRANCH   8  26
ATOM     26  O   UNL     1       8.624 -64.228  -7.423  1.00  0.00    -0.508 OA
ATOM     27  H   UNL     1       9.621 -64.055  -7.469  1.00  0.00     0.293 HD
ENDBRANCH   8  26
TORSDOF 6
ENDMDL
MODEL 8
REMARK VINA RESULT:    -5.586      8.610     11.223
REMARK INTER + INTRA:          -6.942
REMARK INTER:                  -6.609
REMARK INTRA:                  -0.332
REMARK UNBOUND:                -0.213
REMARK SMILES O=c1c(O)c(-c2ccc(O)c(O)c2)oc2cc(O)cc(O)c12
REMARK SMILES IDX 5 1 3 2 2 3 1 4 22 5 20 6 19 7 17 8 16 9 15 10 14 11 6 12
REMARK SMILES IDX 7 13 8 14 9 15 13 16 11 17 10 18 12 20 4 22 21 24 18 26
REMARK H PARENT 10 19 12 21 4 23 21 25 18 27
REMARK Flexibility Score: inf
ROOT
ATOM      1  C   UNL     1      -2.806 -56.401 -12.815  1.00  0.00     0.180 A 
ATOM      2  C   UNL     1      -3.322 -56.972 -13.991  1.00  0.00     0.208 A 
ATOM      3  C   UNL     1      -3.477 -58.366 -14.058  1.00  0.00     0.238 A 
ATOM      4  O   UNL     1      -3.990 -58.867 -15.093  1.00  0.00    -0.285 OA
ATOM      5  C   UNL     1      -3.100 -59.172 -12.957  1.00  0.00     0.111 A 
ATOM      6  C   UNL     1      -3.176 -60.596 -12.931  1.00  0.00     0.134 A 
ATOM      7  C   UNL     1      -2.900 -61.281 -11.741  1.00  0.00     0.093 A 
ATOM      8  C   UNL     1      -2.487 -60.597 -10.595  1.00  0.00     0.123 A 
ATOM      9  C   UNL     1      -2.352 -59.212 -10.629  1.00  0.00     0.094 A 
ATOM     10  C   UNL     1      -2.656 -58.497 -11.790  1.00  0.00     0.146 A 
ATOM     11  O   UNL     1      -2.523 -57.176 -11.775  1.00  0.00    -0.452 OA
ENDROOT
BRANCH   1  12
ATOM     12  C   UNL     1      -2.590 -54.942 -12.678  1.00  0.00     0.025 A 
ATOM     13  C   UNL     1      -3.573 -54.153 -12.059  1.00  0.00     0.016 A 
ATOM     14  C   UNL     1      -3.381 -52.779 -11.900  1.00  0.00     0.051 A 
ATOM     15  C   UNL     1      -2.198 -52.174 -12.342  1.00  0.00     0.157 A 
ATOM     16  C   UNL     1      -1.395 -54.335 -13.102  1.00  0.00     0.062 A 
ATOM     17  C   UNL     1      -1.198 -52.958 -12.942  1.00  0.00     0.158 A 
BRANCH  15  18
ATOM     18  O   UNL     1      -2.009 -50.802 -12.184  1.00  0.00    -0.504 OA
ATOM     19  H   UNL     1      -2.492 -50.280 -11.461  1.00  0.00     0.293 HD
ENDBRANCH  15  18
BRANCH  17  20
ATOM     20  O   UNL     1      -0.002 -52.389 -13.380  1.00  0.00    -0.504 OA
ATOM     21  H   UNL     1       0.048 -51.438 -13.722  1.00  0.00     0.293 HD
ENDBRANCH  17  20
ENDBRANCH   1  12
BRANCH   2  22
ATOM     22  O   UNL     1      -3.708 -56.157 -15.058  1.00  0.00    -0.502 OA
ATOM     23  H   UNL     1      -4.445 -55.466 -14.977  1.00  0.00     0.293 HD
ENDBRANCH   2  22
BRANCH   6  24
ATOM     24  O   UNL     1      -3.490 -61.381 -14.045  1.00  0.00    -0.507 OA
ATOM     25  H   UNL     1      -3.071 -62.275 -14.254  1.00  0.00     0.293 HD
ENDBRANCH   6  24
BRANCH   8  26
ATOM     26  O   UNL     1      -2.198 -61.288  -9.420  1.00  0.00    -0.508 OA
ATOM     27  H   UNL     1      -1.417 -61.028  -8.831  1.00  0.00     0.293 HD
ENDBRANCH   8  26
TORSDOF 6
ENDMDL
MODEL 9
REMARK VINA RESULT:    -5.487      9.437     10.970
REMARK INTER + INTRA:          -6.823
REMARK INTER:                  -6.507
REMARK INTRA:                  -0.316
REMARK UNBOUND:                -0.213
REMARK SMILES O=c1c(O)c(-c2ccc(O)c(O)c2)oc2cc(O)cc(O)c12
REMARK SMILES IDX 5 1 3 2 2 3 1 4 22 5 20 6 19 7 17 8 16 9 15 10 14 11 6 12
REMARK SMILES IDX 7 13 8 14 9 15 13 16 11 17 10 18 12 20 4 22 21 24 18 26
REMARK H PARENT 10 19 12 21 4 23 21 25 18 27
REMARK Flexibility Score: inf
ROOT
ATOM      1  C   UNL     1       0.497 -66.185   0.324  1.00  0.00     0.180 A 
ATOM      2  C   UNL     1       1.639 -66.802   0.864  1.00  0.00     0.208 A 
ATOM      3  C   UNL     1       1.986 -66.540   2.200  1.00  0.00     0.238 A 
ATOM      4  O   UNL     1       2.978 -67.137   2.695  1.00  0.00    -0.285 OA
ATOM      5  C   UNL     1       1.197 -65.654   2.972  1.00  0.00     0.111 A 
ATOM      6  C   UNL     1       1.478 -65.285   4.321  1.00  0.00     0.134 A 
ATOM      7  C   UNL     1       0.558 -64.503   5.030  1.00  0.00     0.093 A 
ATOM      8  C   UNL     1      -0.602 -64.022   4.417  1.00  0.00     0.123 A 
ATOM      9  C   UNL     1      -0.855 -64.328   3.082  1.00  0.00     0.094 A 
ATOM     10  C   UNL     1       0.026 -65.136   2.360  1.00  0.00     0.146 A 
ATOM     11  O   UNL     1      -0.259 -65.411   1.092  1.00  0.00    -0.452 OA
ENDROOT
BRANCH   1  12
ATOM     12  C   UNL     1       0.082 -66.393  -1.082  1.00  0.00     0.025 A 
ATOM     13  C   UNL     1      -0.735 -67.488  -1.407  1.00  0.00     0.016 A 
ATOM     14  C   UNL     1      -1.156 -67.691  -2.723  1.00  0.00     0.051 A 
ATOM     15  C   UNL     1      -0.781 -66.794  -3.732  1.00  0.00     0.157 A 
ATOM     16  C   UNL     1       0.439 -65.484  -2.094  1.00  0.00     0.062 A 
ATOM     17  C   UNL     1       0.018 -65.683  -3.413  1.00  0.00     0.158 A 
BRANCH  15  18
ATOM     18  O   UNL     1      -1.201 -67.000  -5.045  1.00  0.00    -0.504 OA
ATOM     19  H   UNL     1      -2.185 -67.027  -5.289  1.00  0.00     0.293 HD
ENDBRANCH  15  18
BRANCH  17  20
ATOM     20  O   UNL     1       0.396 -64.764  -4.392  1.00  0.00    -0.504 OA
ATOM     21  H   UNL     1       0.428 -65.006  -5.374  1.00  0.00     0.293 HD
ENDBRANCH  17  20
ENDBRANCH   1  12
BRANCH   2  22
ATOM     22  O   UNL     1       2.391 -67.691   0.092  1.00  0.00    -0.502 OA
ATOM     23  H   UNL     1       3.396 -67.776   0.182  1.00  0.00     0.293 HD
ENDBRANCH   2  22
BRANCH   6  24
ATOM     24  O   UNL     1       2.651 -65.635   4.998  1.00  0.00    -0.507 OA
ATOM     25  H   UNL     1       3.233 -66.426   4.767  1.00  0.00     0.293 HD
ENDBRANCH   6  24
BRANCH   8  26
ATOM     26  O   UNL     1      -1.504 -63.231   5.125  1.00  0.00    -0.508 OA
ATOM     27  H   UNL     1      -1.409 -63.081   6.122  1.00  0.00     0.293 HD
ENDBRANCH   8  26
TORSDOF 6
ENDMDL
