MODEL 1
REMARK VINA RESULT:    32.013      0.000      0.000
REMARK INTER + INTRA:          38.327
REMARK INTER:                  38.564
REMARK INTRA:                  -0.237
REMARK UNBOUND:                -0.237
REMARK SMILES Oc1cc(O)c2cc(O)c(-c3ccc(O)c(O)c3)[o+]c2c1
REMARK SMILES IDX 10 1 19 2 20 3 21 4 2 5 3 6 4 7 6 8 7 9 8 10 11 11 12 12
REMARK SMILES IDX 13 13 14 14 18 15 16 16 15 17 17 19 9 21 1 23 5 25
REMARK H PARENT 15 18 17 20 9 22 1 24 5 26
REMARK Flexibility Score: inf
ROOT
ATOM      1  C   UNL     1      15.891  49.920  58.892  1.00  0.00     0.402 A 
ATOM      2  O   UNL     1      16.735  50.282  59.855  1.00  0.00    -0.202 OA
ATOM      3  C   UNL     1      16.675  51.456  60.474  1.00  0.00     0.368 A 
ATOM      4  C   UNL     1      17.609  51.746  61.472  1.00  0.00     0.162 A 
ATOM      5  C   UNL     1      17.570  52.976  62.137  1.00  0.00     0.128 A 
ATOM      6  C   UNL     1      16.596  53.918  61.802  1.00  0.00     0.093 A 
ATOM      7  C   UNL     1      15.649  53.651  60.805  1.00  0.00     0.136 A 
ATOM      8  C   UNL     1      15.682  52.404  60.129  1.00  0.00     0.125 A 
ATOM      9  C   UNL     1      14.765  52.045  59.126  1.00  0.00     0.078 A 
ATOM     10  C   UNL     1      14.858  50.795  58.507  1.00  0.00     0.223 A 
ENDROOT
BRANCH   1  11
ATOM     11  C   UNL     1      16.066  48.587  58.271  1.00  0.00     0.087 A 
ATOM     12  C   UNL     1      17.176  48.298  57.458  1.00  0.00     0.022 A 
ATOM     13  C   UNL     1      17.331  47.025  56.902  1.00  0.00     0.051 A 
ATOM     14  C   UNL     1      16.391  46.019  57.162  1.00  0.00     0.157 A 
ATOM     15  C   UNL     1      15.138  47.569  58.547  1.00  0.00     0.068 A 
ATOM     16  C   UNL     1      15.291  46.293  57.991  1.00  0.00     0.158 A 
BRANCH  14  17
ATOM     17  O   UNL     1      16.549  44.752  56.604  1.00  0.00    -0.504 OA
ATOM     18  H   UNL     1      15.863  44.363  55.968  1.00  0.00     0.293 HD
ENDBRANCH  14  17
BRANCH  16  19
ATOM     19  O   UNL     1      14.341  45.312  58.275  1.00  0.00    -0.504 OA
ATOM     20  H   UNL     1      14.431  44.690  59.069  1.00  0.00     0.293 HD
ENDBRANCH  16  19
ENDBRANCH   1  11
BRANCH  10  21
ATOM     21  O   UNL     1      13.918  50.418  57.548  1.00  0.00    -0.500 OA
ATOM     22  H   UNL     1      12.949  50.250  57.790  1.00  0.00     0.294 HD
ENDBRANCH  10  21
BRANCH   5  23
ATOM     23  O   UNL     1      18.498  53.271  63.134  1.00  0.00    -0.507 OA
ATOM     24  H   UNL     1      18.975  54.165  63.166  1.00  0.00     0.293 HD
ENDBRANCH   5  23
BRANCH   7  25
ATOM     25  O   UNL     1      14.709  54.648  60.527  1.00  0.00    -0.507 OA
ATOM     26  H   UNL     1      13.710  54.520  60.579  1.00  0.00     0.293 HD
ENDBRANCH   7  25
TORSDOF 6
ENDMDL
MODEL 2
REMARK VINA RESULT:    32.044      1.706      2.509
REMARK INTER + INTRA:          38.364
REMARK INTER:                  38.697
REMARK INTRA:                  -0.333
REMARK UNBOUND:                -0.237
REMARK SMILES Oc1cc(O)c2cc(O)c(-c3ccc(O)c(O)c3)[o+]c2c1
REMARK SMILES IDX 10 1 19 2 20 3 21 4 2 5 3 6 4 7 6 8 7 9 8 10 11 11 12 12
REMARK SMILES IDX 13 13 14 14 18 15 16 16 15 17 17 19 9 21 1 23 5 25
REMARK H PARENT 15 18 17 20 9 22 1 24 5 26
REMARK Flexibility Score: inf
ROOT
ATOM      1  C   UNL     1      15.859  49.180  59.681  1.00  0.00     0.402 A 
ATOM      2  O   UNL     1      15.844  50.399  59.146  1.00  0.00    -0.202 OA
ATOM      3  C   UNL     1      15.503  51.489  59.824  1.00  0.00     0.368 A 
ATOM      4  C   UNL     1      15.515  52.726  59.174  1.00  0.00     0.162 A 
ATOM      5  C   UNL     1      15.158  53.889  59.864  1.00  0.00     0.128 A 
ATOM      6  C   UNL     1      14.785  53.814  61.208  1.00  0.00     0.093 A 
ATOM      7  C   UNL     1      14.765  52.586  61.881  1.00  0.00     0.136 A 
ATOM      8  C   UNL     1      15.129  51.404  61.188  1.00  0.00     0.125 A 
ATOM      9  C   UNL     1      15.150  50.133  61.785  1.00  0.00     0.078 A 
ATOM     10  C   UNL     1      15.525  49.012  61.038  1.00  0.00     0.223 A 
ENDROOT
BRANCH   1  11
ATOM     11  C   UNL     1      16.249  48.042  58.818  1.00  0.00     0.087 A 
ATOM     12  C   UNL     1      17.599  47.714  58.604  1.00  0.00     0.022 A 
ATOM     13  C   UNL     1      17.942  46.621  57.804  1.00  0.00     0.051 A 
ATOM     14  C   UNL     1      16.944  45.830  57.219  1.00  0.00     0.157 A 
ATOM     15  C   UNL     1      15.251  47.234  58.248  1.00  0.00     0.068 A 
ATOM     16  C   UNL     1      15.592  46.138  57.446  1.00  0.00     0.158 A 
BRANCH  14  17
ATOM     17  O   UNL     1      17.290  44.742  56.421  1.00  0.00    -0.504 OA
ATOM     18  H   UNL     1      16.593  44.223  55.901  1.00  0.00     0.293 HD
ENDBRANCH  14  17
BRANCH  16  19
ATOM     19  O   UNL     1      14.574  45.368  56.884  1.00  0.00    -0.504 OA
ATOM     20  H   UNL     1      14.660  44.950  55.965  1.00  0.00     0.293 HD
ENDBRANCH  16  19
ENDBRANCH   1  11
BRANCH  10  21
ATOM     21  O   UNL     1      15.595  47.759  61.644  1.00  0.00    -0.500 OA
ATOM     22  H   UNL     1      14.810  47.368  62.151  1.00  0.00     0.294 HD
ENDBRANCH  10  21
BRANCH   5  23
ATOM     23  O   UNL     1      15.168  55.125  59.222  1.00  0.00    -0.507 OA
ATOM     24  H   UNL     1      14.477  55.364  58.521  1.00  0.00     0.293 HD
ENDBRANCH   5  23
BRANCH   7  25
ATOM     25  O   UNL     1      14.377  52.596  63.225  1.00  0.00    -0.507 OA
ATOM     26  H   UNL     1      13.513  52.991  63.566  1.00  0.00     0.293 HD
ENDBRANCH   7  25
TORSDOF 6
ENDMDL
MODEL 3
REMARK VINA RESULT:    33.878      1.833      2.860
REMARK INTER + INTRA:          40.574
REMARK INTER:                  40.889
REMARK INTRA:                  -0.315
REMARK UNBOUND:                -0.237
REMARK SMILES Oc1cc(O)c2cc(O)c(-c3ccc(O)c(O)c3)[o+]c2c1
REMARK SMILES IDX 10 1 19 2 20 3 21 4 2 5 3 6 4 7 6 8 7 9 8 10 11 11 12 12
REMARK SMILES IDX 13 13 14 14 18 15 16 16 15 17 17 19 9 21 1 23 5 25
REMARK H PARENT 15 18 17 20 9 22 1 24 5 26
REMARK Flexibility Score: inf
ROOT
ATOM      1  C   UNL     1      16.913  49.748  59.371  1.00  0.00     0.402 A 
ATOM      2  O   UNL     1      15.787  49.972  60.043  1.00  0.00    -0.202 OA
ATOM      3  C   UNL     1      15.624  50.997  60.873  1.00  0.00     0.368 A 
ATOM      4  C   UNL     1      14.403  51.148  61.536  1.00  0.00     0.162 A 
ATOM      5  C   UNL     1      14.207  52.216  62.417  1.00  0.00     0.128 A 
ATOM      6  C   UNL     1      15.235  53.135  62.636  1.00  0.00     0.093 A 
ATOM      7  C   UNL     1      16.467  53.006  61.983  1.00  0.00     0.136 A 
ATOM      8  C   UNL     1      16.672  51.926  61.086  1.00  0.00     0.125 A 
ATOM      9  C   UNL     1      17.868  51.725  60.379  1.00  0.00     0.078 A 
ATOM     10  C   UNL     1      17.994  50.639  59.508  1.00  0.00     0.223 A 
ENDROOT
BRANCH   1  11
ATOM     11  C   UNL     1      16.975  48.565  58.483  1.00  0.00     0.087 A 
ATOM     12  C   UNL     1      17.176  47.272  58.998  1.00  0.00     0.022 A 
ATOM     13  C   UNL     1      17.207  46.168  58.141  1.00  0.00     0.051 A 
ATOM     14  C   UNL     1      17.024  46.336  56.763  1.00  0.00     0.157 A 
ATOM     15  C   UNL     1      16.770  48.726  57.103  1.00  0.00     0.068 A 
ATOM     16  C   UNL     1      16.801  47.622  56.242  1.00  0.00     0.158 A 
BRANCH  14  17
ATOM     17  O   UNL     1      17.057  45.233  55.912  1.00  0.00    -0.504 OA
ATOM     18  H   UNL     1      17.933  44.824  55.606  1.00  0.00     0.293 HD
ENDBRANCH  14  17
BRANCH  16  19
ATOM     19  O   UNL     1      16.608  47.822  54.876  1.00  0.00    -0.504 OA
ATOM     20  H   UNL     1      17.383  47.942  54.235  1.00  0.00     0.293 HD
ENDBRANCH  16  19
ENDBRANCH   1  11
BRANCH  10  21
ATOM     21  O   UNL     1      19.163  50.468  58.767  1.00  0.00    -0.500 OA
ATOM     22  H   UNL     1      19.897  51.166  58.761  1.00  0.00     0.294 HD
ENDBRANCH  10  21
BRANCH   5  23
ATOM     23  O   UNL     1      12.993  52.372  63.081  1.00  0.00    -0.507 OA
ATOM     24  H   UNL     1      12.700  51.731  63.810  1.00  0.00     0.293 HD
ENDBRANCH   5  23
BRANCH   7  25
ATOM     25  O   UNL     1      17.445  53.967  62.260  1.00  0.00    -0.507 OA
ATOM     26  H   UNL     1      18.212  53.831  62.902  1.00  0.00     0.293 HD
ENDBRANCH   7  25
TORSDOF 6
ENDMDL
