MODEL 1
REMARK VINA RESULT:    -4.147      0.000      0.000
REMARK INTER + INTRA:         -13.110
REMARK INTER:                  -9.481
REMARK INTRA:                  -3.629
REMARK UNBOUND:                -3.629
REMARK SMILES CCCCCCCCCCCCCCCCCCCCCCCC(=O)[O-]
REMARK SMILES IDX 13 1 14 2 15 3 16 4 17 5 18 6 19 7 20 8 21 9 22 10 23 11
REMARK SMILES IDX 24 12 25 13 26 14 12 15 11 16 10 17 9 18 8 19 7 20 6 21 5 22
REMARK SMILES IDX 4 23 3 24 2 25 1 26
REMARK H PARENT
REMARK Flexibility Score: inf
ROOT
ATOM      1  C   UNL     1     -14.853  -4.447 -30.986  1.00  0.00     0.000 C 
ENDROOT
BRANCH   1   2
ATOM      2  C   UNL     1     -13.870  -4.627 -32.155  1.00  0.00     0.000 C 
BRANCH   2   3
ATOM      3  C   UNL     1     -14.368  -3.971 -33.454  1.00  0.00     0.000 C 
BRANCH   3   4
ATOM      4  C   UNL     1     -15.418  -2.872 -33.207  1.00  0.00     0.000 C 
BRANCH   4   5
ATOM      5  C   UNL     1     -15.263  -1.610 -34.077  1.00  0.00     0.000 C 
BRANCH   5   6
ATOM      6  C   UNL     1     -15.004  -0.340 -33.252  1.00  0.00     0.000 C 
BRANCH   6   7
ATOM      7  C   UNL     1     -15.053  -0.646 -31.748  1.00  0.00     0.000 C 
BRANCH   7   8
ATOM      8  C   UNL     1     -13.733  -0.321 -31.027  1.00  0.00     0.000 C 
BRANCH   8   9
ATOM      9  C   UNL     1     -13.075  -1.511 -30.307  1.00  0.00     0.000 C 
BRANCH   9  10
ATOM     10  C   UNL     1     -11.550  -1.558 -30.503  1.00  0.00     0.006 C 
BRANCH  10  11
ATOM     11  C   UNL     1     -11.053  -2.961 -30.871  1.00  0.00     0.053 C 
BRANCH  11  12
ATOM     12  C   UNL     1      -9.568  -2.994 -31.066  1.00  0.00     0.041 C 
ATOM     13  O   UNL     1      -8.963  -4.094 -31.160  1.00  0.00    -0.550 OA
ATOM     14  O   UNL     1      -8.853  -1.806 -31.164  1.00  0.00    -0.550 OA
ENDBRANCH  11  12
ENDBRANCH  10  11
ENDBRANCH   9  10
ENDBRANCH   8   9
ENDBRANCH   7   8
ENDBRANCH   6   7
ENDBRANCH   5   6
ENDBRANCH   4   5
ENDBRANCH   3   4
ENDBRANCH   2   3
ENDBRANCH   1   2
BRANCH   1  15
ATOM     15  C   UNL     1     -15.241  -5.779 -30.326  1.00  0.00     0.000 C 
BRANCH  15  16
ATOM     16  C   UNL     1     -14.005  -6.667 -30.119  1.00  0.00     0.000 C 
BRANCH  16  17
ATOM     17  C   UNL     1     -14.295  -8.161 -30.346  1.00  0.00     0.000 C 
BRANCH  17  18
ATOM     18  C   UNL     1     -13.516  -9.125 -29.426  1.00  0.00    -0.000 C 
BRANCH  18  19
ATOM     19  C   UNL     1     -12.645  -8.445 -28.354  1.00  0.00    -0.000 C 
BRANCH  19  20
ATOM     20  C   UNL     1     -11.243  -9.062 -28.243  1.00  0.00    -0.000 C 
BRANCH  20  21
ATOM     21  C   UNL     1     -10.210  -8.215 -29.001  1.00  0.00    -0.000 C 
BRANCH  21  22
ATOM     22  C   UNL     1     -10.655  -6.753 -29.172  1.00  0.00    -0.000 C 
BRANCH  22  23
ATOM     23  C   UNL     1      -9.849  -5.787 -28.287  1.00  0.00    -0.000 C 
BRANCH  23  24
ATOM     24  C   UNL     1     -10.726  -5.036 -27.267  1.00  0.00    -0.000 C 
BRANCH  24  25
ATOM     25  C   UNL     1     -12.232  -5.041 -27.579  1.00  0.00    -0.003 C 
ATOM     26  C   UNL     1     -12.904  -3.694 -27.313  1.00  0.00     0.004 C 
ENDBRANCH  24  25
ENDBRANCH  23  24
ENDBRANCH  22  23
ENDBRANCH  21  22
ENDBRANCH  20  21
ENDBRANCH  19  20
ENDBRANCH  18  19
ENDBRANCH  17  18
ENDBRANCH  16  17
ENDBRANCH  15  16
ENDBRANCH   1  15
TORSDOF 22
ENDMDL
MODEL 2
REMARK VINA RESULT:    -4.019      1.681      6.548
REMARK INTER + INTRA:         -12.817
REMARK INTER:                  -9.762
REMARK INTRA:                  -3.055
REMARK UNBOUND:                -3.629
REMARK SMILES CCCCCCCCCCCCCCCCCCCCCCCC(=O)[O-]
REMARK SMILES IDX 13 1 14 2 15 3 16 4 17 5 18 6 19 7 20 8 21 9 22 10 23 11
REMARK SMILES IDX 24 12 25 13 26 14 12 15 11 16 10 17 9 18 8 19 7 20 6 21 5 22
REMARK SMILES IDX 4 23 3 24 2 25 1 26
REMARK H PARENT
REMARK Flexibility Score: inf
ROOT
ATOM      1  C   UNL     1     -15.801  -5.514 -30.363  1.00  0.00     0.000 C 
ENDROOT
BRANCH   1   2
ATOM      2  C   UNL     1     -14.606  -6.409 -30.730  1.00  0.00     0.000 C 
BRANCH   2   3
ATOM      3  C   UNL     1     -14.933  -7.908 -30.618  1.00  0.00     0.000 C 
BRANCH   3   4
ATOM      4  C   UNL     1     -13.848  -8.705 -29.869  1.00  0.00     0.000 C 
BRANCH   4   5
ATOM      5  C   UNL     1     -12.806  -7.852 -29.123  1.00  0.00     0.000 C 
BRANCH   5   6
ATOM      6  C   UNL     1     -11.957  -8.668 -28.135  1.00  0.00     0.000 C 
BRANCH   6   7
ATOM      7  C   UNL     1     -10.618  -9.072 -28.770  1.00  0.00     0.000 C 
BRANCH   7   8
ATOM      8  C   UNL     1      -9.458  -8.149 -28.358  1.00  0.00     0.000 C 
BRANCH   8   9
ATOM      9  C   UNL     1      -8.639  -7.572 -29.526  1.00  0.00     0.000 C 
BRANCH   9  10
ATOM     10  C   UNL     1      -9.469  -6.657 -30.442  1.00  0.00     0.006 C 
BRANCH  10  11
ATOM     11  C   UNL     1      -8.635  -5.513 -31.032  1.00  0.00     0.053 C 
BRANCH  11  12
ATOM     12  C   UNL     1      -7.873  -4.776 -29.973  1.00  0.00     0.041 C 
ATOM     13  O   UNL     1      -6.615  -4.735 -30.008  1.00  0.00    -0.550 OA
ATOM     14  O   UNL     1      -8.554  -4.117 -28.957  1.00  0.00    -0.550 OA
ENDBRANCH  11  12
ENDBRANCH  10  11
ENDBRANCH   9  10
ENDBRANCH   8   9
ENDBRANCH   7   8
ENDBRANCH   6   7
ENDBRANCH   5   6
ENDBRANCH   4   5
ENDBRANCH   3   4
ENDBRANCH   2   3
ENDBRANCH   1   2
BRANCH   1  15
ATOM     15  C   UNL     1     -15.655  -4.080 -30.897  1.00  0.00     0.000 C 
BRANCH  15  16
ATOM     16  C   UNL     1     -15.983  -4.020 -32.396  1.00  0.00     0.000 C 
BRANCH  16  17
ATOM     17  C   UNL     1     -14.805  -3.516 -33.249  1.00  0.00     0.000 C 
BRANCH  17  18
ATOM     18  C   UNL     1     -14.947  -2.071 -33.771  1.00  0.00    -0.000 C 
BRANCH  18  19
ATOM     19  C   UNL     1     -15.547  -1.069 -32.768  1.00  0.00    -0.000 C 
BRANCH  19  20
ATOM     20  C   UNL     1     -14.740   0.233 -32.667  1.00  0.00    -0.000 C 
BRANCH  20  21
ATOM     21  C   UNL     1     -13.890   0.253 -31.387  1.00  0.00    -0.000 C 
BRANCH  21  22
ATOM     22  C   UNL     1     -14.332  -0.811 -30.368  1.00  0.00    -0.000 C 
BRANCH  22  23
ATOM     23  C   UNL     1     -13.138  -1.545 -29.733  1.00  0.00    -0.000 C 
BRANCH  23  24
ATOM     24  C   UNL     1     -11.818  -1.308 -30.490  1.00  0.00    -0.000 C 
BRANCH  24  25
ATOM     25  C   UNL     1     -11.077  -2.587 -30.917  1.00  0.00    -0.003 C 
ATOM     26  C   UNL     1     -11.934  -3.846 -30.793  1.00  0.00     0.004 C 
ENDBRANCH  24  25
ENDBRANCH  23  24
ENDBRANCH  22  23
ENDBRANCH  21  22
ENDBRANCH  20  21
ENDBRANCH  19  20
ENDBRANCH  18  19
ENDBRANCH  17  18
ENDBRANCH  16  17
ENDBRANCH  15  16
ENDBRANCH   1  15
TORSDOF 22
ENDMDL
MODEL 3
REMARK VINA RESULT:    -4.016      2.244      4.216
REMARK INTER + INTRA:         -12.811
REMARK INTER:                  -8.580
REMARK INTRA:                  -4.231
REMARK UNBOUND:                -3.629
REMARK SMILES CCCCCCCCCCCCCCCCCCCCCCCC(=O)[O-]
REMARK SMILES IDX 13 1 14 2 15 3 16 4 17 5 18 6 19 7 20 8 21 9 22 10 23 11
REMARK SMILES IDX 24 12 25 13 26 14 12 15 11 16 10 17 9 18 8 19 7 20 6 21 5 22
REMARK SMILES IDX 4 23 3 24 2 25 1 26
REMARK H PARENT
REMARK Flexibility Score: inf
ROOT
ATOM      1  C   UNL     1     -13.901  -7.855 -29.874  1.00  0.00     0.000 C 
ENDROOT
BRANCH   1   2
ATOM      2  C   UNL     1     -15.013  -7.342 -30.804  1.00  0.00     0.000 C 
BRANCH   2   3
ATOM      3  C   UNL     1     -15.401  -5.882 -30.514  1.00  0.00     0.000 C 
BRANCH   3   4
ATOM      4  C   UNL     1     -15.482  -5.018 -31.787  1.00  0.00     0.000 C 
BRANCH   4   5
ATOM      5  C   UNL     1     -14.128  -4.546 -32.346  1.00  0.00     0.000 C 
BRANCH   5   6
ATOM      6  C   UNL     1     -14.270  -3.628 -33.570  1.00  0.00     0.000 C 
BRANCH   6   7
ATOM      7  C   UNL     1     -15.627  -2.908 -33.557  1.00  0.00     0.000 C 
BRANCH   7   8
ATOM      8  C   UNL     1     -15.499  -1.387 -33.754  1.00  0.00     0.000 C 
BRANCH   8   9
ATOM      9  C   UNL     1     -14.994  -0.613 -32.523  1.00  0.00     0.000 C 
BRANCH   9  10
ATOM     10  C   UNL     1     -15.662  -1.068 -31.215  1.00  0.00     0.006 C 
BRANCH  10  11
ATOM     11  C   UNL     1     -14.642  -1.571 -30.186  1.00  0.00     0.053 C 
BRANCH  11  12
ATOM     12  C   UNL     1     -14.462  -0.600 -29.059  1.00  0.00     0.041 C 
ATOM     13  O   UNL     1     -13.525  -0.752 -28.232  1.00  0.00    -0.550 OA
ATOM     14  O   UNL     1     -15.320   0.487 -28.934  1.00  0.00    -0.550 OA
ENDBRANCH  11  12
ENDBRANCH  10  11
ENDBRANCH   9  10
ENDBRANCH   8   9
ENDBRANCH   7   8
ENDBRANCH   6   7
ENDBRANCH   5   6
ENDBRANCH   4   5
ENDBRANCH   3   4
ENDBRANCH   2   3
ENDBRANCH   1   2
BRANCH   1  15
ATOM     15  C   UNL     1     -12.733  -6.866 -29.740  1.00  0.00     0.000 C 
BRANCH  15  16
ATOM     16  C   UNL     1     -12.316  -6.708 -28.271  1.00  0.00     0.000 C 
BRANCH  16  17
ATOM     17  C   UNL     1     -12.043  -5.245 -27.879  1.00  0.00     0.000 C 
BRANCH  17  18
ATOM     18  C   UNL     1     -12.467  -4.196 -28.928  1.00  0.00    -0.000 C 
BRANCH  18  19
ATOM     19  C   UNL     1     -11.315  -3.368 -29.527  1.00  0.00    -0.000 C 
BRANCH  19  20
ATOM     20  C   UNL     1     -10.935  -3.812 -30.947  1.00  0.00    -0.000 C 
BRANCH  20  21
ATOM     21  C   UNL     1      -9.488  -4.329 -30.989  1.00  0.00    -0.000 C 
BRANCH  21  22
ATOM     22  C   UNL     1      -9.411  -5.863 -31.063  1.00  0.00    -0.000 C 
BRANCH  22  23
ATOM     23  C   UNL     1      -8.280  -6.435 -30.191  1.00  0.00    -0.000 C 
BRANCH  23  24
ATOM     24  C   UNL     1      -8.740  -6.775 -28.760  1.00  0.00    -0.000 C 
BRANCH  24  25
ATOM     25  C   UNL     1      -7.979  -6.042 -27.643  1.00  0.00    -0.003 C 
ATOM     26  C   UNL     1      -8.418  -4.589 -27.470  1.00  0.00     0.004 C 
ENDBRANCH  24  25
ENDBRANCH  23  24
ENDBRANCH  22  23
ENDBRANCH  21  22
ENDBRANCH  20  21
ENDBRANCH  19  20
ENDBRANCH  18  19
ENDBRANCH  17  18
ENDBRANCH  16  17
ENDBRANCH  15  16
ENDBRANCH   1  15
TORSDOF 22
ENDMDL
MODEL 4
REMARK VINA RESULT:    -4.006      2.035      4.449
REMARK INTER + INTRA:         -12.787
REMARK INTER:                  -9.645
REMARK INTRA:                  -3.142
REMARK UNBOUND:                -3.629
REMARK SMILES CCCCCCCCCCCCCCCCCCCCCCCC(=O)[O-]
REMARK SMILES IDX 13 1 14 2 15 3 16 4 17 5 18 6 19 7 20 8 21 9 22 10 23 11
REMARK SMILES IDX 24 12 25 13 26 14 12 15 11 16 10 17 9 18 8 19 7 20 6 21 5 22
REMARK SMILES IDX 4 23 3 24 2 25 1 26
REMARK H PARENT
REMARK Flexibility Score: inf
ROOT
ATOM      1  C   UNL     1     -13.182  -8.632 -28.907  1.00  0.00     0.000 C 
ENDROOT
BRANCH   1   2
ATOM      2  C   UNL     1     -13.491  -7.435 -29.821  1.00  0.00     0.000 C 
BRANCH   2   3
ATOM      3  C   UNL     1     -14.809  -7.604 -30.594  1.00  0.00     0.000 C 
BRANCH   3   4
ATOM      4  C   UNL     1     -15.284  -6.302 -31.265  1.00  0.00     0.000 C 
BRANCH   4   5
ATOM      5  C   UNL     1     -14.552  -5.026 -30.810  1.00  0.00     0.000 C 
BRANCH   5   6
ATOM      6  C   UNL     1     -13.738  -4.366 -31.935  1.00  0.00     0.000 C 
BRANCH   6   7
ATOM      7  C   UNL     1     -14.580  -4.236 -33.213  1.00  0.00     0.000 C 
BRANCH   7   8
ATOM      8  C   UNL     1     -15.632  -3.116 -33.126  1.00  0.00     0.000 C 
BRANCH   8   9
ATOM      9  C   UNL     1     -15.355  -1.893 -34.018  1.00  0.00     0.000 C 
BRANCH   9  10
ATOM     10  C   UNL     1     -15.158  -0.598 -33.211  1.00  0.00     0.006 C 
BRANCH  10  11
ATOM     11  C   UNL     1     -15.415  -0.801 -31.713  1.00  0.00     0.053 C 
BRANCH  11  12
ATOM     12  C   UNL     1     -14.340  -0.180 -30.874  1.00  0.00     0.041 C 
ATOM     13  O   UNL     1     -14.159  -0.561 -29.688  1.00  0.00    -0.550 OA
ATOM     14  O   UNL     1     -13.524   0.809 -31.410  1.00  0.00    -0.550 OA
ENDBRANCH  11  12
ENDBRANCH  10  11
ENDBRANCH   9  10
ENDBRANCH   8   9
ENDBRANCH   7   8
ENDBRANCH   6   7
ENDBRANCH   5   6
ENDBRANCH   4   5
ENDBRANCH   3   4
ENDBRANCH   2   3
ENDBRANCH   1   2
BRANCH   1  15
ATOM     15  C   UNL     1     -11.881  -8.452 -28.109  1.00  0.00     0.000 C 
BRANCH  15  16
ATOM     16  C   UNL     1     -10.663  -8.848 -28.956  1.00  0.00     0.000 C 
BRANCH  16  17
ATOM     17  C   UNL     1      -9.332  -8.351 -28.362  1.00  0.00     0.000 C 
BRANCH  17  18
ATOM     18  C   UNL     1      -8.080  -8.671 -29.206  1.00  0.00    -0.000 C 
BRANCH  18  19
ATOM     19  C   UNL     1      -7.422  -7.457 -29.884  1.00  0.00    -0.000 C 
BRANCH  19  20
ATOM     20  C   UNL     1      -8.231  -6.163 -29.714  1.00  0.00    -0.000 C 
BRANCH  20  21
ATOM     21  C   UNL     1      -9.069  -5.873 -30.969  1.00  0.00    -0.000 C 
BRANCH  21  22
ATOM     22  C   UNL     1     -10.509  -5.450 -30.633  1.00  0.00    -0.000 C 
BRANCH  22  23
ATOM     23  C   UNL     1     -10.680  -5.078 -29.150  1.00  0.00    -0.000 C 
BRANCH  23  24
ATOM     24  C   UNL     1     -10.574  -3.563 -28.896  1.00  0.00    -0.000 C 
BRANCH  24  25
ATOM     25  C   UNL     1     -11.568  -2.701 -29.692  1.00  0.00    -0.003 C 
ATOM     26  C   UNL     1     -10.886  -1.755 -30.679  1.00  0.00     0.004 C 
ENDBRANCH  24  25
ENDBRANCH  23  24
ENDBRANCH  22  23
ENDBRANCH  21  22
ENDBRANCH  20  21
ENDBRANCH  19  20
ENDBRANCH  18  19
ENDBRANCH  17  18
ENDBRANCH  16  17
ENDBRANCH  15  16
ENDBRANCH   1  15
TORSDOF 22
ENDMDL
MODEL 5
REMARK VINA RESULT:    -3.946     18.579     21.861
REMARK INTER + INTRA:         -12.651
REMARK INTER:                  -8.710
REMARK INTRA:                  -3.941
REMARK UNBOUND:                -3.629
REMARK SMILES CCCCCCCCCCCCCCCCCCCCCCCC(=O)[O-]
REMARK SMILES IDX 13 1 14 2 15 3 16 4 17 5 18 6 19 7 20 8 21 9 22 10 23 11
REMARK SMILES IDX 24 12 25 13 26 14 12 15 11 16 10 17 9 18 8 19 7 20 6 21 5 22
REMARK SMILES IDX 4 23 3 24 2 25 1 26
REMARK H PARENT
REMARK Flexibility Score: inf
ROOT
ATOM      1  C   UNL     1       2.556   8.536 -21.142  1.00  0.00     0.000 C 
ENDROOT
BRANCH   1   2
ATOM      2  C   UNL     1       3.759   7.588 -21.013  1.00  0.00     0.000 C 
BRANCH   2   3
ATOM      3  C   UNL     1       3.451   6.168 -21.515  1.00  0.00     0.000 C 
BRANCH   3   4
ATOM      4  C   UNL     1       3.542   5.106 -20.403  1.00  0.00     0.000 C 
BRANCH   4   5
ATOM      5  C   UNL     1       3.735   3.659 -20.893  1.00  0.00     0.000 C 
BRANCH   5   6
ATOM      6  C   UNL     1       2.457   2.812 -20.787  1.00  0.00     0.000 C 
BRANCH   6   7
ATOM      7  C   UNL     1       2.522   1.876 -19.571  1.00  0.00     0.000 C 
BRANCH   7   8
ATOM      8  C   UNL     1       1.234   1.899 -18.729  1.00  0.00     0.000 C 
BRANCH   8   9
ATOM      9  C   UNL     1      -0.052   2.210 -19.515  1.00  0.00     0.000 C 
BRANCH   9  10
ATOM     10  C   UNL     1      -1.295   2.302 -18.614  1.00  0.00     0.006 C 
BRANCH  10  11
ATOM     11  C   UNL     1      -2.424   3.113 -19.261  1.00  0.00     0.053 C 
BRANCH  11  12
ATOM     12  C   UNL     1      -3.224   3.867 -18.242  1.00  0.00     0.041 C 
ATOM     13  O   UNL     1      -4.480   3.899 -18.317  1.00  0.00    -0.550 OA
ATOM     14  O   UNL     1      -2.580   4.517 -17.196  1.00  0.00    -0.550 OA
ENDBRANCH  11  12
ENDBRANCH  10  11
ENDBRANCH   9  10
ENDBRANCH   8   9
ENDBRANCH   7   8
ENDBRANCH   6   7
ENDBRANCH   5   6
ENDBRANCH   4   5
ENDBRANCH   3   4
ENDBRANCH   2   3
ENDBRANCH   1   2
BRANCH   1  15
ATOM     15  C   UNL     1       2.292   9.340 -19.859  1.00  0.00     0.000 C 
BRANCH  15  16
ATOM     16  C   UNL     1       3.523   9.323 -18.941  1.00  0.00     0.000 C 
BRANCH  16  17
ATOM     17  C   UNL     1       3.278  10.030 -17.596  1.00  0.00     0.000 C 
BRANCH  17  18
ATOM     18  C   UNL     1       1.829  10.504 -17.360  1.00  0.00    -0.000 C 
BRANCH  18  19
ATOM     19  C   UNL     1       1.239  10.146 -15.984  1.00  0.00    -0.000 C 
BRANCH  19  20
ATOM     20  C   UNL     1       1.983   8.993 -15.295  1.00  0.00    -0.000 C 
BRANCH  20  21
ATOM     21  C   UNL     1       1.088   7.748 -15.191  1.00  0.00    -0.000 C 
BRANCH  21  22
ATOM     22  C   UNL     1       0.368   7.427 -16.511  1.00  0.00    -0.000 C 
BRANCH  22  23
ATOM     23  C   UNL     1       1.275   6.687 -17.509  1.00  0.00    -0.000 C 
BRANCH  23  24
ATOM     24  C   UNL     1       0.490   5.770 -18.466  1.00  0.00    -0.000 C 
BRANCH  24  25
ATOM     25  C   UNL     1      -0.029   6.455 -19.741  1.00  0.00    -0.003 C 
ATOM     26  C   UNL     1      -0.174   5.495 -20.921  1.00  0.00     0.004 C 
ENDBRANCH  24  25
ENDBRANCH  23  24
ENDBRANCH  22  23
ENDBRANCH  21  22
ENDBRANCH  20  21
ENDBRANCH  19  20
ENDBRANCH  18  19
ENDBRANCH  17  18
ENDBRANCH  16  17
ENDBRANCH  15  16
ENDBRANCH   1  15
TORSDOF 22
ENDMDL
MODEL 6
REMARK VINA RESULT:    -3.906      1.493      6.038
REMARK INTER + INTRA:         -12.558
REMARK INTER:                  -9.571
REMARK INTRA:                  -2.987
REMARK UNBOUND:                -3.629
REMARK SMILES CCCCCCCCCCCCCCCCCCCCCCCC(=O)[O-]
REMARK SMILES IDX 13 1 14 2 15 3 16 4 17 5 18 6 19 7 20 8 21 9 22 10 23 11
REMARK SMILES IDX 24 12 25 13 26 14 12 15 11 16 10 17 9 18 8 19 7 20 6 21 5 22
REMARK SMILES IDX 4 23 3 24 2 25 1 26
REMARK H PARENT
REMARK Flexibility Score: inf
ROOT
ATOM      1  C   UNL     1     -12.304  -8.185 -27.913  1.00  0.00     0.000 C 
ENDROOT
BRANCH   1   2
ATOM      2  C   UNL     1     -12.003  -6.683 -27.786  1.00  0.00     0.000 C 
BRANCH   2   3
ATOM      3  C   UNL     1     -10.497  -6.387 -27.688  1.00  0.00     0.000 C 
BRANCH   3   4
ATOM      4  C   UNL     1      -9.625  -7.498 -28.302  1.00  0.00     0.000 C 
BRANCH   4   5
ATOM      5  C   UNL     1      -8.875  -7.107 -29.589  1.00  0.00     0.000 C 
BRANCH   5   6
ATOM      6  C   UNL     1      -9.736  -6.282 -30.559  1.00  0.00     0.000 C 
BRANCH   6   7
ATOM      7  C   UNL     1      -8.973  -5.042 -31.047  1.00  0.00     0.000 C 
BRANCH   7   8
ATOM      8  C   UNL     1      -8.128  -4.384 -29.941  1.00  0.00     0.000 C 
BRANCH   8   9
ATOM      9  C   UNL     1      -8.266  -2.855 -29.841  1.00  0.00     0.000 C 
BRANCH   9  10
ATOM     10  C   UNL     1      -9.079  -2.252 -31.000  1.00  0.00     0.006 C 
BRANCH  10  11
ATOM     11  C   UNL     1     -10.296  -1.460 -30.505  1.00  0.00     0.053 C 
BRANCH  11  12
ATOM     12  C   UNL     1     -10.860  -2.036 -29.242  1.00  0.00     0.041 C 
ATOM     13  O   UNL     1     -10.801  -1.386 -28.166  1.00  0.00    -0.550 OA
ATOM     14  O   UNL     1     -11.469  -3.285 -29.259  1.00  0.00    -0.550 OA
ENDBRANCH  11  12
ENDBRANCH  10  11
ENDBRANCH   9  10
ENDBRANCH   8   9
ENDBRANCH   7   8
ENDBRANCH   6   7
ENDBRANCH   5   6
ENDBRANCH   4   5
ENDBRANCH   3   4
ENDBRANCH   2   3
ENDBRANCH   1   2
BRANCH   1  15
ATOM     15  C   UNL     1     -13.167  -8.517 -29.140  1.00  0.00     0.000 C 
BRANCH  15  16
ATOM     16  C   UNL     1     -13.588  -7.236 -29.874  1.00  0.00     0.000 C 
BRANCH  16  17
ATOM     17  C   UNL     1     -14.928  -7.382 -30.617  1.00  0.00     0.000 C 
BRANCH  17  18
ATOM     18  C   UNL     1     -15.372  -6.139 -31.416  1.00  0.00    -0.000 C 
BRANCH  18  19
ATOM     19  C   UNL     1     -14.640  -4.834 -31.054  1.00  0.00    -0.000 C 
BRANCH  19  20
ATOM     20  C   UNL     1     -13.591  -4.427 -32.099  1.00  0.00    -0.000 C 
BRANCH  20  21
ATOM     21  C   UNL     1     -14.260  -4.056 -33.431  1.00  0.00    -0.000 C 
BRANCH  21  22
ATOM     22  C   UNL     1     -15.494  -3.159 -33.242  1.00  0.00    -0.000 C 
BRANCH  22  23
ATOM     23  C   UNL     1     -15.373  -1.827 -34.003  1.00  0.00    -0.000 C 
BRANCH  23  24
ATOM     24  C   UNL     1     -15.041  -0.639 -33.081  1.00  0.00    -0.000 C 
BRANCH  24  25
ATOM     25  C   UNL     1     -15.274  -0.896 -31.582  1.00  0.00    -0.003 C 
ATOM     26  C   UNL     1     -13.981  -0.912 -30.768  1.00  0.00     0.004 C 
ENDBRANCH  24  25
ENDBRANCH  23  24
ENDBRANCH  22  23
ENDBRANCH  21  22
ENDBRANCH  20  21
ENDBRANCH  19  20
ENDBRANCH  18  19
ENDBRANCH  17  18
ENDBRANCH  16  17
ENDBRANCH  15  16
ENDBRANCH   1  15
TORSDOF 22
ENDMDL
MODEL 7
REMARK VINA RESULT:    -3.902     19.021     21.936
REMARK INTER + INTRA:         -12.549
REMARK INTER:                  -7.918
REMARK INTRA:                  -4.630
REMARK UNBOUND:                -3.629
REMARK SMILES CCCCCCCCCCCCCCCCCCCCCCCC(=O)[O-]
REMARK SMILES IDX 13 1 14 2 15 3 16 4 17 5 18 6 19 7 20 8 21 9 22 10 23 11
REMARK SMILES IDX 24 12 25 13 26 14 12 15 11 16 10 17 9 18 8 19 7 20 6 21 5 22
REMARK SMILES IDX 4 23 3 24 2 25 1 26
REMARK H PARENT
REMARK Flexibility Score: inf
ROOT
ATOM      1  C   UNL     1       2.616   9.274 -20.024  1.00  0.00     0.000 C 
ENDROOT
BRANCH   1   2
ATOM      2  C   UNL     1       3.772   9.365 -19.015  1.00  0.00     0.000 C 
BRANCH   2   3
ATOM      3  C   UNL     1       3.381  10.120 -17.733  1.00  0.00     0.000 C 
BRANCH   3   4
ATOM      4  C   UNL     1       1.900  10.540 -17.711  1.00  0.00     0.000 C 
BRANCH   4   5
ATOM      5  C   UNL     1       1.244  10.558 -16.318  1.00  0.00     0.000 C 
BRANCH   5   6
ATOM      6  C   UNL     1       1.876   9.552 -15.343  1.00  0.00     0.000 C 
BRANCH   6   7
ATOM      7  C   UNL     1       1.198   8.180 -15.460  1.00  0.00     0.000 C 
BRANCH   7   8
ATOM      8  C   UNL     1       2.067   7.143 -16.193  1.00  0.00     0.000 C 
BRANCH   8   9
ATOM      9  C   UNL     1       1.509   6.666 -17.546  1.00  0.00     0.000 C 
BRANCH   9  10
ATOM     10  C   UNL     1      -0.020   6.810 -17.645  1.00  0.00     0.006 C 
BRANCH  10  11
ATOM     11  C   UNL     1      -0.445   7.707 -18.814  1.00  0.00     0.053 C 
BRANCH  11  12
ATOM     12  C   UNL     1      -1.342   8.819 -18.365  1.00  0.00     0.041 C 
ATOM     13  O   UNL     1      -1.642   9.752 -19.156  1.00  0.00    -0.550 OA
ATOM     14  O   UNL     1      -1.864   8.815 -17.077  1.00  0.00    -0.550 OA
ENDBRANCH  11  12
ENDBRANCH  10  11
ENDBRANCH   9  10
ENDBRANCH   8   9
ENDBRANCH   7   8
ENDBRANCH   6   7
ENDBRANCH   5   6
ENDBRANCH   4   5
ENDBRANCH   3   4
ENDBRANCH   2   3
ENDBRANCH   1   2
BRANCH   1  15
ATOM     15  C   UNL     1       2.989   8.482 -21.287  1.00  0.00     0.000 C 
BRANCH  15  16
ATOM     16  C   UNL     1       2.451   7.046 -21.210  1.00  0.00     0.000 C 
BRANCH  16  17
ATOM     17  C   UNL     1       3.496   6.040 -20.696  1.00  0.00     0.000 C 
BRANCH  17  18
ATOM     18  C   UNL     1       3.743   4.827 -21.617  1.00  0.00    -0.000 C 
BRANCH  18  19
ATOM     19  C   UNL     1       3.492   3.452 -20.970  1.00  0.00    -0.000 C 
BRANCH  19  20
ATOM     20  C   UNL     1       2.784   3.551 -19.611  1.00  0.00    -0.000 C 
BRANCH  20  21
ATOM     21  C   UNL     1       1.823   2.370 -19.408  1.00  0.00    -0.000 C 
BRANCH  21  22
ATOM     22  C   UNL     1       0.401   2.822 -19.038  1.00  0.00    -0.000 C 
BRANCH  22  23
ATOM     23  C   UNL     1      -0.514   2.946 -20.268  1.00  0.00    -0.000 C 
BRANCH  23  24
ATOM     24  C   UNL     1      -1.064   4.372 -20.464  1.00  0.00    -0.000 C 
BRANCH  24  25
ATOM     25  C   UNL     1      -0.435   5.156 -21.628  1.00  0.00    -0.003 C 
ATOM     26  C   UNL     1       0.223   4.255 -22.672  1.00  0.00     0.004 C 
ENDBRANCH  24  25
ENDBRANCH  23  24
ENDBRANCH  22  23
ENDBRANCH  21  22
ENDBRANCH  20  21
ENDBRANCH  19  20
ENDBRANCH  18  19
ENDBRANCH  17  18
ENDBRANCH  16  17
ENDBRANCH  15  16
ENDBRANCH   1  15
TORSDOF 22
ENDMDL
MODEL 8
REMARK VINA RESULT:    -3.893     19.096     22.078
REMARK INTER + INTRA:         -12.530
REMARK INTER:                  -8.179
REMARK INTRA:                  -4.350
REMARK UNBOUND:                -3.629
REMARK SMILES CCCCCCCCCCCCCCCCCCCCCCCC(=O)[O-]
REMARK SMILES IDX 13 1 14 2 15 3 16 4 17 5 18 6 19 7 20 8 21 9 22 10 23 11
REMARK SMILES IDX 24 12 25 13 26 14 12 15 11 16 10 17 9 18 8 19 7 20 6 21 5 22
REMARK SMILES IDX 4 23 3 24 2 25 1 26
REMARK H PARENT
REMARK Flexibility Score: inf
ROOT
ATOM      1  C   UNL     1       1.533   9.354 -19.596  1.00  0.00     0.000 C 
ENDROOT
BRANCH   1   2
ATOM      2  C   UNL     1       2.989   8.872 -19.498  1.00  0.00     0.000 C 
BRANCH   2   3
ATOM      3  C   UNL     1       3.657   8.721 -20.874  1.00  0.00     0.000 C 
BRANCH   3   4
ATOM      4  C   UNL     1       3.953   7.254 -21.241  1.00  0.00     0.000 C 
BRANCH   4   5
ATOM      5  C   UNL     1       3.044   6.213 -20.562  1.00  0.00     0.000 C 
BRANCH   5   6
ATOM      6  C   UNL     1       2.028   5.581 -21.526  1.00  0.00     0.000 C 
BRANCH   6   7
ATOM      7  C   UNL     1       0.638   5.502 -20.879  1.00  0.00     0.000 C 
BRANCH   7   8
ATOM      8  C   UNL     1       0.150   4.055 -20.684  1.00  0.00     0.000 C 
BRANCH   8   9
ATOM      9  C   UNL     1       0.299   3.505 -19.255  1.00  0.00     0.000 C 
BRANCH   9  10
ATOM     10  C   UNL     1       1.171   2.239 -19.191  1.00  0.00     0.006 C 
BRANCH  10  11
ATOM     11  C   UNL     1       2.627   2.515 -19.586  1.00  0.00     0.053 C 
BRANCH  11  12
ATOM     12  C   UNL     1       3.069   1.648 -20.726  1.00  0.00     0.041 C 
ATOM     13  O   UNL     1       3.418   0.457 -20.519  1.00  0.00    -0.550 OA
ATOM     14  O   UNL     1       3.074   2.152 -22.021  1.00  0.00    -0.550 OA
ENDBRANCH  11  12
ENDBRANCH  10  11
ENDBRANCH   9  10
ENDBRANCH   8   9
ENDBRANCH   7   8
ENDBRANCH   6   7
ENDBRANCH   5   6
ENDBRANCH   4   5
ENDBRANCH   3   4
ENDBRANCH   2   3
ENDBRANCH   1   2
BRANCH   1  15
ATOM     15  C   UNL     1       1.200  10.453 -18.575  1.00  0.00     0.000 C 
BRANCH  15  16
ATOM     16  C   UNL     1       2.158  10.393 -17.377  1.00  0.00     0.000 C 
BRANCH  16  17
ATOM     17  C   UNL     1       1.426  10.368 -16.023  1.00  0.00     0.000 C 
BRANCH  17  18
ATOM     18  C   UNL     1       1.860   9.238 -15.066  1.00  0.00    -0.000 C 
BRANCH  18  19
ATOM     19  C   UNL     1       1.157   7.886 -15.288  1.00  0.00    -0.000 C 
BRANCH  19  20
ATOM     20  C   UNL     1       1.831   7.031 -16.370  1.00  0.00    -0.000 C 
BRANCH  20  21
ATOM     21  C   UNL     1       0.837   6.676 -17.486  1.00  0.00    -0.000 C 
BRANCH  21  22
ATOM     22  C   UNL     1      -0.605   7.087 -17.145  1.00  0.00    -0.000 C 
BRANCH  22  23
ATOM     23  C   UNL     1      -1.409   7.494 -18.392  1.00  0.00    -0.000 C 
BRANCH  23  24
ATOM     24  C   UNL     1      -2.151   8.832 -18.215  1.00  0.00    -0.000 C 
BRANCH  24  25
ATOM     25  C   UNL     1      -2.083   9.429 -16.799  1.00  0.00    -0.003 C 
ATOM     26  C   UNL     1      -2.105  10.957 -16.791  1.00  0.00     0.004 C 
ENDBRANCH  24  25
ENDBRANCH  23  24
ENDBRANCH  22  23
ENDBRANCH  21  22
ENDBRANCH  20  21
ENDBRANCH  19  20
ENDBRANCH  18  19
ENDBRANCH  17  18
ENDBRANCH  16  17
ENDBRANCH  15  16
ENDBRANCH   1  15
TORSDOF 22
ENDMDL
MODEL 9
REMARK VINA RESULT:    -3.874     18.702     21.855
REMARK INTER + INTRA:         -12.486
REMARK INTER:                  -7.835
REMARK INTRA:                  -4.651
REMARK UNBOUND:                -3.629
REMARK SMILES CCCCCCCCCCCCCCCCCCCCCCCC(=O)[O-]
REMARK SMILES IDX 13 1 14 2 15 3 16 4 17 5 18 6 19 7 20 8 21 9 22 10 23 11
REMARK SMILES IDX 24 12 25 13 26 14 12 15 11 16 10 17 9 18 8 19 7 20 6 21 5 22
REMARK SMILES IDX 4 23 3 24 2 25 1 26
REMARK H PARENT
REMARK Flexibility Score: inf
ROOT
ATOM      1  C   UNL     1       2.325   8.070 -20.837  1.00  0.00     0.000 C 
ENDROOT
BRANCH   1   2
ATOM      2  C   UNL     1       2.887   6.783 -20.212  1.00  0.00     0.000 C 
BRANCH   2   3
ATOM      3  C   UNL     1       3.769   5.986 -21.189  1.00  0.00     0.000 C 
BRANCH   3   4
ATOM      4  C   UNL     1       3.993   4.529 -20.744  1.00  0.00     0.000 C 
BRANCH   4   5
ATOM      5  C   UNL     1       3.010   4.010 -19.678  1.00  0.00     0.000 C 
BRANCH   5   6
ATOM      6  C   UNL     1       2.701   2.512 -19.824  1.00  0.00     0.000 C 
BRANCH   6   7
ATOM      7  C   UNL     1       1.262   2.206 -19.383  1.00  0.00     0.000 C 
BRANCH   7   8
ATOM      8  C   UNL     1       0.467   3.472 -19.015  1.00  0.00     0.000 C 
BRANCH   8   9
ATOM      9  C   UNL     1      -0.638   3.859 -20.013  1.00  0.00     0.000 C 
BRANCH   9  10
ATOM     10  C   UNL     1      -0.183   4.925 -21.024  1.00  0.00     0.006 C 
BRANCH  10  11
ATOM     11  C   UNL     1      -0.319   4.447 -22.475  1.00  0.00     0.053 C 
BRANCH  11  12
ATOM     12  C   UNL     1       1.013   4.346 -23.155  1.00  0.00     0.041 C 
ATOM     13  O   UNL     1       1.683   3.283 -23.083  1.00  0.00    -0.550 OA
ATOM     14  O   UNL     1       1.505   5.421 -23.885  1.00  0.00    -0.550 OA
ENDBRANCH  11  12
ENDBRANCH  10  11
ENDBRANCH   9  10
ENDBRANCH   8   9
ENDBRANCH   7   8
ENDBRANCH   6   7
ENDBRANCH   5   6
ENDBRANCH   4   5
ENDBRANCH   3   4
ENDBRANCH   2   3
ENDBRANCH   1   2
BRANCH   1  15
ATOM     15  C   UNL     1       2.290   9.245 -19.849  1.00  0.00     0.000 C 
BRANCH  15  16
ATOM     16  C   UNL     1       3.557   9.266 -18.981  1.00  0.00     0.000 C 
BRANCH  16  17
ATOM     17  C   UNL     1       3.376  10.059 -17.674  1.00  0.00     0.000 C 
BRANCH  17  18
ATOM     18  C   UNL     1       1.949  10.588 -17.422  1.00  0.00    -0.000 C 
BRANCH  18  19
ATOM     19  C   UNL     1       1.363  10.254 -16.038  1.00  0.00    -0.000 C 
BRANCH  19  20
ATOM     20  C   UNL     1       2.011   9.019 -15.395  1.00  0.00    -0.000 C 
BRANCH  20  21
ATOM     21  C   UNL     1       1.103   7.788 -15.536  1.00  0.00    -0.000 C 
BRANCH  21  22
ATOM     22  C   UNL     1       1.228   7.117 -16.914  1.00  0.00    -0.000 C 
BRANCH  22  23
ATOM     23  C   UNL     1      -0.136   6.688 -17.483  1.00  0.00    -0.000 C 
BRANCH  23  24
ATOM     24  C   UNL     1      -0.638   7.621 -18.601  1.00  0.00    -0.000 C 
BRANCH  24  25
ATOM     25  C   UNL     1      -1.343   8.898 -18.112  1.00  0.00    -0.003 C 
ATOM     26  C   UNL     1      -1.270  10.046 -19.119  1.00  0.00     0.004 C 
ENDBRANCH  24  25
ENDBRANCH  23  24
ENDBRANCH  22  23
ENDBRANCH  21  22
ENDBRANCH  20  21
ENDBRANCH  19  20
ENDBRANCH  18  19
ENDBRANCH  17  18
ENDBRANCH  16  17
ENDBRANCH  15  16
ENDBRANCH   1  15
TORSDOF 22
ENDMDL
