MODEL 1
REMARK VINA RESULT:    -3.884      0.000      0.000
REMARK INTER + INTRA:          -3.884
REMARK INTER:                  -3.884
REMARK INTRA:                   0.000
REMARK UNBOUND:                 0.000
REMARK SMILES CC1(C)O[C@]2(C)CC[C@H]1CC2
REMARK SMILES IDX 1 1 2 2 9 3 10 4 11 5 5 6 4 7 7 8 8 9 6 10 3 11
REMARK H PARENT
REMARK Flexibility Score: inf
ROOT
ATOM      1  C   UNL     1      37.664  21.498 105.565  1.00  0.00     0.042 C 
ATOM      2  C   UNL     1      39.062  21.228 104.966  1.00  0.00     0.066 C 
ATOM      3  C   UNL     1      40.191  21.566 106.014  1.00  0.00     0.021 C 
ATOM      4  C   UNL     1      40.033  20.617 107.227  1.00  0.00     0.009 C 
ATOM      5  C   UNL     1      39.962  19.155 106.723  1.00  0.00     0.035 C 
ATOM      6  C   UNL     1      40.163  19.119 105.181  1.00  0.00     0.066 C 
ATOM      7  O   UNL     1      39.112  19.855 104.553  1.00  0.00    -0.369 OA
ATOM      8  C   UNL     1      41.527  19.781 104.833  1.00  0.00     0.035 C 
ATOM      9  C   UNL     1      41.563  21.229 105.382  1.00  0.00     0.009 C 
ATOM     10  C   UNL     1      40.128  17.674 104.672  1.00  0.00     0.042 C 
ATOM     11  C   UNL     1      39.201  22.113 103.709  1.00  0.00     0.042 C 
ENDROOT
TORSDOF 0
ENDMDL
MODEL 2
REMARK VINA RESULT:    -3.882     15.075     16.273
REMARK INTER + INTRA:          -3.882
REMARK INTER:                  -3.882
REMARK INTRA:                   0.000
REMARK UNBOUND:                 0.000
REMARK SMILES CC1(C)O[C@]2(C)CC[C@H]1CC2
REMARK SMILES IDX 1 1 2 2 9 3 10 4 11 5 5 6 4 7 7 8 8 9 6 10 3 11
REMARK H PARENT
REMARK Flexibility Score: inf
ROOT
ATOM      1  C   UNL     1      51.013  14.250 111.388  1.00  0.00     0.042 C 
ATOM      2  C   UNL     1      52.135  13.281 111.820  1.00  0.00     0.066 C 
ATOM      3  C   UNL     1      51.533  11.889 112.251  1.00  0.00     0.021 C 
ATOM      4  C   UNL     1      50.841  11.251 111.022  1.00  0.00     0.009 C 
ATOM      5  C   UNL     1      51.828  11.247 109.829  1.00  0.00     0.035 C 
ATOM      6  C   UNL     1      53.209  11.798 110.286  1.00  0.00     0.066 C 
ATOM      7  O   UNL     1      53.054  13.148 110.725  1.00  0.00    -0.369 OA
ATOM      8  C   UNL     1      53.733  10.933 111.468  1.00  0.00     0.035 C 
ATOM      9  C   UNL     1      52.702  10.944 112.623  1.00  0.00     0.009 C 
ATOM     10  C   UNL     1      54.206  11.768 109.122  1.00  0.00     0.042 C 
ATOM     11  C   UNL     1      52.883  13.942 112.997  1.00  0.00     0.042 C 
ENDROOT
TORSDOF 0
ENDMDL
MODEL 3
REMARK VINA RESULT:    -3.844     14.741     16.139
REMARK INTER + INTRA:          -3.844
REMARK INTER:                  -3.844
REMARK INTRA:                   0.000
REMARK UNBOUND:                 0.000
REMARK SMILES CC1(C)O[C@]2(C)CC[C@H]1CC2
REMARK SMILES IDX 1 1 2 2 9 3 10 4 11 5 5 6 4 7 7 8 8 9 6 10 3 11
REMARK H PARENT
REMARK Flexibility Score: inf
ROOT
ATOM      1  C   UNL     1      54.356  10.826 110.968  1.00  0.00     0.042 C 
ATOM      2  C   UNL     1      53.075  11.293 110.244  1.00  0.00     0.066 C 
ATOM      3  C   UNL     1      51.791  10.722 110.961  1.00  0.00     0.021 C 
ATOM      4  C   UNL     1      51.731  11.302 112.394  1.00  0.00     0.009 C 
ATOM      5  C   UNL     1      51.867  12.843 112.326  1.00  0.00     0.035 C 
ATOM      6  C   UNL     1      51.925  13.301 110.840  1.00  0.00     0.066 C 
ATOM      7  O   UNL     1      53.076  12.728 110.218  1.00  0.00    -0.369 OA
ATOM      8  C   UNL     1      50.647  12.803 110.107  1.00  0.00     0.035 C 
ATOM      9  C   UNL     1      50.539  11.263 110.227  1.00  0.00     0.009 C 
ATOM     10  C   UNL     1      52.026  14.828 110.757  1.00  0.00     0.042 C 
ATOM     11  C   UNL     1      53.159  10.787 108.788  1.00  0.00     0.042 C 
ENDROOT
TORSDOF 0
ENDMDL
MODEL 4
REMARK VINA RESULT:    -3.839     14.522     15.768
REMARK INTER + INTRA:          -3.839
REMARK INTER:                  -3.839
REMARK INTRA:                   0.000
REMARK UNBOUND:                 0.000
REMARK SMILES CC1(C)O[C@]2(C)CC[C@H]1CC2
REMARK SMILES IDX 1 1 2 2 9 3 10 4 11 5 5 6 4 7 7 8 8 9 6 10 3 11
REMARK H PARENT
REMARK Flexibility Score: inf
ROOT
ATOM      1  C   UNL     1      50.283  13.218 109.176  1.00  0.00     0.042 C 
ATOM      2  C   UNL     1      51.107  12.999 110.463  1.00  0.00     0.066 C 
ATOM      3  C   UNL     1      50.847  11.560 111.053  1.00  0.00     0.021 C 
ATOM      4  C   UNL     1      51.338  10.513 110.024  1.00  0.00     0.009 C 
ATOM      5  C   UNL     1      52.792  10.847 109.613  1.00  0.00     0.035 C 
ATOM      6  C   UNL     1      53.306  12.064 110.435  1.00  0.00     0.066 C 
ATOM      7  O   UNL     1      52.492  13.202 110.146  1.00  0.00    -0.369 OA
ATOM      8  C   UNL     1      53.199  11.732 111.951  1.00  0.00     0.035 C 
ATOM      9  C   UNL     1      51.734  11.376 112.308  1.00  0.00     0.009 C 
ATOM     10  C   UNL     1      54.757  12.386 110.062  1.00  0.00     0.042 C 
ATOM     11  C   UNL     1      50.682  14.088 111.471  1.00  0.00     0.042 C 
ENDROOT
TORSDOF 0
ENDMDL
MODEL 5
REMARK VINA RESULT:    -3.774      1.144      2.514
REMARK INTER + INTRA:          -3.774
REMARK INTER:                  -3.774
REMARK INTRA:                   0.000
REMARK UNBOUND:                 0.000
REMARK SMILES CC1(C)O[C@]2(C)CC[C@H]1CC2
REMARK SMILES IDX 1 1 2 2 9 3 10 4 11 5 5 6 4 7 7 8 8 9 6 10 3 11
REMARK H PARENT
REMARK Flexibility Score: inf
ROOT
ATOM      1  C   UNL     1      41.394  21.878 103.276  1.00  0.00     0.042 C 
ATOM      2  C   UNL     1      41.356  21.004 104.548  1.00  0.00     0.066 C 
ATOM      3  C   UNL     1      40.301  21.564 105.577  1.00  0.00     0.021 C 
ATOM      4  C   UNL     1      38.896  21.477 104.935  1.00  0.00     0.009 C 
ATOM      5  C   UNL     1      38.665  20.039 104.409  1.00  0.00     0.035 C 
ATOM      6  C   UNL     1      39.879  19.141 104.782  1.00  0.00     0.066 C 
ATOM      7  O   UNL     1      41.054  19.657 104.155  1.00  0.00    -0.369 OA
ATOM      8  C   UNL     1      40.071  19.165 106.325  1.00  0.00     0.035 C 
ATOM      9  C   UNL     1      40.269  20.623 106.807  1.00  0.00     0.009 C 
ATOM     10  C   UNL     1      39.650  17.706 104.296  1.00  0.00     0.042 C 
ATOM     11  C   UNL     1      42.775  21.019 105.157  1.00  0.00     0.042 C 
ENDROOT
TORSDOF 0
ENDMDL
MODEL 6
REMARK VINA RESULT:    -3.674     14.562     15.889
REMARK INTER + INTRA:          -3.674
REMARK INTER:                  -3.674
REMARK INTRA:                   0.000
REMARK UNBOUND:                 0.000
REMARK SMILES CC1(C)O[C@]2(C)CC[C@H]1CC2
REMARK SMILES IDX 1 1 2 2 9 3 10 4 11 5 5 6 4 7 7 8 8 9 6 10 3 11
REMARK H PARENT
REMARK Flexibility Score: inf
ROOT
ATOM      1  C   UNL     1      54.388  13.418 110.746  1.00  0.00     0.042 C 
ATOM      2  C   UNL     1      53.349  12.283 110.872  1.00  0.00     0.066 C 
ATOM      3  C   UNL     1      52.587  12.375 112.250  1.00  0.00     0.021 C 
ATOM      4  C   UNL     1      51.800  13.707 112.286  1.00  0.00     0.009 C 
ATOM      5  C   UNL     1      50.942  13.826 111.003  1.00  0.00     0.035 C 
ATOM      6  C   UNL     1      51.084  12.532 110.153  1.00  0.00     0.066 C 
ATOM      7  O   UNL     1      52.448  12.378 109.758  1.00  0.00    -0.369 OA
ATOM      8  C   UNL     1      50.661  11.309 111.016  1.00  0.00     0.035 C 
ATOM      9  C   UNL     1      51.526  11.249 112.299  1.00  0.00     0.009 C 
ATOM     10  C   UNL     1      50.213  12.622 108.894  1.00  0.00     0.042 C 
ATOM     11  C   UNL     1      54.113  10.946 110.758  1.00  0.00     0.042 C 
ENDROOT
TORSDOF 0
ENDMDL
MODEL 7
REMARK VINA RESULT:    -3.659     14.918     16.152
REMARK INTER + INTRA:          -3.659
REMARK INTER:                  -3.659
REMARK INTRA:                   0.000
REMARK UNBOUND:                 0.000
REMARK SMILES CC1(C)O[C@]2(C)CC[C@H]1CC2
REMARK SMILES IDX 1 1 2 2 9 3 10 4 11 5 5 6 4 7 7 8 8 9 6 10 3 11
REMARK H PARENT
REMARK Flexibility Score: inf
ROOT
ATOM      1  C   UNL     1      52.010  10.568 109.371  1.00  0.00     0.042 C 
ATOM      2  C   UNL     1      52.059  12.007 109.928  1.00  0.00     0.066 C 
ATOM      3  C   UNL     1      51.000  12.194 111.081  1.00  0.00     0.021 C 
ATOM      4  C   UNL     1      51.374  11.250 112.249  1.00  0.00     0.009 C 
ATOM      5  C   UNL     1      52.861  11.469 112.623  1.00  0.00     0.035 C 
ATOM      6  C   UNL     1      53.454  12.624 111.766  1.00  0.00     0.066 C 
ATOM      7  O   UNL     1      53.395  12.263 110.386  1.00  0.00    -0.369 OA
ATOM      8  C   UNL     1      52.609  13.910 111.994  1.00  0.00     0.035 C 
ATOM      9  C   UNL     1      51.128  13.634 111.635  1.00  0.00     0.009 C 
ATOM     10  C   UNL     1      54.917  12.874 112.149  1.00  0.00     0.042 C 
ATOM     11  C   UNL     1      51.763  12.964 108.753  1.00  0.00     0.042 C 
ENDROOT
TORSDOF 0
ENDMDL
MODEL 8
REMARK VINA RESULT:    -3.647      1.395      3.030
REMARK INTER + INTRA:          -3.647
REMARK INTER:                  -3.647
REMARK INTRA:                   0.000
REMARK UNBOUND:                 0.000
REMARK SMILES CC1(C)O[C@]2(C)CC[C@H]1CC2
REMARK SMILES IDX 1 1 2 2 9 3 10 4 11 5 5 6 4 7 7 8 8 9 6 10 3 11
REMARK H PARENT
REMARK Flexibility Score: inf
ROOT
ATOM      1  C   UNL     1      39.541  22.014 107.181  1.00  0.00     0.042 C 
ATOM      2  C   UNL     1      39.947  20.697 106.485  1.00  0.00     0.066 C 
ATOM      3  C   UNL     1      39.035  20.427 105.228  1.00  0.00     0.021 C 
ATOM      4  C   UNL     1      39.265  21.564 104.203  1.00  0.00     0.009 C 
ATOM      5  C   UNL     1      40.784  21.716 103.945  1.00  0.00     0.035 C 
ATOM      6  C   UNL     1      41.564  20.621 104.728  1.00  0.00     0.066 C 
ATOM      7  O   UNL     1      41.334  20.792 106.127  1.00  0.00    -0.369 OA
ATOM      8  C   UNL     1      41.045  19.221 104.292  1.00  0.00     0.035 C 
ATOM      9  C   UNL     1      39.519  19.127 104.541  1.00  0.00     0.009 C 
ATOM     10  C   UNL     1      43.067  20.740 104.456  1.00  0.00     0.042 C 
ATOM     11  C   UNL     1      39.797  19.564 107.523  1.00  0.00     0.042 C 
ENDROOT
TORSDOF 0
ENDMDL
MODEL 9
REMARK VINA RESULT:    -3.617      1.638      2.692
REMARK INTER + INTRA:          -3.617
REMARK INTER:                  -3.617
REMARK INTRA:                   0.000
REMARK UNBOUND:                 0.000
REMARK SMILES CC1(C)O[C@]2(C)CC[C@H]1CC2
REMARK SMILES IDX 1 1 2 2 9 3 10 4 11 5 5 6 4 7 7 8 8 9 6 10 3 11
REMARK H PARENT
REMARK Flexibility Score: inf
ROOT
ATOM      1  C   UNL     1      40.259  20.351 106.900  1.00  0.00     0.042 C 
ATOM      2  C   UNL     1      40.407  20.413 105.364  1.00  0.00     0.066 C 
ATOM      3  C   UNL     1      40.870  21.849 104.907  1.00  0.00     0.021 C 
ATOM      4  C   UNL     1      42.272  22.124 105.502  1.00  0.00     0.009 C 
ATOM      5  C   UNL     1      43.212  20.943 105.157  1.00  0.00     0.035 C 
ATOM      6  C   UNL     1      42.463  19.922 104.253  1.00  0.00     0.066 C 
ATOM      7  O   UNL     1      41.341  19.399 104.965  1.00  0.00    -0.369 OA
ATOM      8  C   UNL     1      41.962  20.651 102.973  1.00  0.00     0.035 C 
ATOM      9  C   UNL     1      41.052  21.840 103.370  1.00  0.00     0.009 C 
ATOM     10  C   UNL     1      43.392  18.763 103.875  1.00  0.00     0.042 C 
ATOM     11  C   UNL     1      39.031  20.064 104.756  1.00  0.00     0.042 C 
ENDROOT
TORSDOF 0
ENDMDL
