MODEL 1
REMARK VINA RESULT:    -6.745      0.000      0.000
REMARK INTER + INTRA:          -8.447
REMARK INTER:                  -8.125
REMARK INTRA:                  -0.322
REMARK UNBOUND:                -0.322
REMARK SMILES O=c1c(O)c(-c2ccc(O)c(O)c2)oc2cc(O)cc(O)c12
REMARK SMILES IDX 5 1 3 2 2 3 1 4 22 5 20 6 19 7 17 8 16 9 15 10 14 11 6 12
REMARK SMILES IDX 7 13 8 14 9 15 13 16 11 17 10 18 12 20 4 22 21 24 18 26
REMARK H PARENT 10 19 12 21 4 23 21 25 18 27
REMARK Flexibility Score: inf
ROOT
ATOM      1  C   UNL     1      42.447   9.963  10.692  1.00  0.00     0.180 A 
ATOM      2  C   UNL     1      41.657   9.621   9.577  1.00  0.00     0.208 A 
ATOM      3  C   UNL     1      42.293   9.282   8.373  1.00  0.00     0.238 A 
ATOM      4  O   UNL     1      41.596   8.964   7.372  1.00  0.00    -0.285 OA
ATOM      5  C   UNL     1      43.700   9.311   8.296  1.00  0.00     0.111 A 
ATOM      6  C   UNL     1      44.419   8.987   7.119  1.00  0.00     0.134 A 
ATOM      7  C   UNL     1      45.820   9.048   7.121  1.00  0.00     0.093 A 
ATOM      8  C   UNL     1      46.516   9.425   8.271  1.00  0.00     0.123 A 
ATOM      9  C   UNL     1      45.812   9.745   9.437  1.00  0.00     0.094 A 
ATOM     10  C   UNL     1      44.416   9.690   9.456  1.00  0.00     0.146 A 
ATOM     11  O   UNL     1      43.772   9.993  10.578  1.00  0.00    -0.452 OA
ENDROOT
BRANCH   1  12
ATOM     12  C   UNL     1      41.851  10.314  12.002  1.00  0.00     0.025 A 
ATOM     13  C   UNL     1      41.484  11.644  12.258  1.00  0.00     0.016 A 
ATOM     14  C   UNL     1      40.939  12.001  13.494  1.00  0.00     0.051 A 
ATOM     15  C   UNL     1      40.767  11.041  14.495  1.00  0.00     0.157 A 
ATOM     16  C   UNL     1      41.697   9.353  13.017  1.00  0.00     0.062 A 
ATOM     17  C   UNL     1      41.152   9.710  14.258  1.00  0.00     0.158 A 
BRANCH  15  18
ATOM     18  O   UNL     1      40.219  11.427  15.718  1.00  0.00    -0.504 OA
ATOM     19  H   UNL     1      40.777  11.492  16.561  1.00  0.00     0.293 HD
ENDBRANCH  15  18
BRANCH  17  20
ATOM     20  O   UNL     1      40.997   8.750  15.258  1.00  0.00    -0.504 OA
ATOM     21  H   UNL     1      40.485   8.948  16.109  1.00  0.00     0.293 HD
ENDBRANCH  17  20
ENDBRANCH   1  12
BRANCH   2  22
ATOM     22  O   UNL     1      40.263   9.649   9.665  1.00  0.00    -0.502 OA
ATOM     23  H   UNL     1      39.740   8.977  10.215  1.00  0.00     0.293 HD
ENDBRANCH   2  22
BRANCH   6  24
ATOM     24  O   UNL     1      43.753   8.607   5.953  1.00  0.00    -0.507 OA
ATOM     25  H   UNL     1      43.509   9.279   5.236  1.00  0.00     0.293 HD
ENDBRANCH   6  24
BRANCH   8  26
ATOM     26  O   UNL     1      47.908   9.479   8.246  1.00  0.00    -0.508 OA
ATOM     27  H   UNL     1      48.469   9.020   8.954  1.00  0.00     0.293 HD
ENDBRANCH   8  26
TORSDOF 6
ENDMDL
MODEL 2
REMARK VINA RESULT:    -6.343      9.358     12.661
REMARK INTER + INTRA:          -7.963
REMARK INTER:                  -7.704
REMARK INTRA:                  -0.259
REMARK UNBOUND:                -0.322
REMARK SMILES O=c1c(O)c(-c2ccc(O)c(O)c2)oc2cc(O)cc(O)c12
REMARK SMILES IDX 5 1 3 2 2 3 1 4 22 5 20 6 19 7 17 8 16 9 15 10 14 11 6 12
REMARK SMILES IDX 7 13 8 14 9 15 13 16 11 17 10 18 12 20 4 22 21 24 18 26
REMARK H PARENT 10 19 12 21 4 23 21 25 18 27
REMARK Flexibility Score: inf
ROOT
ATOM      1  C   UNL     1      53.458  11.091   9.466  1.00  0.00     0.180 A 
ATOM      2  C   UNL     1      52.137  10.999   9.949  1.00  0.00     0.208 A 
ATOM      3  C   UNL     1      51.697  11.930  10.902  1.00  0.00     0.238 A 
ATOM      4  O   UNL     1      50.514  11.863  11.333  1.00  0.00    -0.285 OA
ATOM      5  C   UNL     1      52.584  12.921  11.370  1.00  0.00     0.111 A 
ATOM      6  C   UNL     1      52.220  13.894  12.333  1.00  0.00     0.134 A 
ATOM      7  C   UNL     1      53.163  14.842  12.754  1.00  0.00     0.093 A 
ATOM      8  C   UNL     1      54.460  14.837  12.236  1.00  0.00     0.123 A 
ATOM      9  C   UNL     1      54.826  13.878  11.285  1.00  0.00     0.094 A 
ATOM     10  C   UNL     1      53.899  12.926  10.850  1.00  0.00     0.146 A 
ATOM     11  O   UNL     1      54.270  12.031   9.942  1.00  0.00    -0.452 OA
ENDROOT
BRANCH   1  12
ATOM     12  C   UNL     1      53.991  10.159   8.447  1.00  0.00     0.025 A 
ATOM     13  C   UNL     1      54.348   8.855   8.824  1.00  0.00     0.016 A 
ATOM     14  C   UNL     1      54.872   7.965   7.884  1.00  0.00     0.051 A 
ATOM     15  C   UNL     1      55.060   8.366   6.558  1.00  0.00     0.157 A 
ATOM     16  C   UNL     1      54.201  10.568   7.118  1.00  0.00     0.062 A 
ATOM     17  C   UNL     1      54.728   9.676   6.173  1.00  0.00     0.158 A 
BRANCH  15  18
ATOM     18  O   UNL     1      55.583   7.455   5.642  1.00  0.00    -0.504 OA
ATOM     19  H   UNL     1      55.021   6.713   5.241  1.00  0.00     0.293 HD
ENDBRANCH  15  18
BRANCH  17  20
ATOM     20  O   UNL     1      54.928  10.088   4.856  1.00  0.00    -0.504 OA
ATOM     21  H   UNL     1      55.333   9.471   4.162  1.00  0.00     0.293 HD
ENDBRANCH  17  20
ENDBRANCH   1  12
BRANCH   2  22
ATOM     22  O   UNL     1      51.294   9.977   9.505  1.00  0.00    -0.502 OA
ATOM     23  H   UNL     1      51.648   9.097   9.149  1.00  0.00     0.293 HD
ENDBRANCH   2  22
BRANCH   6  24
ATOM     24  O   UNL     1      50.932  13.925  12.870  1.00  0.00    -0.507 OA
ATOM     25  H   UNL     1      50.608  13.218  13.519  1.00  0.00     0.293 HD
ENDBRANCH   6  24
BRANCH   8  26
ATOM     26  O   UNL     1      55.379  15.789  12.673  1.00  0.00    -0.508 OA
ATOM     27  H   UNL     1      55.503  15.993  13.658  1.00  0.00     0.293 HD
ENDBRANCH   8  26
TORSDOF 6
ENDMDL
MODEL 3
REMARK VINA RESULT:    -6.301      9.240     12.301
REMARK INTER + INTRA:          -7.912
REMARK INTER:                  -7.779
REMARK INTRA:                  -0.134
REMARK UNBOUND:                -0.322
REMARK SMILES O=c1c(O)c(-c2ccc(O)c(O)c2)oc2cc(O)cc(O)c12
REMARK SMILES IDX 5 1 3 2 2 3 1 4 22 5 20 6 19 7 17 8 16 9 15 10 14 11 6 12
REMARK SMILES IDX 7 13 8 14 9 15 13 16 11 17 10 18 12 20 4 22 21 24 18 26
REMARK H PARENT 10 19 12 21 4 23 21 25 18 27
REMARK Flexibility Score: inf
ROOT
ATOM      1  C   UNL     1      53.303  10.889   9.701  1.00  0.00     0.180 A 
ATOM      2  C   UNL     1      51.978  10.894  10.180  1.00  0.00     0.208 A 
ATOM      3  C   UNL     1      51.578  11.914  11.058  1.00  0.00     0.238 A 
ATOM      4  O   UNL     1      50.392  11.933  11.485  1.00  0.00    -0.285 OA
ATOM      5  C   UNL     1      52.508  12.894  11.457  1.00  0.00     0.111 A 
ATOM      6  C   UNL     1      52.187  13.953  12.342  1.00  0.00     0.134 A 
ATOM      7  C   UNL     1      53.172  14.885  12.698  1.00  0.00     0.093 A 
ATOM      8  C   UNL     1      54.469  14.781  12.190  1.00  0.00     0.123 A 
ATOM      9  C   UNL     1      54.793  13.739  11.316  1.00  0.00     0.094 A 
ATOM     10  C   UNL     1      53.824  12.800  10.947  1.00  0.00     0.146 A 
ATOM     11  O   UNL     1      54.156  11.823  10.111  1.00  0.00    -0.452 OA
ENDROOT
BRANCH   1  12
ATOM     12  C   UNL     1      53.794   9.860   8.757  1.00  0.00     0.025 A 
ATOM     13  C   UNL     1      54.192  10.241   7.466  1.00  0.00     0.016 A 
ATOM     14  C   UNL     1      54.639   9.283   6.552  1.00  0.00     0.051 A 
ATOM     15  C   UNL     1      54.683   7.932   6.908  1.00  0.00     0.157 A 
ATOM     16  C   UNL     1      53.819   8.497   9.107  1.00  0.00     0.062 A 
ATOM     17  C   UNL     1      54.267   7.535   8.191  1.00  0.00     0.158 A 
BRANCH  15  18
ATOM     18  O   UNL     1      55.137   7.000   5.976  1.00  0.00    -0.504 OA
ATOM     19  H   UNL     1      56.037   7.090   5.519  1.00  0.00     0.293 HD
ENDBRANCH  15  18
BRANCH  17  20
ATOM     20  O   UNL     1      54.293   6.187   8.547  1.00  0.00    -0.504 OA
ATOM     21  H   UNL     1      53.723   5.826   9.302  1.00  0.00     0.293 HD
ENDBRANCH  17  20
ENDBRANCH   1  12
BRANCH   2  22
ATOM     22  O   UNL     1      51.089   9.882   9.808  1.00  0.00    -0.502 OA
ATOM     23  H   UNL     1      51.268   8.905  10.002  1.00  0.00     0.293 HD
ENDBRANCH   2  22
BRANCH   6  24
ATOM     24  O   UNL     1      50.901  14.084  12.867  1.00  0.00    -0.507 OA
ATOM     25  H   UNL     1      50.086  14.163  12.269  1.00  0.00     0.293 HD
ENDBRANCH   6  24
BRANCH   8  26
ATOM     26  O   UNL     1      55.430  15.720  12.561  1.00  0.00    -0.508 OA
ATOM     27  H   UNL     1      55.457  16.109  13.496  1.00  0.00     0.293 HD
ENDBRANCH   8  26
TORSDOF 6
ENDMDL
MODEL 4
REMARK VINA RESULT:    -6.254      9.093     11.760
REMARK INTER + INTRA:          -7.856
REMARK INTER:                  -7.561
REMARK INTRA:                  -0.295
REMARK UNBOUND:                -0.322
REMARK SMILES O=c1c(O)c(-c2ccc(O)c(O)c2)oc2cc(O)cc(O)c12
REMARK SMILES IDX 5 1 3 2 2 3 1 4 22 5 20 6 19 7 17 8 16 9 15 10 14 11 6 12
REMARK SMILES IDX 7 13 8 14 9 15 13 16 11 17 10 18 12 20 4 22 21 24 18 26
REMARK H PARENT 10 19 12 21 4 23 21 25 18 27
REMARK Flexibility Score: inf
ROOT
ATOM      1  C   UNL     1      52.629  10.967  10.481  1.00  0.00     0.180 A 
ATOM      2  C   UNL     1      51.486  11.425  11.167  1.00  0.00     0.208 A 
ATOM      3  C   UNL     1      51.547  12.657  11.838  1.00  0.00     0.238 A 
ATOM      4  O   UNL     1      50.527  13.081  12.446  1.00  0.00    -0.285 OA
ATOM      5  C   UNL     1      52.746  13.396  11.831  1.00  0.00     0.111 A 
ATOM      6  C   UNL     1      52.892  14.644  12.486  1.00  0.00     0.134 A 
ATOM      7  C   UNL     1      54.122  15.314  12.440  1.00  0.00     0.093 A 
ATOM      8  C   UNL     1      55.208  14.765  11.756  1.00  0.00     0.123 A 
ATOM      9  C   UNL     1      55.071  13.534  11.106  1.00  0.00     0.094 A 
ATOM     10  C   UNL     1      53.853  12.850  11.139  1.00  0.00     0.146 A 
ATOM     11  O   UNL     1      53.748  11.686  10.510  1.00  0.00    -0.452 OA
ENDROOT
BRANCH   1  12
ATOM     12  C   UNL     1      52.638   9.689   9.734  1.00  0.00     0.025 A 
ATOM     13  C   UNL     1      52.835   8.485  10.429  1.00  0.00     0.016 A 
ATOM     14  C   UNL     1      52.869   7.269   9.742  1.00  0.00     0.051 A 
ATOM     15  C   UNL     1      52.721   7.238   8.353  1.00  0.00     0.157 A 
ATOM     16  C   UNL     1      52.511   9.657   8.334  1.00  0.00     0.062 A 
ATOM     17  C   UNL     1      52.545   8.438   7.643  1.00  0.00     0.158 A 
BRANCH  15  18
ATOM     18  O   UNL     1      52.756   6.009   7.695  1.00  0.00    -0.504 OA
ATOM     19  H   UNL     1      53.586   5.679   7.216  1.00  0.00     0.293 HD
ENDBRANCH  15  18
BRANCH  17  20
ATOM     20  O   UNL     1      52.412   8.415   6.255  1.00  0.00    -0.504 OA
ATOM     21  H   UNL     1      51.897   9.133   5.759  1.00  0.00     0.293 HD
ENDBRANCH  17  20
ENDBRANCH   1  12
BRANCH   2  22
ATOM     22  O   UNL     1      50.325  10.650  11.200  1.00  0.00    -0.502 OA
ATOM     23  H   UNL     1      49.487  10.905  10.690  1.00  0.00     0.293 HD
ENDBRANCH   2  22
BRANCH   6  24
ATOM     24  O   UNL     1      51.825  15.219  13.179  1.00  0.00    -0.507 OA
ATOM     25  H   UNL     1      51.904  16.127  13.620  1.00  0.00     0.293 HD
ENDBRANCH   6  24
BRANCH   8  26
ATOM     26  O   UNL     1      56.421  15.452  11.726  1.00  0.00    -0.508 OA
ATOM     27  H   UNL     1      56.964  15.531  10.875  1.00  0.00     0.293 HD
ENDBRANCH   8  26
TORSDOF 6
ENDMDL
MODEL 5
REMARK VINA RESULT:    -6.208      2.672      7.536
REMARK INTER + INTRA:          -7.801
REMARK INTER:                  -7.516
REMARK INTRA:                  -0.284
REMARK UNBOUND:                -0.322
REMARK SMILES O=c1c(O)c(-c2ccc(O)c(O)c2)oc2cc(O)cc(O)c12
REMARK SMILES IDX 5 1 3 2 2 3 1 4 22 5 20 6 19 7 17 8 16 9 15 10 14 11 6 12
REMARK SMILES IDX 7 13 8 14 9 15 13 16 11 17 10 18 12 20 4 22 21 24 18 26
REMARK H PARENT 10 19 12 21 4 23 21 25 18 27
REMARK Flexibility Score: inf
ROOT
ATOM      1  C   UNL     1      45.181   9.477   8.183  1.00  0.00     0.180 A 
ATOM      2  C   UNL     1      44.907  10.479   9.136  1.00  0.00     0.208 A 
ATOM      3  C   UNL     1      43.694  10.430   9.841  1.00  0.00     0.238 A 
ATOM      4  O   UNL     1      43.443  11.315  10.703  1.00  0.00    -0.285 OA
ATOM      5  C   UNL     1      42.771   9.400   9.569  1.00  0.00     0.111 A 
ATOM      6  C   UNL     1      41.524   9.282  10.232  1.00  0.00     0.134 A 
ATOM      7  C   UNL     1      40.656   8.233   9.899  1.00  0.00     0.093 A 
ATOM      8  C   UNL     1      41.006   7.302   8.919  1.00  0.00     0.123 A 
ATOM      9  C   UNL     1      42.235   7.412   8.261  1.00  0.00     0.094 A 
ATOM     10  C   UNL     1      43.115   8.450   8.579  1.00  0.00     0.146 A 
ATOM     11  O   UNL     1      44.279   8.530   7.944  1.00  0.00    -0.452 OA
ENDROOT
BRANCH   1  12
ATOM     12  C   UNL     1      46.445   9.448   7.413  1.00  0.00     0.025 A 
ATOM     13  C   UNL     1      47.482   8.595   7.822  1.00  0.00     0.016 A 
ATOM     14  C   UNL     1      48.691   8.567   7.123  1.00  0.00     0.051 A 
ATOM     15  C   UNL     1      48.889   9.398   6.017  1.00  0.00     0.157 A 
ATOM     16  C   UNL     1      46.653  10.300   6.313  1.00  0.00     0.062 A 
ATOM     17  C   UNL     1      47.867  10.273   5.612  1.00  0.00     0.158 A 
BRANCH  15  18
ATOM     18  O   UNL     1      50.106   9.346   5.338  1.00  0.00    -0.504 OA
ATOM     19  H   UNL     1      50.452   8.489   4.921  1.00  0.00     0.293 HD
ENDBRANCH  15  18
BRANCH  17  20
ATOM     20  O   UNL     1      48.063  11.117   4.518  1.00  0.00    -0.504 OA
ATOM     21  H   UNL     1      48.541  12.005   4.612  1.00  0.00     0.293 HD
ENDBRANCH  17  20
ENDBRANCH   1  12
BRANCH   2  22
ATOM     22  O   UNL     1      45.817  11.516   9.351  1.00  0.00    -0.502 OA
ATOM     23  H   UNL     1      46.690  11.586   8.842  1.00  0.00     0.293 HD
ENDBRANCH   2  22
BRANCH   6  24
ATOM     24  O   UNL     1      41.146  10.197  11.216  1.00  0.00    -0.507 OA
ATOM     25  H   UNL     1      40.317  10.772  11.119  1.00  0.00     0.293 HD
ENDBRANCH   6  24
BRANCH   8  26
ATOM     26  O   UNL     1      40.124   6.270   8.606  1.00  0.00    -0.508 OA
ATOM     27  H   UNL     1      40.245   5.337   8.982  1.00  0.00     0.293 HD
ENDBRANCH   8  26
TORSDOF 6
ENDMDL
MODEL 6
REMARK VINA RESULT:    -6.113      2.500      4.788
REMARK INTER + INTRA:          -7.685
REMARK INTER:                  -7.416
REMARK INTRA:                  -0.269
REMARK UNBOUND:                -0.322
REMARK SMILES O=c1c(O)c(-c2ccc(O)c(O)c2)oc2cc(O)cc(O)c12
REMARK SMILES IDX 5 1 3 2 2 3 1 4 22 5 20 6 19 7 17 8 16 9 15 10 14 11 6 12
REMARK SMILES IDX 7 13 8 14 9 15 13 16 11 17 10 18 12 20 4 22 21 24 18 26
REMARK H PARENT 10 19 12 21 4 23 21 25 18 27
REMARK Flexibility Score: inf
ROOT
ATOM      1  C   UNL     1      45.278   9.315   8.808  1.00  0.00     0.180 A 
ATOM      2  C   UNL     1      46.482  10.045   8.757  1.00  0.00     0.208 A 
ATOM      3  C   UNL     1      47.579   9.498   8.073  1.00  0.00     0.238 A 
ATOM      4  O   UNL     1      48.657  10.148   8.012  1.00  0.00    -0.285 OA
ATOM      5  C   UNL     1      47.463   8.227   7.474  1.00  0.00     0.111 A 
ATOM      6  C   UNL     1      48.522   7.603   6.771  1.00  0.00     0.134 A 
ATOM      7  C   UNL     1      48.330   6.332   6.209  1.00  0.00     0.093 A 
ATOM      8  C   UNL     1      47.105   5.674   6.337  1.00  0.00     0.123 A 
ATOM      9  C   UNL     1      46.055   6.285   7.030  1.00  0.00     0.094 A 
ATOM     10  C   UNL     1      46.226   7.552   7.595  1.00  0.00     0.146 A 
ATOM     11  O   UNL     1      45.211   8.113   8.243  1.00  0.00    -0.452 OA
ENDROOT
BRANCH   1  12
ATOM     12  C   UNL     1      44.072   9.833   9.493  1.00  0.00     0.025 A 
ATOM     13  C   UNL     1      43.654   9.242  10.696  1.00  0.00     0.016 A 
ATOM     14  C   UNL     1      42.507   9.701  11.348  1.00  0.00     0.051 A 
ATOM     15  C   UNL     1      41.753  10.745  10.803  1.00  0.00     0.157 A 
ATOM     16  C   UNL     1      43.301  10.869   8.935  1.00  0.00     0.062 A 
ATOM     17  C   UNL     1      42.149  11.329   9.588  1.00  0.00     0.158 A 
BRANCH  15  18
ATOM     18  O   UNL     1      40.615  11.183  11.478  1.00  0.00    -0.504 OA
ATOM     19  H   UNL     1      40.035  11.936  11.124  1.00  0.00     0.293 HD
ENDBRANCH  15  18
BRANCH  17  20
ATOM     20  O   UNL     1      41.393  12.361   9.031  1.00  0.00    -0.504 OA
ATOM     21  H   UNL     1      41.153  13.189   9.562  1.00  0.00     0.293 HD
ENDBRANCH  17  20
ENDBRANCH   1  12
BRANCH   2  22
ATOM     22  O   UNL     1      46.586  11.280   9.401  1.00  0.00    -0.502 OA
ATOM     23  H   UNL     1      46.026  12.081   9.134  1.00  0.00     0.293 HD
ENDBRANCH   2  22
BRANCH   6  24
ATOM     24  O   UNL     1      49.758   8.234   6.626  1.00  0.00    -0.507 OA
ATOM     25  H   UNL     1      50.583   7.909   7.116  1.00  0.00     0.293 HD
ENDBRANCH   6  24
BRANCH   8  26
ATOM     26  O   UNL     1      46.941   4.411   5.771  1.00  0.00    -0.508 OA
ATOM     27  H   UNL     1      46.274   4.247   5.026  1.00  0.00     0.293 HD
ENDBRANCH   8  26
TORSDOF 6
ENDMDL
MODEL 7
REMARK VINA RESULT:    -6.068      2.510      7.731
REMARK INTER + INTRA:          -7.632
REMARK INTER:                  -7.308
REMARK INTRA:                  -0.324
REMARK UNBOUND:                -0.322
REMARK SMILES O=c1c(O)c(-c2ccc(O)c(O)c2)oc2cc(O)cc(O)c12
REMARK SMILES IDX 5 1 3 2 2 3 1 4 22 5 20 6 19 7 17 8 16 9 15 10 14 11 6 12
REMARK SMILES IDX 7 13 8 14 9 15 13 16 11 17 10 18 12 20 4 22 21 24 18 26
REMARK H PARENT 10 19 12 21 4 23 21 25 18 27
REMARK Flexibility Score: inf
ROOT
ATOM      1  C   UNL     1      45.224   8.915   7.772  1.00  0.00     0.180 A 
ATOM      2  C   UNL     1      45.577  10.158   8.333  1.00  0.00     0.208 A 
ATOM      3  C   UNL     1      44.700  10.762   9.247  1.00  0.00     0.238 A 
ATOM      4  O   UNL     1      45.012  11.869   9.764  1.00  0.00    -0.285 OA
ATOM      5  C   UNL     1      43.482  10.130   9.568  1.00  0.00     0.111 A 
ATOM      6  C   UNL     1      42.542  10.675  10.476  1.00  0.00     0.134 A 
ATOM      7  C   UNL     1      41.347   9.987  10.736  1.00  0.00     0.093 A 
ATOM      8  C   UNL     1      41.073   8.771  10.108  1.00  0.00     0.123 A 
ATOM      9  C   UNL     1      41.998   8.227   9.210  1.00  0.00     0.094 A 
ATOM     10  C   UNL     1      43.195   8.896   8.939  1.00  0.00     0.146 A 
ATOM     11  O   UNL     1      44.059   8.355   8.087  1.00  0.00    -0.452 OA
ENDROOT
BRANCH   1  12
ATOM     12  C   UNL     1      46.103   8.204   6.815  1.00  0.00     0.025 A 
ATOM     13  C   UNL     1      45.994   8.478   5.443  1.00  0.00     0.016 A 
ATOM     14  C   UNL     1      46.799   7.805   4.521  1.00  0.00     0.051 A 
ATOM     15  C   UNL     1      47.714   6.840   4.953  1.00  0.00     0.157 A 
ATOM     16  C   UNL     1      47.009   7.218   7.246  1.00  0.00     0.062 A 
ATOM     17  C   UNL     1      47.816   6.541   6.322  1.00  0.00     0.158 A 
BRANCH  15  18
ATOM     18  O   UNL     1      48.505   6.186   4.010  1.00  0.00    -0.504 OA
ATOM     19  H   UNL     1      48.378   6.323   3.013  1.00  0.00     0.293 HD
ENDBRANCH  15  18
BRANCH  17  20
ATOM     20  O   UNL     1      48.716   5.568   6.758  1.00  0.00    -0.504 OA
ATOM     21  H   UNL     1      49.185   4.950   6.108  1.00  0.00     0.293 HD
ENDBRANCH  17  20
ENDBRANCH   1  12
BRANCH   2  22
ATOM     22  O   UNL     1      46.767  10.787   7.961  1.00  0.00    -0.502 OA
ATOM     23  H   UNL     1      47.158  11.562   8.484  1.00  0.00     0.293 HD
ENDBRANCH   2  22
BRANCH   6  24
ATOM     24  O   UNL     1      42.786  11.889  11.119  1.00  0.00    -0.507 OA
ATOM     25  H   UNL     1      42.282  12.733  10.874  1.00  0.00     0.293 HD
ENDBRANCH   6  24
BRANCH   8  26
ATOM     26  O   UNL     1      39.878   8.109  10.383  1.00  0.00    -0.508 OA
ATOM     27  H   UNL     1      39.703   7.170  10.045  1.00  0.00     0.293 HD
ENDBRANCH   8  26
TORSDOF 6
ENDMDL
MODEL 8
REMARK VINA RESULT:    -6.064      2.588      8.171
REMARK INTER + INTRA:          -7.627
REMARK INTER:                  -7.419
REMARK INTRA:                  -0.208
REMARK UNBOUND:                -0.322
REMARK SMILES O=c1c(O)c(-c2ccc(O)c(O)c2)oc2cc(O)cc(O)c12
REMARK SMILES IDX 5 1 3 2 2 3 1 4 22 5 20 6 19 7 17 8 16 9 15 10 14 11 6 12
REMARK SMILES IDX 7 13 8 14 9 15 13 16 11 17 10 18 12 20 4 22 21 24 18 26
REMARK H PARENT 10 19 12 21 4 23 21 25 18 27
REMARK Flexibility Score: inf
ROOT
ATOM      1  C   UNL     1      45.021   9.142   6.964  1.00  0.00     0.180 A 
ATOM      2  C   UNL     1      45.492  10.293   7.626  1.00  0.00     0.208 A 
ATOM      3  C   UNL     1      44.767  10.792   8.718  1.00  0.00     0.238 A 
ATOM      4  O   UNL     1      45.186  11.816   9.324  1.00  0.00    -0.285 OA
ATOM      5  C   UNL     1      43.578  10.150   9.117  1.00  0.00     0.111 A 
ATOM      6  C   UNL     1      42.785  10.593  10.205  1.00  0.00     0.134 A 
ATOM      7  C   UNL     1      41.609   9.903  10.534  1.00  0.00     0.093 A 
ATOM      8  C   UNL     1      41.209   8.785   9.800  1.00  0.00     0.123 A 
ATOM      9  C   UNL     1      41.987   8.343   8.725  1.00  0.00     0.094 A 
ATOM     10  C   UNL     1      43.163   9.015   8.382  1.00  0.00     0.146 A 
ATOM     11  O   UNL     1      43.886   8.572   7.360  1.00  0.00    -0.452 OA
ENDROOT
BRANCH   1  12
ATOM     12  C   UNL     1      45.740   8.544   5.816  1.00  0.00     0.025 A 
ATOM     13  C   UNL     1      46.405   7.318   5.982  1.00  0.00     0.016 A 
ATOM     14  C   UNL     1      47.107   6.746   4.919  1.00  0.00     0.051 A 
ATOM     15  C   UNL     1      47.168   7.393   3.681  1.00  0.00     0.157 A 
ATOM     16  C   UNL     1      45.820   9.204   4.577  1.00  0.00     0.062 A 
ATOM     17  C   UNL     1      46.526   8.630   3.510  1.00  0.00     0.158 A 
BRANCH  15  18
ATOM     18  O   UNL     1      47.875   6.795   2.638  1.00  0.00    -0.504 OA
ATOM     19  H   UNL     1      48.708   6.240   2.801  1.00  0.00     0.293 HD
ENDBRANCH  15  18
BRANCH  17  20
ATOM     20  O   UNL     1      46.596   9.289   2.282  1.00  0.00    -0.504 OA
ATOM     21  H   UNL     1      45.964  10.045   2.049  1.00  0.00     0.293 HD
ENDBRANCH  17  20
ENDBRANCH   1  12
BRANCH   2  22
ATOM     22  O   UNL     1      46.648  10.940   7.179  1.00  0.00    -0.502 OA
ATOM     23  H   UNL     1      47.069  10.740   6.280  1.00  0.00     0.293 HD
ENDBRANCH   2  22
BRANCH   6  24
ATOM     24  O   UNL     1      43.158  11.707  10.958  1.00  0.00    -0.507 OA
ATOM     25  H   UNL     1      43.861  12.360  10.632  1.00  0.00     0.293 HD
ENDBRANCH   6  24
BRANCH   8  26
ATOM     26  O   UNL     1      40.035   8.119  10.148  1.00  0.00    -0.508 OA
ATOM     27  H   UNL     1      40.050   7.173  10.510  1.00  0.00     0.293 HD
ENDBRANCH   8  26
TORSDOF 6
ENDMDL
MODEL 9
REMARK VINA RESULT:    -6.028      2.405      4.489
REMARK INTER + INTRA:          -7.583
REMARK INTER:                  -7.252
REMARK INTRA:                  -0.331
REMARK UNBOUND:                -0.322
REMARK SMILES O=c1c(O)c(-c2ccc(O)c(O)c2)oc2cc(O)cc(O)c12
REMARK SMILES IDX 5 1 3 2 2 3 1 4 22 5 20 6 19 7 17 8 16 9 15 10 14 11 6 12
REMARK SMILES IDX 7 13 8 14 9 15 13 16 11 17 10 18 12 20 4 22 21 24 18 26
REMARK H PARENT 10 19 12 21 4 23 21 25 18 27
REMARK Flexibility Score: inf
ROOT
ATOM      1  C   UNL     1      44.893   9.936   8.149  1.00  0.00     0.180 A 
ATOM      2  C   UNL     1      45.650  11.107   7.947  1.00  0.00     0.208 A 
ATOM      3  C   UNL     1      46.529  11.165   6.854  1.00  0.00     0.238 A 
ATOM      4  O   UNL     1      47.204  12.212   6.658  1.00  0.00    -0.285 OA
ATOM      5  C   UNL     1      46.651  10.053   5.997  1.00  0.00     0.111 A 
ATOM      6  C   UNL     1      47.517  10.030   4.876  1.00  0.00     0.134 A 
ATOM      7  C   UNL     1      47.589   8.880   4.077  1.00  0.00     0.093 A 
ATOM      8  C   UNL     1      46.816   7.756   4.374  1.00  0.00     0.123 A 
ATOM      9  C   UNL     1      45.959   7.772   5.479  1.00  0.00     0.094 A 
ATOM     10  C   UNL     1      45.872   8.909   6.287  1.00  0.00     0.146 A 
ATOM     11  O   UNL     1      45.046   8.901   7.328  1.00  0.00    -0.452 OA
ENDROOT
BRANCH   1  12
ATOM     12  C   UNL     1      43.931   9.804   9.267  1.00  0.00     0.025 A 
ATOM     13  C   UNL     1      44.344   9.200  10.464  1.00  0.00     0.016 A 
ATOM     14  C   UNL     1      43.447   9.046  11.525  1.00  0.00     0.051 A 
ATOM     15  C   UNL     1      42.124   9.479  11.400  1.00  0.00     0.157 A 
ATOM     16  C   UNL     1      42.593  10.219   9.135  1.00  0.00     0.062 A 
ATOM     17  C   UNL     1      41.692  10.064  10.198  1.00  0.00     0.158 A 
BRANCH  15  18
ATOM     18  O   UNL     1      41.253   9.314  12.477  1.00  0.00    -0.504 OA
ATOM     19  H   UNL     1      40.993   8.397  12.822  1.00  0.00     0.293 HD
ENDBRANCH  15  18
BRANCH  17  20
ATOM     20  O   UNL     1      40.369  10.484  10.062  1.00  0.00    -0.504 OA
ATOM     21  H   UNL     1      40.138  11.436   9.807  1.00  0.00     0.293 HD
ENDBRANCH  17  20
ENDBRANCH   1  12
BRANCH   2  22
ATOM     22  O   UNL     1      45.547  12.177   8.839  1.00  0.00    -0.502 OA
ATOM     23  H   UNL     1      46.359  12.654   9.211  1.00  0.00     0.293 HD
ENDBRANCH   2  22
BRANCH   6  24
ATOM     24  O   UNL     1      48.303  11.137   4.553  1.00  0.00    -0.507 OA
ATOM     25  H   UNL     1      47.894  12.045   4.367  1.00  0.00     0.293 HD
ENDBRANCH   6  24
BRANCH   8  26
ATOM     26  O   UNL     1      46.907   6.625   3.563  1.00  0.00    -0.508 OA
ATOM     27  H   UNL     1      46.350   6.530   2.723  1.00  0.00     0.293 HD
ENDBRANCH   8  26
TORSDOF 6
ENDMDL
