MODEL 1
REMARK VINA RESULT:    -5.352      0.000      0.000
REMARK INTER + INTRA:          -5.857
REMARK INTER:                  -5.821
REMARK INTRA:                  -0.036
REMARK UNBOUND:                -0.036
REMARK SMILES COc1cc2ccc(=O)oc2cc1O
REMARK SMILES IDX 3 1 13 2 12 3 11 4 5 5 4 6 6 7 7 8 8 9 9 10 10 11 2 12 1 13
REMARK SMILES IDX 14 14
REMARK H PARENT 14 15
REMARK Flexibility Score: inf
ROOT
ATOM      1  C   UNL     1       9.458 -18.012   7.523  1.00  0.00     0.161 A 
ATOM      2  C   UNL     1       9.204 -16.696   7.940  1.00  0.00     0.161 A 
ATOM      3  C   UNL     1      10.243 -15.755   7.985  1.00  0.00     0.098 A 
ATOM      4  C   UNL     1      11.540 -16.119   7.615  1.00  0.00     0.142 A 
ATOM      5  C   UNL     1      11.803 -17.439   7.194  1.00  0.00     0.022 A 
ATOM      6  C   UNL     1      10.766 -18.381   7.147  1.00  0.00     0.062 A 
ATOM      7  C   UNL     1      13.111 -17.774   6.828  1.00  0.00     0.019 A 
ATOM      8  C   UNL     1      14.110 -16.803   6.891  1.00  0.00     0.094 A 
ATOM      9  C   UNL     1      13.774 -15.513   7.319  1.00  0.00     0.336 A 
ATOM     10  O   UNL     1      14.661 -14.622   7.382  1.00  0.00    -0.246 OA
ATOM     11  O   UNL     1      12.522 -15.222   7.660  1.00  0.00    -0.423 OA
ENDROOT
BRANCH   1  12
ATOM     12  O   UNL     1       8.388 -18.920   7.492  1.00  0.00    -0.493 OA
ATOM     13  C   UNL     1       7.536 -19.125   6.369  1.00  0.00     0.278 C 
ENDBRANCH   1  12
BRANCH   2  14
ATOM     14  O   UNL     1       7.911 -16.329   8.311  1.00  0.00    -0.504 OA
ATOM     15  H   UNL     1       7.465 -15.502   7.932  1.00  0.00     0.293 HD
ENDBRANCH   2  14
TORSDOF 2
ENDMDL
MODEL 2
REMARK VINA RESULT:    -5.346      1.407      5.372
REMARK INTER + INTRA:          -5.850
REMARK INTER:                  -5.790
REMARK INTRA:                  -0.060
REMARK UNBOUND:                -0.036
REMARK SMILES COc1cc2ccc(=O)oc2cc1O
REMARK SMILES IDX 3 1 13 2 12 3 11 4 5 5 4 6 6 7 7 8 8 9 9 10 10 11 2 12 1 13
REMARK SMILES IDX 14 14
REMARK H PARENT 14 15
REMARK Flexibility Score: inf
ROOT
ATOM      1  C   UNL     1      12.716 -16.521   7.573  1.00  0.00     0.161 A 
ATOM      2  C   UNL     1      12.701 -17.770   6.932  1.00  0.00     0.161 A 
ATOM      3  C   UNL     1      11.492 -18.454   6.743  1.00  0.00     0.098 A 
ATOM      4  C   UNL     1      10.290 -17.898   7.189  1.00  0.00     0.142 A 
ATOM      5  C   UNL     1      10.297 -16.644   7.834  1.00  0.00     0.022 A 
ATOM      6  C   UNL     1      11.504 -15.958   8.024  1.00  0.00     0.062 A 
ATOM      7  C   UNL     1       9.078 -16.113   8.271  1.00  0.00     0.019 A 
ATOM      8  C   UNL     1       7.902 -16.833   8.059  1.00  0.00     0.094 A 
ATOM      9  C   UNL     1       7.973 -18.072   7.412  1.00  0.00     0.336 A 
ATOM     10  O   UNL     1       6.924 -18.736   7.211  1.00  0.00    -0.246 OA
ATOM     11  O   UNL     1       9.146 -18.553   7.007  1.00  0.00    -0.423 OA
ENDROOT
BRANCH   1  12
ATOM     12  O   UNL     1      13.949 -15.872   7.740  1.00  0.00    -0.493 OA
ATOM     13  C   UNL     1      14.275 -14.603   7.182  1.00  0.00     0.278 C 
ENDBRANCH   1  12
BRANCH   2  14
ATOM     14  O   UNL     1      13.898 -18.327   6.484  1.00  0.00    -0.504 OA
ATOM     15  H   UNL     1      13.915 -19.042   5.767  1.00  0.00     0.293 HD
ENDBRANCH   2  14
TORSDOF 2
ENDMDL
MODEL 3
REMARK VINA RESULT:    -5.276      1.354      4.745
REMARK INTER + INTRA:          -5.774
REMARK INTER:                  -5.728
REMARK INTRA:                  -0.046
REMARK UNBOUND:                -0.036
REMARK SMILES COc1cc2ccc(=O)oc2cc1O
REMARK SMILES IDX 3 1 13 2 12 3 11 4 5 5 4 6 6 7 7 8 8 9 9 10 10 11 2 12 1 13
REMARK SMILES IDX 14 14
REMARK H PARENT 14 15
REMARK Flexibility Score: inf
ROOT
ATOM      1  C   UNL     1      12.955 -17.295   7.118  1.00  0.00     0.161 A 
ATOM      2  C   UNL     1      12.816 -15.949   7.490  1.00  0.00     0.161 A 
ATOM      3  C   UNL     1      11.562 -15.446   7.866  1.00  0.00     0.098 A 
ATOM      4  C   UNL     1      10.441 -16.279   7.873  1.00  0.00     0.142 A 
ATOM      5  C   UNL     1      10.573 -17.633   7.501  1.00  0.00     0.022 A 
ATOM      6  C   UNL     1      11.825 -18.139   7.126  1.00  0.00     0.062 A 
ATOM      7  C   UNL     1       9.433 -18.444   7.518  1.00  0.00     0.019 A 
ATOM      8  C   UNL     1       8.208 -17.895   7.899  1.00  0.00     0.094 A 
ATOM      9  C   UNL     1       8.154 -16.542   8.256  1.00  0.00     0.336 A 
ATOM     10  O   UNL     1       7.059 -16.028   8.602  1.00  0.00    -0.246 OA
ATOM     11  O   UNL     1       9.254 -15.795   8.230  1.00  0.00    -0.423 OA
ENDROOT
BRANCH   1  12
ATOM     12  O   UNL     1      14.229 -17.757   6.750  1.00  0.00    -0.493 OA
ATOM     13  C   UNL     1      14.625 -19.125   6.759  1.00  0.00     0.278 C 
ENDBRANCH   1  12
BRANCH   2  14
ATOM     14  O   UNL     1      13.932 -15.114   7.484  1.00  0.00    -0.504 OA
ATOM     15  H   UNL     1      14.630 -15.167   6.751  1.00  0.00     0.293 HD
ENDBRANCH   2  14
TORSDOF 2
ENDMDL
MODEL 4
REMARK VINA RESULT:    -5.022      1.161      1.297
REMARK INTER + INTRA:          -5.498
REMARK INTER:                  -5.474
REMARK INTRA:                  -0.024
REMARK UNBOUND:                -0.036
REMARK SMILES COc1cc2ccc(=O)oc2cc1O
REMARK SMILES IDX 3 1 13 2 12 3 11 4 5 5 4 6 6 7 7 8 8 9 9 10 10 11 2 12 1 13
REMARK SMILES IDX 14 14
REMARK H PARENT 14 15
REMARK Flexibility Score: inf
ROOT
ATOM      1  C   UNL     1       8.446 -17.807   7.313  1.00  0.00     0.161 A 
ATOM      2  C   UNL     1       8.577 -16.590   8.000  1.00  0.00     0.161 A 
ATOM      3  C   UNL     1       9.848 -16.077   8.293  1.00  0.00     0.098 A 
ATOM      4  C   UNL     1      10.996 -16.770   7.902  1.00  0.00     0.142 A 
ATOM      5  C   UNL     1      10.873 -17.993   7.211  1.00  0.00     0.022 A 
ATOM      6  C   UNL     1       9.603 -18.508   6.916  1.00  0.00     0.062 A 
ATOM      7  C   UNL     1      12.040 -18.666   6.832  1.00  0.00     0.019 A 
ATOM      8  C   UNL     1      13.281 -18.113   7.147  1.00  0.00     0.094 A 
ATOM      9  C   UNL     1      13.326 -16.895   7.836  1.00  0.00     0.336 A 
ATOM     10  O   UNL     1      14.436 -16.380   8.129  1.00  0.00    -0.246 OA
ATOM     11  O   UNL     1      12.200 -16.278   8.184  1.00  0.00    -0.423 OA
ENDROOT
BRANCH   1  12
ATOM     12  O   UNL     1       7.154 -18.283   7.040  1.00  0.00    -0.493 OA
ATOM     13  C   UNL     1       6.388 -19.091   7.928  1.00  0.00     0.278 C 
ENDBRANCH   1  12
BRANCH   2  14
ATOM     14  O   UNL     1       7.434 -15.895   8.392  1.00  0.00    -0.504 OA
ATOM     15  H   UNL     1       6.530 -16.348   8.449  1.00  0.00     0.293 HD
ENDBRANCH   2  14
TORSDOF 2
ENDMDL
MODEL 5
REMARK VINA RESULT:    -4.963      1.716      2.649
REMARK INTER + INTRA:          -5.434
REMARK INTER:                  -5.374
REMARK INTRA:                  -0.061
REMARK UNBOUND:                -0.036
REMARK SMILES COc1cc2ccc(=O)oc2cc1O
REMARK SMILES IDX 3 1 13 2 12 3 11 4 5 5 4 6 6 7 7 8 8 9 9 10 10 11 2 12 1 13
REMARK SMILES IDX 14 14
REMARK H PARENT 14 15
REMARK Flexibility Score: inf
ROOT
ATOM      1  C   UNL     1       9.035 -16.798   7.564  1.00  0.00     0.161 A 
ATOM      2  C   UNL     1       9.091 -18.112   7.076  1.00  0.00     0.161 A 
ATOM      3  C   UNL     1      10.329 -18.744   6.886  1.00  0.00     0.098 A 
ATOM      4  C   UNL     1      11.517 -18.070   7.182  1.00  0.00     0.142 A 
ATOM      5  C   UNL     1      11.468 -16.749   7.673  1.00  0.00     0.022 A 
ATOM      6  C   UNL     1      10.232 -16.116   7.864  1.00  0.00     0.062 A 
ATOM      7  C   UNL     1      12.674 -16.100   7.960  1.00  0.00     0.019 A 
ATOM      8  C   UNL     1      13.879 -16.771   7.754  1.00  0.00     0.094 A 
ATOM      9  C   UNL     1      13.849 -18.082   7.263  1.00  0.00     0.336 A 
ATOM     10  O   UNL     1      14.925 -18.704   7.070  1.00  0.00    -0.246 OA
ATOM     11  O   UNL     1      12.688 -18.675   6.999  1.00  0.00    -0.423 OA
ENDROOT
BRANCH   1  12
ATOM     12  O   UNL     1       7.774 -16.206   7.740  1.00  0.00    -0.493 OA
ATOM     13  C   UNL     1       7.074 -16.152   8.979  1.00  0.00     0.278 C 
ENDBRANCH   1  12
BRANCH   2  14
ATOM     14  O   UNL     1       7.908 -18.788   6.780  1.00  0.00    -0.504 OA
ATOM     15  H   UNL     1       7.198 -18.948   7.484  1.00  0.00     0.293 HD
ENDBRANCH   2  14
TORSDOF 2
ENDMDL
MODEL 6
REMARK VINA RESULT:    -3.901      1.489      2.113
REMARK INTER + INTRA:          -4.279
REMARK INTER:                  -4.482
REMARK INTRA:                   0.203
REMARK UNBOUND:                -0.036
REMARK SMILES COc1cc2ccc(=O)oc2cc1O
REMARK SMILES IDX 3 1 13 2 12 3 11 4 5 5 4 6 6 7 7 8 8 9 9 10 10 11 2 12 1 13
REMARK SMILES IDX 14 14
REMARK H PARENT 14 15
REMARK Flexibility Score: inf
ROOT
ATOM      1  C   UNL     1       8.875 -17.036   8.093  1.00  0.00     0.161 A 
ATOM      2  C   UNL     1       9.492 -18.082   8.797  1.00  0.00     0.161 A 
ATOM      3  C   UNL     1      10.880 -18.081   8.993  1.00  0.00     0.098 A 
ATOM      4  C   UNL     1      11.662 -17.038   8.490  1.00  0.00     0.142 A 
ATOM      5  C   UNL     1      11.050 -15.983   7.782  1.00  0.00     0.022 A 
ATOM      6  C   UNL     1       9.662 -15.982   7.585  1.00  0.00     0.062 A 
ATOM      7  C   UNL     1      11.859 -14.952   7.291  1.00  0.00     0.019 A 
ATOM      8  C   UNL     1      13.235 -14.998   7.512  1.00  0.00     0.094 A 
ATOM      9  C   UNL     1      13.773 -16.077   8.223  1.00  0.00     0.336 A 
ATOM     10  O   UNL     1      15.012 -16.136   8.433  1.00  0.00    -0.246 OA
ATOM     11  O   UNL     1      12.980 -17.043   8.679  1.00  0.00    -0.423 OA
ENDROOT
BRANCH   1  12
ATOM     12  O   UNL     1       7.483 -17.078   7.921  1.00  0.00    -0.493 OA
ATOM     13  C   UNL     1       6.792 -18.068   7.166  1.00  0.00     0.278 C 
ENDBRANCH   1  12
BRANCH   2  14
ATOM     14  O   UNL     1       8.715 -19.125   9.300  1.00  0.00    -0.504 OA
ATOM     15  H   UNL     1       7.779 -19.302   8.957  1.00  0.00     0.293 HD
ENDBRANCH   2  14
TORSDOF 2
ENDMDL
MODEL 7
REMARK VINA RESULT:    -3.812      2.078      2.858
REMARK INTER + INTRA:          -4.182
REMARK INTER:                  -4.390
REMARK INTRA:                   0.208
REMARK UNBOUND:                -0.036
REMARK SMILES COc1cc2ccc(=O)oc2cc1O
REMARK SMILES IDX 3 1 13 2 12 3 11 4 5 5 4 6 6 7 7 8 8 9 9 10 10 11 2 12 1 13
REMARK SMILES IDX 14 14
REMARK H PARENT 14 15
REMARK Flexibility Score: inf
ROOT
ATOM      1  C   UNL     1       6.839 -18.308   8.568  1.00  0.00     0.161 A 
ATOM      2  C   UNL     1       6.776 -16.911   8.689  1.00  0.00     0.161 A 
ATOM      3  C   UNL     1       7.925 -16.131   8.496  1.00  0.00     0.098 A 
ATOM      4  C   UNL     1       9.143 -16.737   8.180  1.00  0.00     0.142 A 
ATOM      5  C   UNL     1       9.216 -18.140   8.057  1.00  0.00     0.022 A 
ATOM      6  C   UNL     1       8.068 -18.922   8.249  1.00  0.00     0.062 A 
ATOM      7  C   UNL     1      10.449 -18.719   7.740  1.00  0.00     0.019 A 
ATOM      8  C   UNL     1      11.563 -17.900   7.558  1.00  0.00     0.094 A 
ATOM      9  C   UNL     1      11.416 -16.514   7.697  1.00  0.00     0.336 A 
ATOM     10  O   UNL     1      12.409 -15.759   7.536  1.00  0.00    -0.246 OA
ATOM     11  O   UNL     1      10.231 -15.991   7.998  1.00  0.00    -0.423 OA
ENDROOT
BRANCH   1  12
ATOM     12  O   UNL     1       5.664 -19.049   8.769  1.00  0.00    -0.493 OA
ATOM     13  C   UNL     1       4.960 -19.125  10.004  1.00  0.00     0.278 C 
ENDBRANCH   1  12
BRANCH   2  14
ATOM     14  O   UNL     1       5.561 -16.302   9.003  1.00  0.00    -0.504 OA
ATOM     15  H   UNL     1       5.517 -15.482   9.596  1.00  0.00     0.293 HD
ENDBRANCH   2  14
TORSDOF 2
ENDMDL
MODEL 8
REMARK VINA RESULT:    -3.544      2.449      5.515
REMARK INTER + INTRA:          -3.890
REMARK INTER:                  -3.840
REMARK INTRA:                  -0.050
REMARK UNBOUND:                -0.036
REMARK SMILES COc1cc2ccc(=O)oc2cc1O
REMARK SMILES IDX 3 1 13 2 12 3 11 4 5 5 4 6 6 7 7 8 8 9 9 10 10 11 2 12 1 13
REMARK SMILES IDX 14 14
REMARK H PARENT 14 15
REMARK Flexibility Score: inf
ROOT
ATOM      1  C   UNL     1      11.920 -18.922   6.941  1.00  0.00     0.161 A 
ATOM      2  C   UNL     1      11.717 -19.039   8.325  1.00  0.00     0.161 A 
ATOM      3  C   UNL     1      10.417 -19.100   8.847  1.00  0.00     0.098 A 
ATOM      4  C   UNL     1       9.312 -19.045   7.995  1.00  0.00     0.142 A 
ATOM      5  C   UNL     1       9.507 -18.927   6.603  1.00  0.00     0.022 A 
ATOM      6  C   UNL     1      10.806 -18.867   6.079  1.00  0.00     0.062 A 
ATOM      7  C   UNL     1       8.381 -18.875   5.774  1.00  0.00     0.019 A 
ATOM      8  C   UNL     1       7.109 -18.939   6.342  1.00  0.00     0.094 A 
ATOM      9  C   UNL     1       6.993 -19.055   7.732  1.00  0.00     0.336 A 
ATOM     10  O   UNL     1       5.854 -19.114   8.264  1.00  0.00    -0.246 OA
ATOM     11  O   UNL     1       8.080 -19.103   8.496  1.00  0.00    -0.423 OA
ENDROOT
BRANCH   1  12
ATOM     12  O   UNL     1      13.238 -18.866   6.463  1.00  0.00    -0.493 OA
ATOM     13  C   UNL     1      13.960 -17.661   6.227  1.00  0.00     0.278 C 
ENDBRANCH   1  12
BRANCH   2  14
ATOM     14  O   UNL     1      12.818 -19.094   9.180  1.00  0.00    -0.504 OA
ATOM     15  H   UNL     1      13.740 -18.806   8.876  1.00  0.00     0.293 HD
ENDBRANCH   2  14
TORSDOF 2
ENDMDL
