MODEL 1
REMARK VINA RESULT:    -7.114      0.000      0.000
REMARK INTER + INTRA:         -13.673
REMARK INTER:                 -11.689
REMARK INTRA:                  -1.983
REMARK UNBOUND:                -1.983
REMARK SMILES C[C@H]1O[C@@H](OC[C@@H]2O[C@@H](Oc3c(-c4ccc(O)c(O)c4)oc4cc(O)cc(O)c4c3=O)[C@H](O)[C@@H](O)[C@@H]2O)[C@H](O)[C@H](O)[C@@H]1O
REMARK SMILES IDX 7 1 36 2 34 3 32 4 9 5 8 6 6 7 5 8 4 9 1 10 2 11 42 12 3 13
REMARK SMILES IDX 40 14 38 15 43 16 41 18 39 20 37 22 35 24 10 26 11 27 12 28
REMARK SMILES IDX 30 29 21 30 29 31 31 32 22 33 27 34 23 35 26 36 24 37 13 38
REMARK SMILES IDX 20 39 14 40 18 41 15 42 16 43 19 44 17 46 28 48 25 50 33 52
REMARK H PARENT 43 17 41 19 39 21 37 23 35 25 19 45 17 47 28 49 25 51 33 53
REMARK Flexibility Score: inf
ROOT
ATOM      1  C   UNL     1      48.117  24.900  19.798  1.00  0.00     0.180 C 
ATOM      2  C   UNL     1      49.343  24.062  20.314  1.00  0.00     0.177 C 
ATOM      3  C   UNL     1      50.314  25.124  20.923  1.00  0.00     0.180 C 
ATOM      4  C   UNL     1      49.689  26.068  21.959  1.00  0.00     0.214 C 
ATOM      5  C   UNL     1      48.154  25.970  21.953  1.00  0.00     0.339 C 
ATOM      6  O   UNL     1      47.763  26.071  20.585  1.00  0.00    -0.332 OA
ENDROOT
BRANCH   1   7
ATOM      7  C   UNL     1      48.437  25.433  18.366  1.00  0.00     0.198 C 
BRANCH   7   8
ATOM      8  O   UNL     1      47.362  25.178  17.416  1.00  0.00    -0.347 OA
BRANCH   8   9
ATOM      9  C   UNL     1      45.994  25.510  17.832  1.00  0.00     0.281 C 
ATOM     10  C   UNL     1      43.290  23.659  16.951  1.00  0.00     0.041 C 
ATOM     11  C   UNL     1      43.847  24.377  18.233  1.00  0.00     0.150 C 
ATOM     12  C   UNL     1      43.294  25.723  18.523  1.00  0.00     0.174 C 
ATOM     13  O   UNL     1      45.300  24.297  18.095  1.00  0.00    -0.344 OA
ATOM     14  C   UNL     1      43.633  26.732  17.437  1.00  0.00     0.179 C 
ATOM     15  C   UNL     1      45.155  26.636  17.071  1.00  0.00     0.202 C 
BRANCH  12  16
ATOM     16  O   UNL     1      43.803  26.182  19.799  1.00  0.00    -0.388 OA
ATOM     17  H   UNL     1      44.682  25.703  19.898  1.00  0.00     0.211 HD
ENDBRANCH  12  16
BRANCH  14  18
ATOM     18  O   UNL     1      43.227  28.069  17.878  1.00  0.00    -0.387 OA
ATOM     19  H   UNL     1      44.016  28.558  18.076  1.00  0.00     0.211 HD
ENDBRANCH  14  18
BRANCH  15  20
ATOM     20  O   UNL     1      45.819  27.873  17.243  1.00  0.00    -0.385 OA
ATOM     21  H   UNL     1      45.659  28.153  18.247  1.00  0.00     0.211 HD
ENDBRANCH  15  20
ENDBRANCH   8   9
ENDBRANCH   7   8
ENDBRANCH   1   7
BRANCH   2  22
ATOM     22  O   UNL     1      49.855  23.376  19.252  1.00  0.00    -0.387 OA
ATOM     23  H   UNL     1      49.590  22.466  19.306  1.00  0.00     0.211 HD
ENDBRANCH   2  22
BRANCH   3  24
ATOM     24  O   UNL     1      51.532  24.634  21.456  1.00  0.00    -0.387 OA
ATOM     25  H   UNL     1      52.303  25.371  21.457  1.00  0.00     0.211 HD
ENDBRANCH   3  24
BRANCH   5  26
ATOM     26  O   UNL     1      47.677  24.767  22.601  1.00  0.00    -0.454 OA
BRANCH  26  27
ATOM     27  C   UNL     1      46.576  24.522  23.445  1.00  0.00     0.214 A 
ATOM     28  C   UNL     1      46.591  24.975  24.852  1.00  0.00     0.180 A 
ATOM     29  C   UNL     1      45.417  23.806  23.115  1.00  0.00     0.239 A 
ATOM     30  O   UNL     1      45.511  24.975  25.585  1.00  0.00    -0.452 OA
ATOM     31  C   UNL     1      44.316  23.617  24.020  1.00  0.00     0.111 A 
ATOM     32  O   UNL     1      45.321  23.295  21.976  1.00  0.00    -0.285 OA
ATOM     33  C   UNL     1      44.407  24.348  25.256  1.00  0.00     0.146 A 
ATOM     34  C   UNL     1      43.168  22.864  23.792  1.00  0.00     0.134 A 
ATOM     35  C   UNL     1      43.298  24.406  26.151  1.00  0.00     0.094 A 
ATOM     36  C   UNL     1      42.143  22.815  24.820  1.00  0.00     0.093 A 
ATOM     37  C   UNL     1      42.177  23.707  25.874  1.00  0.00     0.123 A 
BRANCH  28  38
ATOM     38  C   UNL     1      47.863  25.359  25.537  1.00  0.00     0.025 A 
ATOM     39  C   UNL     1      47.939  26.607  26.239  1.00  0.00     0.062 A 
ATOM     40  C   UNL     1      48.860  24.394  25.766  1.00  0.00     0.016 A 
ATOM     41  C   UNL     1      49.017  26.809  27.065  1.00  0.00     0.158 A 
ATOM     42  C   UNL     1      49.941  24.744  26.608  1.00  0.00     0.051 A 
ATOM     43  C   UNL     1      49.590  25.690  27.535  1.00  0.00     0.157 A 
BRANCH  41  44
ATOM     44  O   UNL     1      49.575  28.101  27.239  1.00  0.00    -0.504 OA
ATOM     45  H   UNL     1      48.931  28.886  27.401  1.00  0.00     0.293 HD
ENDBRANCH  41  44
BRANCH  43  46
ATOM     46  O   UNL     1      49.111  25.021  28.690  1.00  0.00    -0.504 OA
ATOM     47  H   UNL     1      48.167  25.125  29.001  1.00  0.00     0.293 HD
ENDBRANCH  43  46
ENDBRANCH  28  38
BRANCH  34  48
ATOM     48  O   UNL     1      43.004  22.194  22.598  1.00  0.00    -0.507 OA
ATOM     49  H   UNL     1      43.650  21.497  22.252  1.00  0.00     0.293 HD
ENDBRANCH  34  48
BRANCH  37  50
ATOM     50  O   UNL     1      41.017  23.791  26.686  1.00  0.00    -0.508 OA
ATOM     51  H   UNL     1      40.194  23.207  26.490  1.00  0.00     0.293 HD
ENDBRANCH  37  50
ENDBRANCH  26  27
ENDBRANCH   5  26
BRANCH   4  52
ATOM     52  O   UNL     1      50.056  27.468  21.657  1.00  0.00    -0.384 OA
ATOM     53  H   UNL     1      50.970  27.471  21.281  1.00  0.00     0.211 HD
ENDBRANCH   4  52
TORSDOF 16
ENDMDL
MODEL 2
REMARK VINA RESULT:    -6.831      2.452      8.498
REMARK INTER + INTRA:         -13.207
REMARK INTER:                 -11.901
REMARK INTRA:                  -1.306
REMARK UNBOUND:                -1.983
REMARK SMILES C[C@H]1O[C@@H](OC[C@@H]2O[C@@H](Oc3c(-c4ccc(O)c(O)c4)oc4cc(O)cc(O)c4c3=O)[C@H](O)[C@@H](O)[C@@H]2O)[C@H](O)[C@H](O)[C@@H]1O
REMARK SMILES IDX 7 1 36 2 34 3 32 4 9 5 8 6 6 7 5 8 4 9 1 10 2 11 42 12 3 13
REMARK SMILES IDX 40 14 38 15 43 16 41 18 39 20 37 22 35 24 10 26 11 27 12 28
REMARK SMILES IDX 30 29 21 30 29 31 31 32 22 33 27 34 23 35 26 36 24 37 13 38
REMARK SMILES IDX 20 39 14 40 18 41 15 42 16 43 19 44 17 46 28 48 25 50 33 52
REMARK H PARENT 43 17 41 19 39 21 37 23 35 25 19 45 17 47 28 49 25 51 33 53
REMARK Flexibility Score: inf
ROOT
ATOM      1  C   UNL     1      49.828  24.857  21.682  1.00  0.00     0.180 C 
ATOM      2  C   UNL     1      49.141  26.267  21.575  1.00  0.00     0.177 C 
ATOM      3  C   UNL     1      50.213  27.173  20.889  1.00  0.00     0.180 C 
ATOM      4  C   UNL     1      50.790  26.628  19.576  1.00  0.00     0.214 C 
ATOM      5  C   UNL     1      50.416  25.152  19.368  1.00  0.00     0.339 C 
ATOM      6  O   UNL     1      50.725  24.496  20.596  1.00  0.00    -0.332 OA
ENDROOT
BRANCH   1   7
ATOM      7  C   UNL     1      50.696  24.817  22.980  1.00  0.00     0.198 C 
BRANCH   7   8
ATOM      8  O   UNL     1      50.047  24.100  24.070  1.00  0.00    -0.347 OA
BRANCH   8   9
ATOM      9  C   UNL     1      49.821  24.829  25.324  1.00  0.00     0.281 C 
ATOM     10  C   UNL     1      47.303  27.067  25.735  1.00  0.00     0.041 C 
ATOM     11  C   UNL     1      47.971  25.897  26.544  1.00  0.00     0.150 C 
ATOM     12  C   UNL     1      48.983  26.292  27.553  1.00  0.00     0.174 C 
ATOM     13  O   UNL     1      48.418  24.954  25.521  1.00  0.00    -0.344 OA
ATOM     14  C   UNL     1      50.197  26.956  26.922  1.00  0.00     0.179 C 
ATOM     15  C   UNL     1      50.688  26.119  25.690  1.00  0.00     0.202 C 
BRANCH  12  16
ATOM     16  O   UNL     1      49.395  25.121  28.299  1.00  0.00    -0.388 OA
ATOM     17  H   UNL     1      50.267  25.394  28.720  1.00  0.00     0.211 HD
ENDBRANCH  12  16
BRANCH  14  18
ATOM     18  O   UNL     1      51.231  27.143  27.945  1.00  0.00    -0.387 OA
ATOM     19  H   UNL     1      50.901  26.773  28.755  1.00  0.00     0.211 HD
ENDBRANCH  14  18
BRANCH  15  20
ATOM     20  O   UNL     1      52.038  25.719  25.827  1.00  0.00    -0.385 OA
ATOM     21  H   UNL     1      52.607  26.606  25.818  1.00  0.00     0.211 HD
ENDBRANCH  15  20
ENDBRANCH   8   9
ENDBRANCH   7   8
ENDBRANCH   1   7
BRANCH   2  22
ATOM     22  O   UNL     1      48.796  26.659  22.835  1.00  0.00    -0.387 OA
ATOM     23  H   UNL     1      49.531  27.103  23.240  1.00  0.00     0.211 HD
ENDBRANCH   2  22
BRANCH   3  24
ATOM     24  O   UNL     1      49.855  28.528  20.681  1.00  0.00    -0.387 OA
ATOM     25  H   UNL     1      49.355  28.953  21.521  1.00  0.00     0.211 HD
ENDBRANCH   3  24
BRANCH   5  26
ATOM     26  O   UNL     1      49.039  24.986  18.957  1.00  0.00    -0.454 OA
BRANCH  26  27
ATOM     27  C   UNL     1      48.213  25.735  18.096  1.00  0.00     0.214 A 
ATOM     28  C   UNL     1      46.759  25.835  18.347  1.00  0.00     0.180 A 
ATOM     29  C   UNL     1      48.610  26.392  16.923  1.00  0.00     0.239 A 
ATOM     30  O   UNL     1      46.012  26.700  17.717  1.00  0.00    -0.452 OA
ATOM     31  C   UNL     1      47.715  27.165  16.104  1.00  0.00     0.111 A 
ATOM     32  O   UNL     1      49.804  26.310  16.554  1.00  0.00    -0.285 OA
ATOM     33  C   UNL     1      46.397  27.355  16.649  1.00  0.00     0.146 A 
ATOM     34  C   UNL     1      48.017  27.786  14.896  1.00  0.00     0.134 A 
ATOM     35  C   UNL     1      45.481  28.260  16.037  1.00  0.00     0.094 A 
ATOM     36  C   UNL     1      46.984  28.553  14.223  1.00  0.00     0.093 A 
ATOM     37  C   UNL     1      45.824  28.889  14.892  1.00  0.00     0.123 A 
BRANCH  28  38
ATOM     38  C   UNL     1      46.055  24.882  19.259  1.00  0.00     0.025 A 
ATOM     39  C   UNL     1      46.424  24.827  20.644  1.00  0.00     0.062 A 
ATOM     40  C   UNL     1      44.848  24.282  18.857  1.00  0.00     0.016 A 
ATOM     41  C   UNL     1      45.594  24.141  21.497  1.00  0.00     0.158 A 
ATOM     42  C   UNL     1      44.107  23.570  19.827  1.00  0.00     0.051 A 
ATOM     43  C   UNL     1      44.318  24.048  21.094  1.00  0.00     0.157 A 
BRANCH  41  44
ATOM     44  O   UNL     1      46.111  23.438  22.614  1.00  0.00    -0.504 OA
ATOM     45  H   UNL     1      46.601  22.550  22.440  1.00  0.00     0.293 HD
ENDBRANCH  41  44
BRANCH  43  46
ATOM     46  O   UNL     1      43.366  25.070  21.345  1.00  0.00    -0.504 OA
ATOM     47  H   UNL     1      42.486  24.872  21.773  1.00  0.00     0.293 HD
ENDBRANCH  43  46
ENDBRANCH  28  38
BRANCH  34  48
ATOM     48  O   UNL     1      49.284  27.685  14.362  1.00  0.00    -0.507 OA
ATOM     49  H   UNL     1      49.665  28.339  13.691  1.00  0.00     0.293 HD
ENDBRANCH  34  48
BRANCH  37  50
ATOM     50  O   UNL     1      44.986  29.858  14.286  1.00  0.00    -0.508 OA
ATOM     51  H   UNL     1      45.283  30.354  13.435  1.00  0.00     0.293 HD
ENDBRANCH  37  50
ENDBRANCH  26  27
ENDBRANCH   5  26
BRANCH   4  52
ATOM     52  O   UNL     1      52.266  26.726  19.591  1.00  0.00    -0.384 OA
ATOM     53  H   UNL     1      52.586  26.399  20.468  1.00  0.00     0.211 HD
ENDBRANCH   4  52
TORSDOF 16
ENDMDL
MODEL 3
REMARK VINA RESULT:    -6.718      3.215      8.874
REMARK INTER + INTRA:         -13.021
REMARK INTER:                 -10.389
REMARK INTRA:                  -2.632
REMARK UNBOUND:                -1.983
REMARK SMILES C[C@H]1O[C@@H](OC[C@@H]2O[C@@H](Oc3c(-c4ccc(O)c(O)c4)oc4cc(O)cc(O)c4c3=O)[C@H](O)[C@@H](O)[C@@H]2O)[C@H](O)[C@H](O)[C@@H]1O
REMARK SMILES IDX 7 1 36 2 34 3 32 4 9 5 8 6 6 7 5 8 4 9 1 10 2 11 42 12 3 13
REMARK SMILES IDX 40 14 38 15 43 16 41 18 39 20 37 22 35 24 10 26 11 27 12 28
REMARK SMILES IDX 30 29 21 30 29 31 31 32 22 33 27 34 23 35 26 36 24 37 13 38
REMARK SMILES IDX 20 39 14 40 18 41 15 42 16 43 19 44 17 46 28 48 25 50 33 52
REMARK H PARENT 43 17 41 19 39 21 37 23 35 25 19 45 17 47 28 49 25 51 33 53
REMARK Flexibility Score: inf
ROOT
ATOM      1  C   UNL     1      47.265  24.190  19.783  1.00  0.00     0.180 C 
ATOM      2  C   UNL     1      46.667  23.498  18.504  1.00  0.00     0.177 C 
ATOM      3  C   UNL     1      45.309  24.230  18.262  1.00  0.00     0.180 C 
ATOM      4  C   UNL     1      45.390  25.762  18.197  1.00  0.00     0.214 C 
ATOM      5  C   UNL     1      46.752  26.273  18.693  1.00  0.00     0.339 C 
ATOM      6  O   UNL     1      46.988  25.609  19.934  1.00  0.00    -0.332 OA
ENDROOT
BRANCH   1   7
ATOM      7  C   UNL     1      46.666  23.504  21.052  1.00  0.00     0.198 C 
BRANCH   7   8
ATOM      8  O   UNL     1      47.689  22.939  21.923  1.00  0.00    -0.347 OA
BRANCH   8   9
ATOM      9  C   UNL     1      48.198  23.784  23.010  1.00  0.00     0.281 C 
ATOM     10  C   UNL     1      48.960  22.578  26.089  1.00  0.00     0.041 C 
ATOM     11  C   UNL     1      49.574  23.572  25.038  1.00  0.00     0.150 C 
ATOM     12  C   UNL     1      49.304  25.013  25.264  1.00  0.00     0.174 C 
ATOM     13  O   UNL     1      49.161  23.037  23.743  1.00  0.00    -0.344 OA
ATOM     14  C   UNL     1      47.823  25.344  25.166  1.00  0.00     0.179 C 
ATOM     15  C   UNL     1      47.208  24.682  23.884  1.00  0.00     0.202 C 
BRANCH  12  16
ATOM     16  O   UNL     1      50.048  25.794  24.298  1.00  0.00    -0.388 OA
ATOM     17  H   UNL     1      49.929  25.292  23.434  1.00  0.00     0.211 HD
ENDBRANCH  12  16
BRANCH  14  18
ATOM     18  O   UNL     1      47.650  26.799  25.206  1.00  0.00    -0.387 OA
ATOM     19  H   UNL     1      48.364  27.185  24.713  1.00  0.00     0.211 HD
ENDBRANCH  14  18
BRANCH  15  20
ATOM     20  O   UNL     1      46.609  25.637  23.031  1.00  0.00    -0.385 OA
ATOM     21  H   UNL     1      47.115  25.564  22.110  1.00  0.00     0.211 HD
ENDBRANCH  15  20
ENDBRANCH   8   9
ENDBRANCH   7   8
ENDBRANCH   1   7
BRANCH   2  22
ATOM     22  O   UNL     1      46.548  22.165  18.768  1.00  0.00    -0.387 OA
ATOM     23  H   UNL     1      45.656  21.973  19.029  1.00  0.00     0.211 HD
ENDBRANCH   2  22
BRANCH   3  24
ATOM     24  O   UNL     1      44.538  23.786  17.159  1.00  0.00    -0.387 OA
ATOM     25  H   UNL     1      43.879  22.988  17.415  1.00  0.00     0.211 HD
ENDBRANCH   3  24
BRANCH   5  26
ATOM     26  O   UNL     1      47.804  26.067  17.721  1.00  0.00    -0.454 OA
BRANCH  26  27
ATOM     27  C   UNL     1      48.510  26.959  16.890  1.00  0.00     0.214 A 
ATOM     28  C   UNL     1      49.833  27.480  17.296  1.00  0.00     0.180 A 
ATOM     29  C   UNL     1      48.062  27.497  15.675  1.00  0.00     0.239 A 
ATOM     30  O   UNL     1      50.609  28.111  16.458  1.00  0.00    -0.452 OA
ATOM     31  C   UNL     1      48.849  28.384  14.862  1.00  0.00     0.111 A 
ATOM     32  O   UNL     1      46.917  27.201  15.264  1.00  0.00    -0.285 OA
ATOM     33  C   UNL     1      50.207  28.572  15.299  1.00  0.00     0.146 A 
ATOM     34  C   UNL     1      48.450  29.011  13.685  1.00  0.00     0.134 A 
ATOM     35  C   UNL     1      51.146  29.264  14.478  1.00  0.00     0.094 A 
ATOM     36  C   UNL     1      49.400  29.854  12.981  1.00  0.00     0.093 A 
ATOM     37  C   UNL     1      50.740  29.816  13.314  1.00  0.00     0.123 A 
BRANCH  28  38
ATOM     38  C   UNL     1      50.305  27.398  18.713  1.00  0.00     0.025 A 
ATOM     39  C   UNL     1      50.328  28.583  19.519  1.00  0.00     0.062 A 
ATOM     40  C   UNL     1      50.422  26.147  19.345  1.00  0.00     0.016 A 
ATOM     41  C   UNL     1      50.514  28.429  20.871  1.00  0.00     0.158 A 
ATOM     42  C   UNL     1      50.653  26.129  20.740  1.00  0.00     0.051 A 
ATOM     43  C   UNL     1      50.143  27.237  21.364  1.00  0.00     0.157 A 
BRANCH  41  44
ATOM     44  O   UNL     1      51.219  29.399  21.629  1.00  0.00    -0.504 OA
ATOM     45  H   UNL     1      51.753  29.076  22.446  1.00  0.00     0.293 HD
ENDBRANCH  41  44
BRANCH  43  46
ATOM     46  O   UNL     1      48.804  26.956  21.740  1.00  0.00    -0.504 OA
ATOM     47  H   UNL     1      48.036  27.477  21.370  1.00  0.00     0.293 HD
ENDBRANCH  43  46
ENDBRANCH  28  38
BRANCH  34  48
ATOM     48  O   UNL     1      47.178  28.814  13.191  1.00  0.00    -0.507 OA
ATOM     49  H   UNL     1      46.700  27.923  13.209  1.00  0.00     0.293 HD
ENDBRANCH  34  48
BRANCH  37  50
ATOM     50  O   UNL     1      51.645  30.445  12.423  1.00  0.00    -0.508 OA
ATOM     51  H   UNL     1      52.443  30.987  12.778  1.00  0.00     0.293 HD
ENDBRANCH  37  50
ENDBRANCH  26  27
ENDBRANCH   5  26
BRANCH   4  52
ATOM     52  O   UNL     1      44.341  26.363  19.048  1.00  0.00    -0.384 OA
ATOM     53  H   UNL     1      44.597  26.226  19.993  1.00  0.00     0.211 HD
ENDBRANCH   4  52
TORSDOF 16
ENDMDL
MODEL 4
REMARK VINA RESULT:    -6.643      3.566      6.884
REMARK INTER + INTRA:         -12.899
REMARK INTER:                 -10.286
REMARK INTRA:                  -2.613
REMARK UNBOUND:                -1.983
REMARK SMILES C[C@H]1O[C@@H](OC[C@@H]2O[C@@H](Oc3c(-c4ccc(O)c(O)c4)oc4cc(O)cc(O)c4c3=O)[C@H](O)[C@@H](O)[C@@H]2O)[C@H](O)[C@H](O)[C@@H]1O
REMARK SMILES IDX 7 1 36 2 34 3 32 4 9 5 8 6 6 7 5 8 4 9 1 10 2 11 42 12 3 13
REMARK SMILES IDX 40 14 38 15 43 16 41 18 39 20 37 22 35 24 10 26 11 27 12 28
REMARK SMILES IDX 30 29 21 30 29 31 31 32 22 33 27 34 23 35 26 36 24 37 13 38
REMARK SMILES IDX 20 39 14 40 18 41 15 42 16 43 19 44 17 46 28 48 25 50 33 52
REMARK H PARENT 43 17 41 19 39 21 37 23 35 25 19 45 17 47 28 49 25 51 33 53
REMARK Flexibility Score: inf
ROOT
ATOM      1  C   UNL     1      47.048  26.866  17.178  1.00  0.00     0.180 C 
ATOM      2  C   UNL     1      45.577  27.081  17.690  1.00  0.00     0.177 C 
ATOM      3  C   UNL     1      44.874  25.707  17.448  1.00  0.00     0.180 C 
ATOM      4  C   UNL     1      45.595  24.487  18.036  1.00  0.00     0.214 C 
ATOM      5  C   UNL     1      47.025  24.840  18.476  1.00  0.00     0.339 C 
ATOM      6  O   UNL     1      47.609  25.539  17.379  1.00  0.00    -0.332 OA
ENDROOT
BRANCH   1   7
ATOM      7  C   UNL     1      47.087  27.114  15.637  1.00  0.00     0.198 C 
BRANCH   7   8
ATOM      8  O   UNL     1      47.108  28.530  15.294  1.00  0.00    -0.347 OA
BRANCH   8   9
ATOM      9  C   UNL     1      48.371  29.092  14.801  1.00  0.00     0.281 C 
ATOM     10  C   UNL     1      48.943  32.428  14.556  1.00  0.00     0.041 C 
ATOM     11  C   UNL     1      49.710  31.142  15.036  1.00  0.00     0.150 C 
ATOM     12  C   UNL     1      50.647  30.535  14.060  1.00  0.00     0.174 C 
ATOM     13  O   UNL     1      48.662  30.263  15.552  1.00  0.00    -0.344 OA
ATOM     14  C   UNL     1      49.933  30.018  12.821  1.00  0.00     0.179 C 
ATOM     15  C   UNL     1      48.673  29.181  13.236  1.00  0.00     0.202 C 
BRANCH  12  16
ATOM     16  O   UNL     1      51.367  29.454  14.700  1.00  0.00    -0.388 OA
ATOM     17  H   UNL     1      52.299  29.527  14.326  1.00  0.00     0.211 HD
ENDBRANCH  12  16
BRANCH  14  18
ATOM     18  O   UNL     1      50.882  29.266  11.995  1.00  0.00    -0.387 OA
ATOM     19  H   UNL     1      51.509  29.886  11.643  1.00  0.00     0.211 HD
ENDBRANCH  14  18
BRANCH  15  20
ATOM     20  O   UNL     1      48.720  27.865  12.719  1.00  0.00    -0.385 OA
ATOM     21  H   UNL     1      48.505  27.226  13.529  1.00  0.00     0.211 HD
ENDBRANCH  15  20
ENDBRANCH   8   9
ENDBRANCH   7   8
ENDBRANCH   1   7
BRANCH   2  22
ATOM     22  O   UNL     1      45.039  28.119  16.987  1.00  0.00    -0.387 OA
ATOM     23  H   UNL     1      44.240  28.406  17.411  1.00  0.00     0.211 HD
ENDBRANCH   2  22
BRANCH   3  24
ATOM     24  O   UNL     1      43.507  25.624  17.812  1.00  0.00    -0.387 OA
ATOM     25  H   UNL     1      43.371  25.406  18.847  1.00  0.00     0.211 HD
ENDBRANCH   3  24
BRANCH   5  26
ATOM     26  O   UNL     1      47.051  25.587  19.715  1.00  0.00    -0.454 OA
BRANCH  26  27
ATOM     27  C   UNL     1      47.771  25.407  20.912  1.00  0.00     0.214 A 
ATOM     28  C   UNL     1      49.111  26.009  21.083  1.00  0.00     0.180 A 
ATOM     29  C   UNL     1      47.379  24.630  22.011  1.00  0.00     0.239 A 
ATOM     30  O   UNL     1      49.696  26.061  22.248  1.00  0.00    -0.452 OA
ATOM     31  C   UNL     1      48.153  24.512  23.217  1.00  0.00     0.111 A 
ATOM     32  O   UNL     1      46.300  23.996  21.954  1.00  0.00    -0.285 OA
ATOM     33  C   UNL     1      49.302  25.374  23.293  1.00  0.00     0.146 A 
ATOM     34  C   UNL     1      47.866  23.709  24.317  1.00  0.00     0.134 A 
ATOM     35  C   UNL     1      50.039  25.500  24.508  1.00  0.00     0.094 A 
ATOM     36  C   UNL     1      48.756  23.745  25.465  1.00  0.00     0.093 A 
ATOM     37  C   UNL     1      49.701  24.746  25.577  1.00  0.00     0.123 A 
BRANCH  28  38
ATOM     38  C   UNL     1      49.904  26.497  19.914  1.00  0.00     0.025 A 
ATOM     39  C   UNL     1      49.930  27.899  19.613  1.00  0.00     0.062 A 
ATOM     40  C   UNL     1      50.858  25.659  19.309  1.00  0.00     0.016 A 
ATOM     41  C   UNL     1      50.863  28.338  18.706  1.00  0.00     0.158 A 
ATOM     42  C   UNL     1      51.736  26.231  18.360  1.00  0.00     0.051 A 
ATOM     43  C   UNL     1      51.952  27.564  18.591  1.00  0.00     0.157 A 
BRANCH  41  44
ATOM     44  O   UNL     1      50.585  29.426  17.838  1.00  0.00    -0.504 OA
ATOM     45  H   UNL     1      49.928  30.146  18.164  1.00  0.00     0.293 HD
ENDBRANCH  41  44
BRANCH  43  46
ATOM     46  O   UNL     1      53.065  27.686  19.462  1.00  0.00    -0.504 OA
ATOM     47  H   UNL     1      53.223  28.516  19.996  1.00  0.00     0.293 HD
ENDBRANCH  43  46
ENDBRANCH  28  38
BRANCH  34  48
ATOM     48  O   UNL     1      46.742  22.910  24.319  1.00  0.00    -0.507 OA
ATOM     49  H   UNL     1      46.500  22.283  25.073  1.00  0.00     0.293 HD
ENDBRANCH  34  48
BRANCH  37  50
ATOM     50  O   UNL     1      50.346  24.887  26.831  1.00  0.00    -0.508 OA
ATOM     51  H   UNL     1      50.939  25.703  27.030  1.00  0.00     0.293 HD
ENDBRANCH  37  50
ENDBRANCH  26  27
ENDBRANCH   5  26
BRANCH   4  52
ATOM     52  O   UNL     1      45.683  23.412  17.024  1.00  0.00    -0.384 OA
ATOM     53  H   UNL     1      45.068  23.638  16.283  1.00  0.00     0.211 HD
ENDBRANCH   4  52
TORSDOF 16
ENDMDL
MODEL 5
REMARK VINA RESULT:    -6.621      3.439      6.133
REMARK INTER + INTRA:         -12.862
REMARK INTER:                 -10.878
REMARK INTRA:                  -1.985
REMARK UNBOUND:                -1.983
REMARK SMILES C[C@H]1O[C@@H](OC[C@@H]2O[C@@H](Oc3c(-c4ccc(O)c(O)c4)oc4cc(O)cc(O)c4c3=O)[C@H](O)[C@@H](O)[C@@H]2O)[C@H](O)[C@H](O)[C@@H]1O
REMARK SMILES IDX 7 1 36 2 34 3 32 4 9 5 8 6 6 7 5 8 4 9 1 10 2 11 42 12 3 13
REMARK SMILES IDX 40 14 38 15 43 16 41 18 39 20 37 22 35 24 10 26 11 27 12 28
REMARK SMILES IDX 30 29 21 30 29 31 31 32 22 33 27 34 23 35 26 36 24 37 13 38
REMARK SMILES IDX 20 39 14 40 18 41 15 42 16 43 19 44 17 46 28 48 25 50 33 52
REMARK H PARENT 43 17 41 19 39 21 37 23 35 25 19 45 17 47 28 49 25 51 33 53
REMARK Flexibility Score: inf
ROOT
ATOM      1  C   UNL     1      49.989  27.876  20.015  1.00  0.00     0.180 C 
ATOM      2  C   UNL     1      49.095  26.929  19.134  1.00  0.00     0.177 C 
ATOM      3  C   UNL     1      49.812  25.544  19.197  1.00  0.00     0.180 C 
ATOM      4  C   UNL     1      50.116  25.024  20.608  1.00  0.00     0.214 C 
ATOM      5  C   UNL     1      49.926  26.125  21.664  1.00  0.00     0.339 C 
ATOM      6  O   UNL     1      50.628  27.264  21.169  1.00  0.00    -0.332 OA
ENDROOT
BRANCH   1   7
ATOM      7  C   UNL     1      51.151  28.435  19.134  1.00  0.00     0.198 C 
BRANCH   7   8
ATOM      8  O   UNL     1      52.455  28.296  19.767  1.00  0.00    -0.347 OA
BRANCH   8   9
ATOM      9  C   UNL     1      53.275  29.505  19.909  1.00  0.00     0.281 C 
ATOM     10  C   UNL     1      56.661  29.484  19.683  1.00  0.00     0.041 C 
ATOM     11  C   UNL     1      55.461  30.364  19.178  1.00  0.00     0.150 C 
ATOM     12  C   UNL     1      55.153  31.574  19.979  1.00  0.00     0.174 C 
ATOM     13  O   UNL     1      54.363  29.417  18.998  1.00  0.00    -0.344 OA
ATOM     14  C   UNL     1      54.705  31.232  21.391  1.00  0.00     0.179 C 
ATOM     15  C   UNL     1      53.627  30.093  21.352  1.00  0.00     0.202 C 
BRANCH  12  16
ATOM     16  O   UNL     1      54.124  32.341  19.308  1.00  0.00    -0.388 OA
ATOM     17  H   UNL     1      53.317  31.740  19.333  1.00  0.00     0.211 HD
ENDBRANCH  12  16
BRANCH  14  18
ATOM     18  O   UNL     1      54.236  32.450  22.057  1.00  0.00    -0.387 OA
ATOM     19  H   UNL     1      54.093  32.239  22.972  1.00  0.00     0.211 HD
ENDBRANCH  14  18
BRANCH  15  20
ATOM     20  O   UNL     1      52.420  30.486  21.975  1.00  0.00    -0.385 OA
ATOM     21  H   UNL     1      52.310  29.863  22.818  1.00  0.00     0.211 HD
ENDBRANCH  15  20
ENDBRANCH   8   9
ENDBRANCH   7   8
ENDBRANCH   1   7
BRANCH   2  22
ATOM     22  O   UNL     1      49.022  27.469  17.883  1.00  0.00    -0.387 OA
ATOM     23  H   UNL     1      49.897  27.558  17.527  1.00  0.00     0.211 HD
ENDBRANCH   2  22
BRANCH   3  24
ATOM     24  O   UNL     1      49.216  24.489  18.462  1.00  0.00    -0.387 OA
ATOM     25  H   UNL     1      48.212  24.706  18.176  1.00  0.00     0.211 HD
ENDBRANCH   3  24
BRANCH   5  26
ATOM     26  O   UNL     1      48.530  26.385  21.943  1.00  0.00    -0.454 OA
BRANCH  26  27
ATOM     27  C   UNL     1      47.492  25.559  22.416  1.00  0.00     0.214 A 
ATOM     28  C   UNL     1      47.275  25.380  23.868  1.00  0.00     0.180 A 
ATOM     29  C   UNL     1      46.619  24.788  21.636  1.00  0.00     0.239 A 
ATOM     30  O   UNL     1      46.193  24.821  24.336  1.00  0.00    -0.452 OA
ATOM     31  C   UNL     1      45.560  23.986  22.186  1.00  0.00     0.111 A 
ATOM     32  O   UNL     1      46.758  24.786  20.391  1.00  0.00    -0.285 OA
ATOM     33  C   UNL     1      45.347  24.142  23.600  1.00  0.00     0.146 A 
ATOM     34  C   UNL     1      44.701  23.144  21.486  1.00  0.00     0.134 A 
ATOM     35  C   UNL     1      44.209  23.559  24.233  1.00  0.00     0.094 A 
ATOM     36  C   UNL     1      43.666  22.433  22.214  1.00  0.00     0.093 A 
ATOM     37  C   UNL     1      43.363  22.790  23.514  1.00  0.00     0.123 A 
BRANCH  28  38
ATOM     38  C   UNL     1      48.328  25.740  24.867  1.00  0.00     0.025 A 
ATOM     39  C   UNL     1      48.044  26.726  25.868  1.00  0.00     0.062 A 
ATOM     40  C   UNL     1      49.455  24.915  25.030  1.00  0.00     0.016 A 
ATOM     41  C   UNL     1      48.926  26.842  26.915  1.00  0.00     0.158 A 
ATOM     42  C   UNL     1      50.306  25.167  26.131  1.00  0.00     0.051 A 
ATOM     43  C   UNL     1      49.638  25.737  27.183  1.00  0.00     0.157 A 
BRANCH  41  44
ATOM     44  O   UNL     1      49.178  28.098  27.525  1.00  0.00    -0.504 OA
ATOM     45  H   UNL     1      48.437  28.808  27.486  1.00  0.00     0.293 HD
ENDBRANCH  41  44
BRANCH  43  46
ATOM     46  O   UNL     1      49.140  24.695  28.007  1.00  0.00    -0.504 OA
ATOM     47  H   UNL     1      48.851  23.819  27.624  1.00  0.00     0.293 HD
ENDBRANCH  43  46
ENDBRANCH  28  38
BRANCH  34  48
ATOM     48  O   UNL     1      44.825  23.008  20.119  1.00  0.00    -0.507 OA
ATOM     49  H   UNL     1      45.651  23.276  19.601  1.00  0.00     0.293 HD
ENDBRANCH  34  48
BRANCH  37  50
ATOM     50  O   UNL     1      42.175  22.253  24.071  1.00  0.00    -0.508 OA
ATOM     51  H   UNL     1      41.549  21.663  23.508  1.00  0.00     0.293 HD
ENDBRANCH  37  50
ENDBRANCH  26  27
ENDBRANCH   5  26
BRANCH   4  52
ATOM     52  O   UNL     1      51.517  24.556  20.687  1.00  0.00    -0.384 OA
ATOM     53  H   UNL     1      51.737  24.102  19.836  1.00  0.00     0.211 HD
ENDBRANCH   4  52
TORSDOF 16
ENDMDL
MODEL 6
REMARK VINA RESULT:    -6.615      2.652      9.327
REMARK INTER + INTRA:         -12.853
REMARK INTER:                 -10.579
REMARK INTRA:                  -2.273
REMARK UNBOUND:                -1.983
REMARK SMILES C[C@H]1O[C@@H](OC[C@@H]2O[C@@H](Oc3c(-c4ccc(O)c(O)c4)oc4cc(O)cc(O)c4c3=O)[C@H](O)[C@@H](O)[C@@H]2O)[C@H](O)[C@H](O)[C@@H]1O
REMARK SMILES IDX 7 1 36 2 34 3 32 4 9 5 8 6 6 7 5 8 4 9 1 10 2 11 42 12 3 13
REMARK SMILES IDX 40 14 38 15 43 16 41 18 39 20 37 22 35 24 10 26 11 27 12 28
REMARK SMILES IDX 30 29 21 30 29 31 31 32 22 33 27 34 23 35 26 36 24 37 13 38
REMARK SMILES IDX 20 39 14 40 18 41 15 42 16 43 19 44 17 46 28 48 25 50 33 52
REMARK H PARENT 43 17 41 19 39 21 37 23 35 25 19 45 17 47 28 49 25 51 33 53
REMARK Flexibility Score: inf
ROOT
ATOM      1  C   UNL     1      49.672  23.576  21.514  1.00  0.00     0.180 C 
ATOM      2  C   UNL     1      48.115  23.393  21.386  1.00  0.00     0.177 C 
ATOM      3  C   UNL     1      47.515  24.680  22.035  1.00  0.00     0.180 C 
ATOM      4  C   UNL     1      48.060  26.007  21.489  1.00  0.00     0.214 C 
ATOM      5  C   UNL     1      49.315  25.785  20.629  1.00  0.00     0.339 C 
ATOM      6  O   UNL     1      50.168  24.938  21.397  1.00  0.00    -0.332 OA
ENDROOT
BRANCH   1   7
ATOM      7  C   UNL     1      50.123  23.080  22.924  1.00  0.00     0.198 C 
BRANCH   7   8
ATOM      8  O   UNL     1      50.895  24.079  23.652  1.00  0.00    -0.347 OA
BRANCH   8   9
ATOM      9  C   UNL     1      50.385  24.513  24.958  1.00  0.00     0.281 C 
ATOM     10  C   UNL     1      47.290  25.836  25.389  1.00  0.00     0.041 C 
ATOM     11  C   UNL     1      48.229  24.802  26.108  1.00  0.00     0.150 C 
ATOM     12  C   UNL     1      49.013  25.316  27.257  1.00  0.00     0.174 C 
ATOM     13  O   UNL     1      49.001  24.195  25.025  1.00  0.00    -0.344 OA
ATOM     14  C   UNL     1      50.006  26.391  26.843  1.00  0.00     0.179 C 
ATOM     15  C   UNL     1      50.800  25.929  25.571  1.00  0.00     0.202 C 
BRANCH  12  16
ATOM     16  O   UNL     1      49.713  24.217  27.887  1.00  0.00    -0.388 OA
ATOM     17  H   UNL     1      49.581  23.447  27.253  1.00  0.00     0.211 HD
ENDBRANCH  12  16
BRANCH  14  18
ATOM     18  O   UNL     1      50.872  26.713  27.981  1.00  0.00    -0.387 OA
ATOM     19  H   UNL     1      51.318  27.527  27.779  1.00  0.00     0.211 HD
ENDBRANCH  14  18
BRANCH  15  20
ATOM     20  O   UNL     1      52.196  25.922  25.794  1.00  0.00    -0.385 OA
ATOM     21  H   UNL     1      52.512  26.922  25.697  1.00  0.00     0.211 HD
ENDBRANCH  15  20
ENDBRANCH   8   9
ENDBRANCH   7   8
ENDBRANCH   1   7
BRANCH   2  22
ATOM     22  O   UNL     1      47.779  22.233  22.022  1.00  0.00    -0.387 OA
ATOM     23  H   UNL     1      48.558  21.705  22.148  1.00  0.00     0.211 HD
ENDBRANCH   2  22
BRANCH   3  24
ATOM     24  O   UNL     1      46.101  24.770  22.070  1.00  0.00    -0.387 OA
ATOM     25  H   UNL     1      45.695  24.475  23.011  1.00  0.00     0.211 HD
ENDBRANCH   3  24
BRANCH   5  26
ATOM     26  O   UNL     1      49.000  25.253  19.322  1.00  0.00    -0.454 OA
BRANCH  26  27
ATOM     27  C   UNL     1      48.887  25.861  18.056  1.00  0.00     0.214 A 
ATOM     28  C   UNL     1      47.562  26.038  17.423  1.00  0.00     0.180 A 
ATOM     29  C   UNL     1      49.942  26.293  17.242  1.00  0.00     0.239 A 
ATOM     30  O   UNL     1      47.399  26.799  16.374  1.00  0.00    -0.452 OA
ATOM     31  C   UNL     1      49.752  26.933  15.968  1.00  0.00     0.111 A 
ATOM     32  O   UNL     1      51.120  26.118  17.629  1.00  0.00    -0.285 OA
ATOM     33  C   UNL     1      48.388  27.247  15.639  1.00  0.00     0.146 A 
ATOM     34  C   UNL     1      50.745  27.325  15.075  1.00  0.00     0.134 A 
ATOM     35  C   UNL     1      48.080  28.055  14.504  1.00  0.00     0.094 A 
ATOM     36  C   UNL     1      50.360  27.989  13.842  1.00  0.00     0.093 A 
ATOM     37  C   UNL     1      49.073  28.466  13.686  1.00  0.00     0.123 A 
BRANCH  28  38
ATOM     38  C   UNL     1      46.363  25.278  17.890  1.00  0.00     0.025 A 
ATOM     39  C   UNL     1      45.471  25.877  18.838  1.00  0.00     0.062 A 
ATOM     40  C   UNL     1      45.935  24.136  17.187  1.00  0.00     0.016 A 
ATOM     41  C   UNL     1      44.258  25.267  19.045  1.00  0.00     0.158 A 
ATOM     42  C   UNL     1      44.679  23.582  17.526  1.00  0.00     0.051 A 
ATOM     43  C   UNL     1      43.814  24.523  18.021  1.00  0.00     0.157 A 
BRANCH  41  44
ATOM     44  O   UNL     1      43.635  25.288  20.320  1.00  0.00    -0.504 OA
ATOM     45  H   UNL     1      43.736  24.458  20.918  1.00  0.00     0.293 HD
ENDBRANCH  41  44
BRANCH  43  46
ATOM     46  O   UNL     1      43.099  25.082  16.931  1.00  0.00    -0.504 OA
ATOM     47  H   UNL     1      42.761  24.514  16.181  1.00  0.00     0.293 HD
ENDBRANCH  43  46
ENDBRANCH  28  38
BRANCH  34  48
ATOM     48  O   UNL     1      52.073  27.102  15.373  1.00  0.00    -0.507 OA
ATOM     49  H   UNL     1      52.837  27.370  14.768  1.00  0.00     0.293 HD
ENDBRANCH  34  48
BRANCH  37  50
ATOM     50  O   UNL     1      48.835  29.334  12.591  1.00  0.00    -0.508 OA
ATOM     51  H   UNL     1      49.266  29.158  11.675  1.00  0.00     0.293 HD
ENDBRANCH  37  50
ENDBRANCH  26  27
ENDBRANCH   5  26
BRANCH   4  52
ATOM     52  O   UNL     1      48.427  26.903  22.607  1.00  0.00    -0.384 OA
ATOM     53  H   UNL     1      48.203  27.830  22.343  1.00  0.00     0.211 HD
ENDBRANCH   4  52
TORSDOF 16
ENDMDL
MODEL 7
REMARK VINA RESULT:    -6.608      2.471      7.824
REMARK INTER + INTRA:         -12.841
REMARK INTER:                 -10.696
REMARK INTRA:                  -2.144
REMARK UNBOUND:                -1.983
REMARK SMILES C[C@H]1O[C@@H](OC[C@@H]2O[C@@H](Oc3c(-c4ccc(O)c(O)c4)oc4cc(O)cc(O)c4c3=O)[C@H](O)[C@@H](O)[C@@H]2O)[C@H](O)[C@H](O)[C@@H]1O
REMARK SMILES IDX 7 1 36 2 34 3 32 4 9 5 8 6 6 7 5 8 4 9 1 10 2 11 42 12 3 13
REMARK SMILES IDX 40 14 38 15 43 16 41 18 39 20 37 22 35 24 10 26 11 27 12 28
REMARK SMILES IDX 30 29 21 30 29 31 31 32 22 33 27 34 23 35 26 36 24 37 13 38
REMARK SMILES IDX 20 39 14 40 18 41 15 42 16 43 19 44 17 46 28 48 25 50 33 52
REMARK H PARENT 43 17 41 19 39 21 37 23 35 25 19 45 17 47 28 49 25 51 33 53
REMARK Flexibility Score: inf
ROOT
ATOM      1  C   UNL     1      49.040  22.687  21.658  1.00  0.00     0.180 C 
ATOM      2  C   UNL     1      47.586  23.197  21.970  1.00  0.00     0.177 C 
ATOM      3  C   UNL     1      47.798  24.559  22.703  1.00  0.00     0.180 C 
ATOM      4  C   UNL     1      48.698  25.565  21.974  1.00  0.00     0.214 C 
ATOM      5  C   UNL     1      49.456  24.901  20.813  1.00  0.00     0.339 C 
ATOM      6  O   UNL     1      50.027  23.710  21.352  1.00  0.00    -0.332 OA
ENDROOT
BRANCH   1   7
ATOM      7  C   UNL     1      49.588  21.931  22.910  1.00  0.00     0.198 C 
BRANCH   7   8
ATOM      8  O   UNL     1      50.464  22.758  23.730  1.00  0.00    -0.347 OA
BRANCH   8   9
ATOM      9  C   UNL     1      50.018  23.078  25.091  1.00  0.00     0.281 C 
ATOM     10  C   UNL     1      46.756  23.046  26.026  1.00  0.00     0.041 C 
ATOM     11  C   UNL     1      48.141  22.572  26.599  1.00  0.00     0.150 C 
ATOM     12  C   UNL     1      48.795  23.481  27.572  1.00  0.00     0.174 C 
ATOM     13  O   UNL     1      48.927  22.227  25.415  1.00  0.00    -0.344 OA
ATOM     14  C   UNL     1      49.164  24.820  26.951  1.00  0.00     0.179 C 
ATOM     15  C   UNL     1      49.880  24.594  25.574  1.00  0.00     0.202 C 
BRANCH  12  16
ATOM     16  O   UNL     1      49.980  22.840  28.101  1.00  0.00    -0.388 OA
ATOM     17  H   UNL     1      49.731  22.613  29.050  1.00  0.00     0.211 HD
ENDBRANCH  12  16
BRANCH  14  18
ATOM     18  O   UNL     1      49.971  25.587  27.905  1.00  0.00    -0.387 OA
ATOM     19  H   UNL     1      50.395  24.966  28.485  1.00  0.00     0.211 HD
ENDBRANCH  14  18
BRANCH  15  20
ATOM     20  O   UNL     1      51.163  25.187  25.543  1.00  0.00    -0.385 OA
ATOM     21  H   UNL     1      51.064  26.125  26.011  1.00  0.00     0.211 HD
ENDBRANCH  15  20
ENDBRANCH   8   9
ENDBRANCH   7   8
ENDBRANCH   1   7
BRANCH   2  22
ATOM     22  O   UNL     1      46.963  22.244  22.722  1.00  0.00    -0.387 OA
ATOM     23  H   UNL     1      47.614  21.684  23.125  1.00  0.00     0.211 HD
ENDBRANCH   2  22
BRANCH   3  24
ATOM     24  O   UNL     1      46.628  25.242  23.121  1.00  0.00    -0.387 OA
ATOM     25  H   UNL     1      46.300  24.937  24.088  1.00  0.00     0.211 HD
ENDBRANCH   3  24
BRANCH   5  26
ATOM     26  O   UNL     1      48.607  24.664  19.665  1.00  0.00    -0.454 OA
BRANCH  26  27
ATOM     27  C   UNL     1      47.715  25.497  18.962  1.00  0.00     0.214 A 
ATOM     28  C   UNL     1      48.223  26.597  18.114  1.00  0.00     0.180 A 
ATOM     29  C   UNL     1      46.315  25.452  19.014  1.00  0.00     0.239 A 
ATOM     30  O   UNL     1      47.450  27.229  17.274  1.00  0.00    -0.452 OA
ATOM     31  C   UNL     1      45.463  26.318  18.245  1.00  0.00     0.111 A 
ATOM     32  O   UNL     1      45.761  24.618  19.767  1.00  0.00    -0.285 OA
ATOM     33  C   UNL     1      46.141  27.149  17.287  1.00  0.00     0.146 A 
ATOM     34  C   UNL     1      44.073  26.380  18.295  1.00  0.00     0.134 A 
ATOM     35  C   UNL     1      45.403  27.906  16.329  1.00  0.00     0.094 A 
ATOM     36  C   UNL     1      43.379  27.305  17.415  1.00  0.00     0.093 A 
ATOM     37  C   UNL     1      44.053  27.903  16.369  1.00  0.00     0.123 A 
BRANCH  28  38
ATOM     38  C   UNL     1      49.622  27.106  18.247  1.00  0.00     0.025 A 
ATOM     39  C   UNL     1      50.018  27.776  19.451  1.00  0.00     0.062 A 
ATOM     40  C   UNL     1      50.620  26.665  17.359  1.00  0.00     0.016 A 
ATOM     41  C   UNL     1      51.360  27.996  19.645  1.00  0.00     0.158 A 
ATOM     42  C   UNL     1      51.963  26.994  17.656  1.00  0.00     0.051 A 
ATOM     43  C   UNL     1      52.174  27.145  19.001  1.00  0.00     0.157 A 
BRANCH  41  44
ATOM     44  O   UNL     1      51.823  29.151  20.326  1.00  0.00    -0.504 OA
ATOM     45  H   UNL     1      51.269  29.495  21.121  1.00  0.00     0.293 HD
ENDBRANCH  41  44
BRANCH  43  46
ATOM     46  O   UNL     1      52.529  25.881  19.538  1.00  0.00    -0.504 OA
ATOM     47  H   UNL     1      53.261  25.331  19.140  1.00  0.00     0.293 HD
ENDBRANCH  43  46
ENDBRANCH  28  38
BRANCH  34  48
ATOM     48  O   UNL     1      43.373  25.560  19.153  1.00  0.00    -0.507 OA
ATOM     49  H   UNL     1      42.431  25.236  18.978  1.00  0.00     0.293 HD
ENDBRANCH  34  48
BRANCH  37  50
ATOM     50  O   UNL     1      43.270  28.571  15.394  1.00  0.00    -0.508 OA
ATOM     51  H   UNL     1      43.706  29.198  14.707  1.00  0.00     0.293 HD
ENDBRANCH  37  50
ENDBRANCH  26  27
ENDBRANCH   5  26
BRANCH   4  52
ATOM     52  O   UNL     1      49.699  26.124  22.909  1.00  0.00    -0.384 OA
ATOM     53  H   UNL     1      49.274  26.867  23.404  1.00  0.00     0.211 HD
ENDBRANCH   4  52
TORSDOF 16
ENDMDL
MODEL 8
REMARK VINA RESULT:    -6.526      6.512     10.960
REMARK INTER + INTRA:         -12.706
REMARK INTER:                 -10.637
REMARK INTRA:                  -2.069
REMARK UNBOUND:                -1.983
REMARK SMILES C[C@H]1O[C@@H](OC[C@@H]2O[C@@H](Oc3c(-c4ccc(O)c(O)c4)oc4cc(O)cc(O)c4c3=O)[C@H](O)[C@@H](O)[C@@H]2O)[C@H](O)[C@H](O)[C@@H]1O
REMARK SMILES IDX 7 1 36 2 34 3 32 4 9 5 8 6 6 7 5 8 4 9 1 10 2 11 42 12 3 13
REMARK SMILES IDX 40 14 38 15 43 16 41 18 39 20 37 22 35 24 10 26 11 27 12 28
REMARK SMILES IDX 30 29 21 30 29 31 31 32 22 33 27 34 23 35 26 36 24 37 13 38
REMARK SMILES IDX 20 39 14 40 18 41 15 42 16 43 19 44 17 46 28 48 25 50 33 52
REMARK H PARENT 43 17 41 19 39 21 37 23 35 25 19 45 17 47 28 49 25 51 33 53
REMARK Flexibility Score: inf
ROOT
ATOM      1  C   UNL     1      52.904  29.340  16.105  1.00  0.00     0.180 C 
ATOM      2  C   UNL     1      53.345  28.237  15.074  1.00  0.00     0.177 C 
ATOM      3  C   UNL     1      53.828  27.045  15.959  1.00  0.00     0.180 C 
ATOM      4  C   UNL     1      52.834  26.575  17.029  1.00  0.00     0.214 C 
ATOM      5  C   UNL     1      51.687  27.583  17.210  1.00  0.00     0.339 C 
ATOM      6  O   UNL     1      52.308  28.860  17.341  1.00  0.00    -0.332 OA
ENDROOT
BRANCH   1   7
ATOM      7  C   UNL     1      54.162  30.162  16.531  1.00  0.00     0.198 C 
BRANCH   7   8
ATOM      8  O   UNL     1      54.410  30.108  17.966  1.00  0.00    -0.347 OA
BRANCH   8   9
ATOM      9  C   UNL     1      54.436  31.379  18.700  1.00  0.00     0.281 C 
ATOM     10  C   UNL     1      57.125  33.448  18.725  1.00  0.00     0.041 C 
ATOM     11  C   UNL     1      55.563  33.563  18.595  1.00  0.00     0.150 C 
ATOM     12  C   UNL     1      54.824  33.903  19.836  1.00  0.00     0.174 C 
ATOM     13  O   UNL     1      55.160  32.327  17.927  1.00  0.00    -0.344 OA
ATOM     14  C   UNL     1      54.962  32.827  20.902  1.00  0.00     0.179 C 
ATOM     15  C   UNL     1      54.713  31.412  20.273  1.00  0.00     0.202 C 
BRANCH  12  16
ATOM     16  O   UNL     1      53.426  34.105  19.518  1.00  0.00    -0.388 OA
ATOM     17  H   UNL     1      53.443  34.557  18.619  1.00  0.00     0.211 HD
ENDBRANCH  12  16
BRANCH  14  18
ATOM     18  O   UNL     1      54.060  33.133  22.016  1.00  0.00    -0.387 OA
ATOM     19  H   UNL     1      54.555  33.632  22.655  1.00  0.00     0.211 HD
ENDBRANCH  14  18
BRANCH  15  20
ATOM     20  O   UNL     1      53.661  30.724  20.921  1.00  0.00    -0.385 OA
ATOM     21  H   UNL     1      53.142  31.447  21.484  1.00  0.00     0.211 HD
ENDBRANCH  15  20
ENDBRANCH   8   9
ENDBRANCH   7   8
ENDBRANCH   1   7
BRANCH   2  22
ATOM     22  O   UNL     1      54.313  28.775  14.277  1.00  0.00    -0.387 OA
ATOM     23  H   UNL     1      54.621  28.116  13.667  1.00  0.00     0.211 HD
ENDBRANCH   2  22
BRANCH   3  24
ATOM     24  O   UNL     1      54.305  25.900  15.273  1.00  0.00    -0.387 OA
ATOM     25  H   UNL     1      55.156  25.465  15.746  1.00  0.00     0.211 HD
ENDBRANCH   3  24
BRANCH   5  26
ATOM     26  O   UNL     1      50.724  27.520  16.132  1.00  0.00    -0.454 OA
BRANCH  26  27
ATOM     27  C   UNL     1      49.346  27.807  16.078  1.00  0.00     0.214 A 
ATOM     28  C   UNL     1      48.847  28.951  15.284  1.00  0.00     0.180 A 
ATOM     29  C   UNL     1      48.327  27.141  16.773  1.00  0.00     0.239 A 
ATOM     30  O   UNL     1      47.577  29.103  15.024  1.00  0.00    -0.452 OA
ATOM     31  C   UNL     1      46.933  27.472  16.649  1.00  0.00     0.111 A 
ATOM     32  O   UNL     1      48.632  26.207  17.549  1.00  0.00    -0.285 OA
ATOM     33  C   UNL     1      46.623  28.445  15.636  1.00  0.00     0.146 A 
ATOM     34  C   UNL     1      45.876  26.905  17.355  1.00  0.00     0.134 A 
ATOM     35  C   UNL     1      45.270  28.715  15.276  1.00  0.00     0.094 A 
ATOM     36  C   UNL     1      44.523  27.350  17.071  1.00  0.00     0.093 A 
ATOM     37  C   UNL     1      44.265  28.108  15.945  1.00  0.00     0.123 A 
BRANCH  28  38
ATOM     38  C   UNL     1      49.759  30.044  14.827  1.00  0.00     0.025 A 
ATOM     39  C   UNL     1      50.233  30.048  13.474  1.00  0.00     0.062 A 
ATOM     40  C   UNL     1      49.899  31.213  15.596  1.00  0.00     0.016 A 
ATOM     41  C   UNL     1      50.848  31.188  13.019  1.00  0.00     0.158 A 
ATOM     42  C   UNL     1      50.591  32.304  15.022  1.00  0.00     0.051 A 
ATOM     43  C   UNL     1      50.497  32.316  13.654  1.00  0.00     0.157 A 
BRANCH  41  44
ATOM     44  O   UNL     1      51.906  31.124  12.076  1.00  0.00    -0.504 OA
ATOM     45  H   UNL     1      52.747  30.589  12.331  1.00  0.00     0.293 HD
ENDBRANCH  41  44
BRANCH  43  46
ATOM     46  O   UNL     1      49.343  33.060  13.297  1.00  0.00    -0.504 OA
ATOM     47  H   UNL     1      49.163  33.964  13.683  1.00  0.00     0.293 HD
ENDBRANCH  43  46
ENDBRANCH  28  38
BRANCH  34  48
ATOM     48  O   UNL     1      46.115  25.924  18.294  1.00  0.00    -0.507 OA
ATOM     49  H   UNL     1      46.007  26.061  19.289  1.00  0.00     0.293 HD
ENDBRANCH  34  48
BRANCH  37  50
ATOM     50  O   UNL     1      42.907  28.276  15.577  1.00  0.00    -0.508 OA
ATOM     51  H   UNL     1      42.412  27.552  15.041  1.00  0.00     0.293 HD
ENDBRANCH  37  50
ENDBRANCH  26  27
ENDBRANCH   5  26
BRANCH   4  52
ATOM     52  O   UNL     1      53.519  26.428  18.331  1.00  0.00    -0.384 OA
ATOM     53  H   UNL     1      53.566  25.464  18.546  1.00  0.00     0.211 HD
ENDBRANCH   4  52
TORSDOF 16
ENDMDL
