MODEL 1
REMARK VINA RESULT:     6.267      0.000      0.000
REMARK INTER + INTRA:           7.239
REMARK INTER:                   7.550
REMARK INTRA:                  -0.310
REMARK UNBOUND:                -0.310
REMARK SMILES O=c1c(O)c(-c2ccc(O)c(O)c2)oc2cc(O)cc(O)c12
REMARK SMILES IDX 5 1 3 2 2 3 1 4 22 5 20 6 19 7 17 8 16 9 15 10 14 11 6 12
REMARK SMILES IDX 7 13 8 14 9 15 13 16 11 17 10 18 12 20 4 22 21 24 18 26
REMARK H PARENT 10 19 12 21 4 23 21 25 18 27
REMARK Flexibility Score: inf
ROOT
ATOM      1  C   UNL     1     -18.111  33.991  -9.485  1.00  0.00     0.180 A 
ATOM      2  C   UNL     1     -17.985  33.731 -10.860  1.00  0.00     0.208 A 
ATOM      3  C   UNL     1     -16.724  33.859 -11.465  1.00  0.00     0.238 A 
ATOM      4  O   UNL     1     -16.628  33.680 -12.707  1.00  0.00    -0.285 OA
ATOM      5  C   UNL     1     -15.602  34.228 -10.684  1.00  0.00     0.111 A 
ATOM      6  C   UNL     1     -14.271  34.347 -11.184  1.00  0.00     0.134 A 
ATOM      7  C   UNL     1     -13.262  34.845 -10.349  1.00  0.00     0.093 A 
ATOM      8  C   UNL     1     -13.522  35.165  -9.017  1.00  0.00     0.123 A 
ATOM      9  C   UNL     1     -14.808  34.995  -8.502  1.00  0.00     0.094 A 
ATOM     10  C   UNL     1     -15.843  34.535  -9.318  1.00  0.00     0.146 A 
ATOM     11  O   UNL     1     -17.054  34.398  -8.793  1.00  0.00    -0.452 OA
ENDROOT
BRANCH   1  12
ATOM     12  C   UNL     1     -19.402  33.854  -8.772  1.00  0.00     0.025 A 
ATOM     13  C   UNL     1     -19.718  32.690  -8.049  1.00  0.00     0.016 A 
ATOM     14  C   UNL     1     -20.932  32.593  -7.364  1.00  0.00     0.051 A 
ATOM     15  C   UNL     1     -21.841  33.655  -7.379  1.00  0.00     0.157 A 
ATOM     16  C   UNL     1     -20.308  34.927  -8.768  1.00  0.00     0.062 A 
ATOM     17  C   UNL     1     -21.528  34.830  -8.082  1.00  0.00     0.158 A 
BRANCH  15  18
ATOM     18  O   UNL     1     -23.045  33.526  -6.688  1.00  0.00    -0.504 OA
ATOM     19  H   UNL     1     -23.822  34.160  -6.838  1.00  0.00     0.293 HD
ENDBRANCH  15  18
BRANCH  17  20
ATOM     20  O   UNL     1     -22.425  35.896  -8.095  1.00  0.00    -0.504 OA
ATOM     21  H   UNL     1     -23.420  35.751  -8.228  1.00  0.00     0.293 HD
ENDBRANCH  17  20
ENDBRANCH   1  12
BRANCH   2  22
ATOM     22  O   UNL     1     -19.109  33.391 -11.618  1.00  0.00    -0.502 OA
ATOM     23  H   UNL     1     -20.049  33.421 -11.242  1.00  0.00     0.293 HD
ENDBRANCH   2  22
BRANCH   6  24
ATOM     24  O   UNL     1     -13.883  33.968 -12.472  1.00  0.00    -0.507 OA
ATOM     25  H   UNL     1     -14.368  34.227 -13.317  1.00  0.00     0.293 HD
ENDBRANCH   6  24
BRANCH   8  26
ATOM     26  O   UNL     1     -12.491  35.643  -8.211  1.00  0.00    -0.508 OA
ATOM     27  H   UNL     1     -11.522  35.588  -8.503  1.00  0.00     0.293 HD
ENDBRANCH   8  26
TORSDOF 6
ENDMDL
MODEL 2
REMARK VINA RESULT:     8.379      1.543      3.139
REMARK INTER + INTRA:           9.783
REMARK INTER:                  10.022
REMARK INTRA:                  -0.239
REMARK UNBOUND:                -0.310
REMARK SMILES O=c1c(O)c(-c2ccc(O)c(O)c2)oc2cc(O)cc(O)c12
REMARK SMILES IDX 5 1 3 2 2 3 1 4 22 5 20 6 19 7 17 8 16 9 15 10 14 11 6 12
REMARK SMILES IDX 7 13 8 14 9 15 13 16 11 17 10 18 12 20 4 22 21 24 18 26
REMARK H PARENT 10 19 12 21 4 23 21 25 18 27
REMARK Flexibility Score: inf
ROOT
ATOM      1  C   UNL     1     -18.983  33.907  -9.102  1.00  0.00     0.180 A 
ATOM      2  C   UNL     1     -17.806  33.993  -8.337  1.00  0.00     0.208 A 
ATOM      3  C   UNL     1     -16.565  33.977  -8.995  1.00  0.00     0.238 A 
ATOM      4  O   UNL     1     -15.515  33.998  -8.302  1.00  0.00    -0.285 OA
ATOM      5  C   UNL     1     -16.516  33.893 -10.407  1.00  0.00     0.111 A 
ATOM      6  C   UNL     1     -15.316  33.910 -11.178  1.00  0.00     0.134 A 
ATOM      7  C   UNL     1     -15.380  33.690 -12.560  1.00  0.00     0.093 A 
ATOM      8  C   UNL     1     -16.604  33.520 -13.206  1.00  0.00     0.123 A 
ATOM      9  C   UNL     1     -17.788  33.560 -12.469  1.00  0.00     0.094 A 
ATOM     10  C   UNL     1     -17.755  33.742 -11.085  1.00  0.00     0.146 A 
ATOM     11  O   UNL     1     -18.903  33.764 -10.419  1.00  0.00    -0.452 OA
ENDROOT
BRANCH   1  12
ATOM     12  C   UNL     1     -20.328  33.943  -8.484  1.00  0.00     0.025 A 
ATOM     13  C   UNL     1     -20.826  32.851  -7.750  1.00  0.00     0.016 A 
ATOM     14  C   UNL     1     -22.088  32.917  -7.155  1.00  0.00     0.051 A 
ATOM     15  C   UNL     1     -22.867  34.072  -7.273  1.00  0.00     0.157 A 
ATOM     16  C   UNL     1     -21.104  35.109  -8.582  1.00  0.00     0.062 A 
ATOM     17  C   UNL     1     -22.373  35.176  -7.987  1.00  0.00     0.158 A 
BRANCH  15  18
ATOM     18  O   UNL     1     -24.124  34.106  -6.670  1.00  0.00    -0.504 OA
ATOM     19  H   UNL     1     -24.240  34.060  -5.665  1.00  0.00     0.293 HD
ENDBRANCH  15  18
BRANCH  17  20
ATOM     20  O   UNL     1     -23.140  36.334  -8.102  1.00  0.00    -0.504 OA
ATOM     21  H   UNL     1     -23.151  37.038  -7.372  1.00  0.00     0.293 HD
ENDBRANCH  17  20
ENDBRANCH   1  12
BRANCH   2  22
ATOM     22  O   UNL     1     -17.876  34.051  -6.943  1.00  0.00    -0.502 OA
ATOM     23  H   UNL     1     -17.358  34.731  -6.400  1.00  0.00     0.293 HD
ENDBRANCH   2  22
BRANCH   6  24
ATOM     24  O   UNL     1     -14.049  34.165 -10.646  1.00  0.00    -0.507 OA
ATOM     25  H   UNL     1     -13.429  34.895 -10.961  1.00  0.00     0.293 HD
ENDBRANCH   6  24
BRANCH   8  26
ATOM     26  O   UNL     1     -16.631  33.318 -14.584  1.00  0.00    -0.508 OA
ATOM     27  H   UNL     1     -17.505  33.223 -15.088  1.00  0.00     0.293 HD
ENDBRANCH   8  26
TORSDOF 6
ENDMDL
MODEL 3
REMARK VINA RESULT:     8.384      8.508     11.246
REMARK INTER + INTRA:           9.789
REMARK INTER:                  10.120
REMARK INTRA:                  -0.331
REMARK UNBOUND:                -0.310
REMARK SMILES O=c1c(O)c(-c2ccc(O)c(O)c2)oc2cc(O)cc(O)c12
REMARK SMILES IDX 5 1 3 2 2 3 1 4 22 5 20 6 19 7 17 8 16 9 15 10 14 11 6 12
REMARK SMILES IDX 7 13 8 14 9 15 13 16 11 17 10 18 12 20 4 22 21 24 18 26
REMARK H PARENT 10 19 12 21 4 23 21 25 18 27
REMARK Flexibility Score: inf
ROOT
ATOM      1  C   UNL     1     -22.108  25.690  -7.704  1.00  0.00     0.180 A 
ATOM      2  C   UNL     1     -20.852  25.066  -7.617  1.00  0.00     0.208 A 
ATOM      3  C   UNL     1     -20.443  24.528  -6.385  1.00  0.00     0.238 A 
ATOM      4  O   UNL     1     -19.295  24.020  -6.298  1.00  0.00    -0.285 OA
ATOM      5  C   UNL     1     -21.303  24.607  -5.262  1.00  0.00     0.111 A 
ATOM      6  C   UNL     1     -21.008  24.061  -3.977  1.00  0.00     0.134 A 
ATOM      7  C   UNL     1     -21.875  24.311  -2.906  1.00  0.00     0.093 A 
ATOM      8  C   UNL     1     -23.055  25.030  -3.086  1.00  0.00     0.123 A 
ATOM      9  C   UNL     1     -23.382  25.519  -4.353  1.00  0.00     0.094 A 
ATOM     10  C   UNL     1     -22.521  25.316  -5.433  1.00  0.00     0.146 A 
ATOM     11  O   UNL     1     -22.863  25.805  -6.619  1.00  0.00    -0.452 OA
ENDROOT
BRANCH   1  12
ATOM     12  C   UNL     1     -22.618  26.258  -8.973  1.00  0.00     0.025 A 
ATOM     13  C   UNL     1     -23.373  25.482  -9.871  1.00  0.00     0.016 A 
ATOM     14  C   UNL     1     -23.865  26.046 -11.051  1.00  0.00     0.051 A 
ATOM     15  C   UNL     1     -23.623  27.391 -11.347  1.00  0.00     0.157 A 
ATOM     16  C   UNL     1     -22.394  27.613  -9.264  1.00  0.00     0.062 A 
ATOM     17  C   UNL     1     -22.886  28.180 -10.449  1.00  0.00     0.158 A 
BRANCH  15  18
ATOM     18  O   UNL     1     -24.125  27.924 -12.535  1.00  0.00    -0.504 OA
ATOM     19  H   UNL     1     -23.572  28.535 -13.125  1.00  0.00     0.293 HD
ENDBRANCH  15  18
BRANCH  17  20
ATOM     20  O   UNL     1     -22.648  29.524 -10.735  1.00  0.00    -0.504 OA
ATOM     21  H   UNL     1     -23.223  30.261 -10.342  1.00  0.00     0.293 HD
ENDBRANCH  17  20
ENDBRANCH   1  12
BRANCH   2  22
ATOM     22  O   UNL     1     -20.009  25.019  -8.730  1.00  0.00    -0.502 OA
ATOM     23  H   UNL     1     -20.320  24.685  -9.634  1.00  0.00     0.293 HD
ENDBRANCH   2  22
BRANCH   6  24
ATOM     24  O   UNL     1     -19.902  23.249  -3.708  1.00  0.00    -0.507 OA
ATOM     25  H   UNL     1     -19.776  22.314  -4.064  1.00  0.00     0.293 HD
ENDBRANCH   6  24
BRANCH   8  26
ATOM     26  O   UNL     1     -23.901  25.248  -2.002  1.00  0.00    -0.508 OA
ATOM     27  H   UNL     1     -23.545  25.298  -1.054  1.00  0.00     0.293 HD
ENDBRANCH   8  26
TORSDOF 6
ENDMDL
MODEL 4
REMARK VINA RESULT:     9.238      1.749      7.301
REMARK INTER + INTRA:          10.818
REMARK INTER:                  11.004
REMARK INTRA:                  -0.187
REMARK UNBOUND:                -0.310
REMARK SMILES O=c1c(O)c(-c2ccc(O)c(O)c2)oc2cc(O)cc(O)c12
REMARK SMILES IDX 5 1 3 2 2 3 1 4 22 5 20 6 19 7 17 8 16 9 15 10 14 11 6 12
REMARK SMILES IDX 7 13 8 14 9 15 13 16 11 17 10 18 12 20 4 22 21 24 18 26
REMARK H PARENT 10 19 12 21 4 23 21 25 18 27
REMARK Flexibility Score: inf
ROOT
ATOM      1  C   UNL     1     -19.451  34.197  -9.040  1.00  0.00     0.180 A 
ATOM      2  C   UNL     1     -19.964  33.179  -8.219  1.00  0.00     0.208 A 
ATOM      3  C   UNL     1     -21.256  33.321  -7.685  1.00  0.00     0.238 A 
ATOM      4  O   UNL     1     -21.689  32.433  -6.906  1.00  0.00    -0.285 OA
ATOM      5  C   UNL     1     -22.022  34.472  -7.992  1.00  0.00     0.111 A 
ATOM      6  C   UNL     1     -23.356  34.701  -7.538  1.00  0.00     0.134 A 
ATOM      7  C   UNL     1     -23.970  35.932  -7.796  1.00  0.00     0.093 A 
ATOM      8  C   UNL     1     -23.326  36.916  -8.545  1.00  0.00     0.123 A 
ATOM      9  C   UNL     1     -22.044  36.679  -9.044  1.00  0.00     0.094 A 
ATOM     10  C   UNL     1     -21.391  35.475  -8.773  1.00  0.00     0.146 A 
ATOM     11  O   UNL     1     -20.168  35.292  -9.257  1.00  0.00    -0.452 OA
ENDROOT
BRANCH   1  12
ATOM     12  C   UNL     1     -18.109  34.107  -9.660  1.00  0.00     0.025 A 
ATOM     13  C   UNL     1     -16.939  34.138  -8.881  1.00  0.00     0.016 A 
ATOM     14  C   UNL     1     -15.685  34.028  -9.487  1.00  0.00     0.051 A 
ATOM     15  C   UNL     1     -15.578  33.873 -10.872  1.00  0.00     0.157 A 
ATOM     16  C   UNL     1     -17.999  33.931 -11.049  1.00  0.00     0.062 A 
ATOM     17  C   UNL     1     -16.740  33.821 -11.659  1.00  0.00     0.158 A 
BRANCH  15  18
ATOM     18  O   UNL     1     -14.311  33.768 -11.447  1.00  0.00    -0.504 OA
ATOM     19  H   UNL     1     -13.589  33.178 -11.051  1.00  0.00     0.293 HD
ENDBRANCH  15  18
BRANCH  17  20
ATOM     20  O   UNL     1     -16.642  33.659 -13.040  1.00  0.00    -0.504 OA
ATOM     21  H   UNL     1     -15.763  33.788 -13.528  1.00  0.00     0.293 HD
ENDBRANCH  17  20
ENDBRANCH   1  12
BRANCH   2  22
ATOM     22  O   UNL     1     -19.183  32.063  -7.910  1.00  0.00    -0.502 OA
ATOM     23  H   UNL     1     -19.570  31.130  -7.835  1.00  0.00     0.293 HD
ENDBRANCH   2  22
BRANCH   6  24
ATOM     24  O   UNL     1     -24.125  33.750  -6.861  1.00  0.00    -0.507 OA
ATOM     25  H   UNL     1     -24.107  32.759  -7.047  1.00  0.00     0.293 HD
ENDBRANCH   6  24
BRANCH   8  26
ATOM     26  O   UNL     1     -23.973  38.124  -8.795  1.00  0.00    -0.508 OA
ATOM     27  H   UNL     1     -23.459  38.954  -9.067  1.00  0.00     0.293 HD
ENDBRANCH   8  26
TORSDOF 6
ENDMDL
