MODEL 1
REMARK VINA RESULT:    -5.793      0.000      0.000
REMARK INTER + INTRA:          -6.779
REMARK INTER:                  -6.640
REMARK INTRA:                  -0.139
REMARK UNBOUND:                -0.139
REMARK SMILES O=C([O-])C=Cc1ccc(O)cc1
REMARK SMILES IDX 6 1 7 2 12 3 8 4 11 5 9 6 5 7 4 8 2 9 1 10 3 11 10 12
REMARK H PARENT 10 13
REMARK Flexibility Score: inf
ROOT
ATOM      1  C   UNL     1     -13.089  62.259  38.969  1.00  0.00    -0.025 A 
ATOM      2  C   UNL     1     -12.935  60.865  39.044  1.00  0.00     0.012 A 
ATOM      3  C   UNL     1     -14.356  62.787  38.642  1.00  0.00     0.012 A 
ATOM      4  C   UNL     1     -14.012  60.015  38.773  1.00  0.00     0.047 A 
ATOM      5  C   UNL     1     -15.430  61.933  38.374  1.00  0.00     0.047 A 
ATOM      6  C   UNL     1     -15.259  60.545  38.435  1.00  0.00     0.115 A 
ENDROOT
BRANCH   1   7
ATOM      7  C   UNL     1     -11.919  63.120  39.274  1.00  0.00     0.010 C 
ATOM      8  C   UNL     1     -10.747  63.041  38.628  1.00  0.00     0.025 C 
BRANCH   8   9
ATOM      9  C   UNL     1      -9.604  63.905  38.967  1.00  0.00     0.064 C 
ATOM     10  O   UNL     1      -9.310  64.907  38.263  1.00  0.00    -0.545 OA
ATOM     11  O   UNL     1      -8.832  63.608  40.084  1.00  0.00    -0.545 OA
ENDBRANCH   8   9
ENDBRANCH   1   7
BRANCH   6  12
ATOM     12  O   UNL     1     -16.323  59.686  38.169  1.00  0.00    -0.508 OA
ATOM     13  H   UNL     1     -16.314  59.063  37.369  1.00  0.00     0.293 HD
ENDBRANCH   6  12
TORSDOF 3
ENDMDL
MODEL 2
REMARK VINA RESULT:    -5.686     15.551     17.113
REMARK INTER + INTRA:          -6.656
REMARK INTER:                  -6.517
REMARK INTRA:                  -0.140
REMARK UNBOUND:                -0.139
REMARK SMILES O=C([O-])C=Cc1ccc(O)cc1
REMARK SMILES IDX 6 1 7 2 12 3 8 4 11 5 9 6 5 7 4 8 2 9 1 10 3 11 10 12
REMARK H PARENT 10 13
REMARK Flexibility Score: inf
ROOT
ATOM      1  C   UNL     1      -6.780  62.177  53.709  1.00  0.00    -0.025 A 
ATOM      2  C   UNL     1      -7.833  62.975  54.187  1.00  0.00     0.012 A 
ATOM      3  C   UNL     1      -5.995  62.656  52.640  1.00  0.00     0.012 A 
ATOM      4  C   UNL     1      -8.115  64.210  53.595  1.00  0.00     0.047 A 
ATOM      5  C   UNL     1      -6.279  63.892  52.052  1.00  0.00     0.047 A 
ATOM      6  C   UNL     1      -7.342  64.671  52.526  1.00  0.00     0.115 A 
ENDROOT
BRANCH   1   7
ATOM      7  C   UNL     1      -6.515  60.879  54.376  1.00  0.00     0.010 C 
ATOM      8  C   UNL     1      -6.088  60.764  55.643  1.00  0.00     0.025 C 
BRANCH   8   9
ATOM      9  C   UNL     1      -5.824  59.457  56.268  1.00  0.00     0.064 C 
ATOM     10  O   UNL     1      -6.630  58.497  56.138  1.00  0.00    -0.545 OA
ATOM     11  O   UNL     1      -4.668  59.280  57.015  1.00  0.00    -0.545 OA
ENDBRANCH   8   9
ENDBRANCH   1   7
BRANCH   6  12
ATOM     12  O   UNL     1      -7.634  65.903  51.946  1.00  0.00    -0.508 OA
ATOM     13  H   UNL     1      -8.554  66.321  52.024  1.00  0.00     0.293 HD
ENDBRANCH   6  12
TORSDOF 3
ENDMDL
MODEL 3
REMARK VINA RESULT:    -5.678     16.287     17.705
REMARK INTER + INTRA:          -6.647
REMARK INTER:                  -6.502
REMARK INTRA:                  -0.146
REMARK UNBOUND:                -0.139
REMARK SMILES O=C([O-])C=Cc1ccc(O)cc1
REMARK SMILES IDX 6 1 7 2 12 3 8 4 11 5 9 6 5 7 4 8 2 9 1 10 3 11 10 12
REMARK H PARENT 10 13
REMARK Flexibility Score: inf
ROOT
ATOM      1  C   UNL     1      -6.168  61.561  54.266  1.00  0.00    -0.025 A 
ATOM      2  C   UNL     1      -7.351  61.959  54.912  1.00  0.00     0.012 A 
ATOM      3  C   UNL     1      -5.762  62.251  53.105  1.00  0.00     0.012 A 
ATOM      4  C   UNL     1      -8.126  63.003  54.397  1.00  0.00     0.047 A 
ATOM      5  C   UNL     1      -6.539  63.295  52.595  1.00  0.00     0.047 A 
ATOM      6  C   UNL     1      -7.725  63.671  53.238  1.00  0.00     0.115 A 
ENDROOT
BRANCH   1   7
ATOM      7  C   UNL     1      -5.375  60.454  54.856  1.00  0.00     0.010 C 
ATOM      8  C   UNL     1      -5.060  60.374  56.157  1.00  0.00     0.025 C 
BRANCH   8   9
ATOM      9  C   UNL     1      -4.260  59.265  56.704  1.00  0.00     0.064 C 
ATOM     10  O   UNL     1      -3.978  58.255  56.004  1.00  0.00    -0.545 OA
ATOM     11  O   UNL     1      -3.810  59.331  58.016  1.00  0.00    -0.545 OA
ENDBRANCH   8   9
ENDBRANCH   1   7
BRANCH   6  12
ATOM     12  O   UNL     1      -8.506  64.710  52.737  1.00  0.00    -0.508 OA
ATOM     13  H   UNL     1      -8.479  65.638  53.144  1.00  0.00     0.293 HD
ENDBRANCH   6  12
TORSDOF 3
ENDMDL
MODEL 4
REMARK VINA RESULT:    -5.593      2.165      5.593
REMARK INTER + INTRA:          -6.549
REMARK INTER:                  -6.396
REMARK INTRA:                  -0.153
REMARK UNBOUND:                -0.139
REMARK SMILES O=C([O-])C=Cc1ccc(O)cc1
REMARK SMILES IDX 6 1 7 2 12 3 8 4 11 5 9 6 5 7 4 8 2 9 1 10 3 11 10 12
REMARK H PARENT 10 13
REMARK Flexibility Score: inf
ROOT
ATOM      1  C   UNL     1     -13.555  61.814  39.119  1.00  0.00    -0.025 A 
ATOM      2  C   UNL     1     -13.448  60.551  39.725  1.00  0.00     0.012 A 
ATOM      3  C   UNL     1     -12.401  62.619  39.018  1.00  0.00     0.012 A 
ATOM      4  C   UNL     1     -12.226  60.110  40.242  1.00  0.00     0.047 A 
ATOM      5  C   UNL     1     -11.181  62.174  39.535  1.00  0.00     0.047 A 
ATOM      6  C   UNL     1     -11.091  60.920  40.151  1.00  0.00     0.115 A 
ENDROOT
BRANCH   1   7
ATOM      7  C   UNL     1     -14.871  62.232  38.577  1.00  0.00     0.010 C 
ATOM      8  C   UNL     1     -15.994  61.510  38.704  1.00  0.00     0.025 C 
BRANCH   8   9
ATOM      9  C   UNL     1     -17.281  61.953  38.142  1.00  0.00     0.064 C 
ATOM     10  O   UNL     1     -18.203  61.131  37.893  1.00  0.00    -0.545 OA
ATOM     11  O   UNL     1     -17.481  63.302  37.879  1.00  0.00    -0.545 OA
ENDBRANCH   8   9
ENDBRANCH   1   7
BRANCH   6  12
ATOM     12  O   UNL     1      -9.880  60.469  40.670  1.00  0.00    -0.508 OA
ATOM     13  H   UNL     1      -9.741  59.497  40.924  1.00  0.00     0.293 HD
ENDBRANCH   6  12
TORSDOF 3
ENDMDL
MODEL 5
REMARK VINA RESULT:    -5.547      1.356      5.838
REMARK INTER + INTRA:          -6.497
REMARK INTER:                  -6.344
REMARK INTRA:                  -0.153
REMARK UNBOUND:                -0.139
REMARK SMILES O=C([O-])C=Cc1ccc(O)cc1
REMARK SMILES IDX 6 1 7 2 12 3 8 4 11 5 9 6 5 7 4 8 2 9 1 10 3 11 10 12
REMARK H PARENT 10 13
REMARK Flexibility Score: inf
ROOT
ATOM      1  C   UNL     1     -12.780  61.305  39.495  1.00  0.00    -0.025 A 
ATOM      2  C   UNL     1     -12.460  62.582  39.004  1.00  0.00     0.012 A 
ATOM      3  C   UNL     1     -11.797  60.584  40.204  1.00  0.00     0.012 A 
ATOM      4  C   UNL     1     -11.182  63.116  39.191  1.00  0.00     0.047 A 
ATOM      5  C   UNL     1     -10.521  61.123  40.391  1.00  0.00     0.047 A 
ATOM      6  C   UNL     1     -10.209  62.389  39.882  1.00  0.00     0.115 A 
ENDROOT
BRANCH   1   7
ATOM      7  C   UNL     1     -14.153  60.785  39.279  1.00  0.00     0.010 C 
ATOM      8  C   UNL     1     -15.107  61.453  38.616  1.00  0.00     0.025 C 
BRANCH   8   9
ATOM      9  C   UNL     1     -16.463  60.909  38.432  1.00  0.00     0.064 C 
ATOM     10  O   UNL     1     -17.372  61.589  37.884  1.00  0.00    -0.545 OA
ATOM     11  O   UNL     1     -16.747  59.622  38.872  1.00  0.00    -0.545 OA
ENDBRANCH   8   9
ENDBRANCH   1   7
BRANCH   6  12
ATOM     12  O   UNL     1      -8.940  62.934  40.061  1.00  0.00    -0.508 OA
ATOM     13  H   UNL     1      -8.521  63.543  39.367  1.00  0.00     0.293 HD
ENDBRANCH   6  12
TORSDOF 3
ENDMDL
MODEL 6
REMARK VINA RESULT:    -5.537     19.171     20.681
REMARK INTER + INTRA:          -6.485
REMARK INTER:                  -6.335
REMARK INTRA:                  -0.150
REMARK UNBOUND:                -0.139
REMARK SMILES O=C([O-])C=Cc1ccc(O)cc1
REMARK SMILES IDX 6 1 7 2 12 3 8 4 11 5 9 6 5 7 4 8 2 9 1 10 3 11 10 12
REMARK H PARENT 10 13
REMARK Flexibility Score: inf
ROOT
ATOM      1  C   UNL     1     -12.230  49.712  53.974  1.00  0.00    -0.025 A 
ATOM      2  C   UNL     1     -11.607  48.740  54.774  1.00  0.00     0.012 A 
ATOM      3  C   UNL     1     -11.479  50.829  53.554  1.00  0.00     0.012 A 
ATOM      4  C   UNL     1     -10.274  48.890  55.168  1.00  0.00     0.047 A 
ATOM      5  C   UNL     1     -10.146  50.974  53.948  1.00  0.00     0.047 A 
ATOM      6  C   UNL     1      -9.541  50.007  54.759  1.00  0.00     0.115 A 
ENDROOT
BRANCH   1   7
ATOM      7  C   UNL     1     -13.644  49.503  53.575  1.00  0.00     0.010 C 
ATOM      8  C   UNL     1     -14.194  48.295  53.385  1.00  0.00     0.025 C 
BRANCH   8   9
ATOM      9  C   UNL     1     -15.600  48.128  52.977  1.00  0.00     0.064 C 
ATOM     10  O   UNL     1     -16.413  49.089  53.027  1.00  0.00    -0.545 OA
ATOM     11  O   UNL     1     -16.037  46.888  52.531  1.00  0.00    -0.545 OA
ENDBRANCH   8   9
ENDBRANCH   1   7
BRANCH   6  12
ATOM     12  O   UNL     1      -8.214  50.143  55.159  1.00  0.00    -0.508 OA
ATOM     13  H   UNL     1      -7.455  49.730  54.628  1.00  0.00     0.293 HD
ENDBRANCH   6  12
TORSDOF 3
ENDMDL
MODEL 7
REMARK VINA RESULT:    -5.425      2.468      6.236
REMARK INTER + INTRA:          -6.357
REMARK INTER:                  -6.218
REMARK INTRA:                  -0.139
REMARK UNBOUND:                -0.139
REMARK SMILES O=C([O-])C=Cc1ccc(O)cc1
REMARK SMILES IDX 6 1 7 2 12 3 8 4 11 5 9 6 5 7 4 8 2 9 1 10 3 11 10 12
REMARK H PARENT 10 13
REMARK Flexibility Score: inf
ROOT
ATOM      1  C   UNL     1     -10.203  63.045  39.145  1.00  0.00    -0.025 A 
ATOM      2  C   UNL     1     -10.006  63.794  37.973  1.00  0.00     0.012 A 
ATOM      3  C   UNL     1      -9.324  63.238  40.231  1.00  0.00     0.012 A 
ATOM      4  C   UNL     1      -8.941  64.695  37.875  1.00  0.00     0.047 A 
ATOM      5  C   UNL     1      -8.262  64.141  40.130  1.00  0.00     0.047 A 
ATOM      6  C   UNL     1      -8.066  64.869  38.950  1.00  0.00     0.115 A 
ENDROOT
BRANCH   1   7
ATOM      7  C   UNL     1     -11.353  62.108  39.204  1.00  0.00     0.010 C 
ATOM      8  C   UNL     1     -11.472  61.130  40.114  1.00  0.00     0.025 C 
BRANCH   8   9
ATOM      9  C   UNL     1     -12.623  60.212  40.133  1.00  0.00     0.064 C 
ATOM     10  O   UNL     1     -13.008  59.624  39.087  1.00  0.00    -0.545 OA
ATOM     11  O   UNL     1     -13.299  59.991  41.326  1.00  0.00    -0.545 OA
ENDBRANCH   8   9
ENDBRANCH   1   7
BRANCH   6  12
ATOM     12  O   UNL     1      -7.010  65.770  38.839  1.00  0.00    -0.508 OA
ATOM     13  H   UNL     1      -6.887  66.527  39.502  1.00  0.00     0.293 HD
ENDBRANCH   6  12
TORSDOF 3
ENDMDL
MODEL 8
REMARK VINA RESULT:    -5.383     19.722     20.628
REMARK INTER + INTRA:          -6.309
REMARK INTER:                  -6.175
REMARK INTRA:                  -0.134
REMARK UNBOUND:                -0.139
REMARK SMILES O=C([O-])C=Cc1ccc(O)cc1
REMARK SMILES IDX 6 1 7 2 12 3 8 4 11 5 9 6 5 7 4 8 2 9 1 10 3 11 10 12
REMARK H PARENT 10 13
REMARK Flexibility Score: inf
ROOT
ATOM      1  C   UNL     1      -9.621  49.680  54.769  1.00  0.00    -0.025 A 
ATOM      2  C   UNL     1     -10.578  48.707  55.103  1.00  0.00     0.012 A 
ATOM      3  C   UNL     1     -10.029  50.810  54.031  1.00  0.00     0.012 A 
ATOM      4  C   UNL     1     -11.906  48.845  54.688  1.00  0.00     0.047 A 
ATOM      5  C   UNL     1     -11.358  50.944  53.620  1.00  0.00     0.047 A 
ATOM      6  C   UNL     1     -12.299  49.960  53.945  1.00  0.00     0.115 A 
ENDROOT
BRANCH   1   7
ATOM      7  C   UNL     1      -8.226  49.494  55.240  1.00  0.00     0.010 C 
ATOM      8  C   UNL     1      -7.215  49.113  54.446  1.00  0.00     0.025 C 
BRANCH   8   9
ATOM      9  C   UNL     1      -5.845  48.928  54.953  1.00  0.00     0.064 C 
ATOM     10  O   UNL     1      -5.619  48.256  55.995  1.00  0.00    -0.545 OA
ATOM     11  O   UNL     1      -4.782  49.507  54.272  1.00  0.00    -0.545 OA
ENDBRANCH   8   9
ENDBRANCH   1   7
BRANCH   6  12
ATOM     12  O   UNL     1     -13.626  50.084  53.538  1.00  0.00    -0.508 OA
ATOM     13  H   UNL     1     -14.371  50.250  54.205  1.00  0.00     0.293 HD
ENDBRANCH   6  12
TORSDOF 3
ENDMDL
MODEL 9
REMARK VINA RESULT:    -5.325     16.105     17.579
REMARK INTER + INTRA:          -6.242
REMARK INTER:                  -6.092
REMARK INTRA:                  -0.150
REMARK UNBOUND:                -0.139
REMARK SMILES O=C([O-])C=Cc1ccc(O)cc1
REMARK SMILES IDX 6 1 7 2 12 3 8 4 11 5 9 6 5 7 4 8 2 9 1 10 3 11 10 12
REMARK H PARENT 10 13
REMARK Flexibility Score: inf
ROOT
ATOM      1  C   UNL     1      -5.823  61.017  54.746  1.00  0.00    -0.025 A 
ATOM      2  C   UNL     1      -4.423  60.910  54.712  1.00  0.00     0.012 A 
ATOM      3  C   UNL     1      -6.554  60.120  55.553  1.00  0.00     0.012 A 
ATOM      4  C   UNL     1      -3.767  59.915  55.444  1.00  0.00     0.047 A 
ATOM      5  C   UNL     1      -5.895  59.129  56.285  1.00  0.00     0.047 A 
ATOM      6  C   UNL     1      -4.500  59.022  56.230  1.00  0.00     0.115 A 
ENDROOT
BRANCH   1   7
ATOM      7  C   UNL     1      -6.472  62.094  53.959  1.00  0.00     0.010 C 
ATOM      8  C   UNL     1      -5.946  62.624  52.844  1.00  0.00     0.025 C 
BRANCH   8   9
ATOM      9  C   UNL     1      -6.615  63.701  52.096  1.00  0.00     0.064 C 
ATOM     10  O   UNL     1      -6.234  64.028  50.940  1.00  0.00    -0.545 OA
ATOM     11  O   UNL     1      -7.684  64.372  52.676  1.00  0.00    -0.545 OA
ENDBRANCH   8   9
ENDBRANCH   1   7
BRANCH   6  12
ATOM     12  O   UNL     1      -3.834  58.036  56.954  1.00  0.00    -0.508 OA
ATOM     13  H   UNL     1      -2.977  58.236  57.458  1.00  0.00     0.293 HD
ENDBRANCH   6  12
TORSDOF 3
ENDMDL
