MODEL 1
REMARK VINA RESULT:    -7.953      0.000      0.000
REMARK INTER + INTRA:          -9.642
REMARK INTER:                  -9.348
REMARK INTRA:                  -0.294
REMARK UNBOUND:                -0.294
REMARK SMILES O=c1cc(-c2ccc(O)c(O)c2)oc2cc(O)cc(O)c12
REMARK SMILES IDX 4 1 3 2 2 3 1 4 21 5 19 6 18 7 16 8 15 9 14 10 13 11 5 12
REMARK SMILES IDX 6 13 7 14 8 15 12 16 10 17 9 18 11 20 20 22 17 24
REMARK H PARENT 9 19 11 21 20 23 17 25
REMARK Flexibility Score: inf
ROOT
ATOM      1  C   UNL     1      -1.616  -1.524   4.530  1.00  0.00     0.138 A 
ATOM      2  C   UNL     1      -2.120  -2.295   3.468  1.00  0.00     0.100 A 
ATOM      3  C   UNL     1      -2.248  -3.676   3.623  1.00  0.00     0.197 A 
ATOM      4  O   UNL     1      -2.702  -4.359   2.665  1.00  0.00    -0.289 OA
ATOM      5  C   UNL     1      -1.877  -4.277   4.842  1.00  0.00     0.107 A 
ATOM      6  C   UNL     1      -1.974  -5.669   5.082  1.00  0.00     0.134 A 
ATOM      7  C   UNL     1      -1.589  -6.188   6.327  1.00  0.00     0.093 A 
ATOM      8  C   UNL     1      -1.109  -5.346   7.333  1.00  0.00     0.123 A 
ATOM      9  C   UNL     1      -1.010  -3.970   7.102  1.00  0.00     0.094 A 
ATOM     10  C   UNL     1      -1.389  -3.432   5.868  1.00  0.00     0.146 A 
ATOM     11  O   UNL     1      -1.284  -2.122   5.672  1.00  0.00    -0.456 OA
ENDROOT
BRANCH   1  12
ATOM     12  C   UNL     1      -1.458  -0.052   4.422  1.00  0.00     0.021 A 
ATOM     13  C   UNL     1      -1.289   0.712   5.590  1.00  0.00     0.016 A 
ATOM     14  C   UNL     1      -1.131   2.098   5.516  1.00  0.00     0.051 A 
ATOM     15  C   UNL     1      -1.130   2.742   4.273  1.00  0.00     0.157 A 
ATOM     16  C   UNL     1      -1.442   0.602   3.174  1.00  0.00     0.062 A 
ATOM     17  C   UNL     1      -1.282   1.994   3.101  1.00  0.00     0.158 A 
BRANCH  15  18
ATOM     18  O   UNL     1      -0.974   4.126   4.195  1.00  0.00    -0.504 OA
ATOM     19  H   UNL     1      -1.754   4.756   4.342  1.00  0.00     0.293 HD
ENDBRANCH  15  18
BRANCH  17  20
ATOM     20  O   UNL     1      -1.268   2.638   1.865  1.00  0.00    -0.504 OA
ATOM     21  H   UNL     1      -0.429   3.078   1.505  1.00  0.00     0.293 HD
ENDBRANCH  17  20
ENDBRANCH   1  12
BRANCH   6  22
ATOM     22  O   UNL     1      -2.450  -6.535   4.097  1.00  0.00    -0.507 OA
ATOM     23  H   UNL     1      -2.381  -7.540   4.193  1.00  0.00     0.293 HD
ENDBRANCH   6  22
BRANCH   8  24
ATOM     24  O   UNL     1      -0.733  -5.888   8.561  1.00  0.00    -0.508 OA
ATOM     25  H   UNL     1      -1.390  -5.968   9.328  1.00  0.00     0.293 HD
ENDBRANCH   8  24
TORSDOF 5
ENDMDL
MODEL 2
REMARK VINA RESULT:    -7.752      1.512      6.712
REMARK INTER + INTRA:          -9.405
REMARK INTER:                  -9.108
REMARK INTRA:                  -0.297
REMARK UNBOUND:                -0.294
REMARK SMILES O=c1cc(-c2ccc(O)c(O)c2)oc2cc(O)cc(O)c12
REMARK SMILES IDX 4 1 3 2 2 3 1 4 21 5 19 6 18 7 16 8 15 9 14 10 13 11 5 12
REMARK SMILES IDX 6 13 7 14 8 15 12 16 10 17 9 18 11 20 20 22 17 24
REMARK H PARENT 9 19 11 21 20 23 17 25
REMARK Flexibility Score: inf
ROOT
ATOM      1  C   UNL     1      -1.591  -1.144   4.455  1.00  0.00     0.138 A 
ATOM      2  C   UNL     1      -1.615  -0.288   3.341  1.00  0.00     0.100 A 
ATOM      3  C   UNL     1      -1.384   1.077   3.519  1.00  0.00     0.197 A 
ATOM      4  O   UNL     1      -1.407   1.837   2.514  1.00  0.00    -0.289 OA
ATOM      5  C   UNL     1      -1.126   1.577   4.812  1.00  0.00     0.107 A 
ATOM      6  C   UNL     1      -0.883   2.945   5.080  1.00  0.00     0.134 A 
ATOM      7  C   UNL     1      -0.628   3.360   6.395  1.00  0.00     0.093 A 
ATOM      8  C   UNL     1      -0.611   2.438   7.443  1.00  0.00     0.123 A 
ATOM      9  C   UNL     1      -0.850   1.085   7.185  1.00  0.00     0.094 A 
ATOM     10  C   UNL     1      -1.107   0.649   5.881  1.00  0.00     0.146 A 
ATOM     11  O   UNL     1      -1.334  -0.642   5.661  1.00  0.00    -0.456 OA
ENDROOT
BRANCH   1  12
ATOM     12  C   UNL     1      -1.829  -2.604   4.326  1.00  0.00     0.021 A 
ATOM     13  C   UNL     1      -1.735  -3.422   5.464  1.00  0.00     0.016 A 
ATOM     14  C   UNL     1      -1.961  -4.798   5.372  1.00  0.00     0.051 A 
ATOM     15  C   UNL     1      -2.293  -5.376   4.141  1.00  0.00     0.157 A 
ATOM     16  C   UNL     1      -2.177  -3.191   3.094  1.00  0.00     0.062 A 
ATOM     17  C   UNL     1      -2.406  -4.572   3.002  1.00  0.00     0.158 A 
BRANCH  15  18
ATOM     18  O   UNL     1      -2.519  -6.749   4.044  1.00  0.00    -0.504 OA
ATOM     19  H   UNL     1      -3.434  -7.121   3.818  1.00  0.00     0.293 HD
ENDBRANCH  15  18
BRANCH  17  20
ATOM     20  O   UNL     1      -2.749  -5.150   1.780  1.00  0.00    -0.504 OA
ATOM     21  H   UNL     1      -2.719  -6.154   1.642  1.00  0.00     0.293 HD
ENDBRANCH  17  20
ENDBRANCH   1  12
BRANCH   6  22
ATOM     22  O   UNL     1      -0.892   3.890   4.053  1.00  0.00    -0.507 OA
ATOM     23  H   UNL     1      -1.750   4.331   3.743  1.00  0.00     0.293 HD
ENDBRANCH   6  22
BRANCH   8  24
ATOM     24  O   UNL     1      -0.354   2.878   8.741  1.00  0.00    -0.508 OA
ATOM     25  H   UNL     1       0.351   2.437   9.320  1.00  0.00     0.293 HD
ENDBRANCH   8  24
TORSDOF 5
ENDMDL
MODEL 3
REMARK VINA RESULT:    -7.741      1.925      2.783
REMARK INTER + INTRA:          -9.393
REMARK INTER:                  -9.094
REMARK INTRA:                  -0.299
REMARK UNBOUND:                -0.294
REMARK SMILES O=c1cc(-c2ccc(O)c(O)c2)oc2cc(O)cc(O)c12
REMARK SMILES IDX 4 1 3 2 2 3 1 4 21 5 19 6 18 7 16 8 15 9 14 10 13 11 5 12
REMARK SMILES IDX 6 13 7 14 8 15 12 16 10 17 9 18 11 20 20 22 17 24
REMARK H PARENT 9 19 11 21 20 23 17 25
REMARK Flexibility Score: inf
ROOT
ATOM      1  C   UNL     1      -2.586  -0.542   5.044  1.00  0.00     0.138 A 
ATOM      2  C   UNL     1      -3.467  -0.648   6.133  1.00  0.00     0.100 A 
ATOM      3  C   UNL     1      -3.974  -1.899   6.486  1.00  0.00     0.197 A 
ATOM      4  O   UNL     1      -4.764  -1.985   7.465  1.00  0.00    -0.289 OA
ATOM      5  C   UNL     1      -3.592  -3.039   5.749  1.00  0.00     0.107 A 
ATOM      6  C   UNL     1      -4.060  -4.343   6.040  1.00  0.00     0.134 A 
ATOM      7  C   UNL     1      -3.625  -5.425   5.261  1.00  0.00     0.093 A 
ATOM      8  C   UNL     1      -2.736  -5.230   4.201  1.00  0.00     0.123 A 
ATOM      9  C   UNL     1      -2.271  -3.945   3.910  1.00  0.00     0.094 A 
ATOM     10  C   UNL     1      -2.691  -2.851   4.673  1.00  0.00     0.146 A 
ATOM     11  O   UNL     1      -2.236  -1.638   4.375  1.00  0.00    -0.456 OA
ENDROOT
BRANCH   1  12
ATOM     12  C   UNL     1      -2.015   0.763   4.623  1.00  0.00     0.021 A 
ATOM     13  C   UNL     1      -1.626   1.694   5.602  1.00  0.00     0.016 A 
ATOM     14  C   UNL     1      -1.079   2.926   5.233  1.00  0.00     0.051 A 
ATOM     15  C   UNL     1      -0.904   3.243   3.881  1.00  0.00     0.157 A 
ATOM     16  C   UNL     1      -1.822   1.083   3.265  1.00  0.00     0.062 A 
ATOM     17  C   UNL     1      -1.272   2.320   2.896  1.00  0.00     0.158 A 
BRANCH  15  18
ATOM     18  O   UNL     1      -0.360   4.472   3.509  1.00  0.00    -0.504 OA
ATOM     19  H   UNL     1      -0.336   5.257   4.150  1.00  0.00     0.293 HD
ENDBRANCH  15  18
BRANCH  17  20
ATOM     20  O   UNL     1      -1.084   2.635   1.551  1.00  0.00    -0.504 OA
ATOM     21  H   UNL     1      -1.108   3.594   1.223  1.00  0.00     0.293 HD
ENDBRANCH  17  20
ENDBRANCH   1  12
BRANCH   6  22
ATOM     22  O   UNL     1      -4.948  -4.569   7.092  1.00  0.00    -0.507 OA
ATOM     23  H   UNL     1      -5.655  -5.291   7.045  1.00  0.00     0.293 HD
ENDBRANCH   6  22
BRANCH   8  24
ATOM     24  O   UNL     1      -2.321  -6.324   3.444  1.00  0.00    -0.508 OA
ATOM     25  H   UNL     1      -1.340  -6.499   3.259  1.00  0.00     0.293 HD
ENDBRANCH   8  24
TORSDOF 5
ENDMDL
MODEL 4
REMARK VINA RESULT:    -7.722     10.561     13.524
REMARK INTER + INTRA:          -9.371
REMARK INTER:                  -9.102
REMARK INTRA:                  -0.269
REMARK UNBOUND:                -0.294
REMARK SMILES O=c1cc(-c2ccc(O)c(O)c2)oc2cc(O)cc(O)c12
REMARK SMILES IDX 4 1 3 2 2 3 1 4 21 5 19 6 18 7 16 8 15 9 14 10 13 11 5 12
REMARK SMILES IDX 6 13 7 14 8 15 12 16 10 17 9 18 11 20 20 22 17 24
REMARK H PARENT 9 19 11 21 20 23 17 25
REMARK Flexibility Score: inf
ROOT
ATOM      1  C   UNL     1      -8.423  -3.570  -4.839  1.00  0.00     0.138 A 
ATOM      2  C   UNL     1      -9.368  -3.284  -5.838  1.00  0.00     0.100 A 
ATOM      3  C   UNL     1      -9.065  -2.339  -6.819  1.00  0.00     0.197 A 
ATOM      4  O   UNL     1      -9.919  -2.089  -7.712  1.00  0.00    -0.289 OA
ATOM      5  C   UNL     1      -7.814  -1.689  -6.797  1.00  0.00     0.107 A 
ATOM      6  C   UNL     1      -7.428  -0.718  -7.752  1.00  0.00     0.134 A 
ATOM      7  C   UNL     1      -6.162  -0.122  -7.662  1.00  0.00     0.093 A 
ATOM      8  C   UNL     1      -5.278  -0.476  -6.640  1.00  0.00     0.123 A 
ATOM      9  C   UNL     1      -5.654  -1.434  -5.694  1.00  0.00     0.094 A 
ATOM     10  C   UNL     1      -6.912  -2.040  -5.764  1.00  0.00     0.146 A 
ATOM     11  O   UNL     1      -7.247  -2.947  -4.852  1.00  0.00    -0.456 OA
ENDROOT
BRANCH   1  12
ATOM     12  C   UNL     1      -8.691  -4.567  -3.771  1.00  0.00     0.021 A 
ATOM     13  C   UNL     1      -8.697  -5.936  -4.089  1.00  0.00     0.016 A 
ATOM     14  C   UNL     1      -8.938  -6.894  -3.101  1.00  0.00     0.051 A 
ATOM     15  C   UNL     1      -9.170  -6.500  -1.778  1.00  0.00     0.157 A 
ATOM     16  C   UNL     1      -8.910  -4.178  -2.435  1.00  0.00     0.062 A 
ATOM     17  C   UNL     1      -9.151  -5.142  -1.443  1.00  0.00     0.158 A 
BRANCH  15  18
ATOM     18  O   UNL     1      -9.412  -7.453  -0.790  1.00  0.00    -0.504 OA
ATOM     19  H   UNL     1      -8.928  -7.429   0.100  1.00  0.00     0.293 HD
ENDBRANCH  15  18
BRANCH  17  20
ATOM     20  O   UNL     1      -9.370  -4.754  -0.122  1.00  0.00    -0.504 OA
ATOM     21  H   UNL     1     -10.301  -4.553   0.225  1.00  0.00     0.293 HD
ENDBRANCH  17  20
ENDBRANCH   1  12
BRANCH   6  22
ATOM     22  O   UNL     1      -8.289  -0.345  -8.784  1.00  0.00    -0.507 OA
ATOM     23  H   UNL     1      -8.065   0.413  -9.417  1.00  0.00     0.293 HD
ENDBRANCH   6  22
BRANCH   8  24
ATOM     24  O   UNL     1      -4.025   0.132  -6.575  1.00  0.00    -0.508 OA
ATOM     25  H   UNL     1      -3.454   0.259  -7.402  1.00  0.00     0.293 HD
ENDBRANCH   8  24
TORSDOF 5
ENDMDL
MODEL 5
REMARK VINA RESULT:    -7.696      1.392      2.917
REMARK INTER + INTRA:          -9.340
REMARK INTER:                  -9.021
REMARK INTRA:                  -0.318
REMARK UNBOUND:                -0.294
REMARK SMILES O=c1cc(-c2ccc(O)c(O)c2)oc2cc(O)cc(O)c12
REMARK SMILES IDX 4 1 3 2 2 3 1 4 21 5 19 6 18 7 16 8 15 9 14 10 13 11 5 12
REMARK SMILES IDX 6 13 7 14 8 15 12 16 10 17 9 18 11 20 20 22 17 24
REMARK H PARENT 9 19 11 21 20 23 17 25
REMARK Flexibility Score: inf
ROOT
ATOM      1  C   UNL     1      -1.319  -0.806   5.478  1.00  0.00     0.138 A 
ATOM      2  C   UNL     1      -1.095  -1.561   6.642  1.00  0.00     0.100 A 
ATOM      3  C   UNL     1      -1.262  -2.946   6.604  1.00  0.00     0.197 A 
ATOM      4  O   UNL     1      -1.058  -3.616   7.652  1.00  0.00    -0.289 OA
ATOM      5  C   UNL     1      -1.648  -3.568   5.399  1.00  0.00     0.107 A 
ATOM      6  C   UNL     1      -1.840  -4.965   5.275  1.00  0.00     0.134 A 
ATOM      7  C   UNL     1      -2.219  -5.506   4.038  1.00  0.00     0.093 A 
ATOM      8  C   UNL     1      -2.410  -4.681   2.927  1.00  0.00     0.123 A 
ATOM      9  C   UNL     1      -2.221  -3.301   3.044  1.00  0.00     0.094 A 
ATOM     10  C   UNL     1      -1.844  -2.740   4.268  1.00  0.00     0.146 A 
ATOM     11  O   UNL     1      -1.673  -1.425   4.354  1.00  0.00    -0.456 OA
ENDROOT
BRANCH   1  12
ATOM     12  C   UNL     1      -1.156   0.670   5.459  1.00  0.00     0.021 A 
ATOM     13  C   UNL     1      -0.794   1.340   6.641  1.00  0.00     0.016 A 
ATOM     14  C   UNL     1      -0.627   2.727   6.649  1.00  0.00     0.051 A 
ATOM     15  C   UNL     1      -0.811   3.466   5.474  1.00  0.00     0.157 A 
ATOM     16  C   UNL     1      -1.326   1.418   4.278  1.00  0.00     0.062 A 
ATOM     17  C   UNL     1      -1.156   2.811   4.287  1.00  0.00     0.158 A 
BRANCH  15  18
ATOM     18  O   UNL     1      -0.647   4.851   5.478  1.00  0.00    -0.504 OA
ATOM     19  H   UNL     1      -0.997   5.428   4.722  1.00  0.00     0.293 HD
ENDBRANCH  15  18
BRANCH  17  20
ATOM     20  O   UNL     1      -1.327   3.550   3.116  1.00  0.00    -0.504 OA
ATOM     21  H   UNL     1      -1.698   4.492   3.134  1.00  0.00     0.293 HD
ENDBRANCH  17  20
ENDBRANCH   1  12
BRANCH   6  22
ATOM     22  O   UNL     1      -1.657  -5.814   6.367  1.00  0.00    -0.507 OA
ATOM     23  H   UNL     1      -1.457  -5.457   7.292  1.00  0.00     0.293 HD
ENDBRANCH   6  22
BRANCH   8  24
ATOM     24  O   UNL     1      -2.786  -5.245   1.709  1.00  0.00    -0.508 OA
ATOM     25  H   UNL     1      -2.098  -5.577   1.043  1.00  0.00     0.293 HD
ENDBRANCH   8  24
TORSDOF 5
ENDMDL
MODEL 6
REMARK VINA RESULT:    -7.672      1.567      1.580
REMARK INTER + INTRA:          -9.312
REMARK INTER:                  -9.022
REMARK INTRA:                  -0.290
REMARK UNBOUND:                -0.294
REMARK SMILES O=c1cc(-c2ccc(O)c(O)c2)oc2cc(O)cc(O)c12
REMARK SMILES IDX 4 1 3 2 2 3 1 4 21 5 19 6 18 7 16 8 15 9 14 10 13 11 5 12
REMARK SMILES IDX 6 13 7 14 8 15 12 16 10 17 9 18 11 20 20 22 17 24
REMARK H PARENT 9 19 11 21 20 23 17 25
REMARK Flexibility Score: inf
ROOT
ATOM      1  C   UNL     1      -2.201  -1.332   4.538  1.00  0.00     0.138 A 
ATOM      2  C   UNL     1      -2.042  -2.271   3.505  1.00  0.00     0.100 A 
ATOM      3  C   UNL     1      -2.450  -3.590   3.707  1.00  0.00     0.197 A 
ATOM      4  O   UNL     1      -2.304  -4.425   2.774  1.00  0.00    -0.289 OA
ATOM      5  C   UNL     1      -3.019  -3.961   4.942  1.00  0.00     0.107 A 
ATOM      6  C   UNL     1      -3.456  -5.276   5.230  1.00  0.00     0.134 A 
ATOM      7  C   UNL     1      -4.018  -5.562   6.483  1.00  0.00     0.093 A 
ATOM      8  C   UNL     1      -4.149  -4.563   7.451  1.00  0.00     0.123 A 
ATOM      9  C   UNL     1      -3.718  -3.263   7.172  1.00  0.00     0.094 A 
ATOM     10  C   UNL     1      -3.155  -2.956   5.930  1.00  0.00     0.146 A 
ATOM     11  O   UNL     1      -2.751  -1.713   5.689  1.00  0.00    -0.456 OA
ENDROOT
BRANCH   1  12
ATOM     12  C   UNL     1      -1.787   0.085   4.380  1.00  0.00     0.021 A 
ATOM     13  C   UNL     1      -1.459   0.840   5.519  1.00  0.00     0.016 A 
ATOM     14  C   UNL     1      -1.059   2.174   5.396  1.00  0.00     0.051 A 
ATOM     15  C   UNL     1      -0.972   2.770   4.133  1.00  0.00     0.157 A 
ATOM     16  C   UNL     1      -1.683   0.688   3.111  1.00  0.00     0.062 A 
ATOM     17  C   UNL     1      -1.279   2.026   2.989  1.00  0.00     0.158 A 
BRANCH  15  18
ATOM     18  O   UNL     1      -0.574   4.101   4.007  1.00  0.00    -0.504 OA
ATOM     19  H   UNL     1      -0.647   4.594   3.125  1.00  0.00     0.293 HD
ENDBRANCH  15  18
BRANCH  17  20
ATOM     20  O   UNL     1      -1.180   2.621   1.732  1.00  0.00    -0.504 OA
ATOM     21  H   UNL     1      -1.971   3.084   1.300  1.00  0.00     0.293 HD
ENDBRANCH  17  20
ENDBRANCH   1  12
BRANCH   6  22
ATOM     22  O   UNL     1      -3.339  -6.295   4.284  1.00  0.00    -0.507 OA
ATOM     23  H   UNL     1      -2.489  -6.836   4.187  1.00  0.00     0.293 HD
ENDBRANCH   6  22
BRANCH   8  24
ATOM     24  O   UNL     1      -4.711  -4.875   8.688  1.00  0.00    -0.508 OA
ATOM     25  H   UNL     1      -4.136  -5.136   9.480  1.00  0.00     0.293 HD
ENDBRANCH   8  24
TORSDOF 5
ENDMDL
MODEL 7
REMARK VINA RESULT:    -7.634     12.197     13.313
REMARK INTER + INTRA:          -9.267
REMARK INTER:                  -8.963
REMARK INTRA:                  -0.303
REMARK UNBOUND:                -0.294
REMARK SMILES O=c1cc(-c2ccc(O)c(O)c2)oc2cc(O)cc(O)c12
REMARK SMILES IDX 4 1 3 2 2 3 1 4 21 5 19 6 18 7 16 8 15 9 14 10 13 11 5 12
REMARK SMILES IDX 6 13 7 14 8 15 12 16 10 17 9 18 11 20 20 22 17 24
REMARK H PARENT 9 19 11 21 20 23 17 25
REMARK Flexibility Score: inf
ROOT
ATOM      1  C   UNL     1      -3.269   1.267  -8.028  1.00  0.00     0.138 A 
ATOM      2  C   UNL     1      -3.043   0.270  -8.991  1.00  0.00     0.100 A 
ATOM      3  C   UNL     1      -3.849  -0.869  -9.002  1.00  0.00     0.197 A 
ATOM      4  O   UNL     1      -3.639  -1.758  -9.871  1.00  0.00    -0.289 OA
ATOM      5  C   UNL     1      -4.880  -1.001  -8.051  1.00  0.00     0.107 A 
ATOM      6  C   UNL     1      -5.741  -2.123  -7.991  1.00  0.00     0.134 A 
ATOM      7  C   UNL     1      -6.748  -2.175  -7.016  1.00  0.00     0.093 A 
ATOM      8  C   UNL     1      -6.909  -1.131  -6.102  1.00  0.00     0.123 A 
ATOM      9  C   UNL     1      -6.062  -0.021  -6.155  1.00  0.00     0.094 A 
ATOM     10  C   UNL     1      -5.052   0.051  -7.119  1.00  0.00     0.146 A 
ATOM     11  O   UNL     1      -4.258   1.117  -7.149  1.00  0.00    -0.456 OA
ENDROOT
BRANCH   1  12
ATOM     12  C   UNL     1      -2.444   2.500  -7.969  1.00  0.00     0.021 A 
ATOM     13  C   UNL     1      -1.952   3.060  -9.160  1.00  0.00     0.016 A 
ATOM     14  C   UNL     1      -1.179   4.224  -9.134  1.00  0.00     0.051 A 
ATOM     15  C   UNL     1      -0.893   4.852  -7.916  1.00  0.00     0.157 A 
ATOM     16  C   UNL     1      -2.164   3.146  -6.749  1.00  0.00     0.062 A 
ATOM     17  C   UNL     1      -1.389   4.316  -6.723  1.00  0.00     0.158 A 
BRANCH  15  18
ATOM     18  O   UNL     1      -0.121   6.013  -7.884  1.00  0.00    -0.504 OA
ATOM     19  H   UNL     1       0.851   5.995  -7.599  1.00  0.00     0.293 HD
ENDBRANCH  15  18
BRANCH  17  20
ATOM     20  O   UNL     1      -1.112   4.952  -5.513  1.00  0.00    -0.504 OA
ATOM     21  H   UNL     1      -0.826   4.429  -4.693  1.00  0.00     0.293 HD
ENDBRANCH  17  20
ENDBRANCH   1  12
BRANCH   6  22
ATOM     22  O   UNL     1      -5.604  -3.181  -8.891  1.00  0.00    -0.507 OA
ATOM     23  H   UNL     1      -4.696  -3.539  -9.158  1.00  0.00     0.293 HD
ENDBRANCH   6  22
BRANCH   8  24
ATOM     24  O   UNL     1      -7.918  -1.209  -5.143  1.00  0.00    -0.508 OA
ATOM     25  H   UNL     1      -7.721  -1.484  -4.188  1.00  0.00     0.293 HD
ENDBRANCH   8  24
TORSDOF 5
ENDMDL
MODEL 8
REMARK VINA RESULT:    -7.597     12.331     14.809
REMARK INTER + INTRA:          -9.224
REMARK INTER:                  -8.927
REMARK INTRA:                  -0.297
REMARK UNBOUND:                -0.294
REMARK SMILES O=c1cc(-c2ccc(O)c(O)c2)oc2cc(O)cc(O)c12
REMARK SMILES IDX 4 1 3 2 2 3 1 4 21 5 19 6 18 7 16 8 15 9 14 10 13 11 5 12
REMARK SMILES IDX 6 13 7 14 8 15 12 16 10 17 9 18 11 20 20 22 17 24
REMARK H PARENT 9 19 11 21 20 23 17 25
REMARK Flexibility Score: inf
ROOT
ATOM      1  C   UNL     1      -3.682   1.310  -8.147  1.00  0.00     0.138 A 
ATOM      2  C   UNL     1      -3.313   1.538  -9.483  1.00  0.00     0.100 A 
ATOM      3  C   UNL     1      -2.400   2.551  -9.780  1.00  0.00     0.197 A 
ATOM      4  O   UNL     1      -2.074   2.748 -10.982  1.00  0.00    -0.289 OA
ATOM      5  C   UNL     1      -1.857   3.327  -8.736  1.00  0.00     0.107 A 
ATOM      6  C   UNL     1      -0.927   4.372  -8.949  1.00  0.00     0.134 A 
ATOM      7  C   UNL     1      -0.430   5.093  -7.853  1.00  0.00     0.093 A 
ATOM      8  C   UNL     1      -0.843   4.791  -6.554  1.00  0.00     0.123 A 
ATOM      9  C   UNL     1      -1.762   3.759  -6.337  1.00  0.00     0.094 A 
ATOM     10  C   UNL     1      -2.271   3.028  -7.415  1.00  0.00     0.146 A 
ATOM     11  O   UNL     1      -3.144   2.053  -7.183  1.00  0.00    -0.456 OA
ENDROOT
BRANCH   1  12
ATOM     12  C   UNL     1      -4.648   0.247  -7.773  1.00  0.00     0.021 A 
ATOM     13  C   UNL     1      -4.579  -1.005  -8.409  1.00  0.00     0.016 A 
ATOM     14  C   UNL     1      -5.472  -2.026  -8.070  1.00  0.00     0.051 A 
ATOM     15  C   UNL     1      -6.442  -1.814  -7.084  1.00  0.00     0.157 A 
ATOM     16  C   UNL     1      -5.619   0.447  -6.772  1.00  0.00     0.062 A 
ATOM     17  C   UNL     1      -6.514  -0.578  -6.431  1.00  0.00     0.158 A 
BRANCH  15  18
ATOM     18  O   UNL     1      -7.336  -2.829  -6.744  1.00  0.00    -0.504 OA
ATOM     19  H   UNL     1      -7.065  -3.805  -6.773  1.00  0.00     0.293 HD
ENDBRANCH  15  18
BRANCH  17  20
ATOM     20  O   UNL     1      -7.475  -0.376  -5.441  1.00  0.00    -0.504 OA
ATOM     21  H   UNL     1      -8.465  -0.365  -5.658  1.00  0.00     0.293 HD
ENDBRANCH  17  20
ENDBRANCH   1  12
BRANCH   6  22
ATOM     22  O   UNL     1      -0.495   4.697 -10.235  1.00  0.00    -0.507 OA
ATOM     23  H   UNL     1       0.165   5.447 -10.402  1.00  0.00     0.293 HD
ENDBRANCH   6  22
BRANCH   8  24
ATOM     24  O   UNL     1      -0.333   5.523  -5.483  1.00  0.00    -0.508 OA
ATOM     25  H   UNL     1      -0.074   5.077  -4.611  1.00  0.00     0.293 HD
ENDBRANCH   8  24
TORSDOF 5
ENDMDL
MODEL 9
REMARK VINA RESULT:    -7.471     13.117     14.729
REMARK INTER + INTRA:          -9.075
REMARK INTER:                  -8.812
REMARK INTRA:                  -0.263
REMARK UNBOUND:                -0.294
REMARK SMILES O=c1cc(-c2ccc(O)c(O)c2)oc2cc(O)cc(O)c12
REMARK SMILES IDX 4 1 3 2 2 3 1 4 21 5 19 6 18 7 16 8 15 9 14 10 13 11 5 12
REMARK SMILES IDX 6 13 7 14 8 15 12 16 10 17 9 18 11 20 20 22 17 24
REMARK H PARENT 9 19 11 21 20 23 17 25
REMARK Flexibility Score: inf
ROOT
ATOM      1  C   UNL     1       1.771   6.666  -6.403  1.00  0.00     0.138 A 
ATOM      2  C   UNL     1       2.013   6.722  -7.785  1.00  0.00     0.100 A 
ATOM      3  C   UNL     1       1.203   5.992  -8.655  1.00  0.00     0.197 A 
ATOM      4  O   UNL     1       1.428   6.049  -9.894  1.00  0.00    -0.289 OA
ATOM      5  C   UNL     1       0.151   5.211  -8.136  1.00  0.00     0.107 A 
ATOM      6  C   UNL     1      -0.716   4.440  -8.947  1.00  0.00     0.134 A 
ATOM      7  C   UNL     1      -1.744   3.695  -8.351  1.00  0.00     0.093 A 
ATOM      8  C   UNL     1      -1.921   3.705  -6.965  1.00  0.00     0.123 A 
ATOM      9  C   UNL     1      -1.068   4.464  -6.159  1.00  0.00     0.094 A 
ATOM     10  C   UNL     1      -0.037   5.214  -6.732  1.00  0.00     0.146 A 
ATOM     11  O   UNL     1       0.763   5.927  -5.945  1.00  0.00    -0.456 OA
ENDROOT
BRANCH   1  12
ATOM     12  C   UNL     1       2.600   7.422  -5.431  1.00  0.00     0.021 A 
ATOM     13  C   UNL     1       2.128   8.647  -4.927  1.00  0.00     0.016 A 
ATOM     14  C   UNL     1       2.885   9.375  -4.005  1.00  0.00     0.051 A 
ATOM     15  C   UNL     1       4.122   8.887  -3.566  1.00  0.00     0.157 A 
ATOM     16  C   UNL     1       3.838   6.931  -4.974  1.00  0.00     0.062 A 
ATOM     17  C   UNL     1       4.597   7.662  -4.047  1.00  0.00     0.158 A 
BRANCH  15  18
ATOM     18  O   UNL     1       4.881   9.612  -2.648  1.00  0.00    -0.504 OA
ATOM     19  H   UNL     1       5.734   9.235  -2.252  1.00  0.00     0.293 HD
ENDBRANCH  15  18
BRANCH  17  20
ATOM     20  O   UNL     1       5.824   7.174  -3.598  1.00  0.00    -0.504 OA
ATOM     21  H   UNL     1       6.689   7.673  -3.772  1.00  0.00     0.293 HD
ENDBRANCH  17  20
ENDBRANCH   1  12
BRANCH   6  22
ATOM     22  O   UNL     1      -0.564   4.410 -10.333  1.00  0.00    -0.507 OA
ATOM     23  H   UNL     1       0.171   3.873 -10.777  1.00  0.00     0.293 HD
ENDBRANCH   6  22
BRANCH   8  24
ATOM     24  O   UNL     1      -2.951   2.955  -6.400  1.00  0.00    -0.508 OA
ATOM     25  H   UNL     1      -2.848   2.511  -5.494  1.00  0.00     0.293 HD
ENDBRANCH   8  24
TORSDOF 5
ENDMDL
