MODEL 1
REMARK VINA RESULT:    -7.388      0.000      0.000
REMARK INTER + INTRA:          -8.970
REMARK INTER:                  -8.684
REMARK INTRA:                  -0.286
REMARK UNBOUND:                -0.286
REMARK SMILES O=c1cc(-c2ccc(O)c(O)c2)oc2cc(O)cc(O)c12
REMARK SMILES IDX 4 1 3 2 2 3 1 4 21 5 19 6 18 7 16 8 15 9 14 10 13 11 5 12
REMARK SMILES IDX 6 13 7 14 8 15 12 16 10 17 9 18 11 20 20 22 17 24
REMARK H PARENT 9 19 11 21 20 23 17 25
REMARK Flexibility Score: inf
ROOT
ATOM      1  C   UNL     1      77.016  -8.216  17.592  1.00  0.00     0.138 A 
ATOM      2  C   UNL     1      77.974  -7.329  17.082  1.00  0.00     0.100 A 
ATOM      3  C   UNL     1      77.684  -6.578  15.942  1.00  0.00     0.197 A 
ATOM      4  O   UNL     1      78.586  -5.837  15.474  1.00  0.00    -0.289 OA
ATOM      5  C   UNL     1      76.414  -6.694  15.329  1.00  0.00     0.107 A 
ATOM      6  C   UNL     1      75.992  -5.949  14.187  1.00  0.00     0.134 A 
ATOM      7  C   UNL     1      74.754  -6.232  13.596  1.00  0.00     0.093 A 
ATOM      8  C   UNL     1      73.899  -7.192  14.143  1.00  0.00     0.123 A 
ATOM      9  C   UNL     1      74.279  -7.887  15.288  1.00  0.00     0.094 A 
ATOM     10  C   UNL     1      75.521  -7.651  15.880  1.00  0.00     0.146 A 
ATOM     11  O   UNL     1      75.852  -8.346  16.964  1.00  0.00    -0.456 OA
ENDROOT
BRANCH   1  12
ATOM     12  C   UNL     1      77.273  -9.038  18.801  1.00  0.00     0.021 A 
ATOM     13  C   UNL     1      76.681 -10.303  18.973  1.00  0.00     0.016 A 
ATOM     14  C   UNL     1      76.949 -11.060  20.117  1.00  0.00     0.051 A 
ATOM     15  C   UNL     1      77.817 -10.573  21.102  1.00  0.00     0.157 A 
ATOM     16  C   UNL     1      78.154  -8.562  19.788  1.00  0.00     0.062 A 
ATOM     17  C   UNL     1      78.423  -9.318  20.934  1.00  0.00     0.158 A 
BRANCH  15  18
ATOM     18  O   UNL     1      78.080 -11.332  22.241  1.00  0.00    -0.504 OA
ATOM     19  H   UNL     1      78.493 -10.919  23.070  1.00  0.00     0.293 HD
ENDBRANCH  15  18
BRANCH  17  20
ATOM     20  O   UNL     1      79.295  -8.806  21.894  1.00  0.00    -0.504 OA
ATOM     21  H   UNL     1      78.989  -8.573  22.831  1.00  0.00     0.293 HD
ENDBRANCH  17  20
ENDBRANCH   1  12
BRANCH   6  22
ATOM     22  O   UNL     1      76.733  -4.910  13.615  1.00  0.00    -0.507 OA
ATOM     23  H   UNL     1      77.170  -4.946  12.707  1.00  0.00     0.293 HD
ENDBRANCH   6  22
BRANCH   8  24
ATOM     24  O   UNL     1      72.662  -7.457  13.557  1.00  0.00    -0.508 OA
ATOM     25  H   UNL     1      72.496  -7.291  12.572  1.00  0.00     0.293 HD
ENDBRANCH   8  24
TORSDOF 5
ENDMDL
MODEL 2
REMARK VINA RESULT:    -7.318      9.930     11.791
REMARK INTER + INTRA:          -8.888
REMARK INTER:                  -8.593
REMARK INTRA:                  -0.295
REMARK UNBOUND:                -0.286
REMARK SMILES O=c1cc(-c2ccc(O)c(O)c2)oc2cc(O)cc(O)c12
REMARK SMILES IDX 4 1 3 2 2 3 1 4 21 5 19 6 18 7 16 8 15 9 14 10 13 11 5 12
REMARK SMILES IDX 6 13 7 14 8 15 12 16 10 17 9 18 11 20 20 22 17 24
REMARK H PARENT 9 19 11 21 20 23 17 25
REMARK Flexibility Score: inf
ROOT
ATOM      1  C   UNL     1      72.110  -2.679  23.660  1.00  0.00     0.138 A 
ATOM      2  C   UNL     1      73.220  -2.154  24.336  1.00  0.00     0.100 A 
ATOM      3  C   UNL     1      73.186  -2.026  25.726  1.00  0.00     0.197 A 
ATOM      4  O   UNL     1      74.172  -1.494  26.297  1.00  0.00    -0.289 OA
ATOM      5  C   UNL     1      72.045  -2.459  26.444  1.00  0.00     0.107 A 
ATOM      6  C   UNL     1      71.915  -2.416  27.864  1.00  0.00     0.134 A 
ATOM      7  C   UNL     1      70.694  -2.762  28.456  1.00  0.00     0.093 A 
ATOM      8  C   UNL     1      69.619  -3.208  27.682  1.00  0.00     0.123 A 
ATOM      9  C   UNL     1      69.754  -3.304  26.300  1.00  0.00     0.094 A 
ATOM     10  C   UNL     1      70.947  -2.933  25.677  1.00  0.00     0.146 A 
ATOM     11  O   UNL     1      71.030  -3.026  24.354  1.00  0.00    -0.456 OA
ENDROOT
BRANCH   1  12
ATOM     12  C   UNL     1      72.093  -2.836  22.184  1.00  0.00     0.021 A 
ATOM     13  C   UNL     1      70.963  -3.331  21.507  1.00  0.00     0.016 A 
ATOM     14  C   UNL     1      70.971  -3.458  20.115  1.00  0.00     0.051 A 
ATOM     15  C   UNL     1      72.101  -3.087  19.376  1.00  0.00     0.157 A 
ATOM     16  C   UNL     1      73.219  -2.453  21.434  1.00  0.00     0.062 A 
ATOM     17  C   UNL     1      73.229  -2.580  20.040  1.00  0.00     0.158 A 
BRANCH  15  18
ATOM     18  O   UNL     1      72.105  -3.216  17.988  1.00  0.00    -0.504 OA
ATOM     19  H   UNL     1      72.286  -4.107  17.538  1.00  0.00     0.293 HD
ENDBRANCH  15  18
BRANCH  17  20
ATOM     20  O   UNL     1      74.369  -2.198  19.334  1.00  0.00    -0.504 OA
ATOM     21  H   UNL     1      75.201  -1.855  19.798  1.00  0.00     0.293 HD
ENDBRANCH  17  20
ENDBRANCH   1  12
BRANCH   6  22
ATOM     22  O   UNL     1      72.954  -2.068  28.734  1.00  0.00    -0.507 OA
ATOM     23  H   UNL     1      73.690  -1.413  28.519  1.00  0.00     0.293 HD
ENDBRANCH   6  22
BRANCH   8  24
ATOM     24  O   UNL     1      68.413  -3.565  28.282  1.00  0.00    -0.508 OA
ATOM     25  H   UNL     1      68.383  -4.162  29.099  1.00  0.00     0.293 HD
ENDBRANCH   8  24
TORSDOF 5
ENDMDL
MODEL 3
REMARK VINA RESULT:    -7.268      9.788     11.125
REMARK INTER + INTRA:          -8.829
REMARK INTER:                  -8.540
REMARK INTRA:                  -0.289
REMARK UNBOUND:                -0.286
REMARK SMILES O=c1cc(-c2ccc(O)c(O)c2)oc2cc(O)cc(O)c12
REMARK SMILES IDX 4 1 3 2 2 3 1 4 21 5 19 6 18 7 16 8 15 9 14 10 13 11 5 12
REMARK SMILES IDX 6 13 7 14 8 15 12 16 10 17 9 18 11 20 20 22 17 24
REMARK H PARENT 9 19 11 21 20 23 17 25
REMARK Flexibility Score: inf
ROOT
ATOM      1  C   UNL     1      73.817  -2.459  24.759  1.00  0.00     0.138 A 
ATOM      2  C   UNL     1      74.371  -3.374  23.854  1.00  0.00     0.100 A 
ATOM      3  C   UNL     1      75.595  -3.092  23.247  1.00  0.00     0.197 A 
ATOM      4  O   UNL     1      76.036  -3.902  22.392  1.00  0.00    -0.289 OA
ATOM      5  C   UNL     1      76.283  -1.899  23.575  1.00  0.00     0.107 A 
ATOM      6  C   UNL     1      77.556  -1.525  23.050  1.00  0.00     0.134 A 
ATOM      7  C   UNL     1      78.087  -0.265  23.356  1.00  0.00     0.093 A 
ATOM      8  C   UNL     1      77.417   0.608  24.217  1.00  0.00     0.123 A 
ATOM      9  C   UNL     1      76.200   0.230  24.776  1.00  0.00     0.094 A 
ATOM     10  C   UNL     1      75.628  -1.005  24.463  1.00  0.00     0.146 A 
ATOM     11  O   UNL     1      74.457  -1.321  25.007  1.00  0.00    -0.456 OA
ENDROOT
BRANCH   1  12
ATOM     12  C   UNL     1      72.518  -2.710  25.433  1.00  0.00     0.021 A 
ATOM     13  C   UNL     1      71.387  -3.145  24.718  1.00  0.00     0.016 A 
ATOM     14  C   UNL     1      70.179  -3.384  25.380  1.00  0.00     0.051 A 
ATOM     15  C   UNL     1      70.083  -3.202  26.765  1.00  0.00     0.157 A 
ATOM     16  C   UNL     1      72.417  -2.543  26.825  1.00  0.00     0.062 A 
ATOM     17  C   UNL     1      71.209  -2.782  27.490  1.00  0.00     0.158 A 
BRANCH  15  18
ATOM     18  O   UNL     1      68.876  -3.441  27.420  1.00  0.00    -0.504 OA
ATOM     19  H   UNL     1      68.237  -2.687  27.648  1.00  0.00     0.293 HD
ENDBRANCH  15  18
BRANCH  17  20
ATOM     20  O   UNL     1      71.146  -2.594  28.871  1.00  0.00    -0.504 OA
ATOM     21  H   UNL     1      71.716  -1.906  29.347  1.00  0.00     0.293 HD
ENDBRANCH  17  20
ENDBRANCH   1  12
BRANCH   6  22
ATOM     22  O   UNL     1      78.347  -2.357  22.250  1.00  0.00    -0.507 OA
ATOM     23  H   UNL     1      79.274  -2.131  21.924  1.00  0.00     0.293 HD
ENDBRANCH   6  22
BRANCH   8  24
ATOM     24  O   UNL     1      77.960   1.853  24.529  1.00  0.00    -0.508 OA
ATOM     25  H   UNL     1      78.269   2.492  23.806  1.00  0.00     0.293 HD
ENDBRANCH   8  24
TORSDOF 5
ENDMDL
MODEL 4
REMARK VINA RESULT:    -7.267      8.832     10.821
REMARK INTER + INTRA:          -8.828
REMARK INTER:                  -8.533
REMARK INTRA:                  -0.295
REMARK UNBOUND:                -0.286
REMARK SMILES O=c1cc(-c2ccc(O)c(O)c2)oc2cc(O)cc(O)c12
REMARK SMILES IDX 4 1 3 2 2 3 1 4 21 5 19 6 18 7 16 8 15 9 14 10 13 11 5 12
REMARK SMILES IDX 6 13 7 14 8 15 12 16 10 17 9 18 11 20 20 22 17 24
REMARK H PARENT 9 19 11 21 20 23 17 25
REMARK Flexibility Score: inf
ROOT
ATOM      1  C   UNL     1      75.593  -2.228  23.284  1.00  0.00     0.138 A 
ATOM      2  C   UNL     1      74.510  -2.815  22.616  1.00  0.00     0.100 A 
ATOM      3  C   UNL     1      73.350  -3.130  23.325  1.00  0.00     0.197 A 
ATOM      4  O   UNL     1      72.419  -3.713  22.711  1.00  0.00    -0.289 OA
ATOM      5  C   UNL     1      73.265  -2.825  24.704  1.00  0.00     0.107 A 
ATOM      6  C   UNL     1      72.118  -3.063  25.519  1.00  0.00     0.134 A 
ATOM      7  C   UNL     1      72.190  -2.828  26.898  1.00  0.00     0.093 A 
ATOM      8  C   UNL     1      73.348  -2.306  27.480  1.00  0.00     0.123 A 
ATOM      9  C   UNL     1      74.454  -2.021  26.685  1.00  0.00     0.094 A 
ATOM     10  C   UNL     1      74.425  -2.277  25.312  1.00  0.00     0.146 A 
ATOM     11  O   UNL     1      75.507  -2.003  24.591  1.00  0.00    -0.456 OA
ENDROOT
BRANCH   1  12
ATOM     12  C   UNL     1      76.851  -1.872  22.578  1.00  0.00     0.021 A 
ATOM     13  C   UNL     1      77.420  -2.721  21.610  1.00  0.00     0.016 A 
ATOM     14  C   UNL     1      78.599  -2.356  20.954  1.00  0.00     0.051 A 
ATOM     15  C   UNL     1      79.223  -1.137  21.245  1.00  0.00     0.157 A 
ATOM     16  C   UNL     1      77.477  -0.644  22.854  1.00  0.00     0.062 A 
ATOM     17  C   UNL     1      78.657  -0.277  22.199  1.00  0.00     0.158 A 
BRANCH  15  18
ATOM     18  O   UNL     1      80.399  -0.778  20.588  1.00  0.00    -0.504 OA
ATOM     19  H   UNL     1      80.798  -1.357  19.858  1.00  0.00     0.293 HD
ENDBRANCH  15  18
BRANCH  17  20
ATOM     20  O   UNL     1      79.252   0.945  22.509  1.00  0.00    -0.504 OA
ATOM     21  H   UNL     1      79.072   1.785  21.971  1.00  0.00     0.293 HD
ENDBRANCH  17  20
ENDBRANCH   1  12
BRANCH   6  22
ATOM     22  O   UNL     1      70.885  -3.502  25.025  1.00  0.00    -0.507 OA
ATOM     23  H   UNL     1      70.219  -4.053  25.544  1.00  0.00     0.293 HD
ENDBRANCH   6  22
BRANCH   8  24
ATOM     24  O   UNL     1      73.405  -2.062  28.851  1.00  0.00    -0.508 OA
ATOM     25  H   UNL     1      74.095  -2.510  29.441  1.00  0.00     0.293 HD
ENDBRANCH   8  24
TORSDOF 5
ENDMDL
MODEL 5
REMARK VINA RESULT:    -7.177     11.179     12.418
REMARK INTER + INTRA:          -8.722
REMARK INTER:                  -8.431
REMARK INTRA:                  -0.291
REMARK UNBOUND:                -0.286
REMARK SMILES O=c1cc(-c2ccc(O)c(O)c2)oc2cc(O)cc(O)c12
REMARK SMILES IDX 4 1 3 2 2 3 1 4 21 5 19 6 18 7 16 8 15 9 14 10 13 11 5 12
REMARK SMILES IDX 6 13 7 14 8 15 12 16 10 17 9 18 11 20 20 22 17 24
REMARK H PARENT 9 19 11 21 20 23 17 25
REMARK Flexibility Score: inf
ROOT
ATOM      1  C   UNL     1      73.252  -1.056  26.153  1.00  0.00     0.138 A 
ATOM      2  C   UNL     1      73.650   0.186  26.668  1.00  0.00     0.100 A 
ATOM      3  C   UNL     1      74.844   0.763  26.235  1.00  0.00     0.197 A 
ATOM      4  O   UNL     1      75.205   1.848  26.761  1.00  0.00    -0.289 OA
ATOM      5  C   UNL     1      75.627   0.107  25.255  1.00  0.00     0.107 A 
ATOM      6  C   UNL     1      76.841   0.620  24.709  1.00  0.00     0.134 A 
ATOM      7  C   UNL     1      77.592  -0.172  23.831  1.00  0.00     0.093 A 
ATOM      8  C   UNL     1      77.141  -1.433  23.434  1.00  0.00     0.123 A 
ATOM      9  C   UNL     1      75.931  -1.921  23.921  1.00  0.00     0.094 A 
ATOM     10  C   UNL     1      75.177  -1.169  24.824  1.00  0.00     0.146 A 
ATOM     11  O   UNL     1      74.034  -1.677  25.276  1.00  0.00    -0.456 OA
ENDROOT
BRANCH   1  12
ATOM     12  C   UNL     1      71.992  -1.715  26.580  1.00  0.00     0.021 A 
ATOM     13  C   UNL     1      71.777  -3.092  26.388  1.00  0.00     0.016 A 
ATOM     14  C   UNL     1      70.585  -3.688  26.810  1.00  0.00     0.051 A 
ATOM     15  C   UNL     1      69.593  -2.923  27.436  1.00  0.00     0.157 A 
ATOM     16  C   UNL     1      70.997  -0.956  27.222  1.00  0.00     0.062 A 
ATOM     17  C   UNL     1      69.803  -1.550  27.644  1.00  0.00     0.158 A 
BRANCH  15  18
ATOM     18  O   UNL     1      68.405  -3.521  27.853  1.00  0.00    -0.504 OA
ATOM     19  H   UNL     1      68.218  -3.702  28.833  1.00  0.00     0.293 HD
ENDBRANCH  15  18
BRANCH  17  20
ATOM     20  O   UNL     1      68.836  -0.761  28.267  1.00  0.00    -0.504 OA
ATOM     21  H   UNL     1      68.955   0.236  28.394  1.00  0.00     0.293 HD
ENDBRANCH  17  20
ENDBRANCH   1  12
BRANCH   6  22
ATOM     22  O   UNL     1      77.338   1.901  24.973  1.00  0.00    -0.507 OA
ATOM     23  H   UNL     1      78.207   2.267  24.617  1.00  0.00     0.293 HD
ENDBRANCH   6  22
BRANCH   8  24
ATOM     24  O   UNL     1      77.888  -2.208  22.548  1.00  0.00    -0.508 OA
ATOM     25  H   UNL     1      77.606  -3.149  22.299  1.00  0.00     0.293 HD
ENDBRANCH   8  24
TORSDOF 5
ENDMDL
MODEL 6
REMARK VINA RESULT:    -7.146      9.958     11.323
REMARK INTER + INTRA:          -8.686
REMARK INTER:                  -8.368
REMARK INTRA:                  -0.318
REMARK UNBOUND:                -0.286
REMARK SMILES O=c1cc(-c2ccc(O)c(O)c2)oc2cc(O)cc(O)c12
REMARK SMILES IDX 4 1 3 2 2 3 1 4 21 5 19 6 18 7 16 8 15 9 14 10 13 11 5 12
REMARK SMILES IDX 6 13 7 14 8 15 12 16 10 17 9 18 11 20 20 22 17 24
REMARK H PARENT 9 19 11 21 20 23 17 25
REMARK Flexibility Score: inf
ROOT
ATOM      1  C   UNL     1      72.005  -2.476  22.962  1.00  0.00     0.138 A 
ATOM      2  C   UNL     1      72.399  -1.152  23.197  1.00  0.00     0.100 A 
ATOM      3  C   UNL     1      72.058  -0.533  24.400  1.00  0.00     0.197 A 
ATOM      4  O   UNL     1      72.371   0.675  24.557  1.00  0.00    -0.289 OA
ATOM      5  C   UNL     1      71.346  -1.258  25.386  1.00  0.00     0.107 A 
ATOM      6  C   UNL     1      70.979  -0.744  26.666  1.00  0.00     0.134 A 
ATOM      7  C   UNL     1      70.173  -1.513  27.515  1.00  0.00     0.093 A 
ATOM      8  C   UNL     1      69.772  -2.802  27.153  1.00  0.00     0.123 A 
ATOM      9  C   UNL     1      70.169  -3.333  25.929  1.00  0.00     0.094 A 
ATOM     10  C   UNL     1      70.943  -2.577  25.046  1.00  0.00     0.146 A 
ATOM     11  O   UNL     1      71.289  -3.115  23.881  1.00  0.00    -0.456 OA
ENDROOT
BRANCH   1  12
ATOM     12  C   UNL     1      72.341  -3.182  21.699  1.00  0.00     0.021 A 
ATOM     13  C   UNL     1      73.074  -2.555  20.675  1.00  0.00     0.016 A 
ATOM     14  C   UNL     1      73.386  -3.247  19.501  1.00  0.00     0.051 A 
ATOM     15  C   UNL     1      72.980  -4.576  19.334  1.00  0.00     0.157 A 
ATOM     16  C   UNL     1      71.949  -4.521  21.529  1.00  0.00     0.062 A 
ATOM     17  C   UNL     1      72.259  -5.216  20.355  1.00  0.00     0.158 A 
BRANCH  15  18
ATOM     18  O   UNL     1      73.292  -5.262  18.161  1.00  0.00    -0.504 OA
ATOM     19  H   UNL     1      72.593  -5.442  17.449  1.00  0.00     0.293 HD
ENDBRANCH  15  18
BRANCH  17  20
ATOM     20  O   UNL     1      71.843  -6.540  20.220  1.00  0.00    -0.504 OA
ATOM     21  H   UNL     1      71.456  -7.065  20.996  1.00  0.00     0.293 HD
ENDBRANCH  17  20
ENDBRANCH   1  12
BRANCH   6  22
ATOM     22  O   UNL     1      71.398   0.497  27.159  1.00  0.00    -0.507 OA
ATOM     23  H   UNL     1      71.655   0.679  28.117  1.00  0.00     0.293 HD
ENDBRANCH   6  22
BRANCH   8  24
ATOM     24  O   UNL     1      68.983  -3.566  28.011  1.00  0.00    -0.508 OA
ATOM     25  H   UNL     1      68.559  -4.434  27.707  1.00  0.00     0.293 HD
ENDBRANCH   8  24
TORSDOF 5
ENDMDL
MODEL 7
REMARK VINA RESULT:    -7.049      9.571     10.430
REMARK INTER + INTRA:          -8.571
REMARK INTER:                  -8.293
REMARK INTRA:                  -0.278
REMARK UNBOUND:                -0.286
REMARK SMILES O=c1cc(-c2ccc(O)c(O)c2)oc2cc(O)cc(O)c12
REMARK SMILES IDX 4 1 3 2 2 3 1 4 21 5 19 6 18 7 16 8 15 9 14 10 13 11 5 12
REMARK SMILES IDX 6 13 7 14 8 15 12 16 10 17 9 18 11 20 20 22 17 24
REMARK H PARENT 9 19 11 21 20 23 17 25
REMARK Flexibility Score: inf
ROOT
ATOM      1  C   UNL     1      71.727  -3.080  23.964  1.00  0.00     0.138 A 
ATOM      2  C   UNL     1      70.989  -3.474  22.839  1.00  0.00     0.100 A 
ATOM      3  C   UNL     1      71.656  -3.897  21.688  1.00  0.00     0.197 A 
ATOM      4  O   UNL     1      70.969  -4.184  20.675  1.00  0.00    -0.289 OA
ATOM      5  C   UNL     1      73.071  -3.955  21.677  1.00  0.00     0.107 A 
ATOM      6  C   UNL     1      73.856  -4.407  20.575  1.00  0.00     0.134 A 
ATOM      7  C   UNL     1      75.252  -4.310  20.636  1.00  0.00     0.093 A 
ATOM      8  C   UNL     1      75.891  -3.832  21.783  1.00  0.00     0.123 A 
ATOM      9  C   UNL     1      75.135  -3.438  22.883  1.00  0.00     0.094 A 
ATOM     10  C   UNL     1      73.740  -3.490  22.840  1.00  0.00     0.146 A 
ATOM     11  O   UNL     1      73.055  -3.091  23.907  1.00  0.00    -0.456 OA
ENDROOT
BRANCH   1  12
ATOM     12  C   UNL     1      71.068  -2.623  25.213  1.00  0.00     0.021 A 
ATOM     13  C   UNL     1      70.220  -3.467  25.953  1.00  0.00     0.016 A 
ATOM     14  C   UNL     1      69.622  -3.013  27.132  1.00  0.00     0.051 A 
ATOM     15  C   UNL     1      69.866  -1.715  27.596  1.00  0.00     0.157 A 
ATOM     16  C   UNL     1      71.319  -1.325  25.693  1.00  0.00     0.062 A 
ATOM     17  C   UNL     1      70.721  -0.868  26.872  1.00  0.00     0.158 A 
BRANCH  15  18
ATOM     18  O   UNL     1      69.266  -1.266  28.771  1.00  0.00    -0.504 OA
ATOM     19  H   UNL     1      68.861  -0.339  28.841  1.00  0.00     0.293 HD
ENDBRANCH  15  18
BRANCH  17  20
ATOM     20  O   UNL     1      70.987   0.429  27.309  1.00  0.00    -0.504 OA
ATOM     21  H   UNL     1      70.682   0.766  28.214  1.00  0.00     0.293 HD
ENDBRANCH  17  20
ENDBRANCH   1  12
BRANCH   6  22
ATOM     22  O   UNL     1      73.321  -4.980  19.417  1.00  0.00    -0.507 OA
ATOM     23  H   UNL     1      73.864  -5.384  18.669  1.00  0.00     0.293 HD
ENDBRANCH   6  22
BRANCH   8  24
ATOM     24  O   UNL     1      77.282  -3.753  21.840  1.00  0.00    -0.508 OA
ATOM     25  H   UNL     1      77.776  -3.742  22.724  1.00  0.00     0.293 HD
ENDBRANCH   8  24
TORSDOF 5
ENDMDL
MODEL 8
REMARK VINA RESULT:    -7.025      4.845      5.715
REMARK INTER + INTRA:          -8.543
REMARK INTER:                  -8.270
REMARK INTRA:                  -0.273
REMARK UNBOUND:                -0.286
REMARK SMILES O=c1cc(-c2ccc(O)c(O)c2)oc2cc(O)cc(O)c12
REMARK SMILES IDX 4 1 3 2 2 3 1 4 21 5 19 6 18 7 16 8 15 9 14 10 13 11 5 12
REMARK SMILES IDX 6 13 7 14 8 15 12 16 10 17 9 18 11 20 20 22 17 24
REMARK H PARENT 9 19 11 21 20 23 17 25
REMARK Flexibility Score: inf
ROOT
ATOM      1  C   UNL     1      74.224  -5.014  18.743  1.00  0.00     0.138 A 
ATOM      2  C   UNL     1      75.504  -4.485  18.957  1.00  0.00     0.100 A 
ATOM      3  C   UNL     1      76.534  -4.787  18.064  1.00  0.00     0.197 A 
ATOM      4  O   UNL     1      77.686  -4.348  18.317  1.00  0.00    -0.289 OA
ATOM      5  C   UNL     1      76.270  -5.597  16.934  1.00  0.00     0.107 A 
ATOM      6  C   UNL     1      77.231  -5.937  15.936  1.00  0.00     0.134 A 
ATOM      7  C   UNL     1      76.886  -6.842  14.924  1.00  0.00     0.093 A 
ATOM      8  C   UNL     1      75.596  -7.371  14.841  1.00  0.00     0.123 A 
ATOM      9  C   UNL     1      74.635  -7.004  15.780  1.00  0.00     0.094 A 
ATOM     10  C   UNL     1      74.959  -6.131  16.821  1.00  0.00     0.146 A 
ATOM     11  O   UNL     1      74.017  -5.817  17.704  1.00  0.00    -0.456 OA
ENDROOT
BRANCH   1  12
ATOM     12  C   UNL     1      73.092  -4.726  19.660  1.00  0.00     0.021 A 
ATOM     13  C   UNL     1      72.509  -3.447  19.735  1.00  0.00     0.016 A 
ATOM     14  C   UNL     1      71.438  -3.207  20.600  1.00  0.00     0.051 A 
ATOM     15  C   UNL     1      70.927  -4.238  21.397  1.00  0.00     0.157 A 
ATOM     16  C   UNL     1      72.564  -5.759  20.454  1.00  0.00     0.062 A 
ATOM     17  C   UNL     1      71.492  -5.520  21.322  1.00  0.00     0.158 A 
BRANCH  15  18
ATOM     18  O   UNL     1      69.859  -3.993  22.260  1.00  0.00    -0.504 OA
ATOM     19  H   UNL     1      68.968  -3.649  21.918  1.00  0.00     0.293 HD
ENDBRANCH  15  18
BRANCH  17  20
ATOM     20  O   UNL     1      71.004  -6.569  22.100  1.00  0.00    -0.504 OA
ATOM     21  H   UNL     1      71.134  -7.539  21.839  1.00  0.00     0.293 HD
ENDBRANCH  17  20
ENDBRANCH   1  12
BRANCH   6  22
ATOM     22  O   UNL     1      78.521  -5.398  15.878  1.00  0.00    -0.507 OA
ATOM     23  H   UNL     1      78.930  -4.968  15.062  1.00  0.00     0.293 HD
ENDBRANCH   6  22
BRANCH   8  24
ATOM     24  O   UNL     1      75.257  -8.259  13.822  1.00  0.00    -0.508 OA
ATOM     25  H   UNL     1      74.718  -7.962  13.018  1.00  0.00     0.293 HD
ENDBRANCH   8  24
TORSDOF 5
ENDMDL
MODEL 9
REMARK VINA RESULT:    -7.004      1.471      6.991
REMARK INTER + INTRA:          -8.519
REMARK INTER:                  -8.253
REMARK INTRA:                  -0.266
REMARK UNBOUND:                -0.286
REMARK SMILES O=c1cc(-c2ccc(O)c(O)c2)oc2cc(O)cc(O)c12
REMARK SMILES IDX 4 1 3 2 2 3 1 4 21 5 19 6 18 7 16 8 15 9 14 10 13 11 5 12
REMARK SMILES IDX 6 13 7 14 8 15 12 16 10 17 9 18 11 20 20 22 17 24
REMARK H PARENT 9 19 11 21 20 23 17 25
REMARK Flexibility Score: inf
ROOT
ATOM      1  C   UNL     1      76.535  -8.254  17.181  1.00  0.00     0.138 A 
ATOM      2  C   UNL     1      76.721  -7.456  18.319  1.00  0.00     0.100 A 
ATOM      3  C   UNL     1      77.296  -8.009  19.464  1.00  0.00     0.197 A 
ATOM      4  O   UNL     1      77.393  -7.286  20.488  1.00  0.00    -0.289 OA
ATOM      5  C   UNL     1      77.716  -9.361  19.457  1.00  0.00     0.107 A 
ATOM      6  C   UNL     1      78.350 -10.021  20.552  1.00  0.00     0.134 A 
ATOM      7  C   UNL     1      78.615 -11.394  20.472  1.00  0.00     0.093 A 
ATOM      8  C   UNL     1      78.323 -12.116  19.312  1.00  0.00     0.123 A 
ATOM      9  C   UNL     1      77.752 -11.471  18.219  1.00  0.00     0.094 A 
ATOM     10  C   UNL     1      77.444 -10.110  18.281  1.00  0.00     0.146 A 
ATOM     11  O   UNL     1      76.887  -9.535  17.221  1.00  0.00    -0.456 OA
ENDROOT
BRANCH   1  12
ATOM     12  C   UNL     1      75.929  -7.716  15.937  1.00  0.00     0.021 A 
ATOM     13  C   UNL     1      74.742  -8.252  15.402  1.00  0.00     0.016 A 
ATOM     14  C   UNL     1      74.188  -7.718  14.235  1.00  0.00     0.051 A 
ATOM     15  C   UNL     1      74.802  -6.639  13.588  1.00  0.00     0.157 A 
ATOM     16  C   UNL     1      76.531  -6.623  15.290  1.00  0.00     0.062 A 
ATOM     17  C   UNL     1      75.978  -6.088  14.121  1.00  0.00     0.158 A 
BRANCH  15  18
ATOM     18  O   UNL     1      74.246  -6.111  12.424  1.00  0.00    -0.504 OA
ATOM     19  H   UNL     1      73.580  -6.636  11.868  1.00  0.00     0.293 HD
ENDBRANCH  15  18
BRANCH  17  20
ATOM     20  O   UNL     1      76.612  -5.010  13.503  1.00  0.00    -0.504 OA
ATOM     21  H   UNL     1      77.570  -4.756  13.712  1.00  0.00     0.293 HD
ENDBRANCH  17  20
ENDBRANCH   1  12
BRANCH   6  22
ATOM     22  O   UNL     1      78.762  -9.373  21.721  1.00  0.00    -0.507 OA
ATOM     23  H   UNL     1      79.462  -9.722  22.357  1.00  0.00     0.293 HD
ENDBRANCH   6  22
BRANCH   8  24
ATOM     24  O   UNL     1      78.604 -13.480  19.236  1.00  0.00    -0.508 OA
ATOM     25  H   UNL     1      79.195 -13.938  19.919  1.00  0.00     0.293 HD
ENDBRANCH   8  24
TORSDOF 5
ENDMDL
