MODEL 1
REMARK VINA RESULT:    -4.596      0.000      0.000
REMARK INTER + INTRA:          -7.844
REMARK INTER:                  -7.283
REMARK INTRA:                  -0.561
REMARK UNBOUND:                -0.561
REMARK SMILES CCCCCCCCCCCC(=O)[O-]
REMARK SMILES IDX 7 1 8 2 9 3 10 4 11 5 12 6 13 7 14 8 6 9 5 10 4 11 3 12 2 13
REMARK SMILES IDX 1 14
REMARK H PARENT
REMARK Flexibility Score: inf
ROOT
ATOM      1  C   UNL     1       0.595   7.184  16.777  1.00  0.00     0.000 C 
ENDROOT
BRANCH   1   2
ATOM      2  C   UNL     1       0.329   5.798  17.390  1.00  0.00     0.000 C 
BRANCH   2   3
ATOM      3  C   UNL     1      -1.070   5.212  17.113  1.00  0.00     0.000 C 
BRANCH   3   4
ATOM      4  C   UNL     1      -1.147   4.233  15.928  1.00  0.00     0.006 C 
BRANCH   4   5
ATOM      5  C   UNL     1      -2.171   3.112  16.147  1.00  0.00     0.053 C 
BRANCH   5   6
ATOM      6  C   UNL     1      -3.562   3.635  15.973  1.00  0.00     0.041 C 
ATOM      7  O   UNL     1      -3.839   4.390  15.005  1.00  0.00    -0.550 OA
ATOM      8  O   UNL     1      -4.541   3.328  16.910  1.00  0.00    -0.550 OA
ENDBRANCH   5   6
ENDBRANCH   4   5
ENDBRANCH   3   4
ENDBRANCH   2   3
ENDBRANCH   1   2
BRANCH   1   9
ATOM      9  C   UNL     1       1.302   8.142  17.751  1.00  0.00     0.000 C 
BRANCH   9  10
ATOM     10  C   UNL     1       0.453   8.453  18.993  1.00  0.00    -0.000 C 
BRANCH  10  11
ATOM     11  C   UNL     1       0.972   7.753  20.258  1.00  0.00    -0.000 C 
BRANCH  11  12
ATOM     12  C   UNL     1      -0.094   6.822  20.848  1.00  0.00    -0.000 C 
BRANCH  12  13
ATOM     13  C   UNL     1       0.018   6.754  22.375  1.00  0.00    -0.003 C 
ATOM     14  C   UNL     1       1.475   6.656  22.819  1.00  0.00     0.004 C 
ENDBRANCH  12  13
ENDBRANCH  11  12
ENDBRANCH  10  11
ENDBRANCH   9  10
ENDBRANCH   1   9
TORSDOF 10
ENDMDL
MODEL 2
REMARK VINA RESULT:    -4.538      1.815      3.467
REMARK INTER + INTRA:          -7.752
REMARK INTER:                  -7.184
REMARK INTRA:                  -0.568
REMARK UNBOUND:                -0.561
REMARK SMILES CCCCCCCCCCCC(=O)[O-]
REMARK SMILES IDX 7 1 8 2 9 3 10 4 11 5 12 6 13 7 14 8 6 9 5 10 4 11 3 12 2 13
REMARK SMILES IDX 1 14
REMARK H PARENT
REMARK Flexibility Score: inf
ROOT
ATOM      1  C   UNL     1      -1.440   3.690  16.384  1.00  0.00     0.000 C 
ENDROOT
BRANCH   1   2
ATOM      2  C   UNL     1      -2.840   3.418  15.804  1.00  0.00     0.000 C 
BRANCH   2   3
ATOM      3  C   UNL     1      -3.763   2.554  16.688  1.00  0.00     0.000 C 
BRANCH   3   4
ATOM      4  C   UNL     1      -5.259   2.903  16.606  1.00  0.00     0.006 C 
BRANCH   4   5
ATOM      5  C   UNL     1      -5.550   4.055  15.635  1.00  0.00     0.053 C 
BRANCH   5   6
ATOM      6  C   UNL     1      -6.002   5.268  16.384  1.00  0.00     0.041 C 
ATOM      7  O   UNL     1      -5.311   5.721  17.334  1.00  0.00    -0.550 OA
ATOM      8  O   UNL     1      -7.213   5.870  16.065  1.00  0.00    -0.550 OA
ENDBRANCH   5   6
ENDBRANCH   4   5
ENDBRANCH   3   4
ENDBRANCH   2   3
ENDBRANCH   1   2
BRANCH   1   9
ATOM      9  C   UNL     1      -1.332   5.067  17.060  1.00  0.00     0.000 C 
BRANCH   9  10
ATOM     10  C   UNL     1       0.050   5.710  16.869  1.00  0.00    -0.000 C 
BRANCH  10  11
ATOM     11  C   UNL     1       0.363   6.773  17.933  1.00  0.00    -0.000 C 
BRANCH  11  12
ATOM     12  C   UNL     1      -0.126   6.326  19.316  1.00  0.00    -0.000 C 
BRANCH  12  13
ATOM     13  C   UNL     1       0.459   7.213  20.421  1.00  0.00    -0.003 C 
ATOM     14  C   UNL     1       1.107   8.466  19.837  1.00  0.00     0.004 C 
ENDBRANCH  12  13
ENDBRANCH  11  12
ENDBRANCH  10  11
ENDBRANCH   9  10
ENDBRANCH   1   9
TORSDOF 10
ENDMDL
MODEL 3
REMARK VINA RESULT:    -4.503      1.388      2.264
REMARK INTER + INTRA:          -7.697
REMARK INTER:                  -7.214
REMARK INTRA:                  -0.483
REMARK UNBOUND:                -0.561
REMARK SMILES CCCCCCCCCCCC(=O)[O-]
REMARK SMILES IDX 7 1 8 2 9 3 10 4 11 5 12 6 13 7 14 8 6 9 5 10 4 11 3 12 2 13
REMARK SMILES IDX 1 14
REMARK H PARENT
REMARK Flexibility Score: inf
ROOT
ATOM      1  C   UNL     1      -1.135   5.129  16.850  1.00  0.00     0.000 C 
ENDROOT
BRANCH   1   2
ATOM      2  C   UNL     1      -1.179   3.594  16.951  1.00  0.00     0.000 C 
BRANCH   2   3
ATOM      3  C   UNL     1      -2.378   2.922  16.251  1.00  0.00     0.000 C 
BRANCH   3   4
ATOM      4  C   UNL     1      -3.164   3.830  15.288  1.00  0.00     0.006 C 
BRANCH   4   5
ATOM      5  C   UNL     1      -4.682   3.629  15.387  1.00  0.00     0.053 C 
BRANCH   5   6
ATOM      6  C   UNL     1      -5.319   4.794  16.077  1.00  0.00     0.041 C 
ATOM      7  O   UNL     1      -4.633   5.541  16.823  1.00  0.00    -0.550 OA
ATOM      8  O   UNL     1      -6.681   5.025  15.935  1.00  0.00    -0.550 OA
ENDBRANCH   5   6
ENDBRANCH   4   5
ENDBRANCH   3   4
ENDBRANCH   2   3
ENDBRANCH   1   2
BRANCH   1   9
ATOM      9  C   UNL     1       0.262   5.706  17.134  1.00  0.00     0.000 C 
BRANCH   9  10
ATOM     10  C   UNL     1       0.232   6.847  18.162  1.00  0.00    -0.000 C 
BRANCH  10  11
ATOM     11  C   UNL     1      -0.001   6.349  19.596  1.00  0.00    -0.000 C 
BRANCH  11  12
ATOM     12  C   UNL     1       0.408   7.414  20.621  1.00  0.00    -0.000 C 
BRANCH  12  13
ATOM     13  C   UNL     1       0.682   6.784  21.991  1.00  0.00    -0.003 C 
ATOM     14  C   UNL     1      -0.598   6.679  22.816  1.00  0.00     0.004 C 
ENDBRANCH  12  13
ENDBRANCH  11  12
ENDBRANCH  10  11
ENDBRANCH   9  10
ENDBRANCH   1   9
TORSDOF 10
ENDMDL
MODEL 4
REMARK VINA RESULT:    -4.430      4.883      7.486
REMARK INTER + INTRA:          -7.581
REMARK INTER:                  -6.074
REMARK INTRA:                  -1.507
REMARK UNBOUND:                -0.561
REMARK SMILES CCCCCCCCCCCC(=O)[O-]
REMARK SMILES IDX 7 1 8 2 9 3 10 4 11 5 12 6 13 7 14 8 6 9 5 10 4 11 3 12 2 13
REMARK SMILES IDX 1 14
REMARK H PARENT
REMARK Flexibility Score: inf
ROOT
ATOM      1  C   UNL     1      -5.698   6.724  16.161  1.00  0.00     0.000 C 
ENDROOT
BRANCH   1   2
ATOM      2  C   UNL     1      -4.731   5.691  16.766  1.00  0.00     0.000 C 
BRANCH   2   3
ATOM      3  C   UNL     1      -5.314   4.275  16.956  1.00  0.00     0.000 C 
BRANCH   3   4
ATOM      4  C   UNL     1      -4.358   3.123  16.599  1.00  0.00     0.006 C 
BRANCH   4   5
ATOM      5  C   UNL     1      -3.265   3.541  15.607  1.00  0.00     0.053 C 
BRANCH   5   6
ATOM      6  C   UNL     1      -1.910   3.357  16.215  1.00  0.00     0.041 C 
ATOM      7  O   UNL     1      -0.995   4.190  15.984  1.00  0.00    -0.550 OA
ATOM      8  O   UNL     1      -1.645   2.239  16.995  1.00  0.00    -0.550 OA
ENDBRANCH   5   6
ENDBRANCH   4   5
ENDBRANCH   3   4
ENDBRANCH   2   3
ENDBRANCH   1   2
BRANCH   1   9
ATOM      9  C   UNL     1      -7.138   6.569  16.679  1.00  0.00     0.000 C 
BRANCH   9  10
ATOM     10  C   UNL     1      -8.159   6.403  15.542  1.00  0.00    -0.000 C 
BRANCH  10  11
ATOM     11  C   UNL     1      -7.505   6.013  14.208  1.00  0.00    -0.000 C 
BRANCH  11  12
ATOM     12  C   UNL     1      -7.547   4.495  13.999  1.00  0.00    -0.000 C 
BRANCH  12  13
ATOM     13  C   UNL     1      -6.297   4.005  13.260  1.00  0.00    -0.003 C 
ATOM     14  C   UNL     1      -5.413   5.175  12.835  1.00  0.00     0.004 C 
ENDBRANCH  12  13
ENDBRANCH  11  12
ENDBRANCH  10  11
ENDBRANCH   9  10
ENDBRANCH   1   9
TORSDOF 10
ENDMDL
MODEL 5
REMARK VINA RESULT:    -4.373      4.818      7.367
REMARK INTER + INTRA:          -7.490
REMARK INTER:                  -6.075
REMARK INTRA:                  -1.415
REMARK UNBOUND:                -0.561
REMARK SMILES CCCCCCCCCCCC(=O)[O-]
REMARK SMILES IDX 7 1 8 2 9 3 10 4 11 5 12 6 13 7 14 8 6 9 5 10 4 11 3 12 2 13
REMARK SMILES IDX 1 14
REMARK H PARENT
REMARK Flexibility Score: inf
ROOT
ATOM      1  C   UNL     1      -6.019   6.465  17.362  1.00  0.00     0.000 C 
ENDROOT
BRANCH   1   2
ATOM      2  C   UNL     1      -4.890   5.480  17.008  1.00  0.00     0.000 C 
BRANCH   2   3
ATOM      3  C   UNL     1      -5.308   3.998  16.935  1.00  0.00     0.000 C 
BRANCH   3   4
ATOM      4  C   UNL     1      -4.245   3.047  16.356  1.00  0.00     0.006 C 
BRANCH   4   5
ATOM      5  C   UNL     1      -3.130   3.788  15.606  1.00  0.00     0.053 C 
BRANCH   5   6
ATOM      6  C   UNL     1      -1.795   3.452  16.193  1.00  0.00     0.041 C 
ATOM      7  O   UNL     1      -0.793   4.173  15.942  1.00  0.00    -0.550 OA
ATOM      8  O   UNL     1      -1.646   2.314  16.975  1.00  0.00    -0.550 OA
ENDBRANCH   5   6
ENDBRANCH   4   5
ENDBRANCH   3   4
ENDBRANCH   2   3
ENDBRANCH   1   2
BRANCH   1   9
ATOM      9  C   UNL     1      -6.818   6.924  16.131  1.00  0.00     0.000 C 
BRANCH   9  10
ATOM     10  C   UNL     1      -5.914   7.293  14.944  1.00  0.00    -0.000 C 
BRANCH  10  11
ATOM     11  C   UNL     1      -6.400   6.691  13.617  1.00  0.00    -0.000 C 
BRANCH  11  12
ATOM     12  C   UNL     1      -5.687   5.367  13.320  1.00  0.00    -0.000 C 
BRANCH  12  13
ATOM     13  C   UNL     1      -6.649   4.181  13.453  1.00  0.00    -0.003 C 
ATOM     14  C   UNL     1      -8.103   4.644  13.427  1.00  0.00     0.004 C 
ENDBRANCH  12  13
ENDBRANCH  11  12
ENDBRANCH  10  11
ENDBRANCH   9  10
ENDBRANCH   1   9
TORSDOF 10
ENDMDL
MODEL 6
REMARK VINA RESULT:    -4.365      3.428      7.226
REMARK INTER + INTRA:          -7.478
REMARK INTER:                  -6.396
REMARK INTRA:                  -1.081
REMARK UNBOUND:                -0.561
REMARK SMILES CCCCCCCCCCCC(=O)[O-]
REMARK SMILES IDX 7 1 8 2 9 3 10 4 11 5 12 6 13 7 14 8 6 9 5 10 4 11 3 12 2 13
REMARK SMILES IDX 1 14
REMARK H PARENT
REMARK Flexibility Score: inf
ROOT
ATOM      1  C   UNL     1      -5.051   2.966  16.547  1.00  0.00     0.000 C 
ENDROOT
BRANCH   1   2
ATOM      2  C   UNL     1      -3.628   2.514  16.921  1.00  0.00     0.000 C 
BRANCH   2   3
ATOM      3  C   UNL     1      -2.512   2.999  15.974  1.00  0.00     0.000 C 
BRANCH   3   4
ATOM      4  C   UNL     1      -1.307   3.659  16.667  1.00  0.00     0.006 C 
BRANCH   4   5
ATOM      5  C   UNL     1      -1.396   5.190  16.686  1.00  0.00     0.053 C 
BRANCH   5   6
ATOM      6  C   UNL     1      -0.238   5.771  17.435  1.00  0.00     0.041 C 
ATOM      7  O   UNL     1       0.570   6.541  16.854  1.00  0.00    -0.550 OA
ATOM      8  O   UNL     1      -0.024   5.422  18.763  1.00  0.00    -0.550 OA
ENDBRANCH   5   6
ENDBRANCH   4   5
ENDBRANCH   3   4
ENDBRANCH   2   3
ENDBRANCH   1   2
BRANCH   1   9
ATOM      9  C   UNL     1      -5.380   4.381  17.053  1.00  0.00     0.000 C 
BRANCH   9  10
ATOM     10  C   UNL     1      -5.877   5.307  15.932  1.00  0.00    -0.000 C 
BRANCH  10  11
ATOM     11  C   UNL     1      -4.742   5.799  15.022  1.00  0.00    -0.000 C 
BRANCH  11  12
ATOM     12  C   UNL     1      -5.150   5.724  13.546  1.00  0.00    -0.000 C 
BRANCH  12  13
ATOM     13  C   UNL     1      -5.570   4.301  13.162  1.00  0.00    -0.003 C 
ATOM     14  C   UNL     1      -6.980   4.280  12.578  1.00  0.00     0.004 C 
ENDBRANCH  12  13
ENDBRANCH  11  12
ENDBRANCH  10  11
ENDBRANCH   9  10
ENDBRANCH   1   9
TORSDOF 10
ENDMDL
MODEL 7
REMARK VINA RESULT:    -4.313      3.592      6.678
REMARK INTER + INTRA:          -7.396
REMARK INTER:                  -6.930
REMARK INTRA:                  -0.465
REMARK UNBOUND:                -0.561
REMARK SMILES CCCCCCCCCCCC(=O)[O-]
REMARK SMILES IDX 7 1 8 2 9 3 10 4 11 5 12 6 13 7 14 8 6 9 5 10 4 11 3 12 2 13
REMARK SMILES IDX 1 14
REMARK H PARENT
REMARK Flexibility Score: inf
ROOT
ATOM      1  C   UNL     1      -0.674   4.545  16.548  1.00  0.00     0.000 C 
ENDROOT
BRANCH   1   2
ATOM      2  C   UNL     1      -0.258   5.809  17.321  1.00  0.00     0.000 C 
BRANCH   2   3
ATOM      3  C   UNL     1      -0.011   5.608  18.830  1.00  0.00     0.000 C 
BRANCH   3   4
ATOM      4  C   UNL     1      -0.161   6.875  19.691  1.00  0.00     0.006 C 
BRANCH   4   5
ATOM      5  C   UNL     1       1.010   7.078  20.661  1.00  0.00     0.053 C 
BRANCH   5   6
ATOM      6  C   UNL     1       0.610   6.693  22.050  1.00  0.00     0.041 C 
ATOM      7  O   UNL     1      -0.607   6.605  22.358  1.00  0.00    -0.550 OA
ATOM      8  O   UNL     1       1.583   6.479  23.019  1.00  0.00    -0.550 OA
ENDBRANCH   5   6
ENDBRANCH   4   5
ENDBRANCH   3   4
ENDBRANCH   2   3
ENDBRANCH   1   2
BRANCH   1   9
ATOM      9  C   UNL     1      -2.084   4.652  15.943  1.00  0.00     0.000 C 
BRANCH   9  10
ATOM     10  C   UNL     1      -2.879   3.343  16.066  1.00  0.00    -0.000 C 
BRANCH  10  11
ATOM     11  C   UNL     1      -4.305   3.562  16.594  1.00  0.00    -0.000 C 
BRANCH  11  12
ATOM     12  C   UNL     1      -4.826   4.952  16.210  1.00  0.00    -0.000 C 
BRANCH  12  13
ATOM     13  C   UNL     1      -5.325   5.714  17.443  1.00  0.00    -0.003 C 
ATOM     14  C   UNL     1      -6.186   6.909  17.043  1.00  0.00     0.004 C 
ENDBRANCH  12  13
ENDBRANCH  11  12
ENDBRANCH  10  11
ENDBRANCH   9  10
ENDBRANCH   1   9
TORSDOF 10
ENDMDL
MODEL 8
REMARK VINA RESULT:    -4.248      5.600      8.443
REMARK INTER + INTRA:          -7.293
REMARK INTER:                  -5.828
REMARK INTRA:                  -1.465
REMARK UNBOUND:                -0.561
REMARK SMILES CCCCCCCCCCCC(=O)[O-]
REMARK SMILES IDX 7 1 8 2 9 3 10 4 11 5 12 6 13 7 14 8 6 9 5 10 4 11 3 12 2 13
REMARK SMILES IDX 1 14
REMARK H PARENT
REMARK Flexibility Score: inf
ROOT
ATOM      1  C   UNL     1      -8.059   7.001  15.626  1.00  0.00     0.000 C 
ENDROOT
BRANCH   1   2
ATOM      2  C   UNL     1      -6.894   6.673  16.578  1.00  0.00     0.000 C 
BRANCH   2   3
ATOM      3  C   UNL     1      -5.500   6.622  15.920  1.00  0.00     0.000 C 
BRANCH   3   4
ATOM      4  C   UNL     1      -4.701   5.333  16.183  1.00  0.00     0.006 C 
BRANCH   4   5
ATOM      5  C   UNL     1      -5.600   4.123  16.467  1.00  0.00     0.053 C 
BRANCH   5   6
ATOM      6  C   UNL     1      -4.776   2.883  16.614  1.00  0.00     0.041 C 
ATOM      7  O   UNL     1      -5.293   1.827  17.063  1.00  0.00    -0.550 OA
ATOM      8  O   UNL     1      -3.422   2.908  16.301  1.00  0.00    -0.550 OA
ENDBRANCH   5   6
ENDBRANCH   4   5
ENDBRANCH   3   4
ENDBRANCH   2   3
ENDBRANCH   1   2
BRANCH   1   9
ATOM      9  C   UNL     1      -8.608   5.759  14.905  1.00  0.00     0.000 C 
BRANCH   9  10
ATOM     10  C   UNL     1      -8.972   6.041  13.439  1.00  0.00    -0.000 C 
BRANCH  10  11
ATOM     11  C   UNL     1      -8.205   5.145  12.454  1.00  0.00    -0.000 C 
BRANCH  11  12
ATOM     12  C   UNL     1      -7.287   4.169  13.199  1.00  0.00    -0.000 C 
BRANCH  12  13
ATOM     13  C   UNL     1      -5.875   4.178  12.604  1.00  0.00    -0.003 C 
ATOM     14  C   UNL     1      -5.387   5.603  12.360  1.00  0.00     0.004 C 
ENDBRANCH  12  13
ENDBRANCH  11  12
ENDBRANCH  10  11
ENDBRANCH   9  10
ENDBRANCH   1   9
TORSDOF 10
ENDMDL
MODEL 9
REMARK VINA RESULT:    -4.196      3.967      6.451
REMARK INTER + INTRA:          -7.209
REMARK INTER:                  -6.072
REMARK INTRA:                  -1.138
REMARK UNBOUND:                -0.561
REMARK SMILES CCCCCCCCCCCC(=O)[O-]
REMARK SMILES IDX 7 1 8 2 9 3 10 4 11 5 12 6 13 7 14 8 6 9 5 10 4 11 3 12 2 13
REMARK SMILES IDX 1 14
REMARK H PARENT
REMARK Flexibility Score: inf
ROOT
ATOM      1  C   UNL     1      -5.905   6.350  17.440  1.00  0.00     0.000 C 
ENDROOT
BRANCH   1   2
ATOM      2  C   UNL     1      -6.583   7.054  16.252  1.00  0.00     0.000 C 
BRANCH   2   3
ATOM      3  C   UNL     1      -7.851   6.362  15.712  1.00  0.00     0.000 C 
BRANCH   3   4
ATOM      4  C   UNL     1      -7.795   5.960  14.227  1.00  0.00     0.006 C 
BRANCH   4   5
ATOM      5  C   UNL     1      -7.297   4.524  14.018  1.00  0.00     0.053 C 
BRANCH   5   6
ATOM      6  C   UNL     1      -5.989   4.525  13.292  1.00  0.00     0.041 C 
ATOM      7  O   UNL     1      -5.109   5.379  13.574  1.00  0.00    -0.550 OA
ATOM      8  O   UNL     1      -5.762   3.613  12.269  1.00  0.00    -0.550 OA
ENDBRANCH   5   6
ENDBRANCH   4   5
ENDBRANCH   3   4
ENDBRANCH   2   3
ENDBRANCH   1   2
BRANCH   1   9
ATOM      9  C   UNL     1      -4.848   5.324  17.002  1.00  0.00     0.000 C 
BRANCH   9  10
ATOM     10  C   UNL     1      -5.388   3.885  17.000  1.00  0.00    -0.000 C 
BRANCH  10  11
ATOM     11  C   UNL     1      -4.349   2.861  16.518  1.00  0.00    -0.000 C 
BRANCH  11  12
ATOM     12  C   UNL     1      -3.143   3.560  15.881  1.00  0.00    -0.000 C 
BRANCH  12  13
ATOM     13  C   UNL     1      -1.836   3.126  16.553  1.00  0.00    -0.003 C 
ATOM     14  C   UNL     1      -0.884   4.308  16.726  1.00  0.00     0.004 C 
ENDBRANCH  12  13
ENDBRANCH  11  12
ENDBRANCH  10  11
ENDBRANCH   9  10
ENDBRANCH   1   9
TORSDOF 10
ENDMDL
