MODEL 1
REMARK VINA RESULT:    25.663      0.000      0.000
REMARK INTER + INTRA:          30.141
REMARK INTER:                  30.164
REMARK INTRA:                  -0.023
REMARK UNBOUND:                -0.023
REMARK SMILES O=c1c(O)c(-c2ccc(O)cc2)oc2cc(O)cc(O)c12
REMARK SMILES IDX 5 1 3 2 2 3 1 4 21 5 19 6 18 7 16 8 15 9 14 10 13 11 6 12
REMARK SMILES IDX 7 13 8 14 9 15 12 16 11 17 10 18 4 20 20 22 17 24
REMARK H PARENT 10 19 4 21 20 23 17 25
REMARK Flexibility Score: inf
ROOT
ATOM      1  C   UNL     1      17.456  41.049  10.610  1.00  0.00     0.180 A 
ATOM      2  C   UNL     1      18.410  40.131  10.138  1.00  0.00     0.208 A 
ATOM      3  C   UNL     1      19.773  40.389  10.362  1.00  0.00     0.238 A 
ATOM      4  O   UNL     1      20.623  39.602   9.872  1.00  0.00    -0.285 OA
ATOM      5  C   UNL     1      20.162  41.531  11.103  1.00  0.00     0.111 A 
ATOM      6  C   UNL     1      21.510  41.867  11.428  1.00  0.00     0.134 A 
ATOM      7  C   UNL     1      21.783  43.079  12.075  1.00  0.00     0.093 A 
ATOM      8  C   UNL     1      20.755  43.935  12.466  1.00  0.00     0.123 A 
ATOM      9  C   UNL     1      19.429  43.591  12.201  1.00  0.00     0.094 A 
ATOM     10  C   UNL     1      19.127  42.408  11.523  1.00  0.00     0.146 A 
ATOM     11  O   UNL     1      17.853  42.129  11.273  1.00  0.00    -0.452 OA
ENDROOT
BRANCH   1  12
ATOM     12  C   UNL     1      16.003  40.854  10.400  1.00  0.00     0.021 A 
ATOM     13  C   UNL     1      15.389  39.682  10.873  1.00  0.00     0.016 A 
ATOM     14  C   UNL     1      14.015  39.487  10.706  1.00  0.00     0.047 A 
ATOM     15  C   UNL     1      13.235  40.467  10.078  1.00  0.00     0.115 A 
ATOM     16  C   UNL     1      15.211  41.843   9.789  1.00  0.00     0.016 A 
ATOM     17  C   UNL     1      13.836  41.644   9.623  1.00  0.00     0.047 A 
BRANCH  15  18
ATOM     18  O   UNL     1      11.865  40.283   9.906  1.00  0.00    -0.508 OA
ATOM     19  H   UNL     1      11.194  40.661  10.564  1.00  0.00     0.293 HD
ENDBRANCH  15  18
ENDBRANCH   1  12
BRANCH   2  20
ATOM     20  O   UNL     1      18.002  38.971   9.476  1.00  0.00    -0.502 OA
ATOM     21  H   UNL     1      17.054  38.837   9.143  1.00  0.00     0.293 HD
ENDBRANCH   2  20
BRANCH   6  22
ATOM     22  O   UNL     1      22.609  41.043  11.166  1.00  0.00    -0.507 OA
ATOM     23  H   UNL     1      22.699  40.085  11.471  1.00  0.00     0.293 HD
ENDBRANCH   6  22
BRANCH   8  24
ATOM     24  O   UNL     1      21.062  45.125  13.123  1.00  0.00    -0.508 OA
ATOM     25  H   UNL     1      22.004  45.331  13.433  1.00  0.00     0.293 HD
ENDBRANCH   8  24
TORSDOF 5
ENDMDL
