MODEL 1
REMARK VINA RESULT:    -5.813      0.000      0.000
REMARK INTER + INTRA:          -7.190
REMARK INTER:                  -7.003
REMARK INTRA:                  -0.188
REMARK UNBOUND:                -0.188
REMARK SMILES O=c1c(O)c(-c2ccc(O)c(O)c2)oc2cc(O)cc(O)c12
REMARK SMILES IDX 5 1 3 2 2 3 1 4 22 5 20 6 19 7 17 8 16 9 15 10 14 11 6 12
REMARK SMILES IDX 7 13 8 14 9 15 13 16 11 17 10 18 12 20 4 22 21 24 18 26
REMARK H PARENT 10 19 12 21 4 23 21 25 18 27
REMARK Flexibility Score: inf
ROOT
ATOM      1  C   UNL     1     -12.526  -7.024  49.154  1.00  0.00     0.180 A 
ATOM      2  C   UNL     1     -12.320  -5.755  49.723  1.00  0.00     0.208 A 
ATOM      3  C   UNL     1     -12.113  -5.654  51.107  1.00  0.00     0.238 A 
ATOM      4  O   UNL     1     -11.875  -4.521  51.602  1.00  0.00    -0.285 OA
ATOM      5  C   UNL     1     -12.130  -6.821  51.910  1.00  0.00     0.111 A 
ATOM      6  C   UNL     1     -11.972  -6.832  53.328  1.00  0.00     0.134 A 
ATOM      7  C   UNL     1     -11.875  -8.056  54.002  1.00  0.00     0.093 A 
ATOM      8  C   UNL     1     -11.997  -9.267  53.318  1.00  0.00     0.123 A 
ATOM      9  C   UNL     1     -12.212  -9.266  51.941  1.00  0.00     0.094 A 
ATOM     10  C   UNL     1     -12.276  -8.062  51.235  1.00  0.00     0.146 A 
ATOM     11  O   UNL     1     -12.471  -8.106  49.923  1.00  0.00    -0.452 OA
ENDROOT
BRANCH   1  12
ATOM     12  C   UNL     1     -12.776  -7.208  47.706  1.00  0.00     0.025 A 
ATOM     13  C   UNL     1     -11.875  -7.965  46.940  1.00  0.00     0.016 A 
ATOM     14  C   UNL     1     -12.103  -8.169  45.577  1.00  0.00     0.051 A 
ATOM     15  C   UNL     1     -13.242  -7.633  44.963  1.00  0.00     0.157 A 
ATOM     16  C   UNL     1     -13.929  -6.689  47.091  1.00  0.00     0.062 A 
ATOM     17  C   UNL     1     -14.159  -6.894  45.722  1.00  0.00     0.158 A 
BRANCH  15  18
ATOM     18  O   UNL     1     -13.472  -7.832  43.604  1.00  0.00    -0.504 OA
ATOM     19  H   UNL     1     -14.141  -7.269  43.091  1.00  0.00     0.293 HD
ENDBRANCH  15  18
BRANCH  17  20
ATOM     20  O   UNL     1     -15.299  -6.373  45.112  1.00  0.00    -0.504 OA
ATOM     21  H   UNL     1     -16.198  -6.377  45.578  1.00  0.00     0.293 HD
ENDBRANCH  17  20
ENDBRANCH   1  12
BRANCH   2  22
ATOM     22  O   UNL     1     -12.285  -4.619  48.909  1.00  0.00    -0.502 OA
ATOM     23  H   UNL     1     -11.773  -3.782  49.165  1.00  0.00     0.293 HD
ENDBRANCH   2  22
BRANCH   6  24
ATOM     24  O   UNL     1     -11.932  -5.679  54.117  1.00  0.00    -0.507 OA
ATOM     25  H   UNL     1     -11.456  -4.826  53.866  1.00  0.00     0.293 HD
ENDBRANCH   6  24
BRANCH   8  26
ATOM     26  O   UNL     1     -11.915 -10.479  53.998  1.00  0.00    -0.508 OA
ATOM     27  H   UNL     1     -11.267 -11.204  53.713  1.00  0.00     0.293 HD
ENDBRANCH   8  26
TORSDOF 6
ENDMDL
MODEL 2
REMARK VINA RESULT:    -5.561      1.257      2.962
REMARK INTER + INTRA:          -6.886
REMARK INTER:                  -6.719
REMARK INTRA:                  -0.167
REMARK UNBOUND:                -0.188
REMARK SMILES O=c1c(O)c(-c2ccc(O)c(O)c2)oc2cc(O)cc(O)c12
REMARK SMILES IDX 5 1 3 2 2 3 1 4 22 5 20 6 19 7 17 8 16 9 15 10 14 11 6 12
REMARK SMILES IDX 7 13 8 14 9 15 13 16 11 17 10 18 12 20 4 22 21 24 18 26
REMARK H PARENT 10 19 12 21 4 23 21 25 18 27
REMARK Flexibility Score: inf
ROOT
ATOM      1  C   UNL     1     -12.673  -7.447  48.882  1.00  0.00     0.180 A 
ATOM      2  C   UNL     1     -12.718  -8.554  49.746  1.00  0.00     0.208 A 
ATOM      3  C   UNL     1     -12.534  -8.351  51.123  1.00  0.00     0.238 A 
ATOM      4  O   UNL     1     -12.629  -9.339  51.898  1.00  0.00    -0.285 OA
ATOM      5  C   UNL     1     -12.292  -7.047  51.618  1.00  0.00     0.111 A 
ATOM      6  C   UNL     1     -12.053  -6.731  52.989  1.00  0.00     0.134 A 
ATOM      7  C   UNL     1     -11.956  -5.390  53.382  1.00  0.00     0.093 A 
ATOM      8  C   UNL     1     -12.024  -4.358  52.443  1.00  0.00     0.123 A 
ATOM      9  C   UNL     1     -12.198  -4.659  51.094  1.00  0.00     0.094 A 
ATOM     10  C   UNL     1     -12.335  -5.985  50.676  1.00  0.00     0.146 A 
ATOM     11  O   UNL     1     -12.511  -6.227  49.383  1.00  0.00    -0.452 OA
ENDROOT
BRANCH   1  12
ATOM     12  C   UNL     1     -12.832  -7.584  47.416  1.00  0.00     0.025 A 
ATOM     13  C   UNL     1     -11.875  -8.300  46.680  1.00  0.00     0.016 A 
ATOM     14  C   UNL     1     -12.017  -8.458  45.299  1.00  0.00     0.051 A 
ATOM     15  C   UNL     1     -13.126  -7.917  44.637  1.00  0.00     0.157 A 
ATOM     16  C   UNL     1     -13.955  -7.059  46.750  1.00  0.00     0.062 A 
ATOM     17  C   UNL     1     -14.099  -7.220  45.364  1.00  0.00     0.158 A 
BRANCH  15  18
ATOM     18  O   UNL     1     -13.271  -8.071  43.260  1.00  0.00    -0.504 OA
ATOM     19  H   UNL     1     -13.425  -8.982  42.842  1.00  0.00     0.293 HD
ENDBRANCH  15  18
BRANCH  17  20
ATOM     20  O   UNL     1     -15.209  -6.694  44.705  1.00  0.00    -0.504 OA
ATOM     21  H   UNL     1     -15.994  -7.276  44.441  1.00  0.00     0.293 HD
ENDBRANCH  17  20
ENDBRANCH   1  12
BRANCH   2  22
ATOM     22  O   UNL     1     -12.979  -9.830  49.239  1.00  0.00    -0.502 OA
ATOM     23  H   UNL     1     -12.621 -10.144  48.345  1.00  0.00     0.293 HD
ENDBRANCH   2  22
BRANCH   6  24
ATOM     24  O   UNL     1     -11.876  -7.690  53.990  1.00  0.00    -0.507 OA
ATOM     25  H   UNL     1     -12.068  -8.674  53.884  1.00  0.00     0.293 HD
ENDBRANCH   6  24
BRANCH   8  26
ATOM     26  O   UNL     1     -11.912  -3.028  52.841  1.00  0.00    -0.508 OA
ATOM     27  H   UNL     1     -11.978  -2.268  52.173  1.00  0.00     0.293 HD
ENDBRANCH   8  26
TORSDOF 6
ENDMDL
MODEL 3
REMARK VINA RESULT:    -5.524      2.356      6.463
REMARK INTER + INTRA:          -6.842
REMARK INTER:                  -6.559
REMARK INTRA:                  -0.283
REMARK UNBOUND:                -0.188
REMARK SMILES O=c1c(O)c(-c2ccc(O)c(O)c2)oc2cc(O)cc(O)c12
REMARK SMILES IDX 5 1 3 2 2 3 1 4 22 5 20 6 19 7 17 8 16 9 15 10 14 11 6 12
REMARK SMILES IDX 7 13 8 14 9 15 13 16 11 17 10 18 12 20 4 22 21 24 18 26
REMARK H PARENT 10 19 12 21 4 23 21 25 18 27
REMARK Flexibility Score: inf
ROOT
ATOM      1  C   UNL     1     -12.870  -9.512  50.607  1.00  0.00     0.180 A 
ATOM      2  C   UNL     1     -12.348  -8.406  51.300  1.00  0.00     0.208 A 
ATOM      3  C   UNL     1     -12.345  -7.150  50.675  1.00  0.00     0.238 A 
ATOM      4  O   UNL     1     -11.926  -6.154  51.321  1.00  0.00    -0.285 OA
ATOM      5  C   UNL     1     -12.848  -7.016  49.358  1.00  0.00     0.111 A 
ATOM      6  C   UNL     1     -12.858  -5.799  48.613  1.00  0.00     0.134 A 
ATOM      7  C   UNL     1     -13.500  -5.755  47.370  1.00  0.00     0.093 A 
ATOM      8  C   UNL     1     -14.075  -6.900  46.816  1.00  0.00     0.123 A 
ATOM      9  C   UNL     1     -14.020  -8.108  47.509  1.00  0.00     0.094 A 
ATOM     10  C   UNL     1     -13.418  -8.175  48.768  1.00  0.00     0.146 A 
ATOM     11  O   UNL     1     -13.396  -9.342  49.399  1.00  0.00    -0.452 OA
ENDROOT
BRANCH   1  12
ATOM     12  C   UNL     1     -12.885 -10.873  51.190  1.00  0.00     0.025 A 
ATOM     13  C   UNL     1     -11.891 -11.794  50.821  1.00  0.00     0.016 A 
ATOM     14  C   UNL     1     -11.875 -13.077  51.375  1.00  0.00     0.051 A 
ATOM     15  C   UNL     1     -12.842 -13.452  52.316  1.00  0.00     0.157 A 
ATOM     16  C   UNL     1     -13.842 -11.247  52.151  1.00  0.00     0.062 A 
ATOM     17  C   UNL     1     -13.825 -12.534  52.708  1.00  0.00     0.158 A 
BRANCH  15  18
ATOM     18  O   UNL     1     -12.830 -14.730  52.869  1.00  0.00    -0.504 OA
ATOM     19  H   UNL     1     -13.662 -15.308  52.886  1.00  0.00     0.293 HD
ENDBRANCH  15  18
BRANCH  17  20
ATOM     20  O   UNL     1     -14.778 -12.906  53.655  1.00  0.00    -0.504 OA
ATOM     21  H   UNL     1     -15.747 -12.626  53.570  1.00  0.00     0.293 HD
ENDBRANCH  17  20
ENDBRANCH   1  12
BRANCH   2  22
ATOM     22  O   UNL     1     -11.875  -8.557  52.607  1.00  0.00    -0.502 OA
ATOM     23  H   UNL     1     -12.269  -8.049  53.390  1.00  0.00     0.293 HD
ENDBRANCH   2  22
BRANCH   6  24
ATOM     24  O   UNL     1     -12.231  -4.622  49.035  1.00  0.00    -0.507 OA
ATOM     25  H   UNL     1     -12.595  -3.693  48.887  1.00  0.00     0.293 HD
ENDBRANCH   6  24
BRANCH   8  26
ATOM     26  O   UNL     1     -14.699  -6.852  45.571  1.00  0.00    -0.508 OA
ATOM     27  H   UNL     1     -15.575  -7.332  45.398  1.00  0.00     0.293 HD
ENDBRANCH   8  26
TORSDOF 6
ENDMDL
MODEL 4
REMARK VINA RESULT:    -5.457      1.220      1.478
REMARK INTER + INTRA:          -6.762
REMARK INTER:                  -6.502
REMARK INTRA:                  -0.260
REMARK UNBOUND:                -0.188
REMARK SMILES O=c1c(O)c(-c2ccc(O)c(O)c2)oc2cc(O)cc(O)c12
REMARK SMILES IDX 5 1 3 2 2 3 1 4 22 5 20 6 19 7 17 8 16 9 15 10 14 11 6 12
REMARK SMILES IDX 7 13 8 14 9 15 13 16 11 17 10 18 12 20 4 22 21 24 18 26
REMARK H PARENT 10 19 12 21 4 23 21 25 18 27
REMARK Flexibility Score: inf
ROOT
ATOM      1  C   UNL     1     -12.634  -8.083  49.233  1.00  0.00     0.180 A 
ATOM      2  C   UNL     1     -12.341  -7.009  50.090  1.00  0.00     0.208 A 
ATOM      3  C   UNL     1     -12.190  -7.255  51.464  1.00  0.00     0.238 A 
ATOM      4  O   UNL     1     -11.875  -6.298  52.218  1.00  0.00    -0.285 OA
ATOM      5  C   UNL     1     -12.350  -8.569  51.967  1.00  0.00     0.111 A 
ATOM      6  C   UNL     1     -12.259  -8.926  53.345  1.00  0.00     0.134 A 
ATOM      7  C   UNL     1     -12.304 -10.277  53.713  1.00  0.00     0.093 A 
ATOM      8  C   UNL     1     -12.502 -11.276  52.759  1.00  0.00     0.123 A 
ATOM      9  C   UNL     1     -12.652 -10.933  51.417  1.00  0.00     0.094 A 
ATOM     10  C   UNL     1     -12.575  -9.598  51.014  1.00  0.00     0.146 A 
ATOM     11  O   UNL     1     -12.712  -9.315  49.725  1.00  0.00    -0.452 OA
ENDROOT
BRANCH   1  12
ATOM     12  C   UNL     1     -12.832  -7.899  47.777  1.00  0.00     0.025 A 
ATOM     13  C   UNL     1     -11.876  -8.402  46.880  1.00  0.00     0.016 A 
ATOM     14  C   UNL     1     -12.054  -8.258  45.502  1.00  0.00     0.051 A 
ATOM     15  C   UNL     1     -13.197  -7.623  45.000  1.00  0.00     0.157 A 
ATOM     16  C   UNL     1     -13.988  -7.281  47.268  1.00  0.00     0.062 A 
ATOM     17  C   UNL     1     -14.168  -7.137  45.884  1.00  0.00     0.158 A 
BRANCH  15  18
ATOM     18  O   UNL     1     -13.377  -7.476  43.626  1.00  0.00    -0.504 OA
ATOM     19  H   UNL     1     -13.134  -6.615  43.149  1.00  0.00     0.293 HD
ENDBRANCH  15  18
BRANCH  17  20
ATOM     20  O   UNL     1     -15.311  -6.518  45.382  1.00  0.00    -0.504 OA
ATOM     21  H   UNL     1     -16.230  -6.925  45.500  1.00  0.00     0.293 HD
ENDBRANCH  17  20
ENDBRANCH   1  12
BRANCH   2  22
ATOM     22  O   UNL     1     -12.167  -5.723  49.570  1.00  0.00    -0.502 OA
ATOM     23  H   UNL     1     -11.268  -5.256  49.563  1.00  0.00     0.293 HD
ENDBRANCH   2  22
BRANCH   6  24
ATOM     24  O   UNL     1     -12.153  -7.999  54.386  1.00  0.00    -0.507 OA
ATOM     25  H   UNL     1     -11.423  -7.997  55.082  1.00  0.00     0.293 HD
ENDBRANCH   6  24
BRANCH   8  26
ATOM     26  O   UNL     1     -12.561 -12.617  53.135  1.00  0.00    -0.508 OA
ATOM     27  H   UNL     1     -11.731 -13.125  53.416  1.00  0.00     0.293 HD
ENDBRANCH   8  26
TORSDOF 6
ENDMDL
MODEL 5
REMARK VINA RESULT:    -5.354      4.054      8.034
REMARK INTER + INTRA:          -6.637
REMARK INTER:                  -6.470
REMARK INTRA:                  -0.166
REMARK UNBOUND:                -0.188
REMARK SMILES O=c1c(O)c(-c2ccc(O)c(O)c2)oc2cc(O)cc(O)c12
REMARK SMILES IDX 5 1 3 2 2 3 1 4 22 5 20 6 19 7 17 8 16 9 15 10 14 11 6 12
REMARK SMILES IDX 7 13 8 14 9 15 13 16 11 17 10 18 12 20 4 22 21 24 18 26
REMARK H PARENT 10 19 12 21 4 23 21 25 18 27
REMARK Flexibility Score: inf
ROOT
ATOM      1  C   UNL     1     -12.731 -12.201  52.933  1.00  0.00     0.180 A 
ATOM      2  C   UNL     1     -12.471 -11.247  53.932  1.00  0.00     0.208 A 
ATOM      3  C   UNL     1     -12.344  -9.897  53.568  1.00  0.00     0.238 A 
ATOM      4  O   UNL     1     -12.164  -9.042  54.473  1.00  0.00    -0.285 OA
ATOM      5  C   UNL     1     -12.461  -9.519  52.209  1.00  0.00     0.111 A 
ATOM      6  C   UNL     1     -12.311  -8.186  51.721  1.00  0.00     0.134 A 
ATOM      7  C   UNL     1     -12.578  -7.908  50.375  1.00  0.00     0.093 A 
ATOM      8  C   UNL     1     -12.927  -8.927  49.485  1.00  0.00     0.123 A 
ATOM      9  C   UNL     1     -13.019 -10.241  49.938  1.00  0.00     0.094 A 
ATOM     10  C   UNL     1     -12.794 -10.544  51.283  1.00  0.00     0.146 A 
ATOM     11  O   UNL     1     -12.903 -11.807  51.676  1.00  0.00    -0.452 OA
ENDROOT
BRANCH   1  12
ATOM     12  C   UNL     1     -12.854 -13.646  53.234  1.00  0.00     0.025 A 
ATOM     13  C   UNL     1     -11.875 -14.536  52.765  1.00  0.00     0.016 A 
ATOM     14  C   UNL     1     -11.961 -15.900  53.055  1.00  0.00     0.051 A 
ATOM     15  C   UNL     1     -13.017 -16.391  53.833  1.00  0.00     0.157 A 
ATOM     16  C   UNL     1     -13.901 -14.140  54.032  1.00  0.00     0.062 A 
ATOM     17  C   UNL     1     -13.987 -15.509  54.326  1.00  0.00     0.158 A 
BRANCH  15  18
ATOM     18  O   UNL     1     -13.107 -17.750  54.124  1.00  0.00    -0.504 OA
ATOM     19  H   UNL     1     -13.619 -18.388  53.525  1.00  0.00     0.293 HD
ENDBRANCH  15  18
BRANCH  17  20
ATOM     20  O   UNL     1     -15.030 -15.999  55.111  1.00  0.00    -0.504 OA
ATOM     21  H   UNL     1     -15.652 -15.377  55.613  1.00  0.00     0.293 HD
ENDBRANCH  17  20
ENDBRANCH   1  12
BRANCH   2  22
ATOM     22  O   UNL     1     -12.379 -11.639  55.270  1.00  0.00    -0.502 OA
ATOM     23  H   UNL     1     -11.928 -12.501  55.555  1.00  0.00     0.293 HD
ENDBRANCH   2  22
BRANCH   6  24
ATOM     24  O   UNL     1     -11.877  -7.114  52.506  1.00  0.00    -0.507 OA
ATOM     25  H   UNL     1     -12.466  -6.579  53.125  1.00  0.00     0.293 HD
ENDBRANCH   6  24
BRANCH   8  26
ATOM     26  O   UNL     1     -13.177  -8.644  48.144  1.00  0.00    -0.508 OA
ATOM     27  H   UNL     1     -12.831  -9.242  47.403  1.00  0.00     0.293 HD
ENDBRANCH   8  26
TORSDOF 6
ENDMDL
MODEL 6
REMARK VINA RESULT:    -5.253      2.123      3.392
REMARK INTER + INTRA:          -6.516
REMARK INTER:                  -6.657
REMARK INTRA:                   0.141
REMARK UNBOUND:                -0.188
REMARK SMILES O=c1c(O)c(-c2ccc(O)c(O)c2)oc2cc(O)cc(O)c12
REMARK SMILES IDX 5 1 3 2 2 3 1 4 22 5 20 6 19 7 17 8 16 9 15 10 14 11 6 12
REMARK SMILES IDX 7 13 8 14 9 15 13 16 11 17 10 18 12 20 4 22 21 24 18 26
REMARK H PARENT 10 19 12 21 4 23 21 25 18 27
REMARK Flexibility Score: inf
ROOT
ATOM      1  C   UNL     1     -12.699  -8.738  50.710  1.00  0.00     0.180 A 
ATOM      2  C   UNL     1     -12.424  -8.124  51.944  1.00  0.00     0.208 A 
ATOM      3  C   UNL     1     -12.283  -8.925  53.088  1.00  0.00     0.238 A 
ATOM      4  O   UNL     1     -11.984  -8.373  54.179  1.00  0.00    -0.285 OA
ATOM      5  C   UNL     1     -12.436 -10.329  52.989  1.00  0.00     0.111 A 
ATOM      6  C   UNL     1     -12.355 -11.233  54.090  1.00  0.00     0.134 A 
ATOM      7  C   UNL     1     -12.391 -12.613  53.854  1.00  0.00     0.093 A 
ATOM      8  C   UNL     1     -12.572 -13.119  52.565  1.00  0.00     0.123 A 
ATOM      9  C   UNL     1     -12.712 -12.243  51.491  1.00  0.00     0.094 A 
ATOM     10  C   UNL     1     -12.644 -10.862  51.689  1.00  0.00     0.146 A 
ATOM     11  O   UNL     1     -12.771 -10.063  50.637  1.00  0.00    -0.452 OA
ENDROOT
BRANCH   1  12
ATOM     12  C   UNL     1     -12.885  -7.959  49.464  1.00  0.00     0.025 A 
ATOM     13  C   UNL     1     -12.003  -6.909  49.168  1.00  0.00     0.016 A 
ATOM     14  C   UNL     1     -12.148  -6.174  47.988  1.00  0.00     0.051 A 
ATOM     15  C   UNL     1     -13.167  -6.490  47.081  1.00  0.00     0.157 A 
ATOM     16  C   UNL     1     -13.895  -8.287  48.541  1.00  0.00     0.062 A 
ATOM     17  C   UNL     1     -14.040  -7.550  47.356  1.00  0.00     0.158 A 
BRANCH  15  18
ATOM     18  O   UNL     1     -13.317  -5.759  45.904  1.00  0.00    -0.504 OA
ATOM     19  H   UNL     1     -13.940  -4.962  45.851  1.00  0.00     0.293 HD
ENDBRANCH  15  18
BRANCH  17  20
ATOM     20  O   UNL     1     -15.045  -7.872  46.445  1.00  0.00    -0.504 OA
ATOM     21  H   UNL     1     -15.178  -8.819  46.114  1.00  0.00     0.293 HD
ENDBRANCH  17  20
ENDBRANCH   1  12
BRANCH   2  22
ATOM     22  O   UNL     1     -12.256  -6.738  52.015  1.00  0.00    -0.502 OA
ATOM     23  H   UNL     1     -12.740  -6.099  51.395  1.00  0.00     0.293 HD
ENDBRANCH   2  22
BRANCH   6  24
ATOM     24  O   UNL     1     -12.266 -10.830  55.425  1.00  0.00    -0.507 OA
ATOM     25  H   UNL     1     -12.841 -11.187  56.173  1.00  0.00     0.293 HD
ENDBRANCH   6  24
BRANCH   8  26
ATOM     26  O   UNL     1     -12.623 -14.493  52.341  1.00  0.00    -0.508 OA
ATOM     27  H   UNL     1     -12.733 -15.151  53.105  1.00  0.00     0.293 HD
ENDBRANCH   8  26
TORSDOF 6
ENDMDL
MODEL 7
REMARK VINA RESULT:    -5.171      2.886      6.475
REMARK INTER + INTRA:          -6.417
REMARK INTER:                  -6.300
REMARK INTRA:                  -0.116
REMARK UNBOUND:                -0.188
REMARK SMILES O=c1c(O)c(-c2ccc(O)c(O)c2)oc2cc(O)cc(O)c12
REMARK SMILES IDX 5 1 3 2 2 3 1 4 22 5 20 6 19 7 17 8 16 9 15 10 14 11 6 12
REMARK SMILES IDX 7 13 8 14 9 15 13 16 11 17 10 18 12 20 4 22 21 24 18 26
REMARK H PARENT 10 19 12 21 4 23 21 25 18 27
REMARK Flexibility Score: inf
ROOT
ATOM      1  C   UNL     1     -12.600 -10.281  51.596  1.00  0.00     0.180 A 
ATOM      2  C   UNL     1     -12.402  -9.952  50.244  1.00  0.00     0.208 A 
ATOM      3  C   UNL     1     -12.178  -8.611  49.895  1.00  0.00     0.238 A 
ATOM      4  O   UNL     1     -11.948  -8.331  48.690  1.00  0.00    -0.285 OA
ATOM      5  C   UNL     1     -12.172  -7.612  50.898  1.00  0.00     0.111 A 
ATOM      6  C   UNL     1     -11.995  -6.218  50.654  1.00  0.00     0.134 A 
ATOM      7  C   UNL     1     -11.876  -5.336  51.735  1.00  0.00     0.093 A 
ATOM      8  C   UNL     1     -11.993  -5.791  53.051  1.00  0.00     0.123 A 
ATOM      9  C   UNL     1     -12.225  -7.142  53.299  1.00  0.00     0.094 A 
ATOM     10  C   UNL     1     -12.312  -8.051  52.242  1.00  0.00     0.146 A 
ATOM     11  O   UNL     1     -12.522  -9.331  52.522  1.00  0.00    -0.452 OA
ENDROOT
BRANCH   1  12
ATOM     12  C   UNL     1     -12.866 -11.668  52.040  1.00  0.00     0.025 A 
ATOM     13  C   UNL     1     -11.891 -12.658  51.838  1.00  0.00     0.016 A 
ATOM     14  C   UNL     1     -12.113 -13.969  52.267  1.00  0.00     0.051 A 
ATOM     15  C   UNL     1     -13.306 -14.306  52.919  1.00  0.00     0.157 A 
ATOM     16  C   UNL     1     -14.054 -12.006  52.713  1.00  0.00     0.062 A 
ATOM     17  C   UNL     1     -14.277 -13.322  53.146  1.00  0.00     0.158 A 
BRANCH  15  18
ATOM     18  O   UNL     1     -13.532 -15.612  53.347  1.00  0.00    -0.504 OA
ATOM     19  H   UNL     1     -14.442 -16.049  53.256  1.00  0.00     0.293 HD
ENDBRANCH  15  18
BRANCH  17  20
ATOM     20  O   UNL     1     -15.458 -13.657  53.807  1.00  0.00    -0.504 OA
ATOM     21  H   UNL     1     -16.243 -14.066  53.316  1.00  0.00     0.293 HD
ENDBRANCH  17  20
ENDBRANCH   1  12
BRANCH   2  22
ATOM     22  O   UNL     1     -12.391 -10.956  49.272  1.00  0.00    -0.502 OA
ATOM     23  H   UNL     1     -11.604 -11.104  48.651  1.00  0.00     0.293 HD
ENDBRANCH   2  22
BRANCH   6  24
ATOM     24  O   UNL     1     -11.959  -5.649  49.377  1.00  0.00    -0.507 OA
ATOM     25  H   UNL     1     -11.371  -5.967  48.622  1.00  0.00     0.293 HD
ENDBRANCH   6  24
BRANCH   8  26
ATOM     26  O   UNL     1     -11.888  -4.905  54.121  1.00  0.00    -0.508 OA
ATOM     27  H   UNL     1     -12.707  -4.571  54.615  1.00  0.00     0.293 HD
ENDBRANCH   8  26
TORSDOF 6
ENDMDL
MODEL 8
REMARK VINA RESULT:    -4.784      3.833      5.935
REMARK INTER + INTRA:          -5.950
REMARK INTER:                  -5.826
REMARK INTRA:                  -0.124
REMARK UNBOUND:                -0.188
REMARK SMILES O=c1c(O)c(-c2ccc(O)c(O)c2)oc2cc(O)cc(O)c12
REMARK SMILES IDX 5 1 3 2 2 3 1 4 22 5 20 6 19 7 17 8 16 9 15 10 14 11 6 12
REMARK SMILES IDX 7 13 8 14 9 15 13 16 11 17 10 18 12 20 4 22 21 24 18 26
REMARK H PARENT 10 19 12 21 4 23 21 25 18 27
REMARK Flexibility Score: inf
ROOT
ATOM      1  C   UNL     1     -13.102 -11.282  52.307  1.00  0.00     0.180 A 
ATOM      2  C   UNL     1     -12.750 -10.702  53.537  1.00  0.00     0.208 A 
ATOM      3  C   UNL     1     -13.034 -11.396  54.724  1.00  0.00     0.238 A 
ATOM      4  O   UNL     1     -12.669 -10.895  55.819  1.00  0.00    -0.285 OA
ATOM      5  C   UNL     1     -13.681 -12.654  54.668  1.00  0.00     0.111 A 
ATOM      6  C   UNL     1     -14.053 -13.426  55.808  1.00  0.00     0.134 A 
ATOM      7  C   UNL     1     -14.569 -14.716  55.630  1.00  0.00     0.093 A 
ATOM      8  C   UNL     1     -14.788 -15.234  54.352  1.00  0.00     0.123 A 
ATOM      9  C   UNL     1     -14.483 -14.465  53.232  1.00  0.00     0.094 A 
ATOM     10  C   UNL     1     -13.933 -13.189  53.376  1.00  0.00     0.146 A 
ATOM     11  O   UNL     1     -13.647 -12.494  52.283  1.00  0.00    -0.452 OA
ENDROOT
BRANCH   1  12
ATOM     12  C   UNL     1     -12.857 -10.601  51.014  1.00  0.00     0.025 A 
ATOM     13  C   UNL     1     -12.105 -11.250  50.023  1.00  0.00     0.016 A 
ATOM     14  C   UNL     1     -11.879 -10.634  48.789  1.00  0.00     0.051 A 
ATOM     15  C   UNL     1     -12.417  -9.368  48.523  1.00  0.00     0.157 A 
ATOM     16  C   UNL     1     -13.412  -9.339  50.736  1.00  0.00     0.062 A 
ATOM     17  C   UNL     1     -13.187  -8.721  49.497  1.00  0.00     0.158 A 
BRANCH  15  18
ATOM     18  O   UNL     1     -12.193  -8.750  47.295  1.00  0.00    -0.504 OA
ATOM     19  H   UNL     1     -12.282  -7.746  47.183  1.00  0.00     0.293 HD
ENDBRANCH  15  18
BRANCH  17  20
ATOM     20  O   UNL     1     -13.732  -7.467  49.226  1.00  0.00    -0.504 OA
ATOM     21  H   UNL     1     -13.735  -7.082  48.289  1.00  0.00     0.293 HD
ENDBRANCH  17  20
ENDBRANCH   1  12
BRANCH   2  22
ATOM     22  O   UNL     1     -12.093  -9.468  53.569  1.00  0.00    -0.502 OA
ATOM     23  H   UNL     1     -11.709  -9.035  52.738  1.00  0.00     0.293 HD
ENDBRANCH   2  22
BRANCH   6  24
ATOM     24  O   UNL     1     -13.963 -12.966  57.125  1.00  0.00    -0.507 OA
ATOM     25  H   UNL     1     -13.149 -13.062  57.713  1.00  0.00     0.293 HD
ENDBRANCH   6  24
BRANCH   8  26
ATOM     26  O   UNL     1     -15.316 -16.512  54.184  1.00  0.00    -0.508 OA
ATOM     27  H   UNL     1     -16.172 -16.797  54.646  1.00  0.00     0.293 HD
ENDBRANCH   8  26
TORSDOF 6
ENDMDL
MODEL 9
REMARK VINA RESULT:    -4.721      2.512      6.661
REMARK INTER + INTRA:          -5.875
REMARK INTER:                  -6.315
REMARK INTRA:                   0.440
REMARK UNBOUND:                -0.188
REMARK SMILES O=c1c(O)c(-c2ccc(O)c(O)c2)oc2cc(O)cc(O)c12
REMARK SMILES IDX 5 1 3 2 2 3 1 4 22 5 20 6 19 7 17 8 16 9 15 10 14 11 6 12
REMARK SMILES IDX 7 13 8 14 9 15 13 16 11 17 10 18 12 20 4 22 21 24 18 26
REMARK H PARENT 10 19 12 21 4 23 21 25 18 27
REMARK Flexibility Score: inf
ROOT
ATOM      1  C   UNL     1     -12.385  -9.475  51.062  1.00  0.00     0.180 A 
ATOM      2  C   UNL     1     -12.279  -9.586  49.665  1.00  0.00     0.208 A 
ATOM      3  C   UNL     1     -12.158  -8.417  48.896  1.00  0.00     0.238 A 
ATOM      4  O   UNL     1     -12.009  -8.526  47.651  1.00  0.00    -0.285 OA
ATOM      5  C   UNL     1     -12.161  -7.152  49.531  1.00  0.00     0.111 A 
ATOM      6  C   UNL     1     -12.085  -5.901  48.848  1.00  0.00     0.134 A 
ATOM      7  C   UNL     1     -11.963  -4.717  49.586  1.00  0.00     0.093 A 
ATOM      8  C   UNL     1     -11.981  -4.734  50.982  1.00  0.00     0.123 A 
ATOM      9  C   UNL     1     -12.115  -5.945  51.659  1.00  0.00     0.094 A 
ATOM     10  C   UNL     1     -12.202  -7.146  50.951  1.00  0.00     0.146 A 
ATOM     11  O   UNL     1     -12.317  -8.278  51.634  1.00  0.00    -0.452 OA
ENDROOT
BRANCH   1  12
ATOM     12  C   UNL     1     -12.540 -10.659  51.937  1.00  0.00     0.025 A 
ATOM     13  C   UNL     1     -12.983 -10.489  53.258  1.00  0.00     0.016 A 
ATOM     14  C   UNL     1     -13.156 -11.595  54.095  1.00  0.00     0.051 A 
ATOM     15  C   UNL     1     -12.904 -12.887  53.618  1.00  0.00     0.157 A 
ATOM     16  C   UNL     1     -12.307 -11.961  51.456  1.00  0.00     0.062 A 
ATOM     17  C   UNL     1     -12.482 -13.071  52.295  1.00  0.00     0.158 A 
BRANCH  15  18
ATOM     18  O   UNL     1     -13.073 -13.992  54.449  1.00  0.00    -0.504 OA
ATOM     19  H   UNL     1     -13.103 -13.897  55.458  1.00  0.00     0.293 HD
ENDBRANCH  15  18
BRANCH  17  20
ATOM     20  O   UNL     1     -12.245 -14.359  51.819  1.00  0.00    -0.504 OA
ATOM     21  H   UNL     1     -11.313 -14.671  51.575  1.00  0.00     0.293 HD
ENDBRANCH  17  20
ENDBRANCH   1  12
BRANCH   2  22
ATOM     22  O   UNL     1     -12.257 -10.845  49.060  1.00  0.00    -0.502 OA
ATOM     23  H   UNL     1     -11.449 -11.193  48.556  1.00  0.00     0.293 HD
ENDBRANCH   2  22
BRANCH   6  24
ATOM     24  O   UNL     1     -12.152  -5.767  47.458  1.00  0.00    -0.507 OA
ATOM     25  H   UNL     1     -11.798  -4.978  46.939  1.00  0.00     0.293 HD
ENDBRANCH   6  24
BRANCH   8  26
ATOM     26  O   UNL     1     -11.875  -3.550  51.709  1.00  0.00    -0.508 OA
ATOM     27  H   UNL     1     -11.003  -3.037  51.761  1.00  0.00     0.293 HD
ENDBRANCH   8  26
TORSDOF 6
ENDMDL
