MODEL 1
REMARK VINA RESULT:    -4.243      0.000      0.000
REMARK INTER + INTRA:          -5.015
REMARK INTER:                  -4.863
REMARK INTRA:                  -0.152
REMARK UNBOUND:                -0.152
REMARK SMILES O=C([O-])C=Cc1ccc(O)cc1
REMARK SMILES IDX 6 1 7 2 12 3 8 4 11 5 9 6 5 7 4 8 2 9 1 10 3 11 10 12
REMARK H PARENT 10 13
REMARK Flexibility Score: inf
ROOT
ATOM      1  C   UNL     1      35.495 -30.429  10.291  1.00  0.00    -0.025 A 
ATOM      2  C   UNL     1      34.587 -31.250  10.983  1.00  0.00     0.012 A 
ATOM      3  C   UNL     1      35.668 -29.097  10.716  1.00  0.00     0.012 A 
ATOM      4  C   UNL     1      33.887 -30.760  12.089  1.00  0.00     0.047 A 
ATOM      5  C   UNL     1      34.964 -28.611  11.823  1.00  0.00     0.047 A 
ATOM      6  C   UNL     1      34.074 -29.442  12.514  1.00  0.00     0.115 A 
ENDROOT
BRANCH   1   7
ATOM      7  C   UNL     1      36.207 -30.992   9.116  1.00  0.00     0.010 C 
ATOM      8  C   UNL     1      35.897 -32.165   8.549  1.00  0.00     0.025 C 
BRANCH   8   9
ATOM      9  C   UNL     1      36.625 -32.679   7.377  1.00  0.00     0.064 C 
ATOM     10  O   UNL     1      37.882 -32.715   7.394  1.00  0.00    -0.545 OA
ATOM     11  O   UNL     1      35.944 -33.125   6.250  1.00  0.00    -0.545 OA
ENDBRANCH   8   9
ENDBRANCH   1   7
BRANCH   6  12
ATOM     12  O   UNL     1      33.369 -28.968  13.618  1.00  0.00    -0.508 OA
ATOM     13  H   UNL     1      32.472 -29.359  13.881  1.00  0.00     0.293 HD
ENDBRANCH   6  12
TORSDOF 3
ENDMDL
MODEL 2
REMARK VINA RESULT:    -4.201      2.127      6.206
REMARK INTER + INTRA:          -4.967
REMARK INTER:                  -4.831
REMARK INTRA:                  -0.136
REMARK UNBOUND:                -0.152
REMARK SMILES O=C([O-])C=Cc1ccc(O)cc1
REMARK SMILES IDX 6 1 7 2 12 3 8 4 11 5 9 6 5 7 4 8 2 9 1 10 3 11 10 12
REMARK H PARENT 10 13
REMARK Flexibility Score: inf
ROOT
ATOM      1  C   UNL     1      35.618 -32.476   7.687  1.00  0.00    -0.025 A 
ATOM      2  C   UNL     1      34.612 -32.961   6.832  1.00  0.00     0.012 A 
ATOM      3  C   UNL     1      36.885 -32.181   7.146  1.00  0.00     0.012 A 
ATOM      4  C   UNL     1      34.859 -33.125   5.466  1.00  0.00     0.047 A 
ATOM      5  C   UNL     1      37.127 -32.347   5.778  1.00  0.00     0.047 A 
ATOM      6  C   UNL     1      36.113 -32.817   4.934  1.00  0.00     0.115 A 
ENDROOT
BRANCH   1   7
ATOM      7  C   UNL     1      35.311 -32.329   9.132  1.00  0.00     0.010 C 
ATOM      8  C   UNL     1      34.780 -31.224   9.671  1.00  0.00     0.025 C 
BRANCH   8   9
ATOM      9  C   UNL     1      34.482 -31.126  11.109  1.00  0.00     0.064 C 
ATOM     10  O   UNL     1      34.178 -32.164  11.752  1.00  0.00    -0.545 OA
ATOM     11  O   UNL     1      34.529 -29.904  11.770  1.00  0.00    -0.545 OA
ENDBRANCH   8   9
ENDBRANCH   1   7
BRANCH   6  12
ATOM     12  O   UNL     1      36.344 -32.984   3.571  1.00  0.00    -0.508 OA
ATOM     13  H   UNL     1      37.197 -33.410   3.227  1.00  0.00     0.293 HD
ENDBRANCH   6  12
TORSDOF 3
ENDMDL
MODEL 3
REMARK VINA RESULT:    -3.877      1.052      5.733
REMARK INTER + INTRA:          -4.596
REMARK INTER:                  -4.458
REMARK INTRA:                  -0.138
REMARK UNBOUND:                -0.152
REMARK SMILES O=C([O-])C=Cc1ccc(O)cc1
REMARK SMILES IDX 6 1 7 2 12 3 8 4 11 5 9 6 5 7 4 8 2 9 1 10 3 11 10 12
REMARK H PARENT 10 13
REMARK Flexibility Score: inf
ROOT
ATOM      1  C   UNL     1      35.134 -31.143   9.871  1.00  0.00    -0.025 A 
ATOM      2  C   UNL     1      34.542 -32.250   9.239  1.00  0.00     0.012 A 
ATOM      3  C   UNL     1      36.407 -30.717   9.443  1.00  0.00     0.012 A 
ATOM      4  C   UNL     1      35.194 -32.902   8.188  1.00  0.00     0.047 A 
ATOM      5  C   UNL     1      37.057 -31.373   8.392  1.00  0.00     0.047 A 
ATOM      6  C   UNL     1      36.450 -32.465   7.760  1.00  0.00     0.115 A 
ENDROOT
BRANCH   1   7
ATOM      7  C   UNL     1      34.407 -30.491  10.989  1.00  0.00     0.010 C 
ATOM      8  C   UNL     1      34.674 -29.255  11.431  1.00  0.00     0.025 C 
BRANCH   8   9
ATOM      9  C   UNL     1      33.919 -28.644  12.536  1.00  0.00     0.064 C 
ATOM     10  O   UNL     1      33.395 -27.511  12.378  1.00  0.00    -0.545 OA
ATOM     11  O   UNL     1      33.777 -29.298  13.755  1.00  0.00    -0.545 OA
ENDBRANCH   8   9
ENDBRANCH   1   7
BRANCH   6  12
ATOM     12  O   UNL     1      37.088 -33.124   6.711  1.00  0.00    -0.508 OA
ATOM     13  H   UNL     1      36.601 -33.804   6.139  1.00  0.00     0.293 HD
ENDBRANCH   6  12
TORSDOF 3
ENDMDL
MODEL 4
REMARK VINA RESULT:    -3.159     20.512     21.552
REMARK INTER + INTRA:          -3.773
REMARK INTER:                  -3.634
REMARK INTRA:                  -0.139
REMARK UNBOUND:                -0.152
REMARK SMILES O=C([O-])C=Cc1ccc(O)cc1
REMARK SMILES IDX 6 1 7 2 12 3 8 4 11 5 9 6 5 7 4 8 2 9 1 10 3 11 10 12
REMARK H PARENT 10 13
REMARK Flexibility Score: inf
ROOT
ATOM      1  C   UNL     1      21.461 -15.339   5.623  1.00  0.00    -0.025 A 
ATOM      2  C   UNL     1      21.283 -13.944   5.616  1.00  0.00     0.012 A 
ATOM      3  C   UNL     1      22.362 -15.903   6.547  1.00  0.00     0.012 A 
ATOM      4  C   UNL     1      21.969 -13.134   6.525  1.00  0.00     0.047 A 
ATOM      5  C   UNL     1      23.048 -15.089   7.455  1.00  0.00     0.047 A 
ATOM      6  C   UNL     1      22.851 -13.703   7.448  1.00  0.00     0.115 A 
ENDROOT
BRANCH   1   7
ATOM      7  C   UNL     1      20.717 -16.155   4.631  1.00  0.00     0.010 C 
ATOM      8  C   UNL     1      20.988 -16.161   3.319  1.00  0.00     0.025 C 
BRANCH   8   9
ATOM      9  C   UNL     1      20.230 -16.995   2.373  1.00  0.00     0.064 C 
ATOM     10  O   UNL     1      19.875 -18.153   2.712  1.00  0.00    -0.545 OA
ATOM     11  O   UNL     1      19.902 -16.524   1.106  1.00  0.00    -0.545 OA
ENDBRANCH   8   9
ENDBRANCH   1   7
BRANCH   6  12
ATOM     12  O   UNL     1      23.528 -12.884   8.349  1.00  0.00    -0.508 OA
ATOM     13  H   UNL     1      24.518 -13.002   8.532  1.00  0.00     0.293 HD
ENDBRANCH   6  12
TORSDOF 3
ENDMDL
MODEL 5
REMARK VINA RESULT:    -3.014     19.815     21.513
REMARK INTER + INTRA:          -3.607
REMARK INTER:                  -3.470
REMARK INTRA:                  -0.137
REMARK UNBOUND:                -0.152
REMARK SMILES O=C([O-])C=Cc1ccc(O)cc1
REMARK SMILES IDX 6 1 7 2 12 3 8 4 11 5 9 6 5 7 4 8 2 9 1 10 3 11 10 12
REMARK H PARENT 10 13
REMARK Flexibility Score: inf
ROOT
ATOM      1  C   UNL     1      21.593 -15.187   5.620  1.00  0.00    -0.025 A 
ATOM      2  C   UNL     1      21.077 -15.800   4.464  1.00  0.00     0.012 A 
ATOM      3  C   UNL     1      21.545 -13.783   5.723  1.00  0.00     0.012 A 
ATOM      4  C   UNL     1      20.505 -15.031   3.447  1.00  0.00     0.047 A 
ATOM      5  C   UNL     1      20.973 -13.017   4.702  1.00  0.00     0.047 A 
ATOM      6  C   UNL     1      20.448 -13.640   3.563  1.00  0.00     0.115 A 
ENDROOT
BRANCH   1   7
ATOM      7  C   UNL     1      22.199 -16.046   6.668  1.00  0.00     0.010 C 
ATOM      8  C   UNL     1      23.379 -15.792   7.248  1.00  0.00     0.025 C 
BRANCH   8   9
ATOM      9  C   UNL     1      23.938 -16.666   8.292  1.00  0.00     0.064 C 
ATOM     10  O   UNL     1      24.390 -17.798   7.978  1.00  0.00    -0.545 OA
ATOM     11  O   UNL     1      23.973 -16.262   9.622  1.00  0.00    -0.545 OA
ENDBRANCH   8   9
ENDBRANCH   1   7
BRANCH   6  12
ATOM     12  O   UNL     1      19.875 -12.886   2.541  1.00  0.00    -0.508 OA
ATOM     13  H   UNL     1      20.135 -11.918   2.387  1.00  0.00     0.293 HD
ENDBRANCH   6  12
TORSDOF 3
ENDMDL
MODEL 6
REMARK VINA RESULT:    -2.901      1.668      5.789
REMARK INTER + INTRA:          -3.477
REMARK INTER:                  -3.335
REMARK INTRA:                  -0.142
REMARK UNBOUND:                -0.152
REMARK SMILES O=C([O-])C=Cc1ccc(O)cc1
REMARK SMILES IDX 6 1 7 2 12 3 8 4 11 5 9 6 5 7 4 8 2 9 1 10 3 11 10 12
REMARK H PARENT 10 13
REMARK Flexibility Score: inf
ROOT
ATOM      1  C   UNL     1      36.296 -31.160  10.317  1.00  0.00    -0.025 A 
ATOM      2  C   UNL     1      37.637 -30.996  10.706  1.00  0.00     0.012 A 
ATOM      3  C   UNL     1      36.006 -31.978   9.207  1.00  0.00     0.012 A 
ATOM      4  C   UNL     1      38.662 -31.653  10.019  1.00  0.00     0.047 A 
ATOM      5  C   UNL     1      37.035 -32.633   8.522  1.00  0.00     0.047 A 
ATOM      6  C   UNL     1      38.365 -32.475   8.929  1.00  0.00     0.115 A 
ENDROOT
BRANCH   1   7
ATOM      7  C   UNL     1      35.244 -30.433  11.071  1.00  0.00     0.010 C 
ATOM      8  C   UNL     1      35.231 -29.104  11.238  1.00  0.00     0.025 C 
BRANCH   8   9
ATOM      9  C   UNL     1      34.161 -28.425  11.985  1.00  0.00     0.064 C 
ATOM     10  O   UNL     1      33.790 -28.885  13.096  1.00  0.00    -0.545 OA
ATOM     11  O   UNL     1      33.550 -27.281  11.482  1.00  0.00    -0.545 OA
ENDBRANCH   8   9
ENDBRANCH   1   7
BRANCH   6  12
ATOM     12  O   UNL     1      39.397 -33.123   8.255  1.00  0.00    -0.508 OA
ATOM     13  H   UNL     1      39.230 -33.633   7.395  1.00  0.00     0.293 HD
ENDBRANCH   6  12
TORSDOF 3
ENDMDL
MODEL 7
REMARK VINA RESULT:    -2.806      2.456      6.036
REMARK INTER + INTRA:          -3.369
REMARK INTER:                  -3.216
REMARK INTRA:                  -0.153
REMARK UNBOUND:                -0.152
REMARK SMILES O=C([O-])C=Cc1ccc(O)cc1
REMARK SMILES IDX 6 1 7 2 12 3 8 4 11 5 9 6 5 7 4 8 2 9 1 10 3 11 10 12
REMARK H PARENT 10 13
REMARK Flexibility Score: inf
ROOT
ATOM      1  C   UNL     1      33.864 -30.794  12.069  1.00  0.00    -0.025 A 
ATOM      2  C   UNL     1      34.153 -31.979  11.369  1.00  0.00     0.012 A 
ATOM      3  C   UNL     1      34.445 -29.587  11.631  1.00  0.00     0.012 A 
ATOM      4  C   UNL     1      34.982 -31.956  10.244  1.00  0.00     0.047 A 
ATOM      5  C   UNL     1      35.275 -29.569  10.505  1.00  0.00     0.047 A 
ATOM      6  C   UNL     1      35.543 -30.753   9.807  1.00  0.00     0.115 A 
ENDROOT
BRANCH   1   7
ATOM      7  C   UNL     1      32.986 -30.872  13.264  1.00  0.00     0.010 C 
ATOM      8  C   UNL     1      32.350 -31.985  13.649  1.00  0.00     0.025 C 
BRANCH   8   9
ATOM      9  C   UNL     1      31.498 -32.019  14.848  1.00  0.00     0.064 C 
ATOM     10  O   UNL     1      31.093 -33.125  15.292  1.00  0.00    -0.545 OA
ATOM     11  O   UNL     1      31.130 -30.847  15.499  1.00  0.00    -0.545 OA
ENDBRANCH   8   9
ENDBRANCH   1   7
BRANCH   6  12
ATOM     12  O   UNL     1      36.367 -30.745   8.684  1.00  0.00    -0.508 OA
ATOM     13  H   UNL     1      36.616 -29.881   8.216  1.00  0.00     0.293 HD
ENDBRANCH   6  12
TORSDOF 3
ENDMDL
MODEL 8
REMARK VINA RESULT:    -2.802     21.080     21.829
REMARK INTER + INTRA:          -3.364
REMARK INTER:                  -3.223
REMARK INTRA:                  -0.141
REMARK UNBOUND:                -0.152
REMARK SMILES O=C([O-])C=Cc1ccc(O)cc1
REMARK SMILES IDX 6 1 7 2 12 3 8 4 11 5 9 6 5 7 4 8 2 9 1 10 3 11 10 12
REMARK H PARENT 10 13
REMARK Flexibility Score: inf
ROOT
ATOM      1  C   UNL     1      20.699 -15.841   4.275  1.00  0.00    -0.025 A 
ATOM      2  C   UNL     1      20.830 -14.495   3.889  1.00  0.00     0.012 A 
ATOM      3  C   UNL     1      20.985 -16.197   5.608  1.00  0.00     0.012 A 
ATOM      4  C   UNL     1      21.214 -13.524   4.818  1.00  0.00     0.047 A 
ATOM      5  C   UNL     1      21.370 -15.221   6.534  1.00  0.00     0.047 A 
ATOM      6  C   UNL     1      21.483 -13.881   6.142  1.00  0.00     0.115 A 
ENDROOT
BRANCH   1   7
ATOM      7  C   UNL     1      20.298 -16.837   3.250  1.00  0.00     0.010 C 
ATOM      8  C   UNL     1      20.939 -17.008   2.087  1.00  0.00     0.025 C 
BRANCH   8   9
ATOM      9  C   UNL     1      20.513 -18.017   1.104  1.00  0.00     0.064 C 
ATOM     10  O   UNL     1      20.254 -17.664  -0.075  1.00  0.00    -0.545 OA
ATOM     11  O   UNL     1      20.389 -19.356   1.458  1.00  0.00    -0.545 OA
ENDBRANCH   8   9
ENDBRANCH   1   7
BRANCH   6  12
ATOM     12  O   UNL     1      21.864 -12.902   7.056  1.00  0.00    -0.508 OA
ATOM     13  H   UNL     1      21.246 -12.138   7.302  1.00  0.00     0.293 HD
ENDBRANCH   6  12
TORSDOF 3
ENDMDL
MODEL 9
REMARK VINA RESULT:    -2.795     20.075     21.552
REMARK INTER + INTRA:          -3.356
REMARK INTER:                  -3.208
REMARK INTRA:                  -0.147
REMARK UNBOUND:                -0.152
REMARK SMILES O=C([O-])C=Cc1ccc(O)cc1
REMARK SMILES IDX 6 1 7 2 12 3 8 4 11 5 9 6 5 7 4 8 2 9 1 10 3 11 10 12
REMARK H PARENT 10 13
REMARK Flexibility Score: inf
ROOT
ATOM      1  C   UNL     1      22.080 -14.674   6.063  1.00  0.00    -0.025 A 
ATOM      2  C   UNL     1      22.129 -16.059   6.299  1.00  0.00     0.012 A 
ATOM      3  C   UNL     1      22.810 -13.814   6.907  1.00  0.00     0.012 A 
ATOM      4  C   UNL     1      22.909 -16.576   7.338  1.00  0.00     0.047 A 
ATOM      5  C   UNL     1      23.588 -14.336   7.946  1.00  0.00     0.047 A 
ATOM      6  C   UNL     1      23.641 -15.718   8.162  1.00  0.00     0.115 A 
ENDROOT
BRANCH   1   7
ATOM      7  C   UNL     1      21.230 -14.173   4.954  1.00  0.00     0.010 C 
ATOM      8  C   UNL     1      21.135 -14.771   3.759  1.00  0.00     0.025 C 
BRANCH   8   9
ATOM      9  C   UNL     1      20.270 -14.244   2.691  1.00  0.00     0.064 C 
ATOM     10  O   UNL     1      19.876 -13.050   2.744  1.00  0.00    -0.545 OA
ATOM     11  O   UNL     1      19.879 -15.046   1.625  1.00  0.00    -0.545 OA
ENDBRANCH   8   9
ENDBRANCH   1   7
BRANCH   6  12
ATOM     12  O   UNL     1      24.414 -16.248   9.193  1.00  0.00    -0.508 OA
ATOM     13  H   UNL     1      23.998 -16.542  10.070  1.00  0.00     0.293 HD
ENDBRANCH   6  12
TORSDOF 3
ENDMDL
