MODEL 1
REMARK VINA RESULT:     4.404      0.000      0.000
REMARK INTER + INTRA:          10.092
REMARK INTER:                  10.068
REMARK INTRA:                   0.024
REMARK UNBOUND:                 0.024
REMARK SMILES CCCCCCCCCCCCCCCCCCCCCCCC(=O)[O-]
REMARK SMILES IDX 13 1 14 2 15 3 16 4 17 5 18 6 19 7 20 8 21 9 22 10 23 11
REMARK SMILES IDX 24 12 25 13 26 14 12 15 11 16 10 17 9 18 8 19 7 20 6 21 5 22
REMARK SMILES IDX 4 23 3 24 2 25 1 26
REMARK H PARENT
REMARK Flexibility Score: inf
ROOT
ATOM      1  C   UNL     1       2.364 -28.492  -6.791  1.00  0.00     0.000 C 
ENDROOT
BRANCH   1   2
ATOM      2  C   UNL     1       2.964 -29.226  -8.002  1.00  0.00     0.000 C 
BRANCH   2   3
ATOM      3  C   UNL     1       3.317 -30.691  -7.691  1.00  0.00     0.000 C 
BRANCH   3   4
ATOM      4  C   UNL     1       2.178 -31.414  -6.941  1.00  0.00     0.000 C 
BRANCH   4   5
ATOM      5  C   UNL     1       2.581 -31.916  -5.544  1.00  0.00     0.000 C 
BRANCH   5   6
ATOM      6  C   UNL     1       1.574 -31.528  -4.452  1.00  0.00     0.000 C 
BRANCH   6   7
ATOM      7  C   UNL     1       0.207 -31.188  -5.062  1.00  0.00     0.000 C 
BRANCH   7   8
ATOM      8  C   UNL     1      -0.949 -31.307  -4.050  1.00  0.00     0.000 C 
BRANCH   8   9
ATOM      9  C   UNL     1      -2.253 -31.909  -4.615  1.00  0.00     0.000 C 
BRANCH   9  10
ATOM     10  C   UNL     1      -3.336 -30.883  -4.996  1.00  0.00     0.006 C 
BRANCH  10  11
ATOM     11  C   UNL     1      -4.381 -31.451  -5.965  1.00  0.00     0.053 C 
BRANCH  11  12
ATOM     12  C   UNL     1      -3.987 -31.181  -7.385  1.00  0.00     0.041 C 
ATOM     13  O   UNL     1      -3.586 -32.121  -8.125  1.00  0.00    -0.550 OA
ATOM     14  O   UNL     1      -4.079 -29.892  -7.900  1.00  0.00    -0.550 OA
ENDBRANCH  11  12
ENDBRANCH  10  11
ENDBRANCH   9  10
ENDBRANCH   8   9
ENDBRANCH   7   8
ENDBRANCH   6   7
ENDBRANCH   5   6
ENDBRANCH   4   5
ENDBRANCH   3   4
ENDBRANCH   2   3
ENDBRANCH   1   2
BRANCH   1  15
ATOM     15  C   UNL     1       2.520 -26.964  -6.892  1.00  0.00     0.000 C 
BRANCH  15  16
ATOM     16  C   UNL     1       1.163 -26.234  -6.970  1.00  0.00     0.000 C 
BRANCH  16  17
ATOM     17  C   UNL     1       1.280 -24.698  -6.977  1.00  0.00     0.000 C 
BRANCH  17  18
ATOM     18  C   UNL     1      -0.053 -23.937  -6.833  1.00  0.00    -0.000 C 
BRANCH  18  19
ATOM     19  C   UNL     1      -0.111 -22.575  -7.551  1.00  0.00    -0.000 C 
BRANCH  19  20
ATOM     20  C   UNL     1      -0.503 -21.419  -6.618  1.00  0.00    -0.000 C 
BRANCH  20  21
ATOM     21  C   UNL     1      -1.411 -21.914  -5.483  1.00  0.00    -0.000 C 
BRANCH  21  22
ATOM     22  C   UNL     1      -2.894 -21.590  -5.724  1.00  0.00    -0.000 C 
BRANCH  22  23
ATOM     23  C   UNL     1      -3.251 -20.113  -5.449  1.00  0.00    -0.000 C 
BRANCH  23  24
ATOM     24  C   UNL     1      -4.560 -19.695  -6.134  1.00  0.00    -0.000 C 
BRANCH  24  25
ATOM     25  C   UNL     1      -4.866 -20.595  -7.337  1.00  0.00    -0.003 C 
ATOM     26  C   UNL     1      -5.007 -22.055  -6.912  1.00  0.00     0.004 C 
ENDBRANCH  24  25
ENDBRANCH  23  24
ENDBRANCH  22  23
ENDBRANCH  21  22
ENDBRANCH  20  21
ENDBRANCH  19  20
ENDBRANCH  18  19
ENDBRANCH  17  18
ENDBRANCH  16  17
ENDBRANCH  15  16
ENDBRANCH   1  15
TORSDOF 22
ENDMDL
MODEL 2
REMARK VINA RESULT:     4.723      3.467      9.198
REMARK INTER + INTRA:          10.822
REMARK INTER:                  11.797
REMARK INTRA:                  -0.975
REMARK UNBOUND:                 0.024
REMARK SMILES CCCCCCCCCCCCCCCCCCCCCCCC(=O)[O-]
REMARK SMILES IDX 13 1 14 2 15 3 16 4 17 5 18 6 19 7 20 8 21 9 22 10 23 11
REMARK SMILES IDX 24 12 25 13 26 14 12 15 11 16 10 17 9 18 8 19 7 20 6 21 5 22
REMARK SMILES IDX 4 23 3 24 2 25 1 26
REMARK H PARENT
REMARK Flexibility Score: inf
ROOT
ATOM      1  C   UNL     1       3.889 -25.370  -5.767  1.00  0.00     0.000 C 
ENDROOT
BRANCH   1   2
ATOM      2  C   UNL     1       3.373 -24.246  -4.853  1.00  0.00     0.000 C 
BRANCH   2   3
ATOM      3  C   UNL     1       1.843 -24.090  -4.911  1.00  0.00     0.000 C 
BRANCH   3   4
ATOM      4  C   UNL     1       1.409 -23.004  -5.917  1.00  0.00     0.000 C 
BRANCH   4   5
ATOM      5  C   UNL     1       0.075 -23.311  -6.619  1.00  0.00     0.000 C 
BRANCH   5   6
ATOM      6  C   UNL     1      -0.710 -22.047  -6.998  1.00  0.00     0.000 C 
BRANCH   6   7
ATOM      7  C   UNL     1      -0.961 -21.165  -5.767  1.00  0.00     0.000 C 
BRANCH   7   8
ATOM      8  C   UNL     1      -1.744 -21.892  -4.657  1.00  0.00     0.000 C 
BRANCH   8   9
ATOM      9  C   UNL     1      -3.254 -22.062  -4.927  1.00  0.00     0.000 C 
BRANCH   9  10
ATOM     10  C   UNL     1      -3.695 -21.789  -6.377  1.00  0.00     0.006 C 
BRANCH  10  11
ATOM     11  C   UNL     1      -5.124 -21.241  -6.474  1.00  0.00     0.053 C 
BRANCH  11  12
ATOM     12  C   UNL     1      -5.108 -19.753  -6.647  1.00  0.00     0.041 C 
ATOM     13  O   UNL     1      -5.125 -19.245  -7.802  1.00  0.00    -0.550 OA
ATOM     14  O   UNL     1      -5.094 -18.923  -5.531  1.00  0.00    -0.550 OA
ENDBRANCH  11  12
ENDBRANCH  10  11
ENDBRANCH   9  10
ENDBRANCH   8   9
ENDBRANCH   7   8
ENDBRANCH   6   7
ENDBRANCH   5   6
ENDBRANCH   4   5
ENDBRANCH   3   4
ENDBRANCH   2   3
ENDBRANCH   1   2
BRANCH   1  15
ATOM     15  C   UNL     1       2.894 -26.538  -5.882  1.00  0.00     0.000 C 
BRANCH  15  16
ATOM     16  C   UNL     1       2.816 -27.111  -7.313  1.00  0.00     0.000 C 
BRANCH  16  17
ATOM     17  C   UNL     1       2.545 -28.627  -7.364  1.00  0.00     0.000 C 
BRANCH  17  18
ATOM     18  C   UNL     1       2.793 -29.383  -6.044  1.00  0.00    -0.000 C 
BRANCH  18  19
ATOM     19  C   UNL     1       2.810 -30.920  -6.162  1.00  0.00    -0.000 C 
BRANCH  19  20
ATOM     20  C   UNL     1       1.959 -31.616  -5.089  1.00  0.00    -0.000 C 
BRANCH  20  21
ATOM     21  C   UNL     1       0.536 -31.040  -5.059  1.00  0.00    -0.000 C 
BRANCH  21  22
ATOM     22  C   UNL     1      -0.348 -31.697  -3.986  1.00  0.00    -0.000 C 
BRANCH  22  23
ATOM     23  C   UNL     1      -1.841 -31.322  -4.109  1.00  0.00    -0.000 C 
BRANCH  23  24
ATOM     24  C   UNL     1      -2.499 -31.957  -5.343  1.00  0.00    -0.000 C 
BRANCH  24  25
ATOM     25  C   UNL     1      -4.010 -31.697  -5.358  1.00  0.00    -0.003 C 
ATOM     26  C   UNL     1      -4.338 -30.389  -6.075  1.00  0.00     0.004 C 
ENDBRANCH  24  25
ENDBRANCH  23  24
ENDBRANCH  22  23
ENDBRANCH  21  22
ENDBRANCH  20  21
ENDBRANCH  19  20
ENDBRANCH  18  19
ENDBRANCH  17  18
ENDBRANCH  16  17
ENDBRANCH  15  16
ENDBRANCH   1  15
TORSDOF 22
ENDMDL
MODEL 3
REMARK VINA RESULT:     5.576      2.927      8.986
REMARK INTER + INTRA:          12.772
REMARK INTER:                  12.422
REMARK INTRA:                   0.350
REMARK UNBOUND:                 0.024
REMARK SMILES CCCCCCCCCCCCCCCCCCCCCCCC(=O)[O-]
REMARK SMILES IDX 13 1 14 2 15 3 16 4 17 5 18 6 19 7 20 8 21 9 22 10 23 11
REMARK SMILES IDX 24 12 25 13 26 14 12 15 11 16 10 17 9 18 8 19 7 20 6 21 5 22
REMARK SMILES IDX 4 23 3 24 2 25 1 26
REMARK H PARENT
REMARK Flexibility Score: inf
ROOT
ATOM      1  C   UNL     1       3.210 -26.613  -5.480  1.00  0.00     0.000 C 
ENDROOT
BRANCH   1   2
ATOM      2  C   UNL     1       4.139 -25.387  -5.520  1.00  0.00     0.000 C 
BRANCH   2   3
ATOM      3  C   UNL     1       3.410 -24.080  -5.160  1.00  0.00     0.000 C 
BRANCH   3   4
ATOM      4  C   UNL     1       1.876 -24.233  -5.236  1.00  0.00     0.000 C 
BRANCH   4   5
ATOM      5  C   UNL     1       1.160 -22.992  -5.794  1.00  0.00     0.000 C 
BRANCH   5   6
ATOM      6  C   UNL     1       0.207 -23.317  -6.952  1.00  0.00     0.000 C 
BRANCH   6   7
ATOM      7  C   UNL     1      -0.823 -22.196  -7.148  1.00  0.00     0.000 C 
BRANCH   7   8
ATOM      8  C   UNL     1      -2.214 -22.553  -6.587  1.00  0.00     0.000 C 
BRANCH   8   9
ATOM      9  C   UNL     1      -3.182 -21.361  -6.435  1.00  0.00     0.000 C 
BRANCH   9  10
ATOM     10  C   UNL     1      -2.785 -20.327  -5.365  1.00  0.00     0.006 C 
BRANCH  10  11
ATOM     11  C   UNL     1      -1.398 -20.590  -4.766  1.00  0.00     0.053 C 
BRANCH  11  12
ATOM     12  C   UNL     1      -1.478 -21.612  -3.675  1.00  0.00     0.041 C 
ATOM     13  O   UNL     1      -0.679 -21.569  -2.699  1.00  0.00    -0.550 OA
ATOM     14  O   UNL     1      -2.452 -22.605  -3.722  1.00  0.00    -0.550 OA
ENDBRANCH  11  12
ENDBRANCH  10  11
ENDBRANCH   9  10
ENDBRANCH   8   9
ENDBRANCH   7   8
ENDBRANCH   6   7
ENDBRANCH   5   6
ENDBRANCH   4   5
ENDBRANCH   3   4
ENDBRANCH   2   3
ENDBRANCH   1   2
BRANCH   1  15
ATOM     15  C   UNL     1       2.766 -27.061  -6.884  1.00  0.00     0.000 C 
BRANCH  15  16
ATOM     16  C   UNL     1       2.843 -28.590  -7.070  1.00  0.00     0.000 C 
BRANCH  16  17
ATOM     17  C   UNL     1       2.206 -29.392  -5.919  1.00  0.00     0.000 C 
BRANCH  17  18
ATOM     18  C   UNL     1       2.249 -30.924  -6.082  1.00  0.00    -0.000 C 
BRANCH  18  19
ATOM     19  C   UNL     1       1.445 -31.718  -5.035  1.00  0.00    -0.000 C 
BRANCH  19  20
ATOM     20  C   UNL     1      -0.042 -31.858  -5.396  1.00  0.00    -0.000 C 
BRANCH  20  21
ATOM     21  C   UNL     1      -0.929 -31.185  -4.339  1.00  0.00    -0.000 C 
BRANCH  21  22
ATOM     22  C   UNL     1      -2.022 -32.121  -3.797  1.00  0.00    -0.000 C 
BRANCH  22  23
ATOM     23  C   UNL     1      -3.454 -31.642  -4.120  1.00  0.00    -0.000 C 
BRANCH  23  24
ATOM     24  C   UNL     1      -3.501 -30.761  -5.377  1.00  0.00    -0.000 C 
BRANCH  24  25
ATOM     25  C   UNL     1      -4.499 -31.314  -6.401  1.00  0.00    -0.003 C 
ATOM     26  C   UNL     1      -4.089 -30.947  -7.825  1.00  0.00     0.004 C 
ENDBRANCH  24  25
ENDBRANCH  23  24
ENDBRANCH  22  23
ENDBRANCH  21  22
ENDBRANCH  20  21
ENDBRANCH  19  20
ENDBRANCH  18  19
ENDBRANCH  17  18
ENDBRANCH  16  17
ENDBRANCH  15  16
ENDBRANCH   1  15
TORSDOF 22
ENDMDL
MODEL 4
REMARK VINA RESULT:     5.615      1.416      2.414
REMARK INTER + INTRA:          12.861
REMARK INTER:                  13.183
REMARK INTRA:                  -0.322
REMARK UNBOUND:                 0.024
REMARK SMILES CCCCCCCCCCCCCCCCCCCCCCCC(=O)[O-]
REMARK SMILES IDX 13 1 14 2 15 3 16 4 17 5 18 6 19 7 20 8 21 9 22 10 23 11
REMARK SMILES IDX 24 12 25 13 26 14 12 15 11 16 10 17 9 18 8 19 7 20 6 21 5 22
REMARK SMILES IDX 4 23 3 24 2 25 1 26
REMARK H PARENT
REMARK Flexibility Score: inf
ROOT
ATOM      1  C   UNL     1       2.993 -28.055  -6.421  1.00  0.00     0.000 C 
ENDROOT
BRANCH   1   2
ATOM      2  C   UNL     1       2.253 -29.399  -6.539  1.00  0.00     0.000 C 
BRANCH   2   3
ATOM      3  C   UNL     1       3.214 -30.599  -6.610  1.00  0.00     0.000 C 
BRANCH   3   4
ATOM      4  C   UNL     1       2.582 -31.882  -6.028  1.00  0.00     0.000 C 
BRANCH   4   5
ATOM      5  C   UNL     1       1.847 -31.656  -4.696  1.00  0.00     0.000 C 
BRANCH   5   6
ATOM      6  C   UNL     1       0.328 -31.846  -4.807  1.00  0.00     0.000 C 
BRANCH   6   7
ATOM      7  C   UNL     1      -0.392 -31.248  -3.591  1.00  0.00     0.000 C 
BRANCH   7   8
ATOM      8  C   UNL     1      -1.851 -31.725  -3.460  1.00  0.00     0.000 C 
BRANCH   8   9
ATOM      9  C   UNL     1      -2.899 -30.815  -4.133  1.00  0.00     0.000 C 
BRANCH   9  10
ATOM     10  C   UNL     1      -4.079 -31.552  -4.795  1.00  0.00     0.006 C 
BRANCH  10  11
ATOM     11  C   UNL     1      -3.728 -32.123  -6.175  1.00  0.00     0.053 C 
BRANCH  11  12
ATOM     12  C   UNL     1      -4.116 -31.163  -7.257  1.00  0.00     0.041 C 
ATOM     13  O   UNL     1      -4.972 -31.490  -8.124  1.00  0.00    -0.550 OA
ATOM     14  O   UNL     1      -3.546 -29.894  -7.299  1.00  0.00    -0.550 OA
ENDBRANCH  11  12
ENDBRANCH  10  11
ENDBRANCH   9  10
ENDBRANCH   8   9
ENDBRANCH   7   8
ENDBRANCH   6   7
ENDBRANCH   5   6
ENDBRANCH   4   5
ENDBRANCH   3   4
ENDBRANCH   2   3
ENDBRANCH   1   2
BRANCH   1  15
ATOM     15  C   UNL     1       2.461 -27.002  -7.409  1.00  0.00     0.000 C 
BRANCH  15  16
ATOM     16  C   UNL     1       2.489 -25.574  -6.824  1.00  0.00     0.000 C 
BRANCH  16  17
ATOM     17  C   UNL     1       1.264 -24.721  -7.200  1.00  0.00     0.000 C 
BRANCH  17  18
ATOM     18  C   UNL     1       1.027 -23.484  -6.311  1.00  0.00    -0.000 C 
BRANCH  18  19
ATOM     19  C   UNL     1      -0.450 -23.182  -5.989  1.00  0.00    -0.000 C 
BRANCH  19  20
ATOM     20  C   UNL     1      -1.115 -22.259  -7.021  1.00  0.00    -0.000 C 
BRANCH  20  21
ATOM     21  C   UNL     1      -2.624 -22.140  -6.759  1.00  0.00    -0.000 C 
BRANCH  21  22
ATOM     22  C   UNL     1      -2.943 -21.478  -5.409  1.00  0.00    -0.000 C 
BRANCH  22  23
ATOM     23  C   UNL     1      -1.701 -20.883  -4.711  1.00  0.00    -0.000 C 
BRANCH  23  24
ATOM     24  C   UNL     1      -1.614 -21.292  -3.232  1.00  0.00    -0.000 C 
BRANCH  24  25
ATOM     25  C   UNL     1      -0.373 -22.154  -2.970  1.00  0.00    -0.003 C 
ATOM     26  C   UNL     1       0.178 -21.914  -1.567  1.00  0.00     0.004 C 
ENDBRANCH  24  25
ENDBRANCH  23  24
ENDBRANCH  22  23
ENDBRANCH  21  22
ENDBRANCH  20  21
ENDBRANCH  19  20
ENDBRANCH  18  19
ENDBRANCH  17  18
ENDBRANCH  16  17
ENDBRANCH  15  16
ENDBRANCH   1  15
TORSDOF 22
ENDMDL
MODEL 5
REMARK VINA RESULT:     5.792      1.176      1.746
REMARK INTER + INTRA:          13.265
REMARK INTER:                  14.574
REMARK INTRA:                  -1.309
REMARK UNBOUND:                 0.024
REMARK SMILES CCCCCCCCCCCCCCCCCCCCCCCC(=O)[O-]
REMARK SMILES IDX 13 1 14 2 15 3 16 4 17 5 18 6 19 7 20 8 21 9 22 10 23 11
REMARK SMILES IDX 24 12 25 13 26 14 12 15 11 16 10 17 9 18 8 19 7 20 6 21 5 22
REMARK SMILES IDX 4 23 3 24 2 25 1 26
REMARK H PARENT
REMARK Flexibility Score: inf
ROOT
ATOM      1  C   UNL     1       3.091 -26.485  -6.385  1.00  0.00     0.000 C 
ENDROOT
BRANCH   1   2
ATOM      2  C   UNL     1       2.373 -27.680  -7.035  1.00  0.00     0.000 C 
BRANCH   2   3
ATOM      3  C   UNL     1       3.337 -28.606  -7.798  1.00  0.00     0.000 C 
BRANCH   3   4
ATOM      4  C   UNL     1       3.167 -30.084  -7.388  1.00  0.00     0.000 C 
BRANCH   4   5
ATOM      5  C   UNL     1       2.507 -30.269  -6.011  1.00  0.00     0.000 C 
BRANCH   5   6
ATOM      6  C   UNL     1       1.886 -31.661  -5.824  1.00  0.00     0.000 C 
BRANCH   6   7
ATOM      7  C   UNL     1       1.159 -31.762  -4.476  1.00  0.00     0.000 C 
BRANCH   7   8
ATOM      8  C   UNL     1      -0.134 -30.927  -4.427  1.00  0.00     0.000 C 
BRANCH   8   9
ATOM      9  C   UNL     1      -1.375 -31.674  -3.895  1.00  0.00     0.000 C 
BRANCH   9  10
ATOM     10  C   UNL     1      -2.379 -32.124  -4.973  1.00  0.00     0.006 C 
BRANCH  10  11
ATOM     11  C   UNL     1      -2.754 -31.000  -5.947  1.00  0.00     0.053 C 
BRANCH  11  12
ATOM     12  C   UNL     1      -4.017 -31.334  -6.678  1.00  0.00     0.041 C 
ATOM     13  O   UNL     1      -4.080 -31.213  -7.933  1.00  0.00    -0.550 OA
ATOM     14  O   UNL     1      -5.125 -31.800  -5.977  1.00  0.00    -0.550 OA
ENDBRANCH  11  12
ENDBRANCH  10  11
ENDBRANCH   9  10
ENDBRANCH   8   9
ENDBRANCH   7   8
ENDBRANCH   6   7
ENDBRANCH   5   6
ENDBRANCH   4   5
ENDBRANCH   3   4
ENDBRANCH   2   3
ENDBRANCH   1   2
BRANCH   1  15
ATOM     15  C   UNL     1       2.410 -25.143  -6.706  1.00  0.00     0.000 C 
BRANCH  15  16
ATOM     16  C   UNL     1       2.241 -24.250  -5.459  1.00  0.00     0.000 C 
BRANCH  16  17
ATOM     17  C   UNL     1       1.261 -23.079  -5.657  1.00  0.00     0.000 C 
BRANCH  17  18
ATOM     18  C   UNL     1      -0.026 -23.424  -6.433  1.00  0.00    -0.000 C 
BRANCH  18  19
ATOM     19  C   UNL     1      -0.740 -22.224  -7.085  1.00  0.00    -0.000 C 
BRANCH  19  20
ATOM     20  C   UNL     1      -1.449 -21.319  -6.066  1.00  0.00    -0.000 C 
BRANCH  20  21
ATOM     21  C   UNL     1      -2.085 -22.150  -4.942  1.00  0.00    -0.000 C 
BRANCH  21  22
ATOM     22  C   UNL     1      -3.598 -22.343  -5.130  1.00  0.00    -0.000 C 
BRANCH  22  23
ATOM     23  C   UNL     1      -4.189 -21.480  -6.266  1.00  0.00    -0.000 C 
BRANCH  23  24
ATOM     24  C   UNL     1      -5.061 -20.333  -5.732  1.00  0.00    -0.000 C 
BRANCH  24  25
ATOM     25  C   UNL     1      -4.587 -18.981  -6.277  1.00  0.00    -0.003 C 
ATOM     26  C   UNL     1      -5.118 -18.739  -7.688  1.00  0.00     0.004 C 
ENDBRANCH  24  25
ENDBRANCH  23  24
ENDBRANCH  22  23
ENDBRANCH  21  22
ENDBRANCH  20  21
ENDBRANCH  19  20
ENDBRANCH  18  19
ENDBRANCH  17  18
ENDBRANCH  16  17
ENDBRANCH  15  16
ENDBRANCH   1  15
TORSDOF 22
ENDMDL
MODEL 6
REMARK VINA RESULT:     6.264      2.809      4.088
REMARK INTER + INTRA:          14.344
REMARK INTER:                  15.055
REMARK INTRA:                  -0.711
REMARK UNBOUND:                 0.024
REMARK SMILES CCCCCCCCCCCCCCCCCCCCCCCC(=O)[O-]
REMARK SMILES IDX 13 1 14 2 15 3 16 4 17 5 18 6 19 7 20 8 21 9 22 10 23 11
REMARK SMILES IDX 24 12 25 13 26 14 12 15 11 16 10 17 9 18 8 19 7 20 6 21 5 22
REMARK SMILES IDX 4 23 3 24 2 25 1 26
REMARK H PARENT
REMARK Flexibility Score: inf
ROOT
ATOM      1  C   UNL     1       3.566 -30.884  -7.282  1.00  0.00     0.000 C 
ENDROOT
BRANCH   1   2
ATOM      2  C   UNL     1       2.208 -31.580  -7.090  1.00  0.00     0.000 C 
BRANCH   2   3
ATOM      3  C   UNL     1       1.650 -31.405  -5.666  1.00  0.00     0.000 C 
BRANCH   3   4
ATOM      4  C   UNL     1       0.296 -32.124  -5.482  1.00  0.00     0.000 C 
BRANCH   4   5
ATOM      5  C   UNL     1      -0.870 -31.439  -6.215  1.00  0.00     0.000 C 
BRANCH   5   6
ATOM      6  C   UNL     1      -2.242 -32.003  -5.820  1.00  0.00     0.000 C 
BRANCH   6   7
ATOM      7  C   UNL     1      -3.033 -30.988  -4.983  1.00  0.00     0.000 C 
BRANCH   7   8
ATOM      8  C   UNL     1      -3.248 -31.447  -3.528  1.00  0.00     0.000 C 
BRANCH   8   9
ATOM      9  C   UNL     1      -1.971 -31.903  -2.791  1.00  0.00     0.000 C 
BRANCH   9  10
ATOM     10  C   UNL     1      -0.840 -30.859  -2.733  1.00  0.00     0.006 C 
BRANCH  10  11
ATOM     11  C   UNL     1       0.456 -31.415  -2.130  1.00  0.00     0.053 C 
BRANCH  11  12
ATOM     12  C   UNL     1       0.855 -30.629  -0.920  1.00  0.00     0.041 C 
ATOM     13  O   UNL     1       0.782 -31.146   0.229  1.00  0.00    -0.550 OA
ATOM     14  O   UNL     1       1.327 -29.328  -1.059  1.00  0.00    -0.550 OA
ENDBRANCH  11  12
ENDBRANCH  10  11
ENDBRANCH   9  10
ENDBRANCH   8   9
ENDBRANCH   7   8
ENDBRANCH   6   7
ENDBRANCH   5   6
ENDBRANCH   4   5
ENDBRANCH   3   4
ENDBRANCH   2   3
ENDBRANCH   1   2
BRANCH   1  15
ATOM     15  C   UNL     1       3.419 -29.414  -7.713  1.00  0.00     0.000 C 
BRANCH  15  16
ATOM     16  C   UNL     1       2.389 -28.647  -6.858  1.00  0.00     0.000 C 
BRANCH  16  17
ATOM     17  C   UNL     1       2.647 -27.130  -6.782  1.00  0.00     0.000 C 
BRANCH  17  18
ATOM     18  C   UNL     1       1.432 -26.240  -7.112  1.00  0.00    -0.000 C 
BRANCH  18  19
ATOM     19  C   UNL     1       1.611 -24.743  -6.794  1.00  0.00    -0.000 C 
BRANCH  19  20
ATOM     20  C   UNL     1       0.310 -24.066  -6.336  1.00  0.00    -0.000 C 
BRANCH  20  21
ATOM     21  C   UNL     1       0.308 -22.575  -6.705  1.00  0.00    -0.000 C 
BRANCH  21  22
ATOM     22  C   UNL     1      -1.111 -22.009  -6.884  1.00  0.00    -0.000 C 
BRANCH  22  23
ATOM     23  C   UNL     1      -2.144 -22.632  -5.920  1.00  0.00    -0.000 C 
BRANCH  23  24
ATOM     24  C   UNL     1      -3.093 -21.580  -5.327  1.00  0.00    -0.000 C 
BRANCH  24  25
ATOM     25  C   UNL     1      -4.396 -21.497  -6.130  1.00  0.00    -0.003 C 
ATOM     26  C   UNL     1      -4.692 -20.060  -6.552  1.00  0.00     0.004 C 
ENDBRANCH  24  25
ENDBRANCH  23  24
ENDBRANCH  22  23
ENDBRANCH  21  22
ENDBRANCH  20  21
ENDBRANCH  19  20
ENDBRANCH  18  19
ENDBRANCH  17  18
ENDBRANCH  16  17
ENDBRANCH  15  16
ENDBRANCH   1  15
TORSDOF 22
ENDMDL
MODEL 7
REMARK VINA RESULT:     6.286      2.977      8.817
REMARK INTER + INTRA:          14.395
REMARK INTER:                  15.029
REMARK INTRA:                  -0.634
REMARK UNBOUND:                 0.024
REMARK SMILES CCCCCCCCCCCCCCCCCCCCCCCC(=O)[O-]
REMARK SMILES IDX 13 1 14 2 15 3 16 4 17 5 18 6 19 7 20 8 21 9 22 10 23 11
REMARK SMILES IDX 24 12 25 13 26 14 12 15 11 16 10 17 9 18 8 19 7 20 6 21 5 22
REMARK SMILES IDX 4 23 3 24 2 25 1 26
REMARK H PARENT
REMARK Flexibility Score: inf
ROOT
ATOM      1  C   UNL     1       0.473 -31.153  -5.919  1.00  0.00     0.000 C 
ENDROOT
BRANCH   1   2
ATOM      2  C   UNL     1       1.967 -31.519  -5.960  1.00  0.00     0.000 C 
BRANCH   2   3
ATOM      3  C   UNL     1       2.874 -30.285  -6.115  1.00  0.00     0.000 C 
BRANCH   3   4
ATOM      4  C   UNL     1       2.183 -29.154  -6.905  1.00  0.00     0.000 C 
BRANCH   4   5
ATOM      5  C   UNL     1       2.798 -27.765  -6.658  1.00  0.00     0.000 C 
BRANCH   5   6
ATOM      6  C   UNL     1       2.051 -26.639  -7.386  1.00  0.00     0.000 C 
BRANCH   6   7
ATOM      7  C   UNL     1       1.969 -25.380  -6.512  1.00  0.00     0.000 C 
BRANCH   7   8
ATOM      8  C   UNL     1       0.950 -24.350  -7.036  1.00  0.00     0.000 C 
BRANCH   8   9
ATOM      9  C   UNL     1       0.489 -23.302  -6.001  1.00  0.00     0.000 C 
BRANCH   9  10
ATOM     10  C   UNL     1      -0.148 -22.032  -6.595  1.00  0.00     0.006 C 
BRANCH  10  11
ATOM     11  C   UNL     1      -1.657 -22.175  -6.832  1.00  0.00     0.053 C 
BRANCH  11  12
ATOM     12  C   UNL     1      -2.426 -21.702  -5.637  1.00  0.00     0.041 C 
ATOM     13  O   UNL     1      -3.643 -22.007  -5.499  1.00  0.00    -0.550 OA
ATOM     14  O   UNL     1      -1.795 -20.938  -4.661  1.00  0.00    -0.550 OA
ENDBRANCH  11  12
ENDBRANCH  10  11
ENDBRANCH   9  10
ENDBRANCH   8   9
ENDBRANCH   7   8
ENDBRANCH   6   7
ENDBRANCH   5   6
ENDBRANCH   4   5
ENDBRANCH   3   4
ENDBRANCH   2   3
ENDBRANCH   1   2
BRANCH   1  15
ATOM     15  C   UNL     1      -0.384 -32.079  -6.799  1.00  0.00     0.000 C 
BRANCH  15  16
ATOM     16  C   UNL     1      -1.859 -32.125  -6.350  1.00  0.00     0.000 C 
BRANCH  16  17
ATOM     17  C   UNL     1      -2.843 -31.525  -7.372  1.00  0.00     0.000 C 
BRANCH  17  18
ATOM     18  C   UNL     1      -3.998 -30.702  -6.768  1.00  0.00    -0.000 C 
BRANCH  18  19
ATOM     19  C   UNL     1      -4.031 -30.652  -5.228  1.00  0.00    -0.000 C 
BRANCH  19  20
ATOM     20  C   UNL     1      -4.241 -32.031  -4.584  1.00  0.00    -0.000 C 
BRANCH  20  21
ATOM     21  C   UNL     1      -3.516 -32.124  -3.234  1.00  0.00    -0.000 C 
BRANCH  21  22
ATOM     22  C   UNL     1      -1.986 -32.054  -3.376  1.00  0.00    -0.000 C 
BRANCH  22  23
ATOM     23  C   UNL     1      -1.334 -30.997  -2.458  1.00  0.00    -0.000 C 
BRANCH  23  24
ATOM     24  C   UNL     1       0.165 -31.258  -2.246  1.00  0.00    -0.000 C 
BRANCH  24  25
ATOM     25  C   UNL     1       0.602 -30.846  -0.835  1.00  0.00    -0.003 C 
ATOM     26  C   UNL     1       1.716 -29.803  -0.886  1.00  0.00     0.004 C 
ENDBRANCH  24  25
ENDBRANCH  23  24
ENDBRANCH  22  23
ENDBRANCH  21  22
ENDBRANCH  20  21
ENDBRANCH  19  20
ENDBRANCH  18  19
ENDBRANCH  17  18
ENDBRANCH  16  17
ENDBRANCH  15  16
ENDBRANCH   1  15
TORSDOF 22
ENDMDL
