MODEL 1
REMARK VINA RESULT:    -3.235      0.000      0.000
REMARK INTER + INTRA:          -8.744
REMARK INTER:                  -6.260
REMARK INTRA:                  -2.483
REMARK UNBOUND:                -2.483
REMARK SMILES CCCCCCCCCCCCCCCCCC(=O)[O-]
REMARK SMILES IDX 10 1 11 2 12 3 13 4 14 5 15 6 16 7 17 8 18 9 19 10 20 11
REMARK SMILES IDX 9 12 8 13 7 14 6 15 5 16 4 17 3 18 2 19 1 20
REMARK H PARENT
REMARK Flexibility Score: inf
ROOT
ATOM      1  C   UNL     1     -16.665 -16.507  25.499  1.00  0.00     0.000 C 
ENDROOT
BRANCH   1   2
ATOM      2  C   UNL     1     -15.510 -16.304  26.494  1.00  0.00     0.000 C 
BRANCH   2   3
ATOM      3  C   UNL     1     -15.842 -16.822  27.903  1.00  0.00     0.000 C 
BRANCH   3   4
ATOM      4  C   UNL     1     -15.569 -15.778  28.998  1.00  0.00     0.000 C 
BRANCH   4   5
ATOM      5  C   UNL     1     -14.457 -14.785  28.618  1.00  0.00     0.000 C 
BRANCH   5   6
ATOM      6  C   UNL     1     -13.222 -14.800  29.537  1.00  0.00     0.000 C 
BRANCH   6   7
ATOM      7  C   UNL     1     -11.937 -15.230  28.808  1.00  0.00     0.006 C 
BRANCH   7   8
ATOM      8  C   UNL     1     -10.977 -15.997  29.726  1.00  0.00     0.053 C 
BRANCH   8   9
ATOM      9  C   UNL     1     -11.687 -17.046  30.526  1.00  0.00     0.041 C 
ATOM     10  O   UNL     1     -11.655 -17.013  31.784  1.00  0.00    -0.550 OA
ATOM     11  O   UNL     1     -12.361 -18.076  29.882  1.00  0.00    -0.550 OA
ENDBRANCH   8   9
ENDBRANCH   7   8
ENDBRANCH   6   7
ENDBRANCH   5   6
ENDBRANCH   4   5
ENDBRANCH   3   4
ENDBRANCH   2   3
ENDBRANCH   1   2
BRANCH   1  12
ATOM     12  C   UNL     1     -18.031 -16.678  26.204  1.00  0.00     0.000 C 
BRANCH  12  13
ATOM     13  C   UNL     1     -18.860 -15.383  26.260  1.00  0.00    -0.000 C 
BRANCH  13  14
ATOM     14  C   UNL     1     -18.838 -14.672  27.625  1.00  0.00    -0.000 C 
BRANCH  14  15
ATOM     15  C   UNL     1     -18.185 -13.272  27.584  1.00  0.00    -0.000 C 
BRANCH  15  16
ATOM     16  C   UNL     1     -17.357 -13.041  26.310  1.00  0.00    -0.000 C 
BRANCH  16  17
ATOM     17  C   UNL     1     -17.917 -11.905  25.437  1.00  0.00    -0.000 C 
BRANCH  17  18
ATOM     18  C   UNL     1     -18.388 -12.396  24.056  1.00  0.00    -0.000 C 
BRANCH  18  19
ATOM     19  C   UNL     1     -17.457 -13.465  23.464  1.00  0.00    -0.003 C 
ATOM     20  C   UNL     1     -18.206 -14.499  22.624  1.00  0.00     0.004 C 
ENDBRANCH  18  19
ENDBRANCH  17  18
ENDBRANCH  16  17
ENDBRANCH  15  16
ENDBRANCH  14  15
ENDBRANCH  13  14
ENDBRANCH  12  13
ENDBRANCH   1  12
TORSDOF 16
ENDMDL
MODEL 2
REMARK VINA RESULT:    -3.174      9.058     10.949
REMARK INTER + INTRA:          -8.626
REMARK INTER:                  -6.206
REMARK INTRA:                  -2.421
REMARK UNBOUND:                -2.483
REMARK SMILES CCCCCCCCCCCCCCCCCC(=O)[O-]
REMARK SMILES IDX 10 1 11 2 12 3 13 4 14 5 15 6 16 7 17 8 18 9 19 10 20 11
REMARK SMILES IDX 9 12 8 13 7 14 6 15 5 16 4 17 3 18 2 19 1 20
REMARK H PARENT
REMARK Flexibility Score: inf
ROOT
ATOM      1  C   UNL     1     -13.681 -20.220  18.596  1.00  0.00     0.000 C 
ENDROOT
BRANCH   1   2
ATOM      2  C   UNL     1     -13.264 -19.808  20.019  1.00  0.00     0.000 C 
BRANCH   2   3
ATOM      3  C   UNL     1     -11.953 -19.004  20.043  1.00  0.00     0.000 C 
BRANCH   3   4
ATOM      4  C   UNL     1     -10.789 -19.790  20.670  1.00  0.00     0.000 C 
BRANCH   4   5
ATOM      5  C   UNL     1      -9.895 -20.477  19.623  1.00  0.00     0.000 C 
BRANCH   5   6
ATOM      6  C   UNL     1      -8.573 -19.751  19.313  1.00  0.00     0.000 C 
BRANCH   6   7
ATOM      7  C   UNL     1      -8.010 -18.988  20.525  1.00  0.00     0.006 C 
BRANCH   7   8
ATOM      8  C   UNL     1      -6.493 -18.779  20.426  1.00  0.00     0.053 C 
BRANCH   8   9
ATOM      9  C   UNL     1      -5.874 -18.539  21.769  1.00  0.00     0.041 C 
ATOM     10  O   UNL     1      -5.443 -19.506  22.450  1.00  0.00    -0.550 OA
ATOM     11  O   UNL     1      -5.800 -17.250  22.282  1.00  0.00    -0.550 OA
ENDBRANCH   8   9
ENDBRANCH   7   8
ENDBRANCH   6   7
ENDBRANCH   5   6
ENDBRANCH   4   5
ENDBRANCH   3   4
ENDBRANCH   2   3
ENDBRANCH   1   2
BRANCH   1  12
ATOM     12  C   UNL     1     -13.439 -21.722  18.321  1.00  0.00     0.000 C 
BRANCH  12  13
ATOM     13  C   UNL     1     -14.357 -22.652  19.134  1.00  0.00    -0.000 C 
BRANCH  13  14
ATOM     14  C   UNL     1     -13.617 -23.574  20.119  1.00  0.00    -0.000 C 
BRANCH  14  15
ATOM     15  C   UNL     1     -12.077 -23.505  19.994  1.00  0.00    -0.000 C 
BRANCH  15  16
ATOM     16  C   UNL     1     -11.376 -23.416  21.359  1.00  0.00    -0.000 C 
BRANCH  16  17
ATOM     17  C   UNL     1     -12.330 -23.687  22.534  1.00  0.00    -0.000 C 
BRANCH  17  18
ATOM     18  C   UNL     1     -12.131 -22.700  23.698  1.00  0.00    -0.000 C 
BRANCH  18  19
ATOM     19  C   UNL     1     -12.786 -21.337  23.431  1.00  0.00    -0.003 C 
ATOM     20  C   UNL     1     -14.263 -21.455  23.059  1.00  0.00     0.004 C 
ENDBRANCH  18  19
ENDBRANCH  17  18
ENDBRANCH  16  17
ENDBRANCH  15  16
ENDBRANCH  14  15
ENDBRANCH  13  14
ENDBRANCH  12  13
ENDBRANCH   1  12
TORSDOF 16
ENDMDL
MODEL 3
REMARK VINA RESULT:    -3.140      9.193     10.741
REMARK INTER + INTRA:          -8.561
REMARK INTER:                  -6.309
REMARK INTRA:                  -2.251
REMARK UNBOUND:                -2.483
REMARK SMILES CCCCCCCCCCCCCCCCCC(=O)[O-]
REMARK SMILES IDX 10 1 11 2 12 3 13 4 14 5 15 6 16 7 17 8 18 9 19 10 20 11
REMARK SMILES IDX 9 12 8 13 7 14 6 15 5 16 4 17 3 18 2 19 1 20
REMARK H PARENT
REMARK Flexibility Score: inf
ROOT
ATOM      1  C   UNL     1     -11.988 -24.117  20.446  1.00  0.00     0.000 C 
ENDROOT
BRANCH   1   2
ATOM      2  C   UNL     1     -10.893 -23.079  20.744  1.00  0.00     0.000 C 
BRANCH   2   3
ATOM      3  C   UNL     1     -10.863 -21.937  19.714  1.00  0.00     0.000 C 
BRANCH   3   4
ATOM      4  C   UNL     1     -10.571 -20.569  20.355  1.00  0.00     0.000 C 
BRANCH   4   5
ATOM      5  C   UNL     1      -9.512 -19.760  19.586  1.00  0.00     0.000 C 
BRANCH   5   6
ATOM      6  C   UNL     1      -8.404 -19.138  20.456  1.00  0.00     0.000 C 
BRANCH   6   7
ATOM      7  C   UNL     1      -7.149 -18.761  19.650  1.00  0.00     0.006 C 
BRANCH   7   8
ATOM      8  C   UNL     1      -5.865 -19.310  20.284  1.00  0.00     0.053 C 
BRANCH   8   9
ATOM      9  C   UNL     1      -5.674 -18.808  21.683  1.00  0.00     0.041 C 
ATOM     10  O   UNL     1      -5.561 -17.574  21.903  1.00  0.00    -0.550 OA
ATOM     11  O   UNL     1      -5.592 -19.705  22.740  1.00  0.00    -0.550 OA
ENDBRANCH   8   9
ENDBRANCH   7   8
ENDBRANCH   6   7
ENDBRANCH   5   6
ENDBRANCH   4   5
ENDBRANCH   3   4
ENDBRANCH   2   3
ENDBRANCH   1   2
BRANCH   1  12
ATOM     12  C   UNL     1     -12.251 -25.061  21.642  1.00  0.00     0.000 C 
BRANCH  12  13
ATOM     13  C   UNL     1     -13.627 -24.854  22.299  1.00  0.00    -0.000 C 
BRANCH  13  14
ATOM     14  C   UNL     1     -13.593 -24.788  23.836  1.00  0.00    -0.000 C 
BRANCH  14  15
ATOM     15  C   UNL     1     -13.780 -23.361  24.400  1.00  0.00    -0.000 C 
BRANCH  15  16
ATOM     16  C   UNL     1     -12.479 -22.545  24.391  1.00  0.00    -0.000 C 
BRANCH  16  17
ATOM     17  C   UNL     1     -12.527 -21.364  23.407  1.00  0.00    -0.000 C 
BRANCH  17  18
ATOM     18  C   UNL     1     -13.954 -21.056  22.919  1.00  0.00    -0.000 C 
BRANCH  18  19
ATOM     19  C   UNL     1     -14.022 -20.843  21.400  1.00  0.00    -0.003 C 
ATOM     20  C   UNL     1     -14.926 -21.858  20.702  1.00  0.00     0.004 C 
ENDBRANCH  18  19
ENDBRANCH  17  18
ENDBRANCH  16  17
ENDBRANCH  15  16
ENDBRANCH  14  15
ENDBRANCH  13  14
ENDBRANCH  12  13
ENDBRANCH   1  12
TORSDOF 16
ENDMDL
MODEL 4
REMARK VINA RESULT:    -3.070      1.739      3.505
REMARK INTER + INTRA:          -8.424
REMARK INTER:                  -5.842
REMARK INTRA:                  -2.582
REMARK UNBOUND:                -2.483
REMARK SMILES CCCCCCCCCCCCCCCCCC(=O)[O-]
REMARK SMILES IDX 10 1 11 2 12 3 13 4 14 5 15 6 16 7 17 8 18 9 19 10 20 11
REMARK SMILES IDX 9 12 8 13 7 14 6 15 5 16 4 17 3 18 2 19 1 20
REMARK H PARENT
REMARK Flexibility Score: inf
ROOT
ATOM      1  C   UNL     1     -16.368 -15.831  30.660  1.00  0.00     0.000 C 
ENDROOT
BRANCH   1   2
ATOM      2  C   UNL     1     -15.748 -14.424  30.679  1.00  0.00     0.000 C 
BRANCH   2   3
ATOM      3  C   UNL     1     -14.238 -14.445  30.972  1.00  0.00     0.000 C 
BRANCH   3   4
ATOM      4  C   UNL     1     -13.395 -13.978  29.774  1.00  0.00     0.000 C 
BRANCH   4   5
ATOM      5  C   UNL     1     -11.990 -14.604  29.747  1.00  0.00     0.000 C 
BRANCH   5   6
ATOM      6  C   UNL     1     -11.888 -15.951  29.007  1.00  0.00     0.000 C 
BRANCH   6   7
ATOM      7  C   UNL     1     -11.601 -17.133  29.951  1.00  0.00     0.006 C 
BRANCH   7   8
ATOM      8  C   UNL     1     -11.162 -16.669  31.345  1.00  0.00     0.053 C 
BRANCH   8   9
ATOM      9  C   UNL     1      -9.689 -16.845  31.554  1.00  0.00     0.041 C 
ATOM     10  O   UNL     1      -9.231 -17.028  32.713  1.00  0.00    -0.550 OA
ATOM     11  O   UNL     1      -8.819 -16.778  30.474  1.00  0.00    -0.550 OA
ENDBRANCH   8   9
ENDBRANCH   7   8
ENDBRANCH   6   7
ENDBRANCH   5   6
ENDBRANCH   4   5
ENDBRANCH   3   4
ENDBRANCH   2   3
ENDBRANCH   1   2
BRANCH   1  12
ATOM     12  C   UNL     1     -15.301 -16.950  30.688  1.00  0.00     0.000 C 
BRANCH  12  13
ATOM     13  C   UNL     1     -15.139 -17.680  29.343  1.00  0.00    -0.000 C 
BRANCH  13  14
ATOM     14  C   UNL     1     -15.957 -17.074  28.189  1.00  0.00    -0.000 C 
BRANCH  14  15
ATOM     15  C   UNL     1     -15.100 -16.307  27.157  1.00  0.00    -0.000 C 
BRANCH  15  16
ATOM     16  C   UNL     1     -15.589 -14.868  26.932  1.00  0.00    -0.000 C 
BRANCH  16  17
ATOM     17  C   UNL     1     -17.039 -14.807  26.424  1.00  0.00    -0.000 C 
BRANCH  17  18
ATOM     18  C   UNL     1     -17.138 -14.952  24.895  1.00  0.00    -0.000 C 
BRANCH  18  19
ATOM     19  C   UNL     1     -17.185 -13.595  24.178  1.00  0.00    -0.003 C 
ATOM     20  C   UNL     1     -17.854 -12.508  25.018  1.00  0.00     0.004 C 
ENDBRANCH  18  19
ENDBRANCH  17  18
ENDBRANCH  16  17
ENDBRANCH  15  16
ENDBRANCH  14  15
ENDBRANCH  13  14
ENDBRANCH  12  13
ENDBRANCH   1  12
TORSDOF 16
ENDMDL
MODEL 5
REMARK VINA RESULT:    -3.058      9.012     10.891
REMARK INTER + INTRA:          -8.401
REMARK INTER:                  -5.714
REMARK INTRA:                  -2.687
REMARK UNBOUND:                -2.483
REMARK SMILES CCCCCCCCCCCCCCCCCC(=O)[O-]
REMARK SMILES IDX 10 1 11 2 12 3 13 4 14 5 15 6 16 7 17 8 18 9 19 10 20 11
REMARK SMILES IDX 9 12 8 13 7 14 6 15 5 16 4 17 3 18 2 19 1 20
REMARK H PARENT
REMARK Flexibility Score: inf
ROOT
ATOM      1  C   UNL     1     -14.390 -22.762  19.704  1.00  0.00     0.000 C 
ENDROOT
BRANCH   1   2
ATOM      2  C   UNL     1     -13.366 -21.825  19.043  1.00  0.00     0.000 C 
BRANCH   2   3
ATOM      3  C   UNL     1     -13.817 -20.355  19.049  1.00  0.00     0.000 C 
BRANCH   3   4
ATOM      4  C   UNL     1     -12.635 -19.372  18.988  1.00  0.00     0.000 C 
BRANCH   4   5
ATOM      5  C   UNL     1     -12.094 -18.995  20.378  1.00  0.00     0.000 C 
BRANCH   5   6
ATOM      6  C   UNL     1     -10.839 -19.768  20.824  1.00  0.00     0.000 C 
BRANCH   6   7
ATOM      7  C   UNL     1      -9.731 -19.780  19.757  1.00  0.00     0.006 C 
BRANCH   7   8
ATOM      8  C   UNL     1      -8.429 -19.148  20.266  1.00  0.00     0.053 C 
BRANCH   8   9
ATOM      9  C   UNL     1      -7.258 -19.512  19.405  1.00  0.00     0.041 C 
ATOM     10  O   UNL     1      -7.431 -19.815  18.195  1.00  0.00    -0.550 OA
ATOM     11  O   UNL     1      -5.979 -19.546  19.946  1.00  0.00    -0.550 OA
ENDBRANCH   8   9
ENDBRANCH   7   8
ENDBRANCH   6   7
ENDBRANCH   5   6
ENDBRANCH   4   5
ENDBRANCH   3   4
ENDBRANCH   2   3
ENDBRANCH   1   2
BRANCH   1  12
ATOM     12  C   UNL     1     -15.499 -21.991  20.457  1.00  0.00     0.000 C 
BRANCH  12  13
ATOM     13  C   UNL     1     -15.513 -22.258  21.972  1.00  0.00    -0.000 C 
BRANCH  13  14
ATOM     14  C   UNL     1     -15.160 -21.033  22.836  1.00  0.00    -0.000 C 
BRANCH  14  15
ATOM     15  C   UNL     1     -13.640 -20.792  22.978  1.00  0.00    -0.000 C 
BRANCH  15  16
ATOM     16  C   UNL     1     -12.911 -21.974  23.635  1.00  0.00    -0.000 C 
BRANCH  16  17
ATOM     17  C   UNL     1     -11.896 -22.643  22.693  1.00  0.00    -0.000 C 
BRANCH  17  18
ATOM     18  C   UNL     1     -12.216 -24.126  22.433  1.00  0.00    -0.000 C 
BRANCH  18  19
ATOM     19  C   UNL     1     -11.472 -24.682  21.210  1.00  0.00    -0.003 C 
ATOM     20  C   UNL     1     -10.699 -23.605  20.451  1.00  0.00     0.004 C 
ENDBRANCH  18  19
ENDBRANCH  17  18
ENDBRANCH  16  17
ENDBRANCH  15  16
ENDBRANCH  14  15
ENDBRANCH  13  14
ENDBRANCH  12  13
ENDBRANCH   1  12
TORSDOF 16
ENDMDL
MODEL 6
REMARK VINA RESULT:    -3.058      1.418      3.844
REMARK INTER + INTRA:          -8.401
REMARK INTER:                  -6.230
REMARK INTRA:                  -2.171
REMARK UNBOUND:                -2.483
REMARK SMILES CCCCCCCCCCCCCCCCCC(=O)[O-]
REMARK SMILES IDX 10 1 11 2 12 3 13 4 14 5 15 6 16 7 17 8 18 9 19 10 20 11
REMARK SMILES IDX 9 12 8 13 7 14 6 15 5 16 4 17 3 18 2 19 1 20
REMARK H PARENT
REMARK Flexibility Score: inf
ROOT
ATOM      1  C   UNL     1     -17.123 -12.349  25.932  1.00  0.00     0.000 C 
ENDROOT
BRANCH   1   2
ATOM      2  C   UNL     1     -17.288 -11.087  26.797  1.00  0.00     0.000 C 
BRANCH   2   3
ATOM      3  C   UNL     1     -16.551 -11.190  28.143  1.00  0.00     0.000 C 
BRANCH   3   4
ATOM      4  C   UNL     1     -16.373 -12.644  28.611  1.00  0.00     0.000 C 
BRANCH   4   5
ATOM      5  C   UNL     1     -15.050 -12.876  29.361  1.00  0.00     0.000 C 
BRANCH   5   6
ATOM      6  C   UNL     1     -14.608 -14.347  29.472  1.00  0.00     0.000 C 
BRANCH   6   7
ATOM      7  C   UNL     1     -13.123 -14.555  29.129  1.00  0.00     0.006 C 
BRANCH   7   8
ATOM      8  C   UNL     1     -12.829 -15.988  28.666  1.00  0.00     0.053 C 
BRANCH   8   9
ATOM      9  C   UNL     1     -13.055 -16.985  29.761  1.00  0.00     0.041 C 
ATOM     10  O   UNL     1     -12.240 -17.073  30.717  1.00  0.00    -0.550 OA
ATOM     11  O   UNL     1     -14.151 -17.837  29.712  1.00  0.00    -0.550 OA
ENDBRANCH   8   9
ENDBRANCH   7   8
ENDBRANCH   6   7
ENDBRANCH   5   6
ENDBRANCH   4   5
ENDBRANCH   3   4
ENDBRANCH   2   3
ENDBRANCH   1   2
BRANCH   1  12
ATOM     12  C   UNL     1     -18.414 -12.713  25.163  1.00  0.00     0.000 C 
BRANCH  12  13
ATOM     13  C   UNL     1     -18.258 -12.644  23.633  1.00  0.00    -0.000 C 
BRANCH  13  14
ATOM     14  C   UNL     1     -17.620 -13.894  23.002  1.00  0.00    -0.000 C 
BRANCH  14  15
ATOM     15  C   UNL     1     -18.651 -14.912  22.464  1.00  0.00    -0.000 C 
BRANCH  15  16
ATOM     16  C   UNL     1     -18.884 -16.086  23.428  1.00  0.00    -0.000 C 
BRANCH  16  17
ATOM     17  C   UNL     1     -17.711 -16.297  24.399  1.00  0.00    -0.000 C 
BRANCH  17  18
ATOM     18  C   UNL     1     -18.175 -16.515  25.850  1.00  0.00    -0.000 C 
BRANCH  18  19
ATOM     19  C   UNL     1     -17.200 -15.917  26.875  1.00  0.00    -0.003 C 
ATOM     20  C   UNL     1     -15.772 -15.815  26.341  1.00  0.00     0.004 C 
ENDBRANCH  18  19
ENDBRANCH  17  18
ENDBRANCH  16  17
ENDBRANCH  15  16
ENDBRANCH  14  15
ENDBRANCH  13  14
ENDBRANCH  12  13
ENDBRANCH   1  12
TORSDOF 16
ENDMDL
MODEL 7
REMARK VINA RESULT:    -3.043      9.253     11.258
REMARK INTER + INTRA:          -8.372
REMARK INTER:                  -5.578
REMARK INTRA:                  -2.795
REMARK UNBOUND:                -2.483
REMARK SMILES CCCCCCCCCCCCCCCCCC(=O)[O-]
REMARK SMILES IDX 10 1 11 2 12 3 13 4 14 5 15 6 16 7 17 8 18 9 19 10 20 11
REMARK SMILES IDX 9 12 8 13 7 14 6 15 5 16 4 17 3 18 2 19 1 20
REMARK H PARENT
REMARK Flexibility Score: inf
ROOT
ATOM      1  C   UNL     1     -13.174 -19.774  19.770  1.00  0.00     0.000 C 
ENDROOT
BRANCH   1   2
ATOM      2  C   UNL     1     -13.165 -21.112  20.529  1.00  0.00     0.000 C 
BRANCH   2   3
ATOM      3  C   UNL     1     -14.449 -21.340  21.343  1.00  0.00     0.000 C 
BRANCH   3   4
ATOM      4  C   UNL     1     -14.299 -20.923  22.816  1.00  0.00     0.000 C 
BRANCH   4   5
ATOM      5  C   UNL     1     -12.868 -21.104  23.349  1.00  0.00     0.000 C 
BRANCH   5   6
ATOM      6  C   UNL     1     -12.627 -22.395  24.155  1.00  0.00     0.000 C 
BRANCH   6   7
ATOM      7  C   UNL     1     -12.095 -23.551  23.290  1.00  0.00     0.006 C 
BRANCH   7   8
ATOM      8  C   UNL     1     -12.980 -24.800  23.383  1.00  0.00     0.053 C 
BRANCH   8   9
ATOM      9  C   UNL     1     -14.182 -24.701  22.495  1.00  0.00     0.041 C 
ATOM     10  O   UNL     1     -15.312 -24.439  22.984  1.00  0.00    -0.550 OA
ATOM     11  O   UNL     1     -14.060 -24.927  21.129  1.00  0.00    -0.550 OA
ENDBRANCH   8   9
ENDBRANCH   7   8
ENDBRANCH   6   7
ENDBRANCH   5   6
ENDBRANCH   4   5
ENDBRANCH   3   4
ENDBRANCH   2   3
ENDBRANCH   1   2
BRANCH   1  12
ATOM     12  C   UNL     1     -11.891 -18.945  20.015  1.00  0.00     0.000 C 
BRANCH  12  13
ATOM     13  C   UNL     1     -10.812 -19.703  20.809  1.00  0.00    -0.000 C 
BRANCH  13  14
ATOM     14  C   UNL     1      -9.398 -19.611  20.207  1.00  0.00    -0.000 C 
BRANCH  14  15
ATOM     15  C   UNL     1      -9.386 -19.532  18.663  1.00  0.00    -0.000 C 
BRANCH  15  16
ATOM     16  C   UNL     1      -9.196 -20.906  18.001  1.00  0.00    -0.000 C 
BRANCH  16  17
ATOM     17  C   UNL     1     -10.531 -21.604  17.690  1.00  0.00    -0.000 C 
BRANCH  17  18
ATOM     18  C   UNL     1     -10.548 -23.076  18.138  1.00  0.00    -0.000 C 
BRANCH  18  19
ATOM     19  C   UNL     1     -10.313 -23.235  19.647  1.00  0.00    -0.003 C 
ATOM     20  C   UNL     1     -10.647 -24.638  20.152  1.00  0.00     0.004 C 
ENDBRANCH  18  19
ENDBRANCH  17  18
ENDBRANCH  16  17
ENDBRANCH  15  16
ENDBRANCH  14  15
ENDBRANCH  13  14
ENDBRANCH  12  13
ENDBRANCH   1  12
TORSDOF 16
ENDMDL
MODEL 8
REMARK VINA RESULT:    -3.025      9.076     11.152
REMARK INTER + INTRA:          -8.338
REMARK INTER:                  -5.241
REMARK INTRA:                  -3.097
REMARK UNBOUND:                -2.483
REMARK SMILES CCCCCCCCCCCCCCCCCC(=O)[O-]
REMARK SMILES IDX 10 1 11 2 12 3 13 4 14 5 15 6 16 7 17 8 18 9 19 10 20 11
REMARK SMILES IDX 9 12 8 13 7 14 6 15 5 16 4 17 3 18 2 19 1 20
REMARK H PARENT
REMARK Flexibility Score: inf
ROOT
ATOM      1  C   UNL     1     -12.218 -24.954  21.507  1.00  0.00     0.000 C 
ENDROOT
BRANCH   1   2
ATOM      2  C   UNL     1     -11.238 -23.981  20.828  1.00  0.00     0.000 C 
BRANCH   2   3
ATOM      3  C   UNL     1     -11.873 -23.227  19.649  1.00  0.00     0.000 C 
BRANCH   3   4
ATOM      4  C   UNL     1     -11.123 -21.930  19.301  1.00  0.00     0.000 C 
BRANCH   4   5
ATOM      5  C   UNL     1     -10.774 -21.087  20.540  1.00  0.00     0.000 C 
BRANCH   5   6
ATOM      6  C   UNL     1     -10.976 -19.569  20.376  1.00  0.00     0.000 C 
BRANCH   6   7
ATOM      7  C   UNL     1     -12.456 -19.172  20.237  1.00  0.00     0.006 C 
BRANCH   7   8
ATOM      8  C   UNL     1     -12.664 -18.063  19.198  1.00  0.00     0.053 C 
BRANCH   8   9
ATOM      9  C   UNL     1     -12.174 -18.469  17.841  1.00  0.00     0.041 C 
ATOM     10  O   UNL     1     -11.266 -17.808  17.271  1.00  0.00    -0.550 OA
ATOM     11  O   UNL     1     -12.740 -19.560  17.194  1.00  0.00    -0.550 OA
ENDBRANCH   8   9
ENDBRANCH   7   8
ENDBRANCH   6   7
ENDBRANCH   5   6
ENDBRANCH   4   5
ENDBRANCH   3   4
ENDBRANCH   2   3
ENDBRANCH   1   2
BRANCH   1  12
ATOM     12  C   UNL     1     -12.537 -24.550  22.965  1.00  0.00     0.000 C 
BRANCH  12  13
ATOM     13  C   UNL     1     -11.866 -23.235  23.401  1.00  0.00    -0.000 C 
BRANCH  13  14
ATOM     14  C   UNL     1     -12.802 -22.256  24.132  1.00  0.00    -0.000 C 
BRANCH  14  15
ATOM     15  C   UNL     1     -13.189 -21.020  23.287  1.00  0.00    -0.000 C 
BRANCH  15  16
ATOM     16  C   UNL     1     -14.627 -21.096  22.752  1.00  0.00    -0.000 C 
BRANCH  16  17
ATOM     17  C   UNL     1     -14.709 -21.749  21.362  1.00  0.00    -0.000 C 
BRANCH  17  18
ATOM     18  C   UNL     1     -15.531 -23.050  21.366  1.00  0.00    -0.000 C 
BRANCH  18  19
ATOM     19  C   UNL     1     -15.521 -23.755  20.002  1.00  0.00    -0.003 C 
ATOM     20  C   UNL     1     -15.670 -25.272  20.121  1.00  0.00     0.004 C 
ENDBRANCH  18  19
ENDBRANCH  17  18
ENDBRANCH  16  17
ENDBRANCH  15  16
ENDBRANCH  14  15
ENDBRANCH  13  14
ENDBRANCH  12  13
ENDBRANCH   1  12
TORSDOF 16
ENDMDL
MODEL 9
REMARK VINA RESULT:    -3.021      9.080     11.363
REMARK INTER + INTRA:          -8.330
REMARK INTER:                  -5.514
REMARK INTRA:                  -2.816
REMARK UNBOUND:                -2.483
REMARK SMILES CCCCCCCCCCCCCCCCCC(=O)[O-]
REMARK SMILES IDX 10 1 11 2 12 3 13 4 14 5 15 6 16 7 17 8 18 9 19 10 20 11
REMARK SMILES IDX 9 12 8 13 7 14 6 15 5 16 4 17 3 18 2 19 1 20
REMARK H PARENT
REMARK Flexibility Score: inf
ROOT
ATOM      1  C   UNL     1     -12.178 -23.770  20.479  1.00  0.00     0.000 C 
ENDROOT
BRANCH   1   2
ATOM      2  C   UNL     1     -11.017 -22.798  20.749  1.00  0.00     0.000 C 
BRANCH   2   3
ATOM      3  C   UNL     1     -10.919 -21.683  19.695  1.00  0.00     0.000 C 
BRANCH   3   4
ATOM      4  C   UNL     1     -10.298 -20.392  20.254  1.00  0.00     0.000 C 
BRANCH   4   5
ATOM      5  C   UNL     1     -11.349 -19.399  20.781  1.00  0.00     0.000 C 
BRANCH   5   6
ATOM      6  C   UNL     1     -12.590 -19.221  19.887  1.00  0.00     0.000 C 
BRANCH   6   7
ATOM      7  C   UNL     1     -12.323 -18.328  18.662  1.00  0.00     0.006 C 
BRANCH   7   8
ATOM      8  C   UNL     1     -13.551 -17.494  18.274  1.00  0.00     0.053 C 
BRANCH   8   9
ATOM      9  C   UNL     1     -14.184 -17.989  17.010  1.00  0.00     0.041 C 
ATOM     10  O   UNL     1     -15.000 -17.262  16.383  1.00  0.00    -0.550 OA
ATOM     11  O   UNL     1     -13.897 -19.263  16.538  1.00  0.00    -0.550 OA
ENDBRANCH   8   9
ENDBRANCH   7   8
ENDBRANCH   6   7
ENDBRANCH   5   6
ENDBRANCH   4   5
ENDBRANCH   3   4
ENDBRANCH   2   3
ENDBRANCH   1   2
BRANCH   1  12
ATOM     12  C   UNL     1     -13.408 -23.066  19.860  1.00  0.00     0.000 C 
BRANCH  12  13
ATOM     13  C   UNL     1     -14.571 -22.879  20.850  1.00  0.00    -0.000 C 
BRANCH  13  14
ATOM     14  C   UNL     1     -14.699 -21.455  21.419  1.00  0.00    -0.000 C 
BRANCH  14  15
ATOM     15  C   UNL     1     -14.524 -21.382  22.954  1.00  0.00    -0.000 C 
BRANCH  15  16
ATOM     16  C   UNL     1     -13.058 -21.198  23.375  1.00  0.00    -0.000 C 
BRANCH  16  17
ATOM     17  C   UNL     1     -12.494 -22.425  24.111  1.00  0.00    -0.000 C 
BRANCH  17  18
ATOM     18  C   UNL     1     -13.584 -23.448  24.479  1.00  0.00    -0.000 C 
BRANCH  18  19
ATOM     19  C   UNL     1     -13.339 -24.823  23.839  1.00  0.00    -0.003 C 
ATOM     20  C   UNL     1     -14.630 -25.493  23.371  1.00  0.00     0.004 C 
ENDBRANCH  18  19
ENDBRANCH  17  18
ENDBRANCH  16  17
ENDBRANCH  15  16
ENDBRANCH  14  15
ENDBRANCH  13  14
ENDBRANCH  12  13
ENDBRANCH   1  12
TORSDOF 16
ENDMDL
