MODEL 1
REMARK VINA RESULT:    -7.497      0.000      0.000
REMARK INTER + INTRA:          -9.442
REMARK INTER:                  -9.031
REMARK INTRA:                  -0.412
REMARK UNBOUND:                -0.412
REMARK SMILES O=c1c(O)c(-c2ccc(O)cc2O)oc2cc(O)cc(O)c12
REMARK SMILES IDX 5 1 3 2 2 3 1 4 22 5 20 6 19 7 17 8 16 9 15 10 14 11 6 12
REMARK SMILES IDX 8 13 7 14 9 15 11 16 12 17 10 18 13 20 4 22 21 24 18 26
REMARK H PARENT 10 19 13 21 4 23 21 25 18 27
REMARK Flexibility Score: inf
ROOT
ATOM      1  C   UNL     1      -6.439  48.214 -15.710  1.00  0.00     0.184 A 
ATOM      2  C   UNL     1      -7.081  49.461 -15.783  1.00  0.00     0.208 A 
ATOM      3  C   UNL     1      -6.422  50.595 -15.285  1.00  0.00     0.238 A 
ATOM      4  O   UNL     1      -6.979  51.718 -15.403  1.00  0.00    -0.285 OA
ATOM      5  C   UNL     1      -5.137  50.465 -14.706  1.00  0.00     0.111 A 
ATOM      6  C   UNL     1      -4.393  51.540 -14.133  1.00  0.00     0.134 A 
ATOM      7  C   UNL     1      -3.077  51.320 -13.707  1.00  0.00     0.093 A 
ATOM      8  C   UNL     1      -2.503  50.052 -13.770  1.00  0.00     0.123 A 
ATOM      9  C   UNL     1      -3.241  48.980 -14.274  1.00  0.00     0.094 A 
ATOM     10  C   UNL     1      -4.543  49.176 -14.741  1.00  0.00     0.146 A 
ATOM     11  O   UNL     1      -5.208  48.132 -15.222  1.00  0.00    -0.451 OA
ENDROOT
BRANCH   1  12
ATOM     12  C   UNL     1      -7.084  46.978 -16.201  1.00  0.00     0.063 A 
ATOM     13  C   UNL     1      -7.370  45.352 -17.986  1.00  0.00     0.047 A 
ATOM     14  C   UNL     1      -6.782  46.520 -17.493  1.00  0.00     0.020 A 
ATOM     15  C   UNL     1      -8.256  44.620 -17.190  1.00  0.00     0.119 A 
ATOM     16  C   UNL     1      -8.545  45.056 -15.890  1.00  0.00     0.093 A 
ATOM     17  C   UNL     1      -7.955  46.224 -15.386  1.00  0.00     0.130 A 
BRANCH  15  18
ATOM     18  O   UNL     1      -8.837  43.460 -17.696  1.00  0.00    -0.508 OA
ATOM     19  H   UNL     1      -9.442  42.880 -17.128  1.00  0.00     0.293 HD
ENDBRANCH  15  18
BRANCH  17  20
ATOM     20  O   UNL     1      -8.213  46.622 -14.073  1.00  0.00    -0.507 OA
ATOM     21  H   UNL     1      -8.609  47.530 -13.862  1.00  0.00     0.293 HD
ENDBRANCH  17  20
ENDBRANCH   1  12
BRANCH   2  22
ATOM     22  O   UNL     1      -8.342  49.564 -16.377  1.00  0.00    -0.502 OA
ATOM     23  H   UNL     1      -9.102  48.936 -16.149  1.00  0.00     0.293 HD
ENDBRANCH   2  22
BRANCH   6  24
ATOM     24  O   UNL     1      -4.905  52.827 -13.939  1.00  0.00    -0.507 OA
ATOM     25  H   UNL     1      -4.585  53.472 -13.233  1.00  0.00     0.293 HD
ENDBRANCH   6  24
BRANCH   8  26
ATOM     26  O   UNL     1      -1.197  49.865 -13.321  1.00  0.00    -0.508 OA
ATOM     27  H   UNL     1      -0.865  50.288 -12.462  1.00  0.00     0.293 HD
ENDBRANCH   8  26
TORSDOF 6
ENDMDL
MODEL 2
REMARK VINA RESULT:    -7.123      1.233      2.836
REMARK INTER + INTRA:          -8.992
REMARK INTER:                  -8.604
REMARK INTRA:                  -0.388
REMARK UNBOUND:                -0.412
REMARK SMILES O=c1c(O)c(-c2ccc(O)cc2O)oc2cc(O)cc(O)c12
REMARK SMILES IDX 5 1 3 2 2 3 1 4 22 5 20 6 19 7 17 8 16 9 15 10 14 11 6 12
REMARK SMILES IDX 8 13 7 14 9 15 11 16 12 17 10 18 13 20 4 22 21 24 18 26
REMARK H PARENT 10 19 13 21 4 23 21 25 18 27
REMARK Flexibility Score: inf
ROOT
ATOM      1  C   UNL     1      -5.943  47.983 -15.449  1.00  0.00     0.184 A 
ATOM      2  C   UNL     1      -4.594  47.793 -15.106  1.00  0.00     0.208 A 
ATOM      3  C   UNL     1      -3.871  48.869 -14.570  1.00  0.00     0.238 A 
ATOM      4  O   UNL     1      -2.679  48.678 -14.213  1.00  0.00    -0.285 OA
ATOM      5  C   UNL     1      -4.502  50.125 -14.399  1.00  0.00     0.111 A 
ATOM      6  C   UNL     1      -3.854  51.296 -13.902  1.00  0.00     0.134 A 
ATOM      7  C   UNL     1      -4.608  52.449 -13.652  1.00  0.00     0.093 A 
ATOM      8  C   UNL     1      -5.970  52.496 -13.943  1.00  0.00     0.123 A 
ATOM      9  C   UNL     1      -6.603  51.375 -14.485  1.00  0.00     0.094 A 
ATOM     10  C   UNL     1      -5.885  50.199 -14.710  1.00  0.00     0.146 A 
ATOM     11  O   UNL     1      -6.525  49.152 -15.217  1.00  0.00    -0.451 OA
ENDROOT
BRANCH   1  12
ATOM     12  C   UNL     1      -6.756  46.896 -16.034  1.00  0.00     0.063 A 
ATOM     13  C   UNL     1      -7.167  45.374 -17.885  1.00  0.00     0.047 A 
ATOM     14  C   UNL     1      -6.422  46.405 -17.306  1.00  0.00     0.020 A 
ATOM     15  C   UNL     1      -8.244  44.812 -17.196  1.00  0.00     0.119 A 
ATOM     16  C   UNL     1      -8.571  45.278 -15.916  1.00  0.00     0.093 A 
ATOM     17  C   UNL     1      -7.826  46.309 -15.325  1.00  0.00     0.130 A 
BRANCH  15  18
ATOM     18  O   UNL     1      -8.980  43.788 -17.788  1.00  0.00    -0.508 OA
ATOM     19  H   UNL     1      -9.119  42.899 -17.323  1.00  0.00     0.293 HD
ENDBRANCH  15  18
BRANCH  17  20
ATOM     20  O   UNL     1      -8.130  46.732 -14.030  1.00  0.00    -0.507 OA
ATOM     21  H   UNL     1      -8.812  47.459 -13.856  1.00  0.00     0.293 HD
ENDBRANCH  17  20
ENDBRANCH   1  12
BRANCH   2  22
ATOM     22  O   UNL     1      -4.002  46.537 -15.267  1.00  0.00    -0.502 OA
ATOM     23  H   UNL     1      -4.406  45.693 -14.882  1.00  0.00     0.293 HD
ENDBRANCH   2  22
BRANCH   6  24
ATOM     24  O   UNL     1      -2.479  51.386 -13.664  1.00  0.00    -0.507 OA
ATOM     25  H   UNL     1      -1.868  52.074 -14.077  1.00  0.00     0.293 HD
ENDBRANCH   6  24
BRANCH   8  26
ATOM     26  O   UNL     1      -6.687  53.665 -13.697  1.00  0.00    -0.508 OA
ATOM     27  H   UNL     1      -7.530  53.663 -13.136  1.00  0.00     0.293 HD
ENDBRANCH   8  26
TORSDOF 6
ENDMDL
MODEL 3
REMARK VINA RESULT:    -6.839      2.552      5.277
REMARK INTER + INTRA:          -8.650
REMARK INTER:                  -8.310
REMARK INTRA:                  -0.340
REMARK UNBOUND:                -0.412
REMARK SMILES O=c1c(O)c(-c2ccc(O)cc2O)oc2cc(O)cc(O)c12
REMARK SMILES IDX 5 1 3 2 2 3 1 4 22 5 20 6 19 7 17 8 16 9 15 10 14 11 6 12
REMARK SMILES IDX 8 13 7 14 9 15 11 16 12 17 10 18 13 20 4 22 21 24 18 26
REMARK H PARENT 10 19 13 21 4 23 21 25 18 27
REMARK Flexibility Score: inf
ROOT
ATOM      1  C   UNL     1      -6.791  50.783 -16.255  1.00  0.00     0.184 A 
ATOM      2  C   UNL     1      -7.122  49.451 -16.553  1.00  0.00     0.208 A 
ATOM      3  C   UNL     1      -6.243  48.429 -16.167  1.00  0.00     0.238 A 
ATOM      4  O   UNL     1      -6.571  47.233 -16.389  1.00  0.00    -0.285 OA
ATOM      5  C   UNL     1      -5.036  48.753 -15.502  1.00  0.00     0.111 A 
ATOM      6  C   UNL     1      -4.051  47.801 -15.100  1.00  0.00     0.134 A 
ATOM      7  C   UNL     1      -2.957  48.221 -14.333  1.00  0.00     0.093 A 
ATOM      8  C   UNL     1      -2.777  49.564 -14.011  1.00  0.00     0.123 A 
ATOM      9  C   UNL     1      -3.702  50.513 -14.449  1.00  0.00     0.094 A 
ATOM     10  C   UNL     1      -4.823  50.120 -15.184  1.00  0.00     0.146 A 
ATOM     11  O   UNL     1      -5.685  51.052 -15.573  1.00  0.00    -0.451 OA
ENDROOT
BRANCH   1  12
ATOM     12  C   UNL     1      -7.665  51.908 -16.649  1.00  0.00     0.063 A 
ATOM     13  C   UNL     1      -8.086  53.794 -18.125  1.00  0.00     0.047 A 
ATOM     14  C   UNL     1      -7.280  52.725 -17.723  1.00  0.00     0.020 A 
ATOM     15  C   UNL     1      -9.292  54.050 -17.468  1.00  0.00     0.119 A 
ATOM     16  C   UNL     1      -9.697  53.226 -16.410  1.00  0.00     0.093 A 
ATOM     17  C   UNL     1      -8.897  52.148 -16.004  1.00  0.00     0.130 A 
BRANCH  15  18
ATOM     18  O   UNL     1     -10.083  55.122 -17.877  1.00  0.00    -0.508 OA
ATOM     19  H   UNL     1     -10.054  56.014 -17.399  1.00  0.00     0.293 HD
ENDBRANCH  15  18
BRANCH  17  20
ATOM     20  O   UNL     1      -9.334  51.305 -14.982  1.00  0.00    -0.507 OA
ATOM     21  H   UNL     1      -9.524  50.324 -15.148  1.00  0.00     0.293 HD
ENDBRANCH  17  20
ENDBRANCH   1  12
BRANCH   2  22
ATOM     22  O   UNL     1      -8.329  49.158 -17.195  1.00  0.00    -0.502 OA
ATOM     23  H   UNL     1      -8.987  49.877 -17.470  1.00  0.00     0.293 HD
ENDBRANCH   2  22
BRANCH   6  24
ATOM     24  O   UNL     1      -4.087  46.447 -15.447  1.00  0.00    -0.507 OA
ATOM     25  H   UNL     1      -3.997  46.092 -16.387  1.00  0.00     0.293 HD
ENDBRANCH   6  24
BRANCH   8  26
ATOM     26  O   UNL     1      -1.667  49.949 -13.261  1.00  0.00    -0.508 OA
ATOM     27  H   UNL     1      -1.737  50.650 -12.532  1.00  0.00     0.293 HD
ENDBRANCH   8  26
TORSDOF 6
ENDMDL
MODEL 4
REMARK VINA RESULT:    -6.554      3.046      5.326
REMARK INTER + INTRA:          -8.307
REMARK INTER:                  -7.884
REMARK INTRA:                  -0.423
REMARK UNBOUND:                -0.412
REMARK SMILES O=c1c(O)c(-c2ccc(O)cc2O)oc2cc(O)cc(O)c12
REMARK SMILES IDX 5 1 3 2 2 3 1 4 22 5 20 6 19 7 17 8 16 9 15 10 14 11 6 12
REMARK SMILES IDX 8 13 7 14 9 15 11 16 12 17 10 18 13 20 4 22 21 24 18 26
REMARK H PARENT 10 19 13 21 4 23 21 25 18 27
REMARK Flexibility Score: inf
ROOT
ATOM      1  C   UNL     1      -6.066  51.268 -15.324  1.00  0.00     0.184 A 
ATOM      2  C   UNL     1      -6.374  51.597 -16.654  1.00  0.00     0.208 A 
ATOM      3  C   UNL     1      -6.984  52.831 -16.926  1.00  0.00     0.238 A 
ATOM      4  O   UNL     1      -7.208  53.143 -18.125  1.00  0.00    -0.285 OA
ATOM      5  C   UNL     1      -7.292  53.713 -15.862  1.00  0.00     0.111 A 
ATOM      6  C   UNL     1      -7.947  54.972 -16.016  1.00  0.00     0.134 A 
ATOM      7  C   UNL     1      -8.085  55.819 -14.911  1.00  0.00     0.093 A 
ATOM      8  C   UNL     1      -7.653  55.427 -13.645  1.00  0.00     0.123 A 
ATOM      9  C   UNL     1      -7.064  54.174 -13.470  1.00  0.00     0.094 A 
ATOM     10  C   UNL     1      -6.880  53.321 -14.561  1.00  0.00     0.146 A 
ATOM     11  O   UNL     1      -6.307  52.142 -14.355  1.00  0.00    -0.451 OA
ENDROOT
BRANCH   1  12
ATOM     12  C   UNL     1      -5.438  49.978 -14.968  1.00  0.00     0.063 A 
ATOM     13  C   UNL     1      -5.650  47.572 -14.690  1.00  0.00     0.047 A 
ATOM     14  C   UNL     1      -6.214  48.809 -15.015  1.00  0.00     0.020 A 
ATOM     15  C   UNL     1      -4.303  47.486 -14.328  1.00  0.00     0.119 A 
ATOM     16  C   UNL     1      -3.515  48.644 -14.301  1.00  0.00     0.093 A 
ATOM     17  C   UNL     1      -4.071  49.889 -14.631  1.00  0.00     0.130 A 
BRANCH  15  18
ATOM     18  O   UNL     1      -3.756  46.247 -14.003  1.00  0.00    -0.508 OA
ATOM     19  H   UNL     1      -3.487  45.583 -14.719  1.00  0.00     0.293 HD
ENDBRANCH  15  18
BRANCH  17  20
ATOM     20  O   UNL     1      -3.265  51.027 -14.648  1.00  0.00    -0.507 OA
ATOM     21  H   UNL     1      -3.353  51.751 -13.944  1.00  0.00     0.293 HD
ENDBRANCH  17  20
ENDBRANCH   1  12
BRANCH   2  22
ATOM     22  O   UNL     1      -6.041  50.716 -17.687  1.00  0.00    -0.502 OA
ATOM     23  H   UNL     1      -5.355  49.981 -17.573  1.00  0.00     0.293 HD
ENDBRANCH   2  22
BRANCH   6  24
ATOM     24  O   UNL     1      -8.499  55.421 -17.220  1.00  0.00    -0.507 OA
ATOM     25  H   UNL     1      -9.186  54.918 -17.761  1.00  0.00     0.293 HD
ENDBRANCH   6  24
BRANCH   8  26
ATOM     26  O   UNL     1      -7.821  56.289 -12.563  1.00  0.00    -0.508 OA
ATOM     27  H   UNL     1      -8.017  55.941 -11.632  1.00  0.00     0.293 HD
ENDBRANCH   8  26
TORSDOF 6
ENDMDL
MODEL 5
REMARK VINA RESULT:    -6.516      2.805      7.359
REMARK INTER + INTRA:          -8.260
REMARK INTER:                  -7.833
REMARK INTRA:                  -0.427
REMARK UNBOUND:                -0.412
REMARK SMILES O=c1c(O)c(-c2ccc(O)cc2O)oc2cc(O)cc(O)c12
REMARK SMILES IDX 5 1 3 2 2 3 1 4 22 5 20 6 19 7 17 8 16 9 15 10 14 11 6 12
REMARK SMILES IDX 8 13 7 14 9 15 11 16 12 17 10 18 13 20 4 22 21 24 18 26
REMARK H PARENT 10 19 13 21 4 23 21 25 18 27
REMARK Flexibility Score: inf
ROOT
ATOM      1  C   UNL     1      -4.989  51.768 -12.965  1.00  0.00     0.184 A 
ATOM      2  C   UNL     1      -3.605  51.662 -13.182  1.00  0.00     0.208 A 
ATOM      3  C   UNL     1      -3.091  50.471 -13.716  1.00  0.00     0.238 A 
ATOM      4  O   UNL     1      -1.858  50.401 -13.960  1.00  0.00    -0.285 OA
ATOM      5  C   UNL     1      -3.965  49.396 -14.011  1.00  0.00     0.111 A 
ATOM      6  C   UNL     1      -3.549  48.128 -14.518  1.00  0.00     0.134 A 
ATOM      7  C   UNL     1      -4.512  47.186 -14.896  1.00  0.00     0.093 A 
ATOM      8  C   UNL     1      -5.872  47.437 -14.724  1.00  0.00     0.123 A 
ATOM      9  C   UNL     1      -6.289  48.651 -14.174  1.00  0.00     0.094 A 
ATOM     10  C   UNL     1      -5.353  49.626 -13.822  1.00  0.00     0.146 A 
ATOM     11  O   UNL     1      -5.791  50.770 -13.312  1.00  0.00    -0.451 OA
ENDROOT
BRANCH   1  12
ATOM     12  C   UNL     1      -5.593  52.989 -12.389  1.00  0.00     0.063 A 
ATOM     13  C   UNL     1      -6.038  54.362 -10.432  1.00  0.00     0.047 A 
ATOM     14  C   UNL     1      -5.484  53.215 -11.008  1.00  0.00     0.020 A 
ATOM     15  C   UNL     1      -6.696  55.301 -11.230  1.00  0.00     0.119 A 
ATOM     16  C   UNL     1      -6.789  55.096 -12.613  1.00  0.00     0.093 A 
ATOM     17  C   UNL     1      -6.231  53.951 -13.200  1.00  0.00     0.130 A 
BRANCH  15  18
ATOM     18  O   UNL     1      -7.247  56.437 -10.642  1.00  0.00    -0.508 OA
ATOM     19  H   UNL     1      -7.879  56.371  -9.853  1.00  0.00     0.293 HD
ENDBRANCH  15  18
BRANCH  17  20
ATOM     20  O   UNL     1      -6.288  53.782 -14.583  1.00  0.00    -0.507 OA
ATOM     21  H   UNL     1      -7.131  53.982 -15.109  1.00  0.00     0.293 HD
ENDBRANCH  17  20
ENDBRANCH   1  12
BRANCH   2  22
ATOM     22  O   UNL     1      -2.768  52.744 -12.899  1.00  0.00    -0.502 OA
ATOM     23  H   UNL     1      -2.331  53.297 -13.626  1.00  0.00     0.293 HD
ENDBRANCH   2  22
BRANCH   6  24
ATOM     24  O   UNL     1      -2.211  47.739 -14.644  1.00  0.00    -0.507 OA
ATOM     25  H   UNL     1      -1.875  47.035 -15.283  1.00  0.00     0.293 HD
ENDBRANCH   6  24
BRANCH   8  26
ATOM     26  O   UNL     1      -6.803  46.469 -15.096  1.00  0.00    -0.508 OA
ATOM     27  H   UNL     1      -6.526  45.625 -15.582  1.00  0.00     0.293 HD
ENDBRANCH   8  26
TORSDOF 6
ENDMDL
MODEL 6
REMARK VINA RESULT:    -6.503      8.856     12.396
REMARK INTER + INTRA:          -8.245
REMARK INTER:                  -7.832
REMARK INTRA:                  -0.413
REMARK UNBOUND:                -0.412
REMARK SMILES O=c1c(O)c(-c2ccc(O)cc2O)oc2cc(O)cc(O)c12
REMARK SMILES IDX 5 1 3 2 2 3 1 4 22 5 20 6 19 7 17 8 16 9 15 10 14 11 6 12
REMARK SMILES IDX 8 13 7 14 9 15 11 16 12 17 10 18 13 20 4 22 21 24 18 26
REMARK H PARENT 10 19 13 21 4 23 21 25 18 27
REMARK Flexibility Score: inf
ROOT
ATOM      1  C   UNL     1      -7.162  56.460  -7.097  1.00  0.00     0.184 A 
ATOM      2  C   UNL     1      -8.075  57.200  -7.866  1.00  0.00     0.208 A 
ATOM      3  C   UNL     1      -8.144  56.968  -9.248  1.00  0.00     0.238 A 
ATOM      4  O   UNL     1      -9.002  57.594  -9.924  1.00  0.00    -0.285 OA
ATOM      5  C   UNL     1      -7.288  56.010  -9.844  1.00  0.00     0.111 A 
ATOM      6  C   UNL     1      -7.244  55.722 -11.242  1.00  0.00     0.134 A 
ATOM      7  C   UNL     1      -6.451  54.664 -11.704  1.00  0.00     0.093 A 
ATOM      8  C   UNL     1      -5.651  53.929 -10.831  1.00  0.00     0.123 A 
ATOM      9  C   UNL     1      -5.641  54.240  -9.470  1.00  0.00     0.094 A 
ATOM     10  C   UNL     1      -6.449  55.266  -8.974  1.00  0.00     0.146 A 
ATOM     11  O   UNL     1      -6.419  55.524  -7.672  1.00  0.00    -0.451 OA
ENDROOT
BRANCH   1  12
ATOM     12  C   UNL     1      -7.027  56.668  -5.639  1.00  0.00     0.063 A 
ATOM     13  C   UNL     1      -7.868  56.254  -3.395  1.00  0.00     0.047 A 
ATOM     14  C   UNL     1      -7.969  56.082  -4.779  1.00  0.00     0.020 A 
ATOM     15  C   UNL     1      -6.818  57.000  -2.855  1.00  0.00     0.119 A 
ATOM     16  C   UNL     1      -5.859  57.569  -3.703  1.00  0.00     0.093 A 
ATOM     17  C   UNL     1      -5.950  57.397  -5.092  1.00  0.00     0.130 A 
BRANCH  15  18
ATOM     18  O   UNL     1      -6.732  57.166  -1.474  1.00  0.00    -0.508 OA
ATOM     19  H   UNL     1      -6.357  56.440  -0.876  1.00  0.00     0.293 HD
ENDBRANCH  15  18
BRANCH  17  20
ATOM     20  O   UNL     1      -4.963  57.927  -5.924  1.00  0.00    -0.507 OA
ATOM     21  H   UNL     1      -4.488  57.357  -6.614  1.00  0.00     0.293 HD
ENDBRANCH  17  20
ENDBRANCH   1  12
BRANCH   2  22
ATOM     22  O   UNL     1      -8.921  58.125  -7.248  1.00  0.00    -0.502 OA
ATOM     23  H   UNL     1      -9.751  58.488  -7.700  1.00  0.00     0.293 HD
ENDBRANCH   2  22
BRANCH   6  24
ATOM     24  O   UNL     1      -7.934  56.455 -12.212  1.00  0.00    -0.507 OA
ATOM     25  H   UNL     1      -8.472  56.051 -12.963  1.00  0.00     0.293 HD
ENDBRANCH   6  24
BRANCH   8  26
ATOM     26  O   UNL     1      -4.862  52.894 -11.328  1.00  0.00    -0.508 OA
ATOM     27  H   UNL     1      -3.874  53.022 -11.515  1.00  0.00     0.293 HD
ENDBRANCH   8  26
TORSDOF 6
ENDMDL
MODEL 7
REMARK VINA RESULT:    -6.397      8.242     11.203
REMARK INTER + INTRA:          -8.117
REMARK INTER:                  -7.813
REMARK INTRA:                  -0.304
REMARK UNBOUND:                -0.412
REMARK SMILES O=c1c(O)c(-c2ccc(O)cc2O)oc2cc(O)cc(O)c12
REMARK SMILES IDX 5 1 3 2 2 3 1 4 22 5 20 6 19 7 17 8 16 9 15 10 14 11 6 12
REMARK SMILES IDX 8 13 7 14 9 15 11 16 12 17 10 18 13 20 4 22 21 24 18 26
REMARK H PARENT 10 19 13 21 4 23 21 25 18 27
REMARK Flexibility Score: inf
ROOT
ATOM      1  C   UNL     1      -6.972  56.511  -9.372  1.00  0.00     0.184 A 
ATOM      2  C   UNL     1      -8.177  55.924  -8.953  1.00  0.00     0.208 A 
ATOM      3  C   UNL     1      -8.449  55.836  -7.579  1.00  0.00     0.238 A 
ATOM      4  O   UNL     1      -9.554  55.359  -7.211  1.00  0.00    -0.285 OA
ATOM      5  C   UNL     1      -7.505  56.323  -6.643  1.00  0.00     0.111 A 
ATOM      6  C   UNL     1      -7.657  56.250  -5.225  1.00  0.00     0.134 A 
ATOM      7  C   UNL     1      -6.721  56.880  -4.396  1.00  0.00     0.093 A 
ATOM      8  C   UNL     1      -5.605  57.522  -4.929  1.00  0.00     0.123 A 
ATOM      9  C   UNL     1      -5.414  57.549  -6.311  1.00  0.00     0.094 A 
ATOM     10  C   UNL     1      -6.350  56.961  -7.166  1.00  0.00     0.146 A 
ATOM     11  O   UNL     1      -6.137  57.018  -8.475  1.00  0.00    -0.451 OA
ENDROOT
BRANCH   1  12
ATOM     12  C   UNL     1      -6.618  56.619 -10.803  1.00  0.00     0.063 A 
ATOM     13  C   UNL     1      -6.183  58.031 -12.735  1.00  0.00     0.047 A 
ATOM     14  C   UNL     1      -6.522  57.893 -11.386  1.00  0.00     0.020 A 
ATOM     15  C   UNL     1      -5.922  56.900 -13.513  1.00  0.00     0.119 A 
ATOM     16  C   UNL     1      -5.992  55.626 -12.935  1.00  0.00     0.093 A 
ATOM     17  C   UNL     1      -6.326  55.479 -11.581  1.00  0.00     0.130 A 
BRANCH  15  18
ATOM     18  O   UNL     1      -5.590  57.053 -14.857  1.00  0.00    -0.508 OA
ATOM     19  H   UNL     1      -4.925  56.438 -15.312  1.00  0.00     0.293 HD
ENDBRANCH  15  18
BRANCH  17  20
ATOM     20  O   UNL     1      -6.345  54.208 -11.004  1.00  0.00    -0.507 OA
ATOM     21  H   UNL     1      -6.631  54.066 -10.043  1.00  0.00     0.293 HD
ENDBRANCH  17  20
ENDBRANCH   1  12
BRANCH   2  22
ATOM     22  O   UNL     1      -9.099  55.469  -9.899  1.00  0.00    -0.502 OA
ATOM     23  H   UNL     1     -10.099  55.498  -9.742  1.00  0.00     0.293 HD
ENDBRANCH   2  22
BRANCH   6  24
ATOM     24  O   UNL     1      -8.689  55.554  -4.586  1.00  0.00    -0.507 OA
ATOM     25  H   UNL     1      -9.525  55.978  -4.215  1.00  0.00     0.293 HD
ENDBRANCH   6  24
BRANCH   8  26
ATOM     26  O   UNL     1      -4.684  58.124  -4.073  1.00  0.00    -0.508 OA
ATOM     27  H   UNL     1      -4.079  58.873  -4.388  1.00  0.00     0.293 HD
ENDBRANCH   8  26
TORSDOF 6
ENDMDL
MODEL 8
REMARK VINA RESULT:    -6.290      8.657     10.315
REMARK INTER + INTRA:          -7.988
REMARK INTER:                  -7.622
REMARK INTRA:                  -0.366
REMARK UNBOUND:                -0.412
REMARK SMILES O=c1c(O)c(-c2ccc(O)cc2O)oc2cc(O)cc(O)c12
REMARK SMILES IDX 5 1 3 2 2 3 1 4 22 5 20 6 19 7 17 8 16 9 15 10 14 11 6 12
REMARK SMILES IDX 8 13 7 14 9 15 11 16 12 17 10 18 13 20 4 22 21 24 18 26
REMARK H PARENT 10 19 13 21 4 23 21 25 18 27
REMARK Flexibility Score: inf
ROOT
ATOM      1  C   UNL     1      -7.681  52.717  -6.773  1.00  0.00     0.184 A 
ATOM      2  C   UNL     1      -8.904  53.255  -6.340  1.00  0.00     0.208 A 
ATOM      3  C   UNL     1      -9.011  54.642  -6.160  1.00  0.00     0.238 A 
ATOM      4  O   UNL     1     -10.125  55.124  -5.825  1.00  0.00    -0.285 OA
ATOM      5  C   UNL     1      -7.889  55.472  -6.401  1.00  0.00     0.111 A 
ATOM      6  C   UNL     1      -7.871  56.887  -6.213  1.00  0.00     0.134 A 
ATOM      7  C   UNL     1      -6.746  57.622  -6.606  1.00  0.00     0.093 A 
ATOM      8  C   UNL     1      -5.615  56.989  -7.118  1.00  0.00     0.123 A 
ATOM      9  C   UNL     1      -5.598  55.600  -7.251  1.00  0.00     0.094 A 
ATOM     10  C   UNL     1      -6.719  54.842  -6.902  1.00  0.00     0.146 A 
ATOM     11  O   UNL     1      -6.667  53.525  -7.054  1.00  0.00    -0.451 OA
ENDROOT
BRANCH   1  12
ATOM     12  C   UNL     1      -7.497  51.263  -6.966  1.00  0.00     0.063 A 
ATOM     13  C   UNL     1      -8.069  49.241  -8.189  1.00  0.00     0.047 A 
ATOM     14  C   UNL     1      -8.224  50.614  -7.976  1.00  0.00     0.020 A 
ATOM     15  C   UNL     1      -7.177  48.504  -7.405  1.00  0.00     0.119 A 
ATOM     16  C   UNL     1      -6.430  49.148  -6.410  1.00  0.00     0.093 A 
ATOM     17  C   UNL     1      -6.575  50.526  -6.194  1.00  0.00     0.130 A 
BRANCH  15  18
ATOM     18  O   UNL     1      -7.037  47.136  -7.626  1.00  0.00    -0.508 OA
ATOM     19  H   UNL     1      -7.029  46.749  -8.562  1.00  0.00     0.293 HD
ENDBRANCH  15  18
BRANCH  17  20
ATOM     20  O   UNL     1      -5.790  51.165  -5.233  1.00  0.00    -0.507 OA
ATOM     21  H   UNL     1      -4.895  51.578  -5.468  1.00  0.00     0.293 HD
ENDBRANCH  17  20
ENDBRANCH   1  12
BRANCH   2  22
ATOM     22  O   UNL     1     -10.001  52.415  -6.128  1.00  0.00    -0.502 OA
ATOM     23  H   UNL     1     -10.886  52.757  -5.774  1.00  0.00     0.293 HD
ENDBRANCH   2  22
BRANCH   6  24
ATOM     24  O   UNL     1      -8.915  57.609  -5.624  1.00  0.00    -0.507 OA
ATOM     25  H   UNL     1      -8.965  57.853  -4.647  1.00  0.00     0.293 HD
ENDBRANCH   6  24
BRANCH   8  26
ATOM     26  O   UNL     1      -4.507  57.750  -7.484  1.00  0.00    -0.508 OA
ATOM     27  H   UNL     1      -4.234  58.575  -6.962  1.00  0.00     0.293 HD
ENDBRANCH   8  26
TORSDOF 6
ENDMDL
