MODEL 1
REMARK VINA RESULT:    -4.324      0.000      0.000
REMARK INTER + INTRA:          -9.799
REMARK INTER:                  -7.863
REMARK INTRA:                  -1.936
REMARK UNBOUND:                -1.936
REMARK SMILES CCCCCCCCCCCCCCCC(=O)[O-]
REMARK SMILES IDX 9 1 10 2 11 3 12 4 13 5 14 6 15 7 16 8 17 9 18 10 8 11 7 12
REMARK SMILES IDX 6 13 5 14 4 15 3 16 2 17 1 18
REMARK H PARENT
REMARK Flexibility Score: inf
ROOT
ATOM      1  C   UNL     1      16.215  75.253  17.464  1.00  0.00     0.000 C 
ENDROOT
BRANCH   1   2
ATOM      2  C   UNL     1      16.943  75.673  16.176  1.00  0.00     0.000 C 
BRANCH   2   3
ATOM      3  C   UNL     1      18.422  75.247  16.159  1.00  0.00     0.000 C 
BRANCH   3   4
ATOM      4  C   UNL     1      19.439  76.404  16.235  1.00  0.00     0.000 C 
BRANCH   4   5
ATOM      5  C   UNL     1      18.929  77.682  16.929  1.00  0.00     0.000 C 
BRANCH   5   6
ATOM      6  C   UNL     1      19.502  77.927  18.337  1.00  0.00     0.006 C 
BRANCH   6   7
ATOM      7  C   UNL     1      19.312  76.728  19.274  1.00  0.00     0.053 C 
BRANCH   7   8
ATOM      8  C   UNL     1      20.636  76.221  19.748  1.00  0.00     0.041 C 
ATOM      9  O   UNL     1      21.696  76.573  19.165  1.00  0.00    -0.550 OA
ATOM     10  O   UNL     1      20.698  75.317  20.801  1.00  0.00    -0.550 OA
ENDBRANCH   7   8
ENDBRANCH   6   7
ENDBRANCH   5   6
ENDBRANCH   4   5
ENDBRANCH   3   4
ENDBRANCH   2   3
ENDBRANCH   1   2
BRANCH   1  11
ATOM     11  C   UNL     1      16.416  73.766  17.795  1.00  0.00     0.000 C 
BRANCH  11  12
ATOM     12  C   UNL     1      16.876  73.536  19.244  1.00  0.00    -0.000 C 
BRANCH  12  13
ATOM     13  C   UNL     1      18.350  73.102  19.343  1.00  0.00    -0.000 C 
BRANCH  13  14
ATOM     14  C   UNL     1      18.817  72.120  18.253  1.00  0.00    -0.000 C 
BRANCH  14  15
ATOM     15  C   UNL     1      19.078  70.704  18.793  1.00  0.00    -0.000 C 
BRANCH  15  16
ATOM     16  C   UNL     1      18.144  69.645  18.178  1.00  0.00    -0.000 C 
BRANCH  16  17
ATOM     17  C   UNL     1      16.762  69.528  18.846  1.00  0.00    -0.003 C 
ATOM     18  C   UNL     1      16.840  69.385  20.366  1.00  0.00     0.004 C 
ENDBRANCH  16  17
ENDBRANCH  15  16
ENDBRANCH  14  15
ENDBRANCH  13  14
ENDBRANCH  12  13
ENDBRANCH  11  12
ENDBRANCH   1  11
TORSDOF 14
ENDMDL
MODEL 2
REMARK VINA RESULT:    -4.314      2.862      6.428
REMARK INTER + INTRA:          -9.781
REMARK INTER:                  -8.088
REMARK INTRA:                  -1.693
REMARK UNBOUND:                -1.936
REMARK SMILES CCCCCCCCCCCCCCCC(=O)[O-]
REMARK SMILES IDX 9 1 10 2 11 3 12 4 13 5 14 6 15 7 16 8 17 9 18 10 8 11 7 12
REMARK SMILES IDX 6 13 5 14 4 15 3 16 2 17 1 18
REMARK H PARENT
REMARK Flexibility Score: inf
ROOT
ATOM      1  C   UNL     1      17.132  75.607  17.803  1.00  0.00     0.000 C 
ENDROOT
BRANCH   1   2
ATOM      2  C   UNL     1      17.038  74.284  18.583  1.00  0.00     0.000 C 
BRANCH   2   3
ATOM      3  C   UNL     1      18.187  73.314  18.254  1.00  0.00     0.000 C 
BRANCH   3   4
ATOM      4  C   UNL     1      18.308  72.098  19.193  1.00  0.00     0.000 C 
BRANCH   4   5
ATOM      5  C   UNL     1      19.072  70.892  18.612  1.00  0.00     0.000 C 
BRANCH   5   6
ATOM      6  C   UNL     1      18.246  69.600  18.486  1.00  0.00     0.006 C 
BRANCH   6   7
ATOM      7  C   UNL     1      16.762  69.808  18.811  1.00  0.00     0.053 C 
BRANCH   7   8
ATOM      8  C   UNL     1      16.372  69.007  20.012  1.00  0.00     0.041 C 
ATOM      9  O   UNL     1      15.556  68.055  19.901  1.00  0.00    -0.550 OA
ATOM     10  O   UNL     1      16.871  69.345  21.264  1.00  0.00    -0.550 OA
ENDBRANCH   7   8
ENDBRANCH   6   7
ENDBRANCH   5   6
ENDBRANCH   4   5
ENDBRANCH   3   4
ENDBRANCH   2   3
ENDBRANCH   1   2
BRANCH   1  11
ATOM     11  C   UNL     1      17.510  75.396  16.329  1.00  0.00     0.000 C 
BRANCH  11  12
ATOM     12  C   UNL     1      18.770  76.177  15.921  1.00  0.00    -0.000 C 
BRANCH  12  13
ATOM     13  C   UNL     1      18.865  77.557  16.598  1.00  0.00    -0.000 C 
BRANCH  13  14
ATOM     14  C   UNL     1      20.259  77.926  17.138  1.00  0.00    -0.000 C 
BRANCH  14  15
ATOM     15  C   UNL     1      21.095  76.697  17.532  1.00  0.00    -0.000 C 
BRANCH  15  16
ATOM     16  C   UNL     1      21.327  76.591  19.051  1.00  0.00    -0.000 C 
BRANCH  16  17
ATOM     17  C   UNL     1      20.136  76.042  19.856  1.00  0.00    -0.003 C 
ATOM     18  C   UNL     1      20.522  74.900  20.796  1.00  0.00     0.004 C 
ENDBRANCH  16  17
ENDBRANCH  15  16
ENDBRANCH  14  15
ENDBRANCH  13  14
ENDBRANCH  12  13
ENDBRANCH  11  12
ENDBRANCH   1  11
TORSDOF 14
ENDMDL
MODEL 3
REMARK VINA RESULT:    -4.295      3.767      7.632
REMARK INTER + INTRA:          -9.747
REMARK INTER:                  -8.600
REMARK INTRA:                  -1.147
REMARK UNBOUND:                -1.936
REMARK SMILES CCCCCCCCCCCCCCCC(=O)[O-]
REMARK SMILES IDX 9 1 10 2 11 3 12 4 13 5 14 6 15 7 16 8 17 9 18 10 8 11 7 12
REMARK SMILES IDX 6 13 5 14 4 15 3 16 2 17 1 18
REMARK H PARENT
REMARK Flexibility Score: inf
ROOT
ATOM      1  C   UNL     1      17.434  73.308  19.119  1.00  0.00     0.000 C 
ENDROOT
BRANCH   1   2
ATOM      2  C   UNL     1      18.164  72.763  20.358  1.00  0.00     0.000 C 
BRANCH   2   3
ATOM      3  C   UNL     1      18.525  71.272  20.231  1.00  0.00     0.000 C 
BRANCH   3   4
ATOM      4  C   UNL     1      18.826  70.791  18.797  1.00  0.00     0.000 C 
BRANCH   4   5
ATOM      5  C   UNL     1      18.099  69.501  18.371  1.00  0.00     0.000 C 
BRANCH   5   6
ATOM      6  C   UNL     1      17.107  69.670  17.206  1.00  0.00     0.006 C 
BRANCH   6   7
ATOM      7  C   UNL     1      15.672  69.932  17.680  1.00  0.00     0.053 C 
BRANCH   7   8
ATOM      8  C   UNL     1      14.921  68.645  17.809  1.00  0.00     0.041 C 
ATOM      9  O   UNL     1      14.778  68.105  18.937  1.00  0.00    -0.550 OA
ATOM     10  O   UNL     1      14.424  68.014  16.675  1.00  0.00    -0.550 OA
ENDBRANCH   7   8
ENDBRANCH   6   7
ENDBRANCH   5   6
ENDBRANCH   4   5
ENDBRANCH   3   4
ENDBRANCH   2   3
ENDBRANCH   1   2
BRANCH   1  11
ATOM     11  C   UNL     1      18.142  74.526  18.506  1.00  0.00     0.000 C 
BRANCH  11  12
ATOM     12  C   UNL     1      19.670  74.471  18.672  1.00  0.00    -0.000 C 
BRANCH  12  13
ATOM     13  C   UNL     1      20.425  74.758  17.361  1.00  0.00    -0.000 C 
BRANCH  13  14
ATOM     14  C   UNL     1      21.108  76.136  17.288  1.00  0.00    -0.000 C 
BRANCH  14  15
ATOM     15  C   UNL     1      20.881  76.986  18.550  1.00  0.00    -0.000 C 
BRANCH  15  16
ATOM     16  C   UNL     1      19.792  78.059  18.362  1.00  0.00    -0.000 C 
BRANCH  16  17
ATOM     17  C   UNL     1      20.167  79.210  17.410  1.00  0.00    -0.003 C 
ATOM     18  C   UNL     1      20.592  80.481  18.143  1.00  0.00     0.004 C 
ENDBRANCH  16  17
ENDBRANCH  15  16
ENDBRANCH  14  15
ENDBRANCH  13  14
ENDBRANCH  12  13
ENDBRANCH  11  12
ENDBRANCH   1  11
TORSDOF 14
ENDMDL
MODEL 4
REMARK VINA RESULT:    -4.290      2.564      6.540
REMARK INTER + INTRA:          -9.737
REMARK INTER:                  -7.931
REMARK INTRA:                  -1.807
REMARK UNBOUND:                -1.936
REMARK SMILES CCCCCCCCCCCCCCCC(=O)[O-]
REMARK SMILES IDX 9 1 10 2 11 3 12 4 13 5 14 6 15 7 16 8 17 9 18 10 8 11 7 12
REMARK SMILES IDX 6 13 5 14 4 15 3 16 2 17 1 18
REMARK H PARENT
REMARK Flexibility Score: inf
ROOT
ATOM      1  C   UNL     1      18.084  72.983  19.509  1.00  0.00     0.000 C 
ENDROOT
BRANCH   1   2
ATOM      2  C   UNL     1      19.140  72.267  18.649  1.00  0.00     0.000 C 
BRANCH   2   3
ATOM      3  C   UNL     1      18.975  70.736  18.653  1.00  0.00     0.000 C 
BRANCH   3   4
ATOM      4  C   UNL     1      17.990  70.181  17.605  1.00  0.00     0.000 C 
BRANCH   4   5
ATOM      5  C   UNL     1      16.876  69.276  18.166  1.00  0.00     0.000 C 
BRANCH   5   6
ATOM      6  C   UNL     1      16.207  69.793  19.452  1.00  0.00     0.006 C 
BRANCH   6   7
ATOM      7  C   UNL     1      16.382  68.838  20.639  1.00  0.00     0.053 C 
BRANCH   7   8
ATOM      8  C   UNL     1      16.861  69.584  21.843  1.00  0.00     0.041 C 
ATOM      9  O   UNL     1      17.978  70.165  21.827  1.00  0.00    -0.550 OA
ATOM     10  O   UNL     1      16.097  69.595  23.003  1.00  0.00    -0.550 OA
ENDBRANCH   7   8
ENDBRANCH   6   7
ENDBRANCH   5   6
ENDBRANCH   4   5
ENDBRANCH   3   4
ENDBRANCH   2   3
ENDBRANCH   1   2
BRANCH   1  11
ATOM     11  C   UNL     1      16.984  73.642  18.663  1.00  0.00     0.000 C 
BRANCH  11  12
ATOM     12  C   UNL     1      17.498  74.136  17.300  1.00  0.00    -0.000 C 
BRANCH  12  13
ATOM     13  C   UNL     1      18.133  75.536  17.371  1.00  0.00    -0.000 C 
BRANCH  13  14
ATOM     14  C   UNL     1      17.652  76.414  18.541  1.00  0.00    -0.000 C 
BRANCH  14  15
ATOM     15  C   UNL     1      18.777  77.259  19.161  1.00  0.00    -0.000 C 
BRANCH  15  16
ATOM     16  C   UNL     1      20.140  77.035  18.480  1.00  0.00    -0.000 C 
BRANCH  16  17
ATOM     17  C   UNL     1      21.171  76.261  19.322  1.00  0.00    -0.003 C 
ATOM     18  C   UNL     1      20.553  75.558  20.530  1.00  0.00     0.004 C 
ENDBRANCH  16  17
ENDBRANCH  15  16
ENDBRANCH  14  15
ENDBRANCH  13  14
ENDBRANCH  12  13
ENDBRANCH  11  12
ENDBRANCH   1  11
TORSDOF 14
ENDMDL
MODEL 5
REMARK VINA RESULT:    -4.284      4.002      7.165
REMARK INTER + INTRA:          -9.727
REMARK INTER:                  -7.684
REMARK INTRA:                  -2.042
REMARK UNBOUND:                -1.936
REMARK SMILES CCCCCCCCCCCCCCCC(=O)[O-]
REMARK SMILES IDX 9 1 10 2 11 3 12 4 13 5 14 6 15 7 16 8 17 9 18 10 8 11 7 12
REMARK SMILES IDX 6 13 5 14 4 15 3 16 2 17 1 18
REMARK H PARENT
REMARK Flexibility Score: inf
ROOT
ATOM      1  C   UNL     1      17.551  72.505  20.377  1.00  0.00     0.000 C 
ENDROOT
BRANCH   1   2
ATOM      2  C   UNL     1      18.202  71.111  20.350  1.00  0.00     0.000 C 
BRANCH   2   3
ATOM      3  C   UNL     1      18.903  70.806  19.013  1.00  0.00     0.000 C 
BRANCH   3   4
ATOM      4  C   UNL     1      18.343  69.593  18.242  1.00  0.00     0.000 C 
BRANCH   4   5
ATOM      5  C   UNL     1      17.351  69.934  17.113  1.00  0.00     0.000 C 
BRANCH   5   6
ATOM      6  C   UNL     1      16.022  69.160  17.163  1.00  0.00     0.006 C 
BRANCH   6   7
ATOM      7  C   UNL     1      15.512  68.944  18.593  1.00  0.00     0.053 C 
BRANCH   7   8
ATOM      8  C   UNL     1      14.306  68.060  18.590  1.00  0.00     0.041 C 
ATOM      9  O   UNL     1      14.202  67.127  19.429  1.00  0.00    -0.550 OA
ATOM     10  O   UNL     1      13.320  68.232  17.626  1.00  0.00    -0.550 OA
ENDBRANCH   7   8
ENDBRANCH   6   7
ENDBRANCH   5   6
ENDBRANCH   4   5
ENDBRANCH   3   4
ENDBRANCH   2   3
ENDBRANCH   1   2
BRANCH   1  11
ATOM     11  C   UNL     1      16.317  72.596  19.467  1.00  0.00     0.000 C 
BRANCH  11  12
ATOM     12  C   UNL     1      16.334  73.840  18.564  1.00  0.00    -0.000 C 
BRANCH  12  13
ATOM     13  C   UNL     1      17.369  73.742  17.428  1.00  0.00    -0.000 C 
BRANCH  13  14
ATOM     14  C   UNL     1      18.360  74.917  17.343  1.00  0.00    -0.000 C 
BRANCH  14  15
ATOM     15  C   UNL     1      17.971  76.098  18.248  1.00  0.00    -0.000 C 
BRANCH  15  16
ATOM     16  C   UNL     1      19.099  76.515  19.209  1.00  0.00    -0.000 C 
BRANCH  16  17
ATOM     17  C   UNL     1      20.249  75.500  19.345  1.00  0.00    -0.003 C 
ATOM     18  C   UNL     1      20.383  74.930  20.756  1.00  0.00     0.004 C 
ENDBRANCH  16  17
ENDBRANCH  15  16
ENDBRANCH  14  15
ENDBRANCH  13  14
ENDBRANCH  12  13
ENDBRANCH  11  12
ENDBRANCH   1  11
TORSDOF 14
ENDMDL
MODEL 6
REMARK VINA RESULT:    -4.260      2.494      6.271
REMARK INTER + INTRA:          -9.682
REMARK INTER:                  -7.849
REMARK INTRA:                  -1.833
REMARK UNBOUND:                -1.936
REMARK SMILES CCCCCCCCCCCCCCCC(=O)[O-]
REMARK SMILES IDX 9 1 10 2 11 3 12 4 13 5 14 6 15 7 16 8 17 9 18 10 8 11 7 12
REMARK SMILES IDX 6 13 5 14 4 15 3 16 2 17 1 18
REMARK H PARENT
REMARK Flexibility Score: inf
ROOT
ATOM      1  C   UNL     1      17.575  75.246  18.467  1.00  0.00     0.000 C 
ENDROOT
BRANCH   1   2
ATOM      2  C   UNL     1      16.502  74.575  17.592  1.00  0.00     0.000 C 
BRANCH   2   3
ATOM      3  C   UNL     1      16.466  73.045  17.760  1.00  0.00     0.000 C 
BRANCH   3   4
ATOM      4  C   UNL     1      16.748  72.239  16.476  1.00  0.00     0.000 C 
BRANCH   4   5
ATOM      5  C   UNL     1      17.391  70.855  16.698  1.00  0.00     0.000 C 
BRANCH   5   6
ATOM      6  C   UNL     1      18.369  70.777  17.884  1.00  0.00     0.006 C 
BRANCH   6   7
ATOM      7  C   UNL     1      18.006  69.671  18.882  1.00  0.00     0.053 C 
BRANCH   7   8
ATOM      8  C   UNL     1      17.629  70.262  20.203  1.00  0.00     0.041 C 
ATOM      9  O   UNL     1      16.430  70.244  20.586  1.00  0.00    -0.550 OA
ATOM     10  O   UNL     1      18.594  70.880  20.988  1.00  0.00    -0.550 OA
ENDBRANCH   7   8
ENDBRANCH   6   7
ENDBRANCH   5   6
ENDBRANCH   4   5
ENDBRANCH   3   4
ENDBRANCH   2   3
ENDBRANCH   1   2
BRANCH   1  11
ATOM     11  C   UNL     1      18.417  74.227  19.250  1.00  0.00     0.000 C 
BRANCH  11  12
ATOM     12  C   UNL     1      19.894  74.221  18.821  1.00  0.00    -0.000 C 
BRANCH  12  13
ATOM     13  C   UNL     1      20.073  74.180  17.292  1.00  0.00    -0.000 C 
BRANCH  13  14
ATOM     14  C   UNL     1      21.102  75.176  16.727  1.00  0.00    -0.000 C 
BRANCH  14  15
ATOM     15  C   UNL     1      21.299  76.410  17.624  1.00  0.00    -0.000 C 
BRANCH  15  16
ATOM     16  C   UNL     1      20.524  77.643  17.126  1.00  0.00    -0.000 C 
BRANCH  16  17
ATOM     17  C   UNL     1      19.961  78.552  18.235  1.00  0.00    -0.003 C 
ATOM     18  C   UNL     1      20.348  80.020  18.062  1.00  0.00     0.004 C 
ENDBRANCH  16  17
ENDBRANCH  15  16
ENDBRANCH  14  15
ENDBRANCH  13  14
ENDBRANCH  12  13
ENDBRANCH  11  12
ENDBRANCH   1  11
TORSDOF 14
ENDMDL
MODEL 7
REMARK VINA RESULT:    -4.230      3.248      6.647
REMARK INTER + INTRA:          -9.628
REMARK INTER:                  -7.300
REMARK INTRA:                  -2.328
REMARK UNBOUND:                -1.936
REMARK SMILES CCCCCCCCCCCCCCCC(=O)[O-]
REMARK SMILES IDX 9 1 10 2 11 3 12 4 13 5 14 6 15 7 16 8 17 9 18 10 8 11 7 12
REMARK SMILES IDX 6 13 5 14 4 15 3 16 2 17 1 18
REMARK H PARENT
REMARK Flexibility Score: inf
ROOT
ATOM      1  C   UNL     1      16.018  73.732  18.885  1.00  0.00     0.000 C 
ENDROOT
BRANCH   1   2
ATOM      2  C   UNL     1      16.343  72.620  19.896  1.00  0.00     0.000 C 
BRANCH   2   3
ATOM      3  C   UNL     1      17.814  72.636  20.350  1.00  0.00     0.000 C 
BRANCH   3   4
ATOM      4  C   UNL     1      18.586  71.321  20.121  1.00  0.00     0.000 C 
BRANCH   4   5
ATOM      5  C   UNL     1      18.730  70.893  18.647  1.00  0.00     0.000 C 
BRANCH   5   6
ATOM      6  C   UNL     1      18.186  69.491  18.323  1.00  0.00     0.006 C 
BRANCH   6   7
ATOM      7  C   UNL     1      16.852  69.530  17.568  1.00  0.00     0.053 C 
BRANCH   7   8
ATOM      8  C   UNL     1      15.714  69.266  18.502  1.00  0.00     0.041 C 
ATOM      9  O   UNL     1      14.548  69.634  18.202  1.00  0.00    -0.550 OA
ATOM     10  O   UNL     1      15.950  68.658  19.730  1.00  0.00    -0.550 OA
ENDBRANCH   7   8
ENDBRANCH   6   7
ENDBRANCH   5   6
ENDBRANCH   4   5
ENDBRANCH   3   4
ENDBRANCH   2   3
ENDBRANCH   1   2
BRANCH   1  11
ATOM     11  C   UNL     1      15.982  73.219  17.437  1.00  0.00     0.000 C 
BRANCH  11  12
ATOM     12  C   UNL     1      17.237  73.608  16.637  1.00  0.00    -0.000 C 
BRANCH  12  13
ATOM     13  C   UNL     1      17.989  74.805  17.246  1.00  0.00    -0.000 C 
BRANCH  13  14
ATOM     14  C   UNL     1      19.449  74.525  17.645  1.00  0.00    -0.000 C 
BRANCH  14  15
ATOM     15  C   UNL     1      19.999  75.539  18.663  1.00  0.00    -0.000 C 
BRANCH  15  16
ATOM     16  C   UNL     1      19.036  76.712  18.921  1.00  0.00    -0.000 C 
BRANCH  16  17
ATOM     17  C   UNL     1      19.546  78.090  18.460  1.00  0.00    -0.003 C 
ATOM     18  C   UNL     1      19.512  78.265  16.943  1.00  0.00     0.004 C 
ENDBRANCH  16  17
ENDBRANCH  15  16
ENDBRANCH  14  15
ENDBRANCH  13  14
ENDBRANCH  12  13
ENDBRANCH  11  12
ENDBRANCH   1  11
TORSDOF 14
ENDMDL
MODEL 8
REMARK VINA RESULT:    -4.227      3.109      6.533
REMARK INTER + INTRA:          -9.623
REMARK INTER:                  -7.734
REMARK INTRA:                  -1.890
REMARK UNBOUND:                -1.936
REMARK SMILES CCCCCCCCCCCCCCCC(=O)[O-]
REMARK SMILES IDX 9 1 10 2 11 3 12 4 13 5 14 6 15 7 16 8 17 9 18 10 8 11 7 12
REMARK SMILES IDX 6 13 5 14 4 15 3 16 2 17 1 18
REMARK H PARENT
REMARK Flexibility Score: inf
ROOT
ATOM      1  C   UNL     1      16.726  74.779  18.659  1.00  0.00     0.000 C 
ENDROOT
BRANCH   1   2
ATOM      2  C   UNL     1      17.572  73.500  18.779  1.00  0.00     0.000 C 
BRANCH   2   3
ATOM      3  C   UNL     1      17.141  72.608  19.957  1.00  0.00     0.000 C 
BRANCH   3   4
ATOM      4  C   UNL     1      18.106  71.453  20.292  1.00  0.00     0.000 C 
BRANCH   4   5
ATOM      5  C   UNL     1      18.875  70.871  19.090  1.00  0.00     0.000 C 
BRANCH   5   6
ATOM      6  C   UNL     1      18.255  69.603  18.475  1.00  0.00     0.006 C 
BRANCH   6   7
ATOM      7  C   UNL     1      17.319  69.909  17.300  1.00  0.00     0.053 C 
BRANCH   7   8
ATOM      8  C   UNL     1      15.943  69.393  17.579  1.00  0.00     0.041 C 
ATOM      9  O   UNL     1      15.458  68.469  16.874  1.00  0.00    -0.550 OA
ATOM     10  O   UNL     1      15.176  69.967  18.585  1.00  0.00    -0.550 OA
ENDBRANCH   7   8
ENDBRANCH   6   7
ENDBRANCH   5   6
ENDBRANCH   4   5
ENDBRANCH   3   4
ENDBRANCH   2   3
ENDBRANCH   1   2
BRANCH   1  11
ATOM     11  C   UNL     1      17.268  75.745  17.593  1.00  0.00     0.000 C 
BRANCH  11  12
ATOM     12  C   UNL     1      18.163  75.045  16.557  1.00  0.00    -0.000 C 
BRANCH  12  13
ATOM     13  C   UNL     1      19.466  75.815  16.272  1.00  0.00    -0.000 C 
BRANCH  13  14
ATOM     14  C   UNL     1      19.472  77.283  16.738  1.00  0.00    -0.000 C 
BRANCH  14  15
ATOM     15  C   UNL     1      20.563  77.577  17.782  1.00  0.00    -0.000 C 
BRANCH  15  16
ATOM     16  C   UNL     1      20.935  76.344  18.625  1.00  0.00    -0.000 C 
BRANCH  16  17
ATOM     17  C   UNL     1      20.106  76.157  19.909  1.00  0.00    -0.003 C 
ATOM     18  C   UNL     1      20.389  74.834  20.619  1.00  0.00     0.004 C 
ENDBRANCH  16  17
ENDBRANCH  15  16
ENDBRANCH  14  15
ENDBRANCH  13  14
ENDBRANCH  12  13
ENDBRANCH  11  12
ENDBRANCH   1  11
TORSDOF 14
ENDMDL
MODEL 9
REMARK VINA RESULT:    -4.208      1.513      2.410
REMARK INTER + INTRA:          -9.589
REMARK INTER:                  -7.109
REMARK INTRA:                  -2.480
REMARK UNBOUND:                -1.936
REMARK SMILES CCCCCCCCCCCCCCCC(=O)[O-]
REMARK SMILES IDX 9 1 10 2 11 3 12 4 13 5 14 6 15 7 16 8 17 9 18 10 8 11 7 12
REMARK SMILES IDX 6 13 5 14 4 15 3 16 2 17 1 18
REMARK H PARENT
REMARK Flexibility Score: inf
ROOT
ATOM      1  C   UNL     1      15.423  72.722  19.171  1.00  0.00     0.000 C 
ENDROOT
BRANCH   1   2
ATOM      2  C   UNL     1      15.505  73.527  17.862  1.00  0.00     0.000 C 
BRANCH   2   3
ATOM      3  C   UNL     1      16.901  73.476  17.216  1.00  0.00     0.000 C 
BRANCH   3   4
ATOM      4  C   UNL     1      17.607  74.839  17.072  1.00  0.00     0.000 C 
BRANCH   4   5
ATOM      5  C   UNL     1      19.146  74.778  17.007  1.00  0.00     0.000 C 
BRANCH   5   6
ATOM      6  C   UNL     1      19.824  74.164  18.244  1.00  0.00     0.006 C 
BRANCH   6   7
ATOM      7  C   UNL     1      19.655  75.023  19.503  1.00  0.00     0.053 C 
BRANCH   7   8
ATOM      8  C   UNL     1      20.064  76.436  19.231  1.00  0.00     0.041 C 
ATOM      9  O   UNL     1      21.275  76.719  19.036  1.00  0.00    -0.550 OA
ATOM     10  O   UNL     1      19.113  77.449  19.244  1.00  0.00    -0.550 OA
ENDBRANCH   7   8
ENDBRANCH   6   7
ENDBRANCH   5   6
ENDBRANCH   4   5
ENDBRANCH   3   4
ENDBRANCH   2   3
ENDBRANCH   1   2
BRANCH   1  11
ATOM     11  C   UNL     1      16.765  72.677  19.918  1.00  0.00     0.000 C 
BRANCH  11  12
ATOM     12  C   UNL     1      16.933  71.402  20.762  1.00  0.00    -0.000 C 
BRANCH  12  13
ATOM     13  C   UNL     1      18.281  70.697  20.523  1.00  0.00    -0.000 C 
BRANCH  13  14
ATOM     14  C   UNL     1      18.752  70.670  19.057  1.00  0.00    -0.000 C 
BRANCH  14  15
ATOM     15  C   UNL     1      18.216  69.459  18.276  1.00  0.00    -0.000 C 
BRANCH  15  16
ATOM     16  C   UNL     1      17.317  69.859  17.091  1.00  0.00    -0.000 C 
BRANCH  16  17
ATOM     17  C   UNL     1      15.838  69.455  17.229  1.00  0.00    -0.003 C 
ATOM     18  C   UNL     1      15.511  68.824  18.582  1.00  0.00     0.004 C 
ENDBRANCH  16  17
ENDBRANCH  15  16
ENDBRANCH  14  15
ENDBRANCH  13  14
ENDBRANCH  12  13
ENDBRANCH  11  12
ENDBRANCH   1  11
TORSDOF 14
ENDMDL
