MODEL 1
REMARK VINA RESULT:    -4.250      0.000      0.000
REMARK INTER + INTRA:         -10.488
REMARK INTER:                  -7.977
REMARK INTRA:                  -2.511
REMARK UNBOUND:                -2.511
REMARK SMILES CCCCCCCCC=CCCCCCCCC(=O)[O-]
REMARK SMILES IDX 10 1 9 2 11 3 12 4 13 5 14 6 15 7 16 8 17 9 18 10 19 11
REMARK SMILES IDX 20 12 8 13 7 14 6 15 5 16 4 17 3 18 2 19 1 20
REMARK H PARENT
REMARK Flexibility Score: inf
ROOT
ATOM      1  C   UNL     1     148.269 142.046 139.337  1.00  0.00    -0.031 C 
ATOM      2  C   UNL     1     147.379 141.329 138.639  1.00  0.00    -0.031 C 
ENDROOT
BRANCH   1   3
ATOM      3  C   UNL     1     147.883 142.778 140.596  1.00  0.00     0.027 C 
BRANCH   3   4
ATOM      4  C   UNL     1     148.990 142.733 141.662  1.00  0.00     0.004 C 
BRANCH   4   5
ATOM      5  C   UNL     1     148.852 141.511 142.586  1.00  0.00     0.000 C 
BRANCH   5   6
ATOM      6  C   UNL     1     147.472 140.839 142.485  1.00  0.00     0.000 C 
BRANCH   6   7
ATOM      7  C   UNL     1     147.485 139.398 141.937  1.00  0.00     0.000 C 
BRANCH   7   8
ATOM      8  C   UNL     1     148.867 138.712 141.929  1.00  0.00     0.006 C 
BRANCH   8   9
ATOM      9  C   UNL     1     149.554 138.686 140.555  1.00  0.00     0.053 C 
BRANCH   9  10
ATOM     10  C   UNL     1     149.371 137.371 139.862  1.00  0.00     0.041 C 
ATOM     11  O   UNL     1     149.854 137.187 138.714  1.00  0.00    -0.550 OA
ATOM     12  O   UNL     1     148.640 136.359 140.471  1.00  0.00    -0.550 OA
ENDBRANCH   9  10
ENDBRANCH   8   9
ENDBRANCH   7   8
ENDBRANCH   6   7
ENDBRANCH   5   6
ENDBRANCH   4   5
ENDBRANCH   3   4
ENDBRANCH   1   3
BRANCH   2  13
ATOM     13  C   UNL     1     147.790 140.605 137.386  1.00  0.00     0.027 C 
BRANCH  13  14
ATOM     14  C   UNL     1     147.213 139.182 137.354  1.00  0.00     0.004 C 
BRANCH  14  15
ATOM     15  C   UNL     1     146.324 138.875 138.569  1.00  0.00     0.000 C 
BRANCH  15  16
ATOM     16  C   UNL     1     144.989 138.225 138.177  1.00  0.00     0.000 C 
BRANCH  16  17
ATOM     17  C   UNL     1     144.463 138.801 136.857  1.00  0.00    -0.000 C 
BRANCH  17  18
ATOM     18  C   UNL     1     143.160 139.584 137.078  1.00  0.00    -0.000 C 
BRANCH  18  19
ATOM     19  C   UNL     1     143.118 140.897 136.281  1.00  0.00    -0.003 C 
ATOM     20  C   UNL     1     144.464 141.621 136.263  1.00  0.00     0.004 C 
ENDBRANCH  18  19
ENDBRANCH  17  18
ENDBRANCH  16  17
ENDBRANCH  15  16
ENDBRANCH  14  15
ENDBRANCH  13  14
ENDBRANCH   2  13
TORSDOF 15
ENDMDL
MODEL 2
REMARK VINA RESULT:    -4.193      2.630      4.719
REMARK INTER + INTRA:         -10.380
REMARK INTER:                  -7.780
REMARK INTRA:                  -2.600
REMARK UNBOUND:                -2.511
REMARK SMILES CCCCCCCCC=CCCCCCCCC(=O)[O-]
REMARK SMILES IDX 10 1 9 2 11 3 12 4 13 5 14 6 15 7 16 8 17 9 18 10 19 11
REMARK SMILES IDX 20 12 8 13 7 14 6 15 5 16 4 17 3 18 2 19 1 20
REMARK H PARENT
REMARK Flexibility Score: inf
ROOT
ATOM      1  C   UNL     1     149.028 139.222 141.842  1.00  0.00    -0.031 C 
ATOM      2  C   UNL     1     149.597 138.984 140.652  1.00  0.00    -0.031 C 
ENDROOT
BRANCH   1   3
ATOM      3  C   UNL     1     149.162 140.555 142.530  1.00  0.00     0.027 C 
BRANCH   3   4
ATOM      4  C   UNL     1     148.006 141.509 142.189  1.00  0.00     0.004 C 
BRANCH   4   5
ATOM      5  C   UNL     1     148.498 142.784 141.483  1.00  0.00     0.000 C 
BRANCH   5   6
ATOM      6  C   UNL     1     148.558 142.633 139.953  1.00  0.00     0.000 C 
BRANCH   6   7
ATOM      7  C   UNL     1     147.508 141.680 139.348  1.00  0.00     0.000 C 
BRANCH   7   8
ATOM      8  C   UNL     1     147.937 140.975 138.045  1.00  0.00     0.006 C 
BRANCH   8   9
ATOM      9  C   UNL     1     147.131 141.390 136.804  1.00  0.00     0.053 C 
BRANCH   9  10
ATOM     10  C   UNL     1     145.722 140.887 136.857  1.00  0.00     0.041 C 
ATOM     11  O   UNL     1     144.773 141.683 137.080  1.00  0.00    -0.550 OA
ATOM     12  O   UNL     1     145.459 139.533 136.692  1.00  0.00    -0.550 OA
ENDBRANCH   9  10
ENDBRANCH   8   9
ENDBRANCH   7   8
ENDBRANCH   6   7
ENDBRANCH   5   6
ENDBRANCH   4   5
ENDBRANCH   3   4
ENDBRANCH   1   3
BRANCH   2  13
ATOM     13  C   UNL     1     149.446 137.645 139.983  1.00  0.00     0.027 C 
BRANCH  13  14
ATOM     14  C   UNL     1     148.071 137.030 140.279  1.00  0.00     0.004 C 
BRANCH  14  15
ATOM     15  C   UNL     1     146.969 137.571 139.356  1.00  0.00     0.000 C 
BRANCH  15  16
ATOM     16  C   UNL     1     145.918 138.399 140.111  1.00  0.00     0.000 C 
BRANCH  16  17
ATOM     17  C   UNL     1     145.504 137.705 141.414  1.00  0.00    -0.000 C 
BRANCH  17  18
ATOM     18  C   UNL     1     145.647 138.654 142.613  1.00  0.00    -0.000 C 
BRANCH  18  19
ATOM     19  C   UNL     1     144.335 138.820 143.395  1.00  0.00    -0.003 C 
ATOM     20  C   UNL     1     143.134 138.214 142.669  1.00  0.00     0.004 C 
ENDBRANCH  18  19
ENDBRANCH  17  18
ENDBRANCH  16  17
ENDBRANCH  15  16
ENDBRANCH  14  15
ENDBRANCH  13  14
ENDBRANCH   2  13
TORSDOF 15
ENDMDL
MODEL 3
REMARK VINA RESULT:    -4.172      2.313      3.919
REMARK INTER + INTRA:         -10.342
REMARK INTER:                  -7.287
REMARK INTRA:                  -3.054
REMARK UNBOUND:                -2.511
REMARK SMILES CCCCCCCCC=CCCCCCCCC(=O)[O-]
REMARK SMILES IDX 10 1 9 2 11 3 12 4 13 5 14 6 15 7 16 8 17 9 18 10 19 11
REMARK SMILES IDX 20 12 8 13 7 14 6 15 5 16 4 17 3 18 2 19 1 20
REMARK H PARENT
REMARK Flexibility Score: inf
ROOT
ATOM      1  C   UNL     1     147.155 139.468 141.809  1.00  0.00    -0.031 C 
ATOM      2  C   UNL     1     148.077 138.497 141.749  1.00  0.00    -0.031 C 
ENDROOT
BRANCH   1   3
ATOM      3  C   UNL     1     147.427 140.776 142.504  1.00  0.00     0.027 C 
BRANCH   3   4
ATOM      4  C   UNL     1     148.910 141.176 142.438  1.00  0.00     0.004 C 
BRANCH   4   5
ATOM      5  C   UNL     1     149.108 142.558 141.792  1.00  0.00     0.000 C 
BRANCH   5   6
ATOM      6  C   UNL     1     149.483 142.472 140.302  1.00  0.00     0.000 C 
BRANCH   6   7
ATOM      7  C   UNL     1     149.946 141.081 139.824  1.00  0.00     0.000 C 
BRANCH   7   8
ATOM      8  C   UNL     1     149.089 140.453 138.706  1.00  0.00     0.006 C 
BRANCH   8   9
ATOM      9  C   UNL     1     147.751 141.165 138.456  1.00  0.00     0.053 C 
BRANCH   9  10
ATOM     10  C   UNL     1     147.382 141.172 137.005  1.00  0.00     0.041 C 
ATOM     11  O   UNL     1     148.196 140.746 136.143  1.00  0.00    -0.550 OA
ATOM     12  O   UNL     1     146.154 141.678 136.600  1.00  0.00    -0.550 OA
ENDBRANCH   9  10
ENDBRANCH   8   9
ENDBRANCH   7   8
ENDBRANCH   6   7
ENDBRANCH   5   6
ENDBRANCH   4   5
ENDBRANCH   3   4
ENDBRANCH   1   3
BRANCH   2  13
ATOM     13  C   UNL     1     147.781 137.201 141.046  1.00  0.00     0.027 C 
BRANCH  13  14
ATOM     14  C   UNL     1     148.813 136.920 139.944  1.00  0.00     0.004 C 
BRANCH  14  15
ATOM     15  C   UNL     1     148.181 136.844 138.546  1.00  0.00     0.000 C 
BRANCH  15  16
ATOM     16  C   UNL     1     146.648 136.777 138.591  1.00  0.00     0.000 C 
BRANCH  16  17
ATOM     17  C   UNL     1     146.023 137.824 137.661  1.00  0.00    -0.000 C 
BRANCH  17  18
ATOM     18  C   UNL     1     144.958 138.650 138.398  1.00  0.00    -0.000 C 
BRANCH  18  19
ATOM     19  C   UNL     1     144.494 137.985 139.703  1.00  0.00    -0.003 C 
ATOM     20  C   UNL     1     142.976 138.024 139.879  1.00  0.00     0.004 C 
ENDBRANCH  18  19
ENDBRANCH  17  18
ENDBRANCH  16  17
ENDBRANCH  15  16
ENDBRANCH  14  15
ENDBRANCH  13  14
ENDBRANCH   2  13
TORSDOF 15
ENDMDL
MODEL 4
REMARK VINA RESULT:    -4.153      2.728      6.015
REMARK INTER + INTRA:         -10.305
REMARK INTER:                  -7.399
REMARK INTRA:                  -2.906
REMARK UNBOUND:                -2.511
REMARK SMILES CCCCCCCCC=CCCCCCCCC(=O)[O-]
REMARK SMILES IDX 10 1 9 2 11 3 12 4 13 5 14 6 15 7 16 8 17 9 18 10 19 11
REMARK SMILES IDX 20 12 8 13 7 14 6 15 5 16 4 17 3 18 2 19 1 20
REMARK H PARENT
REMARK Flexibility Score: inf
ROOT
ATOM      1  C   UNL     1     148.865 140.383 138.219  1.00  0.00    -0.031 C 
ATOM      2  C   UNL     1     147.909 141.268 138.534  1.00  0.00    -0.031 C 
ENDROOT
BRANCH   1   3
ATOM      3  C   UNL     1     148.613 139.255 137.255  1.00  0.00     0.027 C 
BRANCH   3   4
ATOM      4  C   UNL     1     148.687 137.878 137.933  1.00  0.00     0.004 C 
BRANCH   4   5
ATOM      5  C   UNL     1     147.435 137.029 137.659  1.00  0.00     0.000 C 
BRANCH   5   6
ATOM      6  C   UNL     1     146.316 137.824 136.962  1.00  0.00     0.000 C 
BRANCH   6   7
ATOM      7  C   UNL     1     145.028 138.003 137.791  1.00  0.00     0.000 C 
BRANCH   7   8
ATOM      8  C   UNL     1     144.688 139.459 138.168  1.00  0.00     0.006 C 
BRANCH   8   9
ATOM      9  C   UNL     1     143.474 140.040 137.426  1.00  0.00     0.053 C 
BRANCH   9  10
ATOM     10  C   UNL     1     143.883 140.974 136.329  1.00  0.00     0.041 C 
ATOM     11  O   UNL     1     143.274 140.962 135.227  1.00  0.00    -0.550 OA
ATOM     12  O   UNL     1     144.957 141.837 136.513  1.00  0.00    -0.550 OA
ENDBRANCH   9  10
ENDBRANCH   8   9
ENDBRANCH   7   8
ENDBRANCH   6   7
ENDBRANCH   5   6
ENDBRANCH   4   5
ENDBRANCH   3   4
ENDBRANCH   1   3
BRANCH   2  13
ATOM     13  C   UNL     1     148.187 142.388 139.498  1.00  0.00     0.027 C 
BRANCH  13  14
ATOM     14  C   UNL     1     149.357 142.041 140.429  1.00  0.00     0.004 C 
BRANCH  14  15
ATOM     15  C   UNL     1     148.985 142.149 141.915  1.00  0.00     0.000 C 
BRANCH  15  16
ATOM     16  C   UNL     1     148.540 140.806 142.513  1.00  0.00     0.000 C 
BRANCH  16  17
ATOM     17  C   UNL     1     149.277 139.636 141.849  1.00  0.00    -0.000 C 
BRANCH  17  18
ATOM     18  C   UNL     1     148.312 138.482 141.539  1.00  0.00    -0.000 C 
BRANCH  18  19
ATOM     19  C   UNL     1     146.925 138.974 141.100  1.00  0.00    -0.003 C 
ATOM     20  C   UNL     1     145.793 138.376 141.936  1.00  0.00     0.004 C 
ENDBRANCH  18  19
ENDBRANCH  17  18
ENDBRANCH  16  17
ENDBRANCH  15  16
ENDBRANCH  14  15
ENDBRANCH  13  14
ENDBRANCH   2  13
TORSDOF 15
ENDMDL
MODEL 5
REMARK VINA RESULT:    -4.095      1.730      2.219
REMARK INTER + INTRA:         -10.197
REMARK INTER:                  -7.368
REMARK INTRA:                  -2.828
REMARK UNBOUND:                -2.511
REMARK SMILES CCCCCCCCC=CCCCCCCCC(=O)[O-]
REMARK SMILES IDX 10 1 9 2 11 3 12 4 13 5 14 6 15 7 16 8 17 9 18 10 19 11
REMARK SMILES IDX 20 12 8 13 7 14 6 15 5 16 4 17 3 18 2 19 1 20
REMARK H PARENT
REMARK Flexibility Score: inf
ROOT
ATOM      1  C   UNL     1     147.591 141.312 138.666  1.00  0.00    -0.031 C 
ATOM      2  C   UNL     1     148.573 140.497 138.256  1.00  0.00    -0.031 C 
ENDROOT
BRANCH   1   3
ATOM      3  C   UNL     1     147.814 142.341 139.742  1.00  0.00     0.027 C 
BRANCH   3   4
ATOM      4  C   UNL     1     149.171 142.169 140.444  1.00  0.00     0.004 C 
BRANCH   4   5
ATOM      5  C   UNL     1     149.045 142.251 141.975  1.00  0.00     0.000 C 
BRANCH   5   6
ATOM      6  C   UNL     1     148.975 140.865 142.642  1.00  0.00     0.000 C 
BRANCH   6   7
ATOM      7  C   UNL     1     149.372 139.682 141.736  1.00  0.00     0.000 C 
BRANCH   7   8
ATOM      8  C   UNL     1     148.290 138.597 141.564  1.00  0.00     0.006 C 
BRANCH   8   9
ATOM      9  C   UNL     1     146.848 139.122 141.634  1.00  0.00     0.053 C 
BRANCH   9  10
ATOM     10  C   UNL     1     145.875 138.042 141.995  1.00  0.00     0.041 C 
ATOM     11  O   UNL     1     144.648 138.189 141.756  1.00  0.00    -0.550 OA
ATOM     12  O   UNL     1     146.320 136.886 142.623  1.00  0.00    -0.550 OA
ENDBRANCH   9  10
ENDBRANCH   8   9
ENDBRANCH   7   8
ENDBRANCH   6   7
ENDBRANCH   5   6
ENDBRANCH   4   5
ENDBRANCH   3   4
ENDBRANCH   1   3
BRANCH   2  13
ATOM     13  C   UNL     1     148.326 139.479 137.177  1.00  0.00     0.027 C 
BRANCH  13  14
ATOM     14  C   UNL     1     148.328 138.054 137.749  1.00  0.00     0.004 C 
BRANCH  14  15
ATOM     15  C   UNL     1     146.941 137.611 138.241  1.00  0.00     0.000 C 
BRANCH  15  16
ATOM     16  C   UNL     1     145.802 138.145 137.359  1.00  0.00     0.000 C 
BRANCH  16  17
ATOM     17  C   UNL     1     144.795 138.949 138.190  1.00  0.00    -0.000 C 
BRANCH  17  18
ATOM     18  C   UNL     1     143.610 139.408 137.327  1.00  0.00    -0.000 C 
BRANCH  18  19
ATOM     19  C   UNL     1     143.495 140.938 137.248  1.00  0.00    -0.003 C 
ATOM     20  C   UNL     1     144.627 141.575 136.440  1.00  0.00     0.004 C 
ENDBRANCH  18  19
ENDBRANCH  17  18
ENDBRANCH  16  17
ENDBRANCH  15  16
ENDBRANCH  14  15
ENDBRANCH  13  14
ENDBRANCH   2  13
TORSDOF 15
ENDMDL
MODEL 6
REMARK VINA RESULT:    -4.067      1.861      5.727
REMARK INTER + INTRA:         -10.145
REMARK INTER:                  -7.938
REMARK INTRA:                  -2.207
REMARK UNBOUND:                -2.511
REMARK SMILES CCCCCCCCC=CCCCCCCCC(=O)[O-]
REMARK SMILES IDX 10 1 9 2 11 3 12 4 13 5 14 6 15 7 16 8 17 9 18 10 19 11
REMARK SMILES IDX 20 12 8 13 7 14 6 15 5 16 4 17 3 18 2 19 1 20
REMARK H PARENT
REMARK Flexibility Score: inf
ROOT
ATOM      1  C   UNL     1     147.912 141.000 137.788  1.00  0.00    -0.031 C 
ATOM      2  C   UNL     1     148.885 140.106 137.563  1.00  0.00    -0.031 C 
ENDROOT
BRANCH   1   3
ATOM      3  C   UNL     1     146.905 141.359 136.727  1.00  0.00     0.027 C 
BRANCH   3   4
ATOM      4  C   UNL     1     145.459 141.273 137.240  1.00  0.00     0.004 C 
BRANCH   4   5
ATOM      5  C   UNL     1     144.436 141.635 136.151  1.00  0.00     0.000 C 
BRANCH   5   6
ATOM      6  C   UNL     1     143.138 140.814 136.255  1.00  0.00     0.000 C 
BRANCH   6   7
ATOM      7  C   UNL     1     143.077 139.836 137.445  1.00  0.00     0.000 C 
BRANCH   7   8
ATOM      8  C   UNL     1     143.091 138.341 137.067  1.00  0.00     0.006 C 
BRANCH   8   9
ATOM      9  C   UNL     1     144.376 137.598 137.466  1.00  0.00     0.053 C 
BRANCH   9  10
ATOM     10  C   UNL     1     145.443 137.725 136.424  1.00  0.00     0.041 C 
ATOM     11  O   UNL     1     145.139 138.025 135.239  1.00  0.00    -0.550 OA
ATOM     12  O   UNL     1     146.771 137.481 136.752  1.00  0.00    -0.550 OA
ENDBRANCH   9  10
ENDBRANCH   8   9
ENDBRANCH   7   8
ENDBRANCH   6   7
ENDBRANCH   5   6
ENDBRANCH   4   5
ENDBRANCH   3   4
ENDBRANCH   1   3
BRANCH   2  13
ATOM     13  C   UNL     1     149.877 139.763 138.640  1.00  0.00     0.027 C 
BRANCH  13  14
ATOM     14  C   UNL     1     149.309 138.709 139.601  1.00  0.00     0.004 C 
BRANCH  14  15
ATOM     15  C   UNL     1     150.004 138.721 140.970  1.00  0.00     0.000 C 
BRANCH  15  16
ATOM     16  C   UNL     1     149.141 139.364 142.067  1.00  0.00     0.000 C 
BRANCH  16  17
ATOM     17  C   UNL     1     147.809 139.864 141.496  1.00  0.00    -0.000 C 
BRANCH  17  18
ATOM     18  C   UNL     1     147.651 141.376 141.708  1.00  0.00    -0.000 C 
BRANCH  18  19
ATOM     19  C   UNL     1     148.998 142.089 141.902  1.00  0.00    -0.003 C 
ATOM     20  C   UNL     1     149.375 142.973 140.714  1.00  0.00     0.004 C 
ENDBRANCH  18  19
ENDBRANCH  17  18
ENDBRANCH  16  17
ENDBRANCH  15  16
ENDBRANCH  14  15
ENDBRANCH  13  14
ENDBRANCH   2  13
TORSDOF 15
ENDMDL
MODEL 7
REMARK VINA RESULT:    -4.055      2.859      5.941
REMARK INTER + INTRA:         -10.122
REMARK INTER:                  -7.480
REMARK INTRA:                  -2.642
REMARK UNBOUND:                -2.511
REMARK SMILES CCCCCCCCC=CCCCCCCCC(=O)[O-]
REMARK SMILES IDX 10 1 9 2 11 3 12 4 13 5 14 6 15 7 16 8 17 9 18 10 19 11
REMARK SMILES IDX 20 12 8 13 7 14 6 15 5 16 4 17 3 18 2 19 1 20
REMARK H PARENT
REMARK Flexibility Score: inf
ROOT
ATOM      1  C   UNL     1     149.292 137.843 139.549  1.00  0.00    -0.031 C 
ATOM      2  C   UNL     1     148.334 136.907 139.506  1.00  0.00    -0.031 C 
ENDROOT
BRANCH   1   3
ATOM      3  C   UNL     1     149.941 138.368 138.296  1.00  0.00     0.027 C 
BRANCH   3   4
ATOM      4  C   UNL     1     149.806 139.894 138.163  1.00  0.00     0.004 C 
BRANCH   4   5
ATOM      5  C   UNL     1     148.631 140.294 137.255  1.00  0.00     0.000 C 
BRANCH   5   6
ATOM      6  C   UNL     1     147.433 140.854 138.042  1.00  0.00     0.000 C 
BRANCH   6   7
ATOM      7  C   UNL     1     146.338 139.825 138.385  1.00  0.00     0.000 C 
BRANCH   7   8
ATOM      8  C   UNL     1     145.531 139.299 137.181  1.00  0.00     0.006 C 
BRANCH   8   9
ATOM      9  C   UNL     1     145.185 140.369 136.133  1.00  0.00     0.053 C 
BRANCH   9  10
ATOM     10  C   UNL     1     143.752 140.794 136.220  1.00  0.00     0.041 C 
ATOM     11  O   UNL     1     143.139 141.170 135.186  1.00  0.00    -0.550 OA
ATOM     12  O   UNL     1     143.102 140.807 137.448  1.00  0.00    -0.550 OA
ENDBRANCH   9  10
ENDBRANCH   8   9
ENDBRANCH   7   8
ENDBRANCH   6   7
ENDBRANCH   5   6
ENDBRANCH   4   5
ENDBRANCH   3   4
ENDBRANCH   1   3
BRANCH   2  13
ATOM     13  C   UNL     1     147.699 136.400 140.772  1.00  0.00     0.027 C 
BRANCH  13  14
ATOM     14  C   UNL     1     147.835 137.424 141.909  1.00  0.00     0.004 C 
BRANCH  14  15
ATOM     15  C   UNL     1     146.664 138.416 141.956  1.00  0.00     0.000 C 
BRANCH  15  16
ATOM     16  C   UNL     1     147.126 139.881 141.939  1.00  0.00     0.000 C 
BRANCH  16  17
ATOM     17  C   UNL     1     148.629 139.986 142.228  1.00  0.00    -0.000 C 
BRANCH  17  18
ATOM     18  C   UNL     1     149.158 141.387 141.889  1.00  0.00    -0.000 C 
BRANCH  18  19
ATOM     19  C   UNL     1     148.054 142.330 141.387  1.00  0.00    -0.003 C 
ATOM     20  C   UNL     1     148.590 143.438 140.481  1.00  0.00     0.004 C 
ENDBRANCH  18  19
ENDBRANCH  17  18
ENDBRANCH  16  17
ENDBRANCH  15  16
ENDBRANCH  14  15
ENDBRANCH  13  14
ENDBRANCH   2  13
TORSDOF 15
ENDMDL
MODEL 8
REMARK VINA RESULT:    -4.053      2.837      6.016
REMARK INTER + INTRA:         -10.117
REMARK INTER:                  -7.540
REMARK INTRA:                  -2.577
REMARK UNBOUND:                -2.511
REMARK SMILES CCCCCCCCC=CCCCCCCCC(=O)[O-]
REMARK SMILES IDX 10 1 9 2 11 3 12 4 13 5 14 6 15 7 16 8 17 9 18 10 19 11
REMARK SMILES IDX 20 12 8 13 7 14 6 15 5 16 4 17 3 18 2 19 1 20
REMARK H PARENT
REMARK Flexibility Score: inf
ROOT
ATOM      1  C   UNL     1     147.795 138.618 141.610  1.00  0.00    -0.031 C 
ATOM      2  C   UNL     1     148.926 139.153 142.090  1.00  0.00    -0.031 C 
ENDROOT
BRANCH   1   3
ATOM      3  C   UNL     1     147.671 137.142 141.340  1.00  0.00     0.027 C 
BRANCH   3   4
ATOM      4  C   UNL     1     146.808 136.844 140.103  1.00  0.00     0.004 C 
BRANCH   4   5
ATOM      5  C   UNL     1     145.922 138.039 139.715  1.00  0.00     0.000 C 
BRANCH   5   6
ATOM      6  C   UNL     1     144.466 137.881 140.188  1.00  0.00     0.000 C 
BRANCH   6   7
ATOM      7  C   UNL     1     143.413 137.841 139.063  1.00  0.00     0.000 C 
BRANCH   7   8
ATOM      8  C   UNL     1     143.029 139.215 138.475  1.00  0.00     0.006 C 
BRANCH   8   9
ATOM      9  C   UNL     1     143.218 139.329 136.954  1.00  0.00     0.053 C 
BRANCH   9  10
ATOM     10  C   UNL     1     143.565 140.725 136.537  1.00  0.00     0.041 C 
ATOM     11  O   UNL     1     144.257 141.458 137.291  1.00  0.00    -0.550 OA
ATOM     12  O   UNL     1     143.096 141.228 135.329  1.00  0.00    -0.550 OA
ENDBRANCH   9  10
ENDBRANCH   8   9
ENDBRANCH   7   8
ENDBRANCH   6   7
ENDBRANCH   5   6
ENDBRANCH   4   5
ENDBRANCH   3   4
ENDBRANCH   1   3
BRANCH   2  13
ATOM     13  C   UNL     1     149.025 140.630 142.354  1.00  0.00     0.027 C 
BRANCH  13  14
ATOM     14  C   UNL     1     147.707 141.343 142.016  1.00  0.00     0.004 C 
BRANCH  14  15
ATOM     15  C   UNL     1     147.918 142.617 141.186  1.00  0.00     0.000 C 
BRANCH  15  16
ATOM     16  C   UNL     1     148.414 142.322 139.762  1.00  0.00     0.000 C 
BRANCH  16  17
ATOM     17  C   UNL     1     147.476 141.342 139.045  1.00  0.00    -0.000 C 
BRANCH  17  18
ATOM     18  C   UNL     1     148.246 140.489 138.026  1.00  0.00    -0.000 C 
BRANCH  18  19
ATOM     19  C   UNL     1     149.595 139.995 138.570  1.00  0.00    -0.003 C 
ATOM     20  C   UNL     1     149.779 138.485 138.411  1.00  0.00     0.004 C 
ENDBRANCH  18  19
ENDBRANCH  17  18
ENDBRANCH  16  17
ENDBRANCH  15  16
ENDBRANCH  14  15
ENDBRANCH  13  14
ENDBRANCH   2  13
TORSDOF 15
ENDMDL
MODEL 9
REMARK VINA RESULT:    -4.019      2.462      4.474
REMARK INTER + INTRA:         -10.054
REMARK INTER:                  -6.944
REMARK INTRA:                  -3.110
REMARK UNBOUND:                -2.511
REMARK SMILES CCCCCCCCC=CCCCCCCCC(=O)[O-]
REMARK SMILES IDX 10 1 9 2 11 3 12 4 13 5 14 6 15 7 16 8 17 9 18 10 19 11
REMARK SMILES IDX 20 12 8 13 7 14 6 15 5 16 4 17 3 18 2 19 1 20
REMARK H PARENT
REMARK Flexibility Score: inf
ROOT
ATOM      1  C   UNL     1     149.245 138.795 140.748  1.00  0.00    -0.031 C 
ATOM      2  C   UNL     1     150.124 139.108 139.787  1.00  0.00    -0.031 C 
ENDROOT
BRANCH   1   3
ATOM      3  C   UNL     1     149.370 139.343 142.145  1.00  0.00     0.027 C 
BRANCH   3   4
ATOM      4  C   UNL     1     148.358 140.465 142.426  1.00  0.00     0.004 C 
BRANCH   4   5
ATOM      5  C   UNL     1     148.929 141.854 142.096  1.00  0.00     0.000 C 
BRANCH   5   6
ATOM      6  C   UNL     1     148.047 142.642 141.110  1.00  0.00     0.000 C 
BRANCH   6   7
ATOM      7  C   UNL     1     148.297 142.335 139.620  1.00  0.00     0.000 C 
BRANCH   7   8
ATOM      8  C   UNL     1     147.258 141.406 138.959  1.00  0.00     0.006 C 
BRANCH   8   9
ATOM      9  C   UNL     1     147.505 141.139 137.466  1.00  0.00     0.053 C 
BRANCH   9  10
ATOM     10  C   UNL     1     146.237 140.809 136.740  1.00  0.00     0.041 C 
ATOM     11  O   UNL     1     146.232 139.921 135.847  1.00  0.00    -0.550 OA
ATOM     12  O   UNL     1     145.069 141.504 137.025  1.00  0.00    -0.550 OA
ENDBRANCH   9  10
ENDBRANCH   8   9
ENDBRANCH   7   8
ENDBRANCH   6   7
ENDBRANCH   5   6
ENDBRANCH   4   5
ENDBRANCH   3   4
ENDBRANCH   1   3
BRANCH   2  13
ATOM     13  C   UNL     1     149.976 138.549 138.398  1.00  0.00     0.027 C 
BRANCH  13  14
ATOM     14  C   UNL     1     149.201 137.224 138.414  1.00  0.00     0.004 C 
BRANCH  14  15
ATOM     15  C   UNL     1     147.870 137.306 137.651  1.00  0.00     0.000 C 
BRANCH  15  16
ATOM     16  C   UNL     1     146.670 136.863 138.501  1.00  0.00     0.000 C 
BRANCH  16  17
ATOM     17  C   UNL     1     145.943 138.074 139.099  1.00  0.00    -0.000 C 
BRANCH  17  18
ATOM     18  C   UNL     1     145.836 137.953 140.626  1.00  0.00    -0.000 C 
BRANCH  18  19
ATOM     19  C   UNL     1     145.984 136.505 141.115  1.00  0.00    -0.003 C 
ATOM     20  C   UNL     1     147.013 136.362 142.236  1.00  0.00     0.004 C 
ENDBRANCH  18  19
ENDBRANCH  17  18
ENDBRANCH  16  17
ENDBRANCH  15  16
ENDBRANCH  14  15
ENDBRANCH  13  14
ENDBRANCH   2  13
TORSDOF 15
ENDMDL
