MODEL 1
REMARK VINA RESULT:     2.332      0.000      0.000
REMARK INTER + INTRA:           3.850
REMARK INTER:                   5.875
REMARK INTRA:                  -2.025
REMARK UNBOUND:                -2.025
REMARK SMILES CCCCCCCCCCCCCCCCCCCCCCCCCCCC(=O)[O-]
REMARK SMILES IDX 15 1 16 2 17 3 18 4 19 5 20 6 21 7 22 8 23 9 24 10 25 11
REMARK SMILES IDX 26 12 27 13 28 14 29 15 30 16 14 17 13 18 12 19 11 20 10 21
REMARK SMILES IDX 9 22 8 23 7 24 6 25 5 26 4 27 3 28 2 29 1 30
REMARK H PARENT
REMARK Flexibility Score: inf
ROOT
ATOM      1  C   UNL     1       0.364  -6.539  -7.711  1.00  0.00     0.000 C 
ENDROOT
BRANCH   1   2
ATOM      2  C   UNL     1       0.534  -7.387  -8.984  1.00  0.00     0.000 C 
BRANCH   2   3
ATOM      3  C   UNL     1       1.604  -6.828  -9.934  1.00  0.00     0.000 C 
BRANCH   3   4
ATOM      4  C   UNL     1       2.472  -5.780  -9.221  1.00  0.00     0.000 C 
BRANCH   4   5
ATOM      5  C   UNL     1       2.820  -4.586 -10.125  1.00  0.00     0.000 C 
BRANCH   5   6
ATOM      6  C   UNL     1       4.017  -3.778  -9.593  1.00  0.00     0.000 C 
BRANCH   6   7
ATOM      7  C   UNL     1       5.375  -4.339 -10.054  1.00  0.00     0.000 C 
BRANCH   7   8
ATOM      8  C   UNL     1       6.548  -4.091  -9.089  1.00  0.00     0.000 C 
BRANCH   8   9
ATOM      9  C   UNL     1       7.918  -4.138  -9.782  1.00  0.00     0.000 C 
BRANCH   9  10
ATOM     10  C   UNL     1       8.435  -5.581  -9.878  1.00  0.00     0.000 C 
BRANCH  10  11
ATOM     11  C   UNL     1       9.967  -5.661 -10.021  1.00  0.00     0.000 C 
BRANCH  11  12
ATOM     12  C   UNL     1      10.682  -6.476  -8.924  1.00  0.00     0.006 C 
BRANCH  12  13
ATOM     13  C   UNL     1       9.761  -6.965  -7.795  1.00  0.00     0.053 C 
BRANCH  13  14
ATOM     14  C   UNL     1       9.678  -5.979  -6.670  1.00  0.00     0.041 C 
ATOM     15  O   UNL     1      10.499  -5.027  -6.600  1.00  0.00    -0.550 OA
ATOM     16  O   UNL     1       8.702  -6.121  -5.690  1.00  0.00    -0.550 OA
ENDBRANCH  13  14
ENDBRANCH  12  13
ENDBRANCH  11  12
ENDBRANCH  10  11
ENDBRANCH   9  10
ENDBRANCH   8   9
ENDBRANCH   7   8
ENDBRANCH   6   7
ENDBRANCH   5   6
ENDBRANCH   4   5
ENDBRANCH   3   4
ENDBRANCH   2   3
ENDBRANCH   1   2
BRANCH   1  17
ATOM     17  C   UNL     1      -0.949  -6.782  -6.938  1.00  0.00     0.000 C 
BRANCH  17  18
ATOM     18  C   UNL     1      -1.651  -5.508  -6.427  1.00  0.00     0.000 C 
BRANCH  18  19
ATOM     19  C   UNL     1      -3.065  -5.732  -5.853  1.00  0.00     0.000 C 
BRANCH  19  20
ATOM     20  C   UNL     1      -4.051  -6.431  -6.812  1.00  0.00     0.000 C 
BRANCH  20  21
ATOM     21  C   UNL     1      -5.137  -7.281  -6.124  1.00  0.00     0.000 C 
BRANCH  21  22
ATOM     22  C   UNL     1      -6.544  -7.160  -6.737  1.00  0.00    -0.000 C 
BRANCH  22  23
ATOM     23  C   UNL     1      -7.628  -6.865  -5.689  1.00  0.00    -0.000 C 
BRANCH  23  24
ATOM     24  C   UNL     1      -8.121  -5.414  -5.803  1.00  0.00    -0.000 C 
BRANCH  24  25
ATOM     25  C   UNL     1      -7.040  -4.389  -5.429  1.00  0.00    -0.000 C 
BRANCH  25  26
ATOM     26  C   UNL     1      -7.443  -2.948  -5.780  1.00  0.00    -0.000 C 
BRANCH  26  27
ATOM     27  C   UNL     1      -7.626  -2.784  -7.294  1.00  0.00    -0.000 C 
BRANCH  27  28
ATOM     28  C   UNL     1      -6.275  -2.860  -8.023  1.00  0.00    -0.000 C 
BRANCH  28  29
ATOM     29  C   UNL     1      -6.202  -4.037  -9.008  1.00  0.00    -0.003 C 
ATOM     30  C   UNL     1      -7.468  -4.180  -9.854  1.00  0.00     0.004 C 
ENDBRANCH  28  29
ENDBRANCH  27  28
ENDBRANCH  26  27
ENDBRANCH  25  26
ENDBRANCH  24  25
ENDBRANCH  23  24
ENDBRANCH  22  23
ENDBRANCH  21  22
ENDBRANCH  20  21
ENDBRANCH  19  20
ENDBRANCH  18  19
ENDBRANCH  17  18
ENDBRANCH   1  17
TORSDOF 26
ENDMDL
MODEL 2
REMARK VINA RESULT:     2.547      1.577      2.820
REMARK INTER + INTRA:           4.392
REMARK INTER:                   5.029
REMARK INTRA:                  -0.637
REMARK UNBOUND:                -2.025
REMARK SMILES CCCCCCCCCCCCCCCCCCCCCCCCCCCC(=O)[O-]
REMARK SMILES IDX 15 1 16 2 17 3 18 4 19 5 20 6 21 7 22 8 23 9 24 10 25 11
REMARK SMILES IDX 26 12 27 13 28 14 29 15 30 16 14 17 13 18 12 19 11 20 10 21
REMARK SMILES IDX 9 22 8 23 7 24 6 25 5 26 4 27 3 28 2 29 1 30
REMARK H PARENT
REMARK Flexibility Score: inf
ROOT
ATOM      1  C   UNL     1       2.187  -6.792  -9.397  1.00  0.00     0.000 C 
ENDROOT
BRANCH   1   2
ATOM      2  C   UNL     1       2.143  -5.437 -10.125  1.00  0.00     0.000 C 
BRANCH   2   3
ATOM      3  C   UNL     1       3.063  -4.387  -9.485  1.00  0.00     0.000 C 
BRANCH   3   4
ATOM      4  C   UNL     1       4.464  -4.432 -10.115  1.00  0.00     0.000 C 
BRANCH   4   5
ATOM      5  C   UNL     1       5.566  -3.986  -9.141  1.00  0.00     0.000 C 
BRANCH   5   6
ATOM      6  C   UNL     1       6.876  -3.627  -9.864  1.00  0.00     0.000 C 
BRANCH   6   7
ATOM      7  C   UNL     1       7.862  -4.808  -9.944  1.00  0.00     0.000 C 
BRANCH   7   8
ATOM      8  C   UNL     1       8.100  -5.554  -8.620  1.00  0.00     0.000 C 
BRANCH   8   9
ATOM      9  C   UNL     1       8.779  -6.919  -8.810  1.00  0.00     0.000 C 
BRANCH   9  10
ATOM     10  C   UNL     1       9.990  -7.064  -7.876  1.00  0.00     0.000 C 
BRANCH  10  11
ATOM     11  C   UNL     1       9.617  -6.942  -6.387  1.00  0.00     0.000 C 
BRANCH  11  12
ATOM     12  C   UNL     1      10.808  -6.721  -5.433  1.00  0.00     0.006 C 
BRANCH  12  13
ATOM     13  C   UNL     1      11.301  -5.268  -5.357  1.00  0.00     0.053 C 
BRANCH  13  14
ATOM     14  C   UNL     1      11.166  -4.699  -3.978  1.00  0.00     0.041 C 
ATOM     15  O   UNL     1      10.548  -5.339  -3.087  1.00  0.00    -0.550 OA
ATOM     16  O   UNL     1      11.712  -3.456  -3.680  1.00  0.00    -0.550 OA
ENDBRANCH  13  14
ENDBRANCH  12  13
ENDBRANCH  11  12
ENDBRANCH  10  11
ENDBRANCH   9  10
ENDBRANCH   8   9
ENDBRANCH   7   8
ENDBRANCH   6   7
ENDBRANCH   5   6
ENDBRANCH   4   5
ENDBRANCH   3   4
ENDBRANCH   2   3
ENDBRANCH   1   2
BRANCH   1  17
ATOM     17  C   UNL     1       0.883  -7.184  -8.671  1.00  0.00     0.000 C 
BRANCH  17  18
ATOM     18  C   UNL     1       0.279  -6.085  -7.774  1.00  0.00     0.000 C 
BRANCH  18  19
ATOM     19  C   UNL     1      -0.630  -6.599  -6.640  1.00  0.00     0.000 C 
BRANCH  19  20
ATOM     20  C   UNL     1      -1.874  -5.732  -6.361  1.00  0.00     0.000 C 
BRANCH  20  21
ATOM     21  C   UNL     1      -3.193  -6.515  -6.206  1.00  0.00     0.000 C 
BRANCH  21  22
ATOM     22  C   UNL     1      -4.464  -5.729  -6.575  1.00  0.00    -0.000 C 
BRANCH  22  23
ATOM     23  C   UNL     1      -5.600  -5.920  -5.560  1.00  0.00    -0.000 C 
BRANCH  23  24
ATOM     24  C   UNL     1      -6.666  -4.824  -5.716  1.00  0.00    -0.000 C 
BRANCH  24  25
ATOM     25  C   UNL     1      -6.349  -3.847  -6.858  1.00  0.00    -0.000 C 
BRANCH  25  26
ATOM     26  C   UNL     1      -7.156  -4.143  -8.132  1.00  0.00    -0.000 C 
BRANCH  26  27
ATOM     27  C   UNL     1      -6.280  -3.991  -9.383  1.00  0.00    -0.000 C 
BRANCH  27  28
ATOM     28  C   UNL     1      -6.056  -2.509  -9.721  1.00  0.00    -0.000 C 
BRANCH  28  29
ATOM     29  C   UNL     1      -7.374  -1.739  -9.901  1.00  0.00    -0.003 C 
ATOM     30  C   UNL     1      -8.035  -1.380  -8.570  1.00  0.00     0.004 C 
ENDBRANCH  28  29
ENDBRANCH  27  28
ENDBRANCH  26  27
ENDBRANCH  25  26
ENDBRANCH  24  25
ENDBRANCH  23  24
ENDBRANCH  22  23
ENDBRANCH  21  22
ENDBRANCH  20  21
ENDBRANCH  19  20
ENDBRANCH  18  19
ENDBRANCH  17  18
ENDBRANCH   1  17
TORSDOF 26
ENDMDL
MODEL 3
REMARK VINA RESULT:     2.662      1.484      3.506
REMARK INTER + INTRA:           4.682
REMARK INTER:                   5.550
REMARK INTRA:                  -0.868
REMARK UNBOUND:                -2.025
REMARK SMILES CCCCCCCCCCCCCCCCCCCCCCCCCCCC(=O)[O-]
REMARK SMILES IDX 15 1 16 2 17 3 18 4 19 5 20 6 21 7 22 8 23 9 24 10 25 11
REMARK SMILES IDX 26 12 27 13 28 14 29 15 30 16 14 17 13 18 12 19 11 20 10 21
REMARK SMILES IDX 9 22 8 23 7 24 6 25 5 26 4 27 3 28 2 29 1 30
REMARK H PARENT
REMARK Flexibility Score: inf
ROOT
ATOM      1  C   UNL     1       3.008  -5.756 -10.076  1.00  0.00     0.000 C 
ENDROOT
BRANCH   1   2
ATOM      2  C   UNL     1       3.025  -4.218 -10.061  1.00  0.00     0.000 C 
BRANCH   2   3
ATOM      3  C   UNL     1       4.268  -3.643  -9.365  1.00  0.00     0.000 C 
BRANCH   3   4
ATOM      4  C   UNL     1       5.540  -4.364  -9.836  1.00  0.00     0.000 C 
BRANCH   4   5
ATOM      5  C   UNL     1       6.822  -3.741  -9.260  1.00  0.00     0.000 C 
BRANCH   5   6
ATOM      6  C   UNL     1       8.094  -4.303  -9.919  1.00  0.00     0.000 C 
BRANCH   6   7
ATOM      7  C   UNL     1       9.081  -4.909  -8.904  1.00  0.00     0.000 C 
BRANCH   7   8
ATOM      8  C   UNL     1       8.439  -5.757  -7.792  1.00  0.00     0.000 C 
BRANCH   8   9
ATOM      9  C   UNL     1       9.347  -6.894  -7.300  1.00  0.00     0.000 C 
BRANCH   9  10
ATOM     10  C   UNL     1      10.732  -6.814  -7.959  1.00  0.00     0.000 C 
BRANCH  10  11
ATOM     11  C   UNL     1      11.707  -5.897  -7.198  1.00  0.00     0.000 C 
BRANCH  11  12
ATOM     12  C   UNL     1      12.109  -6.396  -5.795  1.00  0.00     0.006 C 
BRANCH  12  13
ATOM     13  C   UNL     1      11.052  -6.153  -4.706  1.00  0.00     0.053 C 
BRANCH  13  14
ATOM     14  C   UNL     1      11.214  -4.814  -4.054  1.00  0.00     0.041 C 
ATOM     15  O   UNL     1      11.366  -4.731  -2.807  1.00  0.00    -0.550 OA
ATOM     16  O   UNL     1      11.184  -3.656  -4.823  1.00  0.00    -0.550 OA
ENDBRANCH  13  14
ENDBRANCH  12  13
ENDBRANCH  11  12
ENDBRANCH  10  11
ENDBRANCH   9  10
ENDBRANCH   8   9
ENDBRANCH   7   8
ENDBRANCH   6   7
ENDBRANCH   5   6
ENDBRANCH   4   5
ENDBRANCH   3   4
ENDBRANCH   2   3
ENDBRANCH   1   2
BRANCH   1  17
ATOM     17  C   UNL     1       1.602  -6.390 -10.124  1.00  0.00     0.000 C 
BRANCH  17  18
ATOM     18  C   UNL     1       1.252  -7.295  -8.926  1.00  0.00     0.000 C 
BRANCH  18  19
ATOM     19  C   UNL     1       0.749  -6.549  -7.674  1.00  0.00     0.000 C 
BRANCH  19  20
ATOM     20  C   UNL     1      -0.724  -6.819  -7.306  1.00  0.00     0.000 C 
BRANCH  20  21
ATOM     21  C   UNL     1      -1.452  -5.642  -6.626  1.00  0.00     0.000 C 
BRANCH  21  22
ATOM     22  C   UNL     1      -2.488  -6.046  -5.561  1.00  0.00    -0.000 C 
BRANCH  22  23
ATOM     23  C   UNL     1      -3.697  -6.784  -6.154  1.00  0.00    -0.000 C 
BRANCH  23  24
ATOM     24  C   UNL     1      -4.720  -5.790  -6.727  1.00  0.00    -0.000 C 
BRANCH  24  25
ATOM     25  C   UNL     1      -6.060  -5.820  -5.977  1.00  0.00    -0.000 C 
BRANCH  25  26
ATOM     26  C   UNL     1      -6.309  -4.544  -5.159  1.00  0.00    -0.000 C 
BRANCH  26  27
ATOM     27  C   UNL     1      -7.303  -3.618  -5.875  1.00  0.00    -0.000 C 
BRANCH  27  28
ATOM     28  C   UNL     1      -7.270  -3.847  -7.394  1.00  0.00    -0.000 C 
BRANCH  28  29
ATOM     29  C   UNL     1      -6.780  -2.612  -8.166  1.00  0.00    -0.003 C 
ATOM     30  C   UNL     1      -5.433  -2.840  -8.853  1.00  0.00     0.004 C 
ENDBRANCH  28  29
ENDBRANCH  27  28
ENDBRANCH  26  27
ENDBRANCH  25  26
ENDBRANCH  24  25
ENDBRANCH  23  24
ENDBRANCH  22  23
ENDBRANCH  21  22
ENDBRANCH  20  21
ENDBRANCH  19  20
ENDBRANCH  18  19
ENDBRANCH  17  18
ENDBRANCH   1  17
TORSDOF 26
ENDMDL
MODEL 4
REMARK VINA RESULT:     2.958      4.441     14.391
REMARK INTER + INTRA:           5.427
REMARK INTER:                   6.476
REMARK INTRA:                  -1.049
REMARK UNBOUND:                -2.025
REMARK SMILES CCCCCCCCCCCCCCCCCCCCCCCCCCCC(=O)[O-]
REMARK SMILES IDX 15 1 16 2 17 3 18 4 19 5 20 6 21 7 22 8 23 9 24 10 25 11
REMARK SMILES IDX 26 12 27 13 28 14 29 15 30 16 14 17 13 18 12 19 11 20 10 21
REMARK SMILES IDX 9 22 8 23 7 24 6 25 5 26 4 27 3 28 2 29 1 30
REMARK H PARENT
REMARK Flexibility Score: inf
ROOT
ATOM      1  C   UNL     1       2.783  -4.752  -9.866  1.00  0.00     0.000 C 
ENDROOT
BRANCH   1   2
ATOM      2  C   UNL     1       2.512  -6.266  -9.808  1.00  0.00     0.000 C 
BRANCH   2   3
ATOM      3  C   UNL     1       1.070  -6.597  -9.394  1.00  0.00     0.000 C 
BRANCH   3   4
ATOM      4  C   UNL     1       0.941  -6.655  -7.864  1.00  0.00     0.000 C 
BRANCH   4   5
ATOM      5  C   UNL     1      -0.482  -7.010  -7.403  1.00  0.00     0.000 C 
BRANCH   5   6
ATOM      6  C   UNL     1      -1.210  -5.809  -6.774  1.00  0.00     0.000 C 
BRANCH   6   7
ATOM      7  C   UNL     1      -2.397  -6.223  -5.885  1.00  0.00     0.000 C 
BRANCH   7   8
ATOM      8  C   UNL     1      -3.784  -5.820  -6.414  1.00  0.00     0.000 C 
BRANCH   8   9
ATOM      9  C   UNL     1      -4.934  -6.288  -5.509  1.00  0.00     0.000 C 
BRANCH   9  10
ATOM     10  C   UNL     1      -6.246  -5.578  -5.877  1.00  0.00     0.000 C 
BRANCH  10  11
ATOM     11  C   UNL     1      -7.114  -6.391  -6.854  1.00  0.00     0.000 C 
BRANCH  11  12
ATOM     12  C   UNL     1      -7.739  -5.576  -8.004  1.00  0.00     0.006 C 
BRANCH  12  13
ATOM     13  C   UNL     1      -7.753  -4.057  -7.771  1.00  0.00     0.053 C 
BRANCH  13  14
ATOM     14  C   UNL     1      -7.027  -3.315  -8.851  1.00  0.00     0.041 C 
ATOM     15  O   UNL     1      -7.500  -3.271 -10.017  1.00  0.00    -0.550 OA
ATOM     16  O   UNL     1      -5.820  -2.685  -8.572  1.00  0.00    -0.550 OA
ENDBRANCH  13  14
ENDBRANCH  12  13
ENDBRANCH  11  12
ENDBRANCH  10  11
ENDBRANCH   9  10
ENDBRANCH   8   9
ENDBRANCH   7   8
ENDBRANCH   6   7
ENDBRANCH   5   6
ENDBRANCH   4   5
ENDBRANCH   3   4
ENDBRANCH   2   3
ENDBRANCH   1   2
BRANCH   1  17
ATOM     17  C   UNL     1       4.253  -4.363 -10.125  1.00  0.00     0.000 C 
BRANCH  17  18
ATOM     18  C   UNL     1       4.909  -3.515  -9.017  1.00  0.00     0.000 C 
BRANCH  18  19
ATOM     19  C   UNL     1       6.105  -4.183  -8.310  1.00  0.00     0.000 C 
BRANCH  19  20
ATOM     20  C   UNL     1       7.371  -4.334  -9.178  1.00  0.00     0.000 C 
BRANCH  20  21
ATOM     21  C   UNL     1       8.604  -4.894  -8.442  1.00  0.00     0.000 C 
BRANCH  21  22
ATOM     22  C   UNL     1       9.702  -5.469  -9.355  1.00  0.00    -0.000 C 
BRANCH  22  23
ATOM     23  C   UNL     1      10.165  -6.868  -8.924  1.00  0.00    -0.000 C 
BRANCH  23  24
ATOM     24  C   UNL     1      11.662  -6.869  -8.576  1.00  0.00    -0.000 C 
BRANCH  24  25
ATOM     25  C   UNL     1      11.919  -6.975  -7.065  1.00  0.00    -0.000 C 
BRANCH  25  26
ATOM     26  C   UNL     1      10.811  -7.744  -6.328  1.00  0.00    -0.000 C 
BRANCH  26  27
ATOM     27  C   UNL     1      10.818  -7.412  -4.830  1.00  0.00    -0.000 C 
BRANCH  27  28
ATOM     28  C   UNL     1      11.739  -6.219  -4.534  1.00  0.00    -0.000 C 
BRANCH  28  29
ATOM     29  C   UNL     1      11.115  -4.876  -4.941  1.00  0.00    -0.003 C 
ATOM     30  C   UNL     1      11.622  -3.707  -4.095  1.00  0.00     0.004 C 
ENDBRANCH  28  29
ENDBRANCH  27  28
ENDBRANCH  26  27
ENDBRANCH  25  26
ENDBRANCH  24  25
ENDBRANCH  23  24
ENDBRANCH  22  23
ENDBRANCH  21  22
ENDBRANCH  20  21
ENDBRANCH  19  20
ENDBRANCH  18  19
ENDBRANCH  17  18
ENDBRANCH   1  17
TORSDOF 26
ENDMDL
MODEL 5
REMARK VINA RESULT:     3.918      1.351      2.989
REMARK INTER + INTRA:           7.849
REMARK INTER:                   9.643
REMARK INTRA:                  -1.794
REMARK UNBOUND:                -2.025
REMARK SMILES CCCCCCCCCCCCCCCCCCCCCCCCCCCC(=O)[O-]
REMARK SMILES IDX 15 1 16 2 17 3 18 4 19 5 20 6 21 7 22 8 23 9 24 10 25 11
REMARK SMILES IDX 26 12 27 13 28 14 29 15 30 16 14 17 13 18 12 19 11 20 10 21
REMARK SMILES IDX 9 22 8 23 7 24 6 25 5 26 4 27 3 28 2 29 1 30
REMARK H PARENT
REMARK Flexibility Score: inf
ROOT
ATOM      1  C   UNL     1      -1.333  -5.915  -6.792  1.00  0.00     0.000 C 
ENDROOT
BRANCH   1   2
ATOM      2  C   UNL     1      -0.114  -6.804  -7.096  1.00  0.00     0.000 C 
BRANCH   2   3
ATOM      3  C   UNL     1      -0.095  -7.313  -8.545  1.00  0.00     0.000 C 
BRANCH   3   4
ATOM      4  C   UNL     1       1.345  -7.407  -9.071  1.00  0.00     0.000 C 
BRANCH   4   5
ATOM      5  C   UNL     1       1.743  -6.194  -9.929  1.00  0.00     0.000 C 
BRANCH   5   6
ATOM      6  C   UNL     1       2.600  -5.182  -9.149  1.00  0.00     0.000 C 
BRANCH   6   7
ATOM      7  C   UNL     1       3.400  -4.238 -10.067  1.00  0.00     0.000 C 
BRANCH   7   8
ATOM      8  C   UNL     1       4.914  -4.509 -10.125  1.00  0.00     0.000 C 
BRANCH   8   9
ATOM      9  C   UNL     1       5.743  -3.467  -9.358  1.00  0.00     0.000 C 
BRANCH   9  10
ATOM     10  C   UNL     1       6.677  -4.147  -8.346  1.00  0.00     0.000 C 
BRANCH  10  11
ATOM     11  C   UNL     1       8.102  -4.354  -8.890  1.00  0.00     0.000 C 
BRANCH  11  12
ATOM     12  C   UNL     1       8.756  -5.698  -8.509  1.00  0.00     0.006 C 
BRANCH  12  13
ATOM     13  C   UNL     1      10.036  -6.027  -9.293  1.00  0.00     0.053 C 
BRANCH  13  14
ATOM     14  C   UNL     1      11.272  -5.687  -8.518  1.00  0.00     0.041 C 
ATOM     15  O   UNL     1      11.699  -6.472  -7.630  1.00  0.00    -0.550 OA
ATOM     16  O   UNL     1      11.946  -4.497  -8.767  1.00  0.00    -0.550 OA
ENDBRANCH  13  14
ENDBRANCH  12  13
ENDBRANCH  11  12
ENDBRANCH  10  11
ENDBRANCH   9  10
ENDBRANCH   8   9
ENDBRANCH   7   8
ENDBRANCH   6   7
ENDBRANCH   5   6
ENDBRANCH   4   5
ENDBRANCH   3   4
ENDBRANCH   2   3
ENDBRANCH   1   2
BRANCH   1  17
ATOM     17  C   UNL     1      -2.123  -6.304  -5.526  1.00  0.00     0.000 C 
BRANCH  17  18
ATOM     18  C   UNL     1      -3.651  -6.393  -5.711  1.00  0.00     0.000 C 
BRANCH  18  19
ATOM     19  C   UNL     1      -4.145  -6.157  -7.153  1.00  0.00     0.000 C 
BRANCH  19  20
ATOM     20  C   UNL     1      -5.671  -6.270  -7.342  1.00  0.00     0.000 C 
BRANCH  20  21
ATOM     21  C   UNL     1      -6.217  -5.633  -8.636  1.00  0.00     0.000 C 
BRANCH  21  22
ATOM     22  C   UNL     1      -5.255  -4.656  -9.336  1.00  0.00    -0.000 C 
BRANCH  22  23
ATOM     23  C   UNL     1      -5.605  -3.184  -9.073  1.00  0.00    -0.000 C 
BRANCH  23  24
ATOM     24  C   UNL     1      -7.077  -2.900  -9.410  1.00  0.00    -0.000 C 
BRANCH  24  25
ATOM     25  C   UNL     1      -7.521  -1.491  -8.989  1.00  0.00    -0.000 C 
BRANCH  25  26
ATOM     26  C   UNL     1      -8.030  -1.439  -7.539  1.00  0.00    -0.000 C 
BRANCH  26  27
ATOM     27  C   UNL     1      -8.124  -2.850  -6.941  1.00  0.00    -0.000 C 
BRANCH  27  28
ATOM     28  C   UNL     1      -7.406  -2.921  -5.585  1.00  0.00    -0.000 C 
BRANCH  28  29
ATOM     29  C   UNL     1      -7.122  -4.365  -5.143  1.00  0.00    -0.003 C 
ATOM     30  C   UNL     1      -8.054  -4.835  -4.025  1.00  0.00     0.004 C 
ENDBRANCH  28  29
ENDBRANCH  27  28
ENDBRANCH  26  27
ENDBRANCH  25  26
ENDBRANCH  24  25
ENDBRANCH  23  24
ENDBRANCH  22  23
ENDBRANCH  21  22
ENDBRANCH  20  21
ENDBRANCH  19  20
ENDBRANCH  18  19
ENDBRANCH  17  18
ENDBRANCH   1  17
TORSDOF 26
ENDMDL
MODEL 6
REMARK VINA RESULT:     4.083      4.294     14.127
REMARK INTER + INTRA:           8.263
REMARK INTER:                   7.756
REMARK INTRA:                   0.507
REMARK UNBOUND:                -2.025
REMARK SMILES CCCCCCCCCCCCCCCCCCCCCCCCCCCC(=O)[O-]
REMARK SMILES IDX 15 1 16 2 17 3 18 4 19 5 20 6 21 7 22 8 23 9 24 10 25 11
REMARK SMILES IDX 26 12 27 13 28 14 29 15 30 16 14 17 13 18 12 19 11 20 10 21
REMARK SMILES IDX 9 22 8 23 7 24 6 25 5 26 4 27 3 28 2 29 1 30
REMARK H PARENT
REMARK Flexibility Score: inf
ROOT
ATOM      1  C   UNL     1       2.793  -4.728  -9.953  1.00  0.00     0.000 C 
ENDROOT
BRANCH   1   2
ATOM      2  C   UNL     1       2.703  -6.197  -9.504  1.00  0.00     0.000 C 
BRANCH   2   3
ATOM      3  C   UNL     1       1.255  -6.680  -9.332  1.00  0.00     0.000 C 
BRANCH   3   4
ATOM      4  C   UNL     1       0.822  -6.593  -7.860  1.00  0.00     0.000 C 
BRANCH   4   5
ATOM      5  C   UNL     1      -0.692  -6.786  -7.676  1.00  0.00     0.000 C 
BRANCH   5   6
ATOM      6  C   UNL     1      -1.274  -5.854  -6.599  1.00  0.00     0.000 C 
BRANCH   6   7
ATOM      7  C   UNL     1      -2.456  -6.480  -5.836  1.00  0.00     0.000 C 
BRANCH   7   8
ATOM      8  C   UNL     1      -3.831  -5.855  -6.129  1.00  0.00     0.000 C 
BRANCH   8   9
ATOM      9  C   UNL     1      -4.950  -6.416  -5.239  1.00  0.00     0.000 C 
BRANCH   9  10
ATOM     10  C   UNL     1      -6.175  -5.489  -5.249  1.00  0.00     0.000 C 
BRANCH  10  11
ATOM     11  C   UNL     1      -6.536  -4.986  -6.659  1.00  0.00     0.000 C 
BRANCH  11  12
ATOM     12  C   UNL     1      -7.696  -3.971  -6.712  1.00  0.00     0.006 C 
BRANCH  12  13
ATOM     13  C   UNL     1      -7.292  -2.569  -7.195  1.00  0.00     0.053 C 
BRANCH  13  14
ATOM     14  C   UNL     1      -6.715  -2.595  -8.577  1.00  0.00     0.041 C 
ATOM     15  O   UNL     1      -5.919  -3.511  -8.914  1.00  0.00    -0.550 OA
ATOM     16  O   UNL     1      -7.046  -1.599  -9.489  1.00  0.00    -0.550 OA
ENDBRANCH  13  14
ENDBRANCH  12  13
ENDBRANCH  11  12
ENDBRANCH  10  11
ENDBRANCH   9  10
ENDBRANCH   8   9
ENDBRANCH   7   8
ENDBRANCH   6   7
ENDBRANCH   5   6
ENDBRANCH   4   5
ENDBRANCH   3   4
ENDBRANCH   2   3
ENDBRANCH   1   2
BRANCH   1  17
ATOM     17  C   UNL     1       4.227  -4.186 -10.125  1.00  0.00     0.000 C 
BRANCH  17  18
ATOM     18  C   UNL     1       5.005  -3.968  -8.812  1.00  0.00     0.000 C 
BRANCH  18  19
ATOM     19  C   UNL     1       6.453  -4.497  -8.819  1.00  0.00     0.000 C 
BRANCH  19  20
ATOM     20  C   UNL     1       7.080  -4.692  -7.424  1.00  0.00     0.000 C 
BRANCH  20  21
ATOM     21  C   UNL     1       8.167  -5.782  -7.343  1.00  0.00     0.000 C 
BRANCH  21  22
ATOM     22  C   UNL     1       8.995  -5.780  -6.046  1.00  0.00    -0.000 C 
BRANCH  22  23
ATOM     23  C   UNL     1      10.493  -5.546  -6.294  1.00  0.00    -0.000 C 
BRANCH  23  24
ATOM     24  C   UNL     1      11.166  -6.818  -6.833  1.00  0.00    -0.000 C 
BRANCH  24  25
ATOM     25  C   UNL     1      10.418  -7.422  -8.031  1.00  0.00    -0.000 C 
BRANCH  25  26
ATOM     26  C   UNL     1      11.363  -7.850  -9.165  1.00  0.00    -0.000 C 
BRANCH  26  27
ATOM     27  C   UNL     1      11.637  -6.681 -10.120  1.00  0.00    -0.000 C 
BRANCH  27  28
ATOM     28  C   UNL     1      11.714  -5.351  -9.355  1.00  0.00    -0.000 C 
BRANCH  28  29
ATOM     29  C   UNL     1      11.063  -4.190 -10.124  1.00  0.00    -0.003 C 
ATOM     30  C   UNL     1       9.557  -4.090  -9.879  1.00  0.00     0.004 C 
ENDBRANCH  28  29
ENDBRANCH  27  28
ENDBRANCH  26  27
ENDBRANCH  25  26
ENDBRANCH  24  25
ENDBRANCH  23  24
ENDBRANCH  22  23
ENDBRANCH  21  22
ENDBRANCH  20  21
ENDBRANCH  19  20
ENDBRANCH  18  19
ENDBRANCH  17  18
ENDBRANCH   1  17
TORSDOF 26
ENDMDL
MODEL 7
REMARK VINA RESULT:     4.216      1.369      3.598
REMARK INTER + INTRA:           8.599
REMARK INTER:                   9.549
REMARK INTRA:                  -0.950
REMARK UNBOUND:                -2.025
REMARK SMILES CCCCCCCCCCCCCCCCCCCCCCCCCCCC(=O)[O-]
REMARK SMILES IDX 15 1 16 2 17 3 18 4 19 5 20 6 21 7 22 8 23 9 24 10 25 11
REMARK SMILES IDX 26 12 27 13 28 14 29 15 30 16 14 17 13 18 12 19 11 20 10 21
REMARK SMILES IDX 9 22 8 23 7 24 6 25 5 26 4 27 3 28 2 29 1 30
REMARK H PARENT
REMARK Flexibility Score: inf
ROOT
ATOM      1  C   UNL     1      -2.762  -5.486  -6.064  1.00  0.00     0.000 C 
ENDROOT
BRANCH   1   2
ATOM      2  C   UNL     1      -1.329  -6.043  -6.122  1.00  0.00     0.000 C 
BRANCH   2   3
ATOM      3  C   UNL     1      -1.013  -6.737  -7.456  1.00  0.00     0.000 C 
BRANCH   3   4
ATOM      4  C   UNL     1       0.487  -6.650  -7.775  1.00  0.00     0.000 C 
BRANCH   4   5
ATOM      5  C   UNL     1       0.951  -7.748  -8.746  1.00  0.00     0.000 C 
BRANCH   5   6
ATOM      6  C   UNL     1       1.341  -7.185 -10.124  1.00  0.00     0.000 C 
BRANCH   6   7
ATOM      7  C   UNL     1       2.531  -6.209 -10.060  1.00  0.00     0.000 C 
BRANCH   7   8
ATOM      8  C   UNL     1       2.367  -5.040  -9.073  1.00  0.00     0.000 C 
BRANCH   8   9
ATOM      9  C   UNL     1       3.137  -3.780  -9.497  1.00  0.00     0.000 C 
BRANCH   9  10
ATOM     10  C   UNL     1       4.545  -4.139  -9.997  1.00  0.00     0.000 C 
BRANCH  10  11
ATOM     11  C   UNL     1       5.590  -4.180  -8.866  1.00  0.00     0.000 C 
BRANCH  11  12
ATOM     12  C   UNL     1       7.014  -4.571  -9.310  1.00  0.00     0.006 C 
BRANCH  12  13
ATOM     13  C   UNL     1       8.028  -4.686  -8.161  1.00  0.00     0.053 C 
BRANCH  13  14
ATOM     14  C   UNL     1       8.446  -6.104  -7.920  1.00  0.00     0.041 C 
ATOM     15  O   UNL     1       8.842  -6.820  -8.878  1.00  0.00    -0.550 OA
ATOM     16  O   UNL     1       8.384  -6.640  -6.639  1.00  0.00    -0.550 OA
ENDBRANCH  13  14
ENDBRANCH  12  13
ENDBRANCH  11  12
ENDBRANCH  10  11
ENDBRANCH   9  10
ENDBRANCH   8   9
ENDBRANCH   7   8
ENDBRANCH   6   7
ENDBRANCH   5   6
ENDBRANCH   4   5
ENDBRANCH   3   4
ENDBRANCH   2   3
ENDBRANCH   1   2
BRANCH   1  17
ATOM     17  C   UNL     1      -3.634  -6.050  -4.924  1.00  0.00     0.000 C 
BRANCH  17  18
ATOM     18  C   UNL     1      -4.439  -7.316  -5.281  1.00  0.00     0.000 C 
BRANCH  18  19
ATOM     19  C   UNL     1      -5.668  -7.071  -6.179  1.00  0.00     0.000 C 
BRANCH  19  20
ATOM     20  C   UNL     1      -5.877  -8.117  -7.293  1.00  0.00     0.000 C 
BRANCH  20  21
ATOM     21  C   UNL     1      -7.238  -8.042  -8.012  1.00  0.00     0.000 C 
BRANCH  21  22
ATOM     22  C   UNL     1      -7.160  -7.973  -9.548  1.00  0.00    -0.000 C 
BRANCH  22  23
ATOM     23  C   UNL     1      -7.236  -6.536 -10.085  1.00  0.00    -0.000 C 
BRANCH  23  24
ATOM     24  C   UNL     1      -6.357  -5.591  -9.252  1.00  0.00    -0.000 C 
BRANCH  24  25
ATOM     25  C   UNL     1      -7.155  -4.435  -8.627  1.00  0.00    -0.000 C 
BRANCH  25  26
ATOM     26  C   UNL     1      -6.263  -3.445  -7.862  1.00  0.00    -0.000 C 
BRANCH  26  27
ATOM     27  C   UNL     1      -7.110  -2.473  -7.031  1.00  0.00    -0.000 C 
BRANCH  27  28
ATOM     28  C   UNL     1      -8.117  -3.232  -6.153  1.00  0.00    -0.000 C 
BRANCH  28  29
ATOM     29  C   UNL     1      -7.454  -3.899  -4.938  1.00  0.00    -0.003 C 
ATOM     30  C   UNL     1      -7.995  -3.374  -3.608  1.00  0.00     0.004 C 
ENDBRANCH  28  29
ENDBRANCH  27  28
ENDBRANCH  26  27
ENDBRANCH  25  26
ENDBRANCH  24  25
ENDBRANCH  23  24
ENDBRANCH  22  23
ENDBRANCH  21  22
ENDBRANCH  20  21
ENDBRANCH  19  20
ENDBRANCH  18  19
ENDBRANCH  17  18
ENDBRANCH   1  17
TORSDOF 26
ENDMDL
