MODEL 1
REMARK VINA RESULT:    -7.965      0.000      0.000
REMARK INTER + INTRA:          -9.902
REMARK INTER:                  -9.595
REMARK INTRA:                  -0.307
REMARK UNBOUND:                -0.307
REMARK SMILES O=c1c(O)c(-c2ccc(O)c(O)c2)oc2cc(O)cc(O)c12
REMARK SMILES IDX 5 1 3 2 2 3 1 4 22 5 20 6 19 7 17 8 16 9 15 10 14 11 6 12
REMARK SMILES IDX 7 13 8 14 9 15 13 16 11 17 10 18 12 20 4 22 21 24 18 26
REMARK H PARENT 10 19 12 21 4 23 21 25 18 27
REMARK Flexibility Score: inf
ROOT
ATOM      1  C   UNL     1       6.692 -55.893 -29.230  1.00  0.00     0.180 A 
ATOM      2  C   UNL     1       5.367 -55.492 -29.472  1.00  0.00     0.208 A 
ATOM      3  C   UNL     1       4.385 -55.765 -28.506  1.00  0.00     0.238 A 
ATOM      4  O   UNL     1       3.191 -55.453 -28.752  1.00  0.00    -0.285 OA
ATOM      5  C   UNL     1       4.743 -56.420 -27.304  1.00  0.00     0.111 A 
ATOM      6  C   UNL     1       3.839 -56.711 -26.238  1.00  0.00     0.134 A 
ATOM      7  C   UNL     1       4.276 -57.479 -25.152  1.00  0.00     0.093 A 
ATOM      8  C   UNL     1       5.601 -57.911 -25.061  1.00  0.00     0.123 A 
ATOM      9  C   UNL     1       6.506 -57.581 -26.067  1.00  0.00     0.094 A 
ATOM     10  C   UNL     1       6.092 -56.847 -27.181  1.00  0.00     0.146 A 
ATOM     11  O   UNL     1       6.984 -56.564 -28.122  1.00  0.00    -0.452 OA
ENDROOT
BRANCH   1  12
ATOM     12  C   UNL     1       7.785 -55.618 -30.189  1.00  0.00     0.025 A 
ATOM     13  C   UNL     1       8.392 -54.353 -30.201  1.00  0.00     0.016 A 
ATOM     14  C   UNL     1       9.412 -54.065 -31.112  1.00  0.00     0.051 A 
ATOM     15  C   UNL     1       9.829 -55.029 -32.034  1.00  0.00     0.157 A 
ATOM     16  C   UNL     1       8.192 -56.581 -31.132  1.00  0.00     0.062 A 
ATOM     17  C   UNL     1       9.215 -56.293 -32.047  1.00  0.00     0.158 A 
BRANCH  15  18
ATOM     18  O   UNL     1      10.851 -54.714 -32.929  1.00  0.00    -0.504 OA
ATOM     19  H   UNL     1      11.226 -55.395 -33.580  1.00  0.00     0.293 HD
ENDBRANCH  15  18
BRANCH  17  20
ATOM     20  O   UNL     1       9.617 -57.254 -32.974  1.00  0.00    -0.504 OA
ATOM     21  H   UNL     1       9.678 -58.236 -32.728  1.00  0.00     0.293 HD
ENDBRANCH  17  20
ENDBRANCH   1  12
BRANCH   2  22
ATOM     22  O   UNL     1       5.030 -54.866 -30.676  1.00  0.00    -0.502 OA
ATOM     23  H   UNL     1       5.528 -54.057 -31.027  1.00  0.00     0.293 HD
ENDBRANCH   2  22
BRANCH   6  24
ATOM     24  O   UNL     1       2.521 -56.250 -26.186  1.00  0.00    -0.507 OA
ATOM     25  H   UNL     1       1.753 -56.644 -26.708  1.00  0.00     0.293 HD
ENDBRANCH   6  24
BRANCH   8  26
ATOM     26  O   UNL     1       6.032 -58.662 -23.969  1.00  0.00    -0.508 OA
ATOM     27  H   UNL     1       6.462 -59.572 -24.089  1.00  0.00     0.293 HD
ENDBRANCH   8  26
TORSDOF 6
ENDMDL
MODEL 2
REMARK VINA RESULT:    -7.942      1.575      6.689
REMARK INTER + INTRA:          -9.874
REMARK INTER:                  -9.901
REMARK INTRA:                   0.027
REMARK UNBOUND:                -0.307
REMARK SMILES O=c1c(O)c(-c2ccc(O)c(O)c2)oc2cc(O)cc(O)c12
REMARK SMILES IDX 5 1 3 2 2 3 1 4 22 5 20 6 19 7 17 8 16 9 15 10 14 11 6 12
REMARK SMILES IDX 7 13 8 14 9 15 13 16 11 17 10 18 12 20 4 22 21 24 18 26
REMARK H PARENT 10 19 12 21 4 23 21 25 18 27
REMARK Flexibility Score: inf
ROOT
ATOM      1  C   UNL     1       5.668 -55.877 -28.528  1.00  0.00     0.180 A 
ATOM      2  C   UNL     1       5.188 -55.682 -29.835  1.00  0.00     0.208 A 
ATOM      3  C   UNL     1       6.101 -55.368 -30.855  1.00  0.00     0.238 A 
ATOM      4  O   UNL     1       5.659 -55.141 -32.012  1.00  0.00    -0.285 OA
ATOM      5  C   UNL     1       7.481 -55.270 -30.560  1.00  0.00     0.111 A 
ATOM      6  C   UNL     1       8.499 -54.997 -31.523  1.00  0.00     0.134 A 
ATOM      7  C   UNL     1       9.817 -54.793 -31.096  1.00  0.00     0.093 A 
ATOM      8  C   UNL     1      10.165 -54.917 -29.749  1.00  0.00     0.123 A 
ATOM      9  C   UNL     1       9.190 -55.241 -28.810  1.00  0.00     0.094 A 
ATOM     10  C   UNL     1       7.859 -55.415 -29.199  1.00  0.00     0.146 A 
ATOM     11  O   UNL     1       6.960 -55.713 -28.270  1.00  0.00    -0.452 OA
ENDROOT
BRANCH   1  12
ATOM     12  C   UNL     1       4.771 -56.235 -27.406  1.00  0.00     0.025 A 
ATOM     13  C   UNL     1       3.629 -55.457 -27.159  1.00  0.00     0.016 A 
ATOM     14  C   UNL     1       2.780 -55.764 -26.093  1.00  0.00     0.051 A 
ATOM     15  C   UNL     1       3.067 -56.841 -25.248  1.00  0.00     0.157 A 
ATOM     16  C   UNL     1       5.069 -57.305 -26.542  1.00  0.00     0.062 A 
ATOM     17  C   UNL     1       4.218 -57.614 -25.471  1.00  0.00     0.158 A 
BRANCH  15  18
ATOM     18  O   UNL     1       2.200 -57.124 -24.194  1.00  0.00    -0.504 OA
ATOM     19  H   UNL     1       2.516 -57.162 -23.232  1.00  0.00     0.293 HD
ENDBRANCH  15  18
BRANCH  17  20
ATOM     20  O   UNL     1       4.518 -58.680 -24.623  1.00  0.00    -0.504 OA
ATOM     21  H   UNL     1       3.815 -59.090 -24.018  1.00  0.00     0.293 HD
ENDBRANCH  17  20
ENDBRANCH   1  12
BRANCH   2  22
ATOM     22  O   UNL     1       3.818 -55.762 -30.101  1.00  0.00    -0.502 OA
ATOM     23  H   UNL     1       3.359 -55.161 -30.775  1.00  0.00     0.293 HD
ENDBRANCH   2  22
BRANCH   6  24
ATOM     24  O   UNL     1       8.274 -54.944 -32.901  1.00  0.00    -0.507 OA
ATOM     25  H   UNL     1       8.503 -55.681 -33.551  1.00  0.00     0.293 HD
ENDBRANCH   6  24
BRANCH   8  26
ATOM     26  O   UNL     1      11.482 -54.727 -29.335  1.00  0.00    -0.508 OA
ATOM     27  H   UNL     1      11.938 -55.377 -28.704  1.00  0.00     0.293 HD
ENDBRANCH   8  26
TORSDOF 6
ENDMDL
MODEL 3
REMARK VINA RESULT:    -7.883      2.065      3.779
REMARK INTER + INTRA:          -9.803
REMARK INTER:                  -9.725
REMARK INTRA:                  -0.077
REMARK UNBOUND:                -0.307
REMARK SMILES O=c1c(O)c(-c2ccc(O)c(O)c2)oc2cc(O)cc(O)c12
REMARK SMILES IDX 5 1 3 2 2 3 1 4 22 5 20 6 19 7 17 8 16 9 15 10 14 11 6 12
REMARK SMILES IDX 7 13 8 14 9 15 13 16 11 17 10 18 12 20 4 22 21 24 18 26
REMARK H PARENT 10 19 12 21 4 23 21 25 18 27
REMARK Flexibility Score: inf
ROOT
ATOM      1  C   UNL     1       5.604 -56.241 -27.580  1.00  0.00     0.180 A 
ATOM      2  C   UNL     1       5.566 -57.250 -26.602  1.00  0.00     0.208 A 
ATOM      3  C   UNL     1       4.472 -57.305 -25.724  1.00  0.00     0.238 A 
ATOM      4  O   UNL     1       4.469 -58.176 -24.815  1.00  0.00    -0.285 OA
ATOM      5  C   UNL     1       3.423 -56.362 -25.844  1.00  0.00     0.111 A 
ATOM      6  C   UNL     1       2.247 -56.349 -25.034  1.00  0.00     0.134 A 
ATOM      7  C   UNL     1       1.338 -55.291 -25.156  1.00  0.00     0.093 A 
ATOM      8  C   UNL     1       1.528 -54.282 -26.102  1.00  0.00     0.123 A 
ATOM      9  C   UNL     1       2.641 -54.318 -26.938  1.00  0.00     0.094 A 
ATOM     10  C   UNL     1       3.586 -55.340 -26.817  1.00  0.00     0.146 A 
ATOM     11  O   UNL     1       4.638 -55.331 -27.625  1.00  0.00    -0.452 OA
ENDROOT
BRANCH   1  12
ATOM     12  C   UNL     1       6.711 -56.133 -28.557  1.00  0.00     0.025 A 
ATOM     13  C   UNL     1       6.434 -56.232 -29.930  1.00  0.00     0.016 A 
ATOM     14  C   UNL     1       7.465 -56.154 -30.868  1.00  0.00     0.051 A 
ATOM     15  C   UNL     1       8.790 -55.993 -30.451  1.00  0.00     0.157 A 
ATOM     16  C   UNL     1       8.047 -55.992 -28.138  1.00  0.00     0.062 A 
ATOM     17  C   UNL     1       9.084 -55.915 -29.079  1.00  0.00     0.158 A 
BRANCH  15  18
ATOM     18  O   UNL     1       9.799 -55.917 -31.411  1.00  0.00    -0.504 OA
ATOM     19  H   UNL     1      10.771 -55.780 -31.161  1.00  0.00     0.293 HD
ENDBRANCH  15  18
BRANCH  17  20
ATOM     20  O   UNL     1      10.405 -55.768 -28.656  1.00  0.00    -0.504 OA
ATOM     21  H   UNL     1      10.902 -56.523 -28.197  1.00  0.00     0.293 HD
ENDBRANCH  17  20
ENDBRANCH   1  12
BRANCH   2  22
ATOM     22  O   UNL     1       6.622 -58.157 -26.485  1.00  0.00    -0.502 OA
ATOM     23  H   UNL     1       6.495 -59.098 -26.132  1.00  0.00     0.293 HD
ENDBRANCH   2  22
BRANCH   6  24
ATOM     24  O   UNL     1       1.916 -57.356 -24.124  1.00  0.00    -0.507 OA
ATOM     25  H   UNL     1       2.582 -57.870 -23.569  1.00  0.00     0.293 HD
ENDBRANCH   6  24
BRANCH   8  26
ATOM     26  O   UNL     1       0.609 -53.241 -26.227  1.00  0.00    -0.508 OA
ATOM     27  H   UNL     1       0.533 -52.702 -27.081  1.00  0.00     0.293 HD
ENDBRANCH   8  26
TORSDOF 6
ENDMDL
MODEL 4
REMARK VINA RESULT:    -7.818      2.167      3.990
REMARK INTER + INTRA:          -9.724
REMARK INTER:                  -9.918
REMARK INTRA:                   0.194
REMARK UNBOUND:                -0.307
REMARK SMILES O=c1c(O)c(-c2ccc(O)c(O)c2)oc2cc(O)cc(O)c12
REMARK SMILES IDX 5 1 3 2 2 3 1 4 22 5 20 6 19 7 17 8 16 9 15 10 14 11 6 12
REMARK SMILES IDX 7 13 8 14 9 15 13 16 11 17 10 18 12 20 4 22 21 24 18 26
REMARK H PARENT 10 19 12 21 4 23 21 25 18 27
REMARK Flexibility Score: inf
ROOT
ATOM      1  C   UNL     1       4.846 -56.031 -27.652  1.00  0.00     0.180 A 
ATOM      2  C   UNL     1       4.934 -57.041 -26.678  1.00  0.00     0.208 A 
ATOM      3  C   UNL     1       3.958 -57.101 -25.670  1.00  0.00     0.238 A 
ATOM      4  O   UNL     1       4.071 -57.973 -24.769  1.00  0.00    -0.285 OA
ATOM      5  C   UNL     1       2.898 -56.162 -25.658  1.00  0.00     0.111 A 
ATOM      6  C   UNL     1       1.832 -56.154 -24.709  1.00  0.00     0.134 A 
ATOM      7  C   UNL     1       0.911 -55.100 -24.715  1.00  0.00     0.093 A 
ATOM      8  C   UNL     1       0.977 -54.090 -25.677  1.00  0.00     0.123 A 
ATOM      9  C   UNL     1       1.979 -54.121 -26.644  1.00  0.00     0.094 A 
ATOM     10  C   UNL     1       2.935 -55.140 -26.642  1.00  0.00     0.146 A 
ATOM     11  O   UNL     1       3.878 -55.126 -27.576  1.00  0.00    -0.452 OA
ENDROOT
BRANCH   1  12
ATOM     12  C   UNL     1       5.823 -55.919 -28.759  1.00  0.00     0.025 A 
ATOM     13  C   UNL     1       7.187 -56.129 -28.501  1.00  0.00     0.016 A 
ATOM     14  C   UNL     1       8.128 -56.008 -29.526  1.00  0.00     0.051 A 
ATOM     15  C   UNL     1       7.725 -55.659 -30.819  1.00  0.00     0.157 A 
ATOM     16  C   UNL     1       5.422 -55.548 -30.055  1.00  0.00     0.062 A 
ATOM     17  C   UNL     1       6.366 -55.424 -31.085  1.00  0.00     0.158 A 
BRANCH  15  18
ATOM     18  O   UNL     1       8.687 -55.548 -31.822  1.00  0.00    -0.504 OA
ATOM     19  H   UNL     1       9.178 -54.680 -32.003  1.00  0.00     0.293 HD
ENDBRANCH  15  18
BRANCH  17  20
ATOM     20  O   UNL     1       5.959 -55.062 -32.369  1.00  0.00    -0.504 OA
ATOM     21  H   UNL     1       5.223 -55.563 -32.854  1.00  0.00     0.293 HD
ENDBRANCH  17  20
ENDBRANCH   1  12
BRANCH   2  22
ATOM     22  O   UNL     1       6.000 -57.944 -26.694  1.00  0.00    -0.502 OA
ATOM     23  H   UNL     1       5.908 -58.889 -27.048  1.00  0.00     0.293 HD
ENDBRANCH   2  22
BRANCH   6  24
ATOM     24  O   UNL     1       1.621 -57.163 -23.765  1.00  0.00    -0.507 OA
ATOM     25  H   UNL     1       1.041 -57.975 -23.911  1.00  0.00     0.293 HD
ENDBRANCH   6  24
BRANCH   8  26
ATOM     26  O   UNL     1       0.047 -53.053 -25.685  1.00  0.00    -0.508 OA
ATOM     27  H   UNL     1      -0.899 -53.187 -25.345  1.00  0.00     0.293 HD
ENDBRANCH   8  26
TORSDOF 6
ENDMDL
MODEL 5
REMARK VINA RESULT:    -7.723      1.708      3.205
REMARK INTER + INTRA:          -9.610
REMARK INTER:                 -10.014
REMARK INTRA:                   0.404
REMARK UNBOUND:                -0.307
REMARK SMILES O=c1c(O)c(-c2ccc(O)c(O)c2)oc2cc(O)cc(O)c12
REMARK SMILES IDX 5 1 3 2 2 3 1 4 22 5 20 6 19 7 17 8 16 9 15 10 14 11 6 12
REMARK SMILES IDX 7 13 8 14 9 15 13 16 11 17 10 18 12 20 4 22 21 24 18 26
REMARK H PARENT 10 19 12 21 4 23 21 25 18 27
REMARK Flexibility Score: inf
ROOT
ATOM      1  C   UNL     1       5.821 -55.941 -28.673  1.00  0.00     0.180 A 
ATOM      2  C   UNL     1       6.334 -56.746 -27.641  1.00  0.00     0.208 A 
ATOM      3  C   UNL     1       5.528 -57.011 -26.522  1.00  0.00     0.238 A 
ATOM      4  O   UNL     1       6.011 -57.687 -25.575  1.00  0.00    -0.285 OA
ATOM      5  C   UNL     1       4.216 -56.484 -26.456  1.00  0.00     0.111 A 
ATOM      6  C   UNL     1       3.298 -56.723 -25.389  1.00  0.00     0.134 A 
ATOM      7  C   UNL     1       2.074 -56.044 -25.367  1.00  0.00     0.093 A 
ATOM      8  C   UNL     1       1.707 -55.186 -26.405  1.00  0.00     0.123 A 
ATOM      9  C   UNL     1       2.571 -54.992 -27.480  1.00  0.00     0.094 A 
ATOM     10  C   UNL     1       3.815 -55.627 -27.514  1.00  0.00     0.146 A 
ATOM     11  O   UNL     1       4.612 -55.407 -28.552  1.00  0.00    -0.452 OA
ENDROOT
BRANCH   1  12
ATOM     12  C   UNL     1       6.601 -55.637 -29.894  1.00  0.00     0.025 A 
ATOM     13  C   UNL     1       5.931 -55.220 -31.056  1.00  0.00     0.016 A 
ATOM     14  C   UNL     1       6.644 -54.948 -32.225  1.00  0.00     0.051 A 
ATOM     15  C   UNL     1       8.033 -55.103 -32.259  1.00  0.00     0.157 A 
ATOM     16  C   UNL     1       7.996 -55.812 -29.936  1.00  0.00     0.062 A 
ATOM     17  C   UNL     1       8.714 -55.540 -31.110  1.00  0.00     0.158 A 
BRANCH  15  18
ATOM     18  O   UNL     1       8.719 -54.821 -33.440  1.00  0.00    -0.504 OA
ATOM     19  H   UNL     1       8.236 -54.617 -34.307  1.00  0.00     0.293 HD
ENDBRANCH  15  18
BRANCH  17  20
ATOM     20  O   UNL     1      10.097 -55.710 -31.141  1.00  0.00    -0.504 OA
ATOM     21  H   UNL     1      10.715 -54.978 -31.474  1.00  0.00     0.293 HD
ENDBRANCH  17  20
ENDBRANCH   1  12
BRANCH   2  22
ATOM     22  O   UNL     1       7.639 -57.238 -27.714  1.00  0.00    -0.502 OA
ATOM     23  H   UNL     1       8.414 -56.804 -27.226  1.00  0.00     0.293 HD
ENDBRANCH   2  22
BRANCH   6  24
ATOM     24  O   UNL     1       3.529 -57.630 -24.351  1.00  0.00    -0.507 OA
ATOM     25  H   UNL     1       2.810 -58.036 -23.772  1.00  0.00     0.293 HD
ENDBRANCH   6  24
BRANCH   8  26
ATOM     26  O   UNL     1       0.480 -54.525 -26.383  1.00  0.00    -0.508 OA
ATOM     27  H   UNL     1       0.251 -53.859 -25.654  1.00  0.00     0.293 HD
ENDBRANCH   8  26
TORSDOF 6
ENDMDL
MODEL 6
REMARK VINA RESULT:    -7.335      3.100      8.186
REMARK INTER + INTRA:          -9.142
REMARK INTER:                  -8.819
REMARK INTRA:                  -0.323
REMARK UNBOUND:                -0.307
REMARK SMILES O=c1c(O)c(-c2ccc(O)c(O)c2)oc2cc(O)cc(O)c12
REMARK SMILES IDX 5 1 3 2 2 3 1 4 22 5 20 6 19 7 17 8 16 9 15 10 14 11 6 12
REMARK SMILES IDX 7 13 8 14 9 15 13 16 11 17 10 18 12 20 4 22 21 24 18 26
REMARK H PARENT 10 19 12 21 4 23 21 25 18 27
REMARK Flexibility Score: inf
ROOT
ATOM      1  C   UNL     1       2.779 -55.248 -26.510  1.00  0.00     0.180 A 
ATOM      2  C   UNL     1       3.727 -56.053 -25.855  1.00  0.00     0.208 A 
ATOM      3  C   UNL     1       4.870 -56.466 -26.557  1.00  0.00     0.238 A 
ATOM      4  O   UNL     1       5.688 -57.232 -25.983  1.00  0.00    -0.285 OA
ATOM      5  C   UNL     1       5.060 -56.057 -27.899  1.00  0.00     0.111 A 
ATOM      6  C   UNL     1       6.201 -56.383 -28.693  1.00  0.00     0.134 A 
ATOM      7  C   UNL     1       6.220 -56.034 -30.049  1.00  0.00     0.093 A 
ATOM      8  C   UNL     1       5.171 -55.313 -30.623  1.00  0.00     0.123 A 
ATOM      9  C   UNL     1       4.081 -54.939 -29.842  1.00  0.00     0.094 A 
ATOM     10  C   UNL     1       4.014 -55.304 -28.495  1.00  0.00     0.146 A 
ATOM     11  O   UNL     1       2.953 -54.935 -27.789  1.00  0.00    -0.452 OA
ENDROOT
BRANCH   1  12
ATOM     12  C   UNL     1       1.562 -54.752 -25.829  1.00  0.00     0.025 A 
ATOM     13  C   UNL     1       0.338 -55.410 -26.035  1.00  0.00     0.016 A 
ATOM     14  C   UNL     1      -0.826 -54.946 -25.418  1.00  0.00     0.051 A 
ATOM     15  C   UNL     1      -0.791 -53.812 -24.601  1.00  0.00     0.157 A 
ATOM     16  C   UNL     1       1.591 -53.599 -25.023  1.00  0.00     0.062 A 
ATOM     17  C   UNL     1       0.422 -53.132 -24.404  1.00  0.00     0.158 A 
BRANCH  15  18
ATOM     18  O   UNL     1      -1.970 -53.375 -23.997  1.00  0.00    -0.504 OA
ATOM     19  H   UNL     1      -2.609 -54.014 -23.538  1.00  0.00     0.293 HD
ENDBRANCH  15  18
BRANCH  17  20
ATOM     20  O   UNL     1       0.461 -51.992 -23.602  1.00  0.00    -0.504 OA
ATOM     21  H   UNL     1      -0.335 -51.370 -23.525  1.00  0.00     0.293 HD
ENDBRANCH  17  20
ENDBRANCH   1  12
BRANCH   2  22
ATOM     22  O   UNL     1       3.510 -56.464 -24.537  1.00  0.00    -0.502 OA
ATOM     23  H   UNL     1       3.439 -55.810 -23.767  1.00  0.00     0.293 HD
ENDBRANCH   2  22
BRANCH   6  24
ATOM     24  O   UNL     1       7.341 -57.020 -28.195  1.00  0.00    -0.507 OA
ATOM     25  H   UNL     1       7.930 -57.643 -28.726  1.00  0.00     0.293 HD
ENDBRANCH   6  24
BRANCH   8  26
ATOM     26  O   UNL     1       5.206 -54.956 -31.970  1.00  0.00    -0.508 OA
ATOM     27  H   UNL     1       5.066 -55.642 -32.703  1.00  0.00     0.293 HD
ENDBRANCH   8  26
TORSDOF 6
ENDMDL
MODEL 7
REMARK VINA RESULT:    -7.270      2.719      7.979
REMARK INTER + INTRA:          -9.064
REMARK INTER:                  -9.150
REMARK INTRA:                   0.086
REMARK UNBOUND:                -0.307
REMARK SMILES O=c1c(O)c(-c2ccc(O)c(O)c2)oc2cc(O)cc(O)c12
REMARK SMILES IDX 5 1 3 2 2 3 1 4 22 5 20 6 19 7 17 8 16 9 15 10 14 11 6 12
REMARK SMILES IDX 7 13 8 14 9 15 13 16 11 17 10 18 12 20 4 22 21 24 18 26
REMARK H PARENT 10 19 12 21 4 23 21 25 18 27
REMARK Flexibility Score: inf
ROOT
ATOM      1  C   UNL     1       3.085 -55.584 -26.807  1.00  0.00     0.180 A 
ATOM      2  C   UNL     1       4.112 -56.318 -26.189  1.00  0.00     0.208 A 
ATOM      3  C   UNL     1       5.274 -56.612 -26.922  1.00  0.00     0.238 A 
ATOM      4  O   UNL     1       6.167 -57.316 -26.383  1.00  0.00    -0.285 OA
ATOM      5  C   UNL     1       5.401 -56.154 -28.255  1.00  0.00     0.111 A 
ATOM      6  C   UNL     1       6.550 -56.358 -29.077  1.00  0.00     0.134 A 
ATOM      7  C   UNL     1       6.513 -55.975 -30.423  1.00  0.00     0.093 A 
ATOM      8  C   UNL     1       5.393 -55.336 -30.960  1.00  0.00     0.123 A 
ATOM      9  C   UNL     1       4.290 -55.078 -30.150  1.00  0.00     0.094 A 
ATOM     10  C   UNL     1       4.282 -55.481 -28.813  1.00  0.00     0.146 A 
ATOM     11  O   UNL     1       3.206 -55.226 -28.079  1.00  0.00    -0.452 OA
ENDROOT
BRANCH   1  12
ATOM     12  C   UNL     1       1.842 -55.215 -26.092  1.00  0.00     0.025 A 
ATOM     13  C   UNL     1       1.376 -53.892 -26.154  1.00  0.00     0.016 A 
ATOM     14  C   UNL     1       0.217 -53.517 -25.470  1.00  0.00     0.051 A 
ATOM     15  C   UNL     1      -0.484 -54.450 -24.702  1.00  0.00     0.157 A 
ATOM     16  C   UNL     1       1.147 -56.148 -25.301  1.00  0.00     0.062 A 
ATOM     17  C   UNL     1      -0.016 -55.772 -24.613  1.00  0.00     0.158 A 
BRANCH  15  18
ATOM     18  O   UNL     1      -1.639 -54.047 -24.032  1.00  0.00    -0.504 OA
ATOM     19  H   UNL     1      -1.614 -53.685 -23.086  1.00  0.00     0.293 HD
ENDBRANCH  15  18
BRANCH  17  20
ATOM     20  O   UNL     1      -0.703 -56.705 -23.837  1.00  0.00    -0.504 OA
ATOM     21  H   UNL     1      -1.495 -57.221 -24.204  1.00  0.00     0.293 HD
ENDBRANCH  17  20
ENDBRANCH   1  12
BRANCH   2  22
ATOM     22  O   UNL     1       3.958 -56.780 -24.879  1.00  0.00    -0.502 OA
ATOM     23  H   UNL     1       3.431 -56.269 -24.180  1.00  0.00     0.293 HD
ENDBRANCH   2  22
BRANCH   6  24
ATOM     24  O   UNL     1       7.751 -56.904 -28.616  1.00  0.00    -0.507 OA
ATOM     25  H   UNL     1       8.655 -56.738 -29.030  1.00  0.00     0.293 HD
ENDBRANCH   6  24
BRANCH   8  26
ATOM     26  O   UNL     1       5.371 -54.944 -32.297  1.00  0.00    -0.508 OA
ATOM     27  H   UNL     1       4.899 -55.497 -33.003  1.00  0.00     0.293 HD
ENDBRANCH   8  26
TORSDOF 6
ENDMDL
MODEL 8
REMARK VINA RESULT:    -7.046      4.701      7.108
REMARK INTER + INTRA:          -8.795
REMARK INTER:                  -8.614
REMARK INTRA:                  -0.181
REMARK UNBOUND:                -0.307
REMARK SMILES O=c1c(O)c(-c2ccc(O)c(O)c2)oc2cc(O)cc(O)c12
REMARK SMILES IDX 5 1 3 2 2 3 1 4 22 5 20 6 19 7 17 8 16 9 15 10 14 11 6 12
REMARK SMILES IDX 7 13 8 14 9 15 13 16 11 17 10 18 12 20 4 22 21 24 18 26
REMARK H PARENT 10 19 12 21 4 23 21 25 18 27
REMARK Flexibility Score: inf
ROOT
ATOM      1  C   UNL     1       2.773 -54.197 -25.266  1.00  0.00     0.180 A 
ATOM      2  C   UNL     1       1.796 -54.615 -24.346  1.00  0.00     0.208 A 
ATOM      3  C   UNL     1       1.316 -53.695 -23.400  1.00  0.00     0.238 A 
ATOM      4  O   UNL     1       0.481 -54.089 -22.544  1.00  0.00    -0.285 OA
ATOM      5  C   UNL     1       1.805 -52.367 -23.396  1.00  0.00     0.111 A 
ATOM      6  C   UNL     1       1.359 -51.340 -22.510  1.00  0.00     0.134 A 
ATOM      7  C   UNL     1       2.007 -50.099 -22.510  1.00  0.00     0.093 A 
ATOM      8  C   UNL     1       3.039 -49.825 -23.409  1.00  0.00     0.123 A 
ATOM      9  C   UNL     1       3.441 -50.800 -24.318  1.00  0.00     0.094 A 
ATOM     10  C   UNL     1       2.839 -52.061 -24.319  1.00  0.00     0.146 A 
ATOM     11  O   UNL     1       3.260 -52.964 -25.195  1.00  0.00    -0.452 OA
ENDROOT
BRANCH   1  12
ATOM     12  C   UNL     1       3.310 -55.102 -26.308  1.00  0.00     0.025 A 
ATOM     13  C   UNL     1       2.996 -54.866 -27.656  1.00  0.00     0.016 A 
ATOM     14  C   UNL     1       3.475 -55.718 -28.654  1.00  0.00     0.051 A 
ATOM     15  C   UNL     1       4.259 -56.827 -28.321  1.00  0.00     0.157 A 
ATOM     16  C   UNL     1       4.082 -56.229 -25.974  1.00  0.00     0.062 A 
ATOM     17  C   UNL     1       4.563 -57.086 -26.974  1.00  0.00     0.158 A 
BRANCH  15  18
ATOM     18  O   UNL     1       4.724 -57.658 -29.340  1.00  0.00    -0.504 OA
ATOM     19  H   UNL     1       4.998 -58.619 -29.168  1.00  0.00     0.293 HD
ENDBRANCH  15  18
BRANCH  17  20
ATOM     20  O   UNL     1       5.333 -58.198 -26.635  1.00  0.00    -0.504 OA
ATOM     21  H   UNL     1       5.320 -58.587 -25.699  1.00  0.00     0.293 HD
ENDBRANCH  17  20
ENDBRANCH   1  12
BRANCH   2  22
ATOM     22  O   UNL     1       1.342 -55.937 -24.352  1.00  0.00    -0.502 OA
ATOM     23  H   UNL     1       0.376 -56.180 -24.534  1.00  0.00     0.293 HD
ENDBRANCH   2  22
BRANCH   6  24
ATOM     24  O   UNL     1       0.277 -51.481 -21.636  1.00  0.00    -0.507 OA
ATOM     25  H   UNL     1      -0.183 -50.718 -21.164  1.00  0.00     0.293 HD
ENDBRANCH   6  24
BRANCH   8  26
ATOM     26  O   UNL     1       3.668 -48.581 -23.413  1.00  0.00    -0.508 OA
ATOM     27  H   UNL     1       3.138 -47.720 -23.351  1.00  0.00     0.293 HD
ENDBRANCH   8  26
TORSDOF 6
ENDMDL
MODEL 9
REMARK VINA RESULT:    -6.687      3.985      6.455
REMARK INTER + INTRA:          -8.362
REMARK INTER:                  -8.028
REMARK INTRA:                  -0.335
REMARK UNBOUND:                -0.307
REMARK SMILES O=c1c(O)c(-c2ccc(O)c(O)c2)oc2cc(O)cc(O)c12
REMARK SMILES IDX 5 1 3 2 2 3 1 4 22 5 20 6 19 7 17 8 16 9 15 10 14 11 6 12
REMARK SMILES IDX 7 13 8 14 9 15 13 16 11 17 10 18 12 20 4 22 21 24 18 26
REMARK H PARENT 10 19 12 21 4 23 21 25 18 27
REMARK Flexibility Score: inf
ROOT
ATOM      1  C   UNL     1       2.307 -55.114 -25.680  1.00  0.00     0.180 A 
ATOM      2  C   UNL     1       2.456 -53.951 -24.905  1.00  0.00     0.208 A 
ATOM      3  C   UNL     1       1.462 -53.624 -23.970  1.00  0.00     0.238 A 
ATOM      4  O   UNL     1       1.573 -52.553 -23.318  1.00  0.00    -0.285 OA
ATOM      5  C   UNL     1       0.340 -54.472 -23.808  1.00  0.00     0.111 A 
ATOM      6  C   UNL     1      -0.708 -54.260 -22.861  1.00  0.00     0.134 A 
ATOM      7  C   UNL     1      -1.834 -55.092 -22.880  1.00  0.00     0.093 A 
ATOM      8  C   UNL     1      -1.920 -56.168 -23.766  1.00  0.00     0.123 A 
ATOM      9  C   UNL     1      -0.876 -56.419 -24.653  1.00  0.00     0.094 A 
ATOM     10  C   UNL     1       0.244 -55.585 -24.684  1.00  0.00     0.146 A 
ATOM     11  O   UNL     1       1.211 -55.853 -25.552  1.00  0.00    -0.452 OA
ENDROOT
BRANCH   1  12
ATOM     12  C   UNL     1       3.324 -55.537 -26.669  1.00  0.00     0.025 A 
ATOM     13  C   UNL     1       3.183 -55.155 -28.012  1.00  0.00     0.016 A 
ATOM     14  C   UNL     1       4.120 -55.560 -28.965  1.00  0.00     0.051 A 
ATOM     15  C   UNL     1       5.201 -56.366 -28.597  1.00  0.00     0.157 A 
ATOM     16  C   UNL     1       4.401 -56.365 -26.303  1.00  0.00     0.062 A 
ATOM     17  C   UNL     1       5.342 -56.774 -27.259  1.00  0.00     0.158 A 
BRANCH  15  18
ATOM     18  O   UNL     1       6.122 -56.753 -29.570  1.00  0.00    -0.504 OA
ATOM     19  H   UNL     1       7.000 -57.201 -29.333  1.00  0.00     0.293 HD
ENDBRANCH  15  18
BRANCH  17  20
ATOM     20  O   UNL     1       6.411 -57.589 -26.887  1.00  0.00    -0.504 OA
ATOM     21  H   UNL     1       7.320 -57.506 -27.327  1.00  0.00     0.293 HD
ENDBRANCH  17  20
ENDBRANCH   1  12
BRANCH   2  22
ATOM     22  O   UNL     1       3.560 -53.115 -25.096  1.00  0.00    -0.502 OA
ATOM     23  H   UNL     1       4.489 -53.359 -24.774  1.00  0.00     0.293 HD
ENDBRANCH   2  22
BRANCH   6  24
ATOM     24  O   UNL     1      -0.678 -53.271 -21.874  1.00  0.00    -0.507 OA
ATOM     25  H   UNL     1      -1.329 -52.504 -21.808  1.00  0.00     0.293 HD
ENDBRANCH   6  24
BRANCH   8  26
ATOM     26  O   UNL     1      -3.037 -57.001 -23.767  1.00  0.00    -0.508 OA
ATOM     27  H   UNL     1      -3.044 -57.877 -24.275  1.00  0.00     0.293 HD
ENDBRANCH   8  26
TORSDOF 6
ENDMDL
