MODEL 1
REMARK VINA RESULT:    -6.446      0.000      0.000
REMARK INTER + INTRA:         -10.941
REMARK INTER:                  -9.460
REMARK INTRA:                  -1.481
REMARK UNBOUND:                -1.481
REMARK SMILES O=c1c(O[C@H]2O[C@@H](CO)[C@H](O)[C@H](O)[C@H]2O)c(-c2ccc(O)c(O)c2)oc2cc(O)cc(O)c12
REMARK SMILES IDX 4 1 3 2 16 3 25 4 2 5 26 6 1 7 33 8 27 9 31 10 28 11 30 12
REMARK SMILES IDX 17 13 18 14 19 15 20 16 24 17 22 18 21 19 23 21 32 23 29 25
REMARK SMILES IDX 5 27 14 28 6 29 12 30 7 31 10 32 15 33 13 35 8 37 9 38 11 40
REMARK H PARENT 21 20 23 22 32 24 29 26 15 34 13 36 9 39 11 41
REMARK Flexibility Score: inf
ROOT
ATOM      1  O   UNL     1      13.280 -36.389  -3.090  1.00  0.00    -0.454 OA
ENDROOT
BRANCH   1   2
ATOM      2  C   UNL     1      12.990 -37.630  -3.690  1.00  0.00     0.214 A 
ATOM      3  C   UNL     1      13.899 -38.688  -3.506  1.00  0.00     0.180 A 
ATOM      4  O   UNL     1      13.702 -39.849  -4.117  1.00  0.00    -0.452 OA
ATOM      5  C   UNL     1      11.849 -37.857  -4.488  1.00  0.00     0.239 A 
ATOM      6  C   UNL     1      12.648 -40.105  -4.879  1.00  0.00     0.146 A 
ATOM      7  O   UNL     1      11.041 -36.916  -4.693  1.00  0.00    -0.285 OA
ATOM      8  C   UNL     1      11.636 -39.131  -5.070  1.00  0.00     0.111 A 
ATOM      9  C   UNL     1      12.560 -41.355  -5.498  1.00  0.00     0.094 A 
ATOM     10  C   UNL     1      10.500 -39.480  -5.862  1.00  0.00     0.134 A 
ATOM     11  C   UNL     1      11.475 -41.661  -6.321  1.00  0.00     0.123 A 
ATOM     12  C   UNL     1      10.459 -40.725  -6.501  1.00  0.00     0.093 A 
BRANCH   3  13
ATOM     13  C   UNL     1      15.126 -38.530  -2.693  1.00  0.00     0.025 A 
ATOM     14  C   UNL     1      15.116 -38.738  -1.305  1.00  0.00     0.016 A 
ATOM     15  C   UNL     1      16.283 -38.577  -0.556  1.00  0.00     0.051 A 
ATOM     16  C   UNL     1      17.481 -38.222  -1.183  1.00  0.00     0.157 A 
ATOM     17  C   UNL     1      16.335 -38.197  -3.324  1.00  0.00     0.062 A 
ATOM     18  C   UNL     1      17.510 -38.036  -2.575  1.00  0.00     0.158 A 
BRANCH  16  19
ATOM     19  O   UNL     1      18.631 -38.064  -0.409  1.00  0.00    -0.504 OA
ATOM     20  H   UNL     1      18.683 -37.391   0.345  1.00  0.00     0.293 HD
ENDBRANCH  16  19
BRANCH  18  21
ATOM     21  O   UNL     1      18.702 -37.690  -3.209  1.00  0.00    -0.504 OA
ATOM     22  H   UNL     1      18.716 -37.344  -4.162  1.00  0.00     0.293 HD
ENDBRANCH  18  21
ENDBRANCH   3  13
BRANCH  10  23
ATOM     23  O   UNL     1       9.382 -38.656  -6.030  1.00  0.00    -0.507 OA
ATOM     24  H   UNL     1       9.423 -37.662  -6.203  1.00  0.00     0.293 HD
ENDBRANCH  10  23
BRANCH  11  25
ATOM     25  O   UNL     1      11.394 -42.896  -6.961  1.00  0.00    -0.508 OA
ATOM     26  H   UNL     1      11.667 -43.011  -7.930  1.00  0.00     0.293 HD
ENDBRANCH  11  25
ENDBRANCH   1   2
BRANCH   1  27
ATOM     27  C   UNL     1      12.888 -35.965  -1.780  1.00  0.00     0.339 C 
ATOM     28  C   UNL     1      11.916 -34.780  -1.873  1.00  0.00     0.214 C 
ATOM     29  O   UNL     1      14.011 -35.682  -0.954  1.00  0.00    -0.332 OA
ATOM     30  C   UNL     1      12.654 -33.532  -2.378  1.00  0.00     0.180 C 
ATOM     31  C   UNL     1      14.750 -34.525  -1.336  1.00  0.00     0.179 C 
ATOM     32  C   UNL     1      13.871 -33.260  -1.481  1.00  0.00     0.177 C 
BRANCH  28  33
ATOM     33  O   UNL     1      10.867 -35.111  -2.748  1.00  0.00    -0.384 OA
ATOM     34  H   UNL     1      10.045 -34.688  -2.387  1.00  0.00     0.211 HD
ENDBRANCH  28  33
BRANCH  30  35
ATOM     35  O   UNL     1      11.797 -32.418  -2.356  1.00  0.00    -0.387 OA
ATOM     36  H   UNL     1      10.889 -32.746  -2.591  1.00  0.00     0.211 HD
ENDBRANCH  30  35
BRANCH  31  37
ATOM     37  C   UNL     1      15.666 -34.788  -2.547  1.00  0.00     0.191 C 
BRANCH  37  38
ATOM     38  O   UNL     1      17.007 -34.797  -2.138  1.00  0.00    -0.394 OA
ATOM     39  H   UNL     1      17.126 -33.996  -1.563  1.00  0.00     0.210 HD
ENDBRANCH  37  38
ENDBRANCH  31  37
BRANCH  32  40
ATOM     40  O   UNL     1      13.450 -32.855  -0.201  1.00  0.00    -0.387 OA
ATOM     41  H   UNL     1      13.390 -33.671   0.361  1.00  0.00     0.211 HD
ENDBRANCH  32  40
ENDBRANCH   1  27
TORSDOF 12
ENDMDL
MODEL 2
REMARK VINA RESULT:    -6.430      1.946      3.534
REMARK INTER + INTRA:         -10.919
REMARK INTER:                  -9.505
REMARK INTRA:                  -1.414
REMARK UNBOUND:                -1.481
REMARK SMILES O=c1c(O[C@H]2O[C@@H](CO)[C@H](O)[C@H](O)[C@H]2O)c(-c2ccc(O)c(O)c2)oc2cc(O)cc(O)c12
REMARK SMILES IDX 4 1 3 2 16 3 25 4 2 5 26 6 1 7 33 8 27 9 31 10 28 11 30 12
REMARK SMILES IDX 17 13 18 14 19 15 20 16 24 17 22 18 21 19 23 21 32 23 29 25
REMARK SMILES IDX 5 27 14 28 6 29 12 30 7 31 10 32 15 33 13 35 8 37 9 38 11 40
REMARK H PARENT 21 20 23 22 32 24 29 26 15 34 13 36 9 39 11 41
REMARK Flexibility Score: inf
ROOT
ATOM      1  O   UNL     1      14.433 -36.386  -0.907  1.00  0.00    -0.454 OA
ENDROOT
BRANCH   1   2
ATOM      2  C   UNL     1      13.754 -36.981  -1.987  1.00  0.00     0.214 A 
ATOM      3  C   UNL     1      14.495 -37.763  -2.893  1.00  0.00     0.180 A 
ATOM      4  O   UNL     1      13.909 -38.277  -3.966  1.00  0.00    -0.452 OA
ATOM      5  C   UNL     1      12.373 -36.811  -2.224  1.00  0.00     0.239 A 
ATOM      6  C   UNL     1      12.617 -38.138  -4.230  1.00  0.00     0.146 A 
ATOM      7  O   UNL     1      11.697 -36.090  -1.447  1.00  0.00    -0.285 OA
ATOM      8  C   UNL     1      11.766 -37.431  -3.343  1.00  0.00     0.111 A 
ATOM      9  C   UNL     1      12.113 -38.698  -5.407  1.00  0.00     0.094 A 
ATOM     10  C   UNL     1      10.374 -37.356  -3.655  1.00  0.00     0.134 A 
ATOM     11  C   UNL     1      10.762 -38.563  -5.732  1.00  0.00     0.123 A 
ATOM     12  C   UNL     1       9.906 -37.892  -4.861  1.00  0.00     0.093 A 
BRANCH   3  13
ATOM     13  C   UNL     1      15.949 -37.982  -2.724  1.00  0.00     0.025 A 
ATOM     14  C   UNL     1      16.871 -37.555  -3.694  1.00  0.00     0.016 A 
ATOM     15  C   UNL     1      18.238 -37.777  -3.518  1.00  0.00     0.051 A 
ATOM     16  C   UNL     1      18.708 -38.414  -2.365  1.00  0.00     0.157 A 
ATOM     17  C   UNL     1      16.425 -38.599  -1.557  1.00  0.00     0.062 A 
ATOM     18  C   UNL     1      17.798 -38.824  -1.376  1.00  0.00     0.158 A 
BRANCH  16  19
ATOM     19  O   UNL     1      20.078 -38.628  -2.218  1.00  0.00    -0.504 OA
ATOM     20  H   UNL     1      20.652 -38.042  -1.624  1.00  0.00     0.293 HD
ENDBRANCH  16  19
BRANCH  18  21
ATOM     21  O   UNL     1      18.259 -39.452  -0.220  1.00  0.00    -0.504 OA
ATOM     22  H   UNL     1      17.621 -39.776   0.498  1.00  0.00     0.293 HD
ENDBRANCH  18  21
ENDBRANCH   3  13
BRANCH  10  23
ATOM     23  O   UNL     1       9.413 -36.793  -2.809  1.00  0.00    -0.507 OA
ATOM     24  H   UNL     1       8.905 -37.302  -2.101  1.00  0.00     0.293 HD
ENDBRANCH  10  23
BRANCH  11  25
ATOM     25  O   UNL     1      10.259 -39.097  -6.916  1.00  0.00    -0.508 OA
ATOM     26  H   UNL     1      10.366 -40.080  -7.143  1.00  0.00     0.293 HD
ENDBRANCH  11  25
ENDBRANCH   1   2
BRANCH   1  27
ATOM     27  C   UNL     1      14.561 -34.984  -0.652  1.00  0.00     0.339 C 
ATOM     28  C   UNL     1      16.024 -34.631  -0.346  1.00  0.00     0.214 C 
ATOM     29  O   UNL     1      13.673 -34.544   0.369  1.00  0.00    -0.332 OA
ATOM     30  C   UNL     1      16.435 -35.217   1.013  1.00  0.00     0.180 C 
ATOM     31  C   UNL     1      13.987 -35.024   1.673  1.00  0.00     0.179 C 
ATOM     32  C   UNL     1      15.449 -34.743   2.092  1.00  0.00     0.177 C 
BRANCH  28  33
ATOM     33  O   UNL     1      16.845 -35.146  -1.364  1.00  0.00    -0.384 OA
ATOM     34  H   UNL     1      16.352 -35.033  -2.219  1.00  0.00     0.211 HD
ENDBRANCH  28  33
BRANCH  30  35
ATOM     35  O   UNL     1      17.734 -34.801   1.349  1.00  0.00    -0.387 OA
ATOM     36  H   UNL     1      17.674 -33.846   1.615  1.00  0.00     0.211 HD
ENDBRANCH  30  35
BRANCH  31  37
ATOM     37  C   UNL     1      13.552 -36.488   1.879  1.00  0.00     0.191 C 
BRANCH  37  38
ATOM     38  O   UNL     1      12.295 -36.699   1.295  1.00  0.00    -0.394 OA
ATOM     39  H   UNL     1      12.353 -36.336   0.373  1.00  0.00     0.210 HD
ENDBRANCH  37  38
ENDBRANCH  31  37
BRANCH  32  40
ATOM     40  O   UNL     1      15.597 -33.360   2.310  1.00  0.00    -0.387 OA
ATOM     41  H   UNL     1      14.687 -32.963   2.310  1.00  0.00     0.211 HD
ENDBRANCH  32  40
ENDBRANCH   1  27
TORSDOF 12
ENDMDL
MODEL 3
REMARK VINA RESULT:    -6.195      3.443      6.315
REMARK INTER + INTRA:         -10.573
REMARK INTER:                  -9.511
REMARK INTRA:                  -1.063
REMARK UNBOUND:                -1.481
REMARK SMILES O=c1c(O[C@H]2O[C@@H](CO)[C@H](O)[C@H](O)[C@H]2O)c(-c2ccc(O)c(O)c2)oc2cc(O)cc(O)c12
REMARK SMILES IDX 4 1 3 2 16 3 25 4 2 5 26 6 1 7 33 8 27 9 31 10 28 11 30 12
REMARK SMILES IDX 17 13 18 14 19 15 20 16 24 17 22 18 21 19 23 21 32 23 29 25
REMARK SMILES IDX 5 27 14 28 6 29 12 30 7 31 10 32 15 33 13 35 8 37 9 38 11 40
REMARK H PARENT 21 20 23 22 32 24 29 26 15 34 13 36 9 39 11 41
REMARK Flexibility Score: inf
ROOT
ATOM      1  O   UNL     1      14.498 -35.863   0.338  1.00  0.00    -0.454 OA
ENDROOT
BRANCH   1   2
ATOM      2  C   UNL     1      15.334 -36.334  -0.693  1.00  0.00     0.214 A 
ATOM      3  C   UNL     1      15.053 -35.937  -2.013  1.00  0.00     0.180 A 
ATOM      4  O   UNL     1      15.769 -36.419  -3.021  1.00  0.00    -0.452 OA
ATOM      5  C   UNL     1      16.421 -37.206  -0.472  1.00  0.00     0.239 A 
ATOM      6  C   UNL     1      16.795 -37.243  -2.860  1.00  0.00     0.146 A 
ATOM      7  O   UNL     1      16.669 -37.600   0.695  1.00  0.00    -0.285 OA
ATOM      8  C   UNL     1      17.206 -37.647  -1.565  1.00  0.00     0.111 A 
ATOM      9  C   UNL     1      17.458 -37.712  -3.997  1.00  0.00     0.094 A 
ATOM     10  C   UNL     1      18.348 -38.498  -1.451  1.00  0.00     0.134 A 
ATOM     11  C   UNL     1      18.533 -38.594  -3.875  1.00  0.00     0.123 A 
ATOM     12  C   UNL     1      18.967 -38.983  -2.609  1.00  0.00     0.093 A 
BRANCH   3  13
ATOM     13  C   UNL     1      13.924 -35.034  -2.333  1.00  0.00     0.025 A 
ATOM     14  C   UNL     1      13.946 -33.678  -1.969  1.00  0.00     0.016 A 
ATOM     15  C   UNL     1      12.868 -32.845  -2.274  1.00  0.00     0.051 A 
ATOM     16  C   UNL     1      11.759 -33.349  -2.961  1.00  0.00     0.157 A 
ATOM     17  C   UNL     1      12.821 -35.532  -3.043  1.00  0.00     0.062 A 
ATOM     18  C   UNL     1      11.736 -34.698  -3.353  1.00  0.00     0.158 A 
BRANCH  16  19
ATOM     19  O   UNL     1      10.694 -32.495  -3.249  1.00  0.00    -0.504 OA
ATOM     20  H   UNL     1       9.808 -32.560  -2.765  1.00  0.00     0.293 HD
ENDBRANCH  16  19
BRANCH  18  21
ATOM     21  O   UNL     1      10.638 -35.205  -4.046  1.00  0.00    -0.504 OA
ATOM     22  H   UNL     1      10.459 -36.202  -4.101  1.00  0.00     0.293 HD
ENDBRANCH  18  21
ENDBRANCH   3  13
BRANCH  10  23
ATOM     23  O   UNL     1      18.925 -38.871  -0.233  1.00  0.00    -0.507 OA
ATOM     24  H   UNL     1      19.878 -39.188  -0.123  1.00  0.00     0.293 HD
ENDBRANCH  10  23
BRANCH  11  25
ATOM     25  O   UNL     1      19.183 -39.085  -5.006  1.00  0.00    -0.508 OA
ATOM     26  H   UNL     1      19.381 -38.491  -5.804  1.00  0.00     0.293 HD
ENDBRANCH  11  25
ENDBRANCH   1   2
BRANCH   1  27
ATOM     27  C   UNL     1      13.860 -36.656   1.345  1.00  0.00     0.339 C 
ATOM     28  C   UNL     1      12.471 -37.104   0.868  1.00  0.00     0.214 C 
ATOM     29  O   UNL     1      13.813 -35.987   2.600  1.00  0.00    -0.332 OA
ATOM     30  C   UNL     1      11.523 -35.898   0.799  1.00  0.00     0.180 C 
ATOM     31  C   UNL     1      12.941 -34.861   2.637  1.00  0.00     0.179 C 
ATOM     32  C   UNL     1      11.506 -35.183   2.158  1.00  0.00     0.177 C 
BRANCH  28  33
ATOM     33  O   UNL     1      12.589 -37.702  -0.399  1.00  0.00    -0.384 OA
ATOM     34  H   UNL     1      13.066 -37.055  -0.981  1.00  0.00     0.211 HD
ENDBRANCH  28  33
BRANCH  30  35
ATOM     35  O   UNL     1      10.223 -36.320   0.474  1.00  0.00    -0.387 OA
ATOM     36  H   UNL     1      10.207 -37.309   0.561  1.00  0.00     0.211 HD
ENDBRANCH  30  35
BRANCH  31  37
ATOM     37  C   UNL     1      13.557 -33.621   1.961  1.00  0.00     0.191 C 
BRANCH  37  38
ATOM     38  O   UNL     1      14.910 -33.509   2.312  1.00  0.00    -0.394 OA
ATOM     39  H   UNL     1      15.142 -34.347   2.790  1.00  0.00     0.210 HD
ENDBRANCH  37  38
ENDBRANCH  31  37
BRANCH  32  40
ATOM     40  O   UNL     1      10.881 -35.994   3.125  1.00  0.00    -0.387 OA
ATOM     41  H   UNL     1       9.945 -35.677   3.213  1.00  0.00     0.211 HD
ENDBRANCH  32  40
ENDBRANCH   1  27
TORSDOF 12
ENDMDL
MODEL 4
REMARK VINA RESULT:    -6.185      1.809      2.548
REMARK INTER + INTRA:         -10.559
REMARK INTER:                  -9.696
REMARK INTRA:                  -0.863
REMARK UNBOUND:                -1.481
REMARK SMILES O=c1c(O[C@H]2O[C@@H](CO)[C@H](O)[C@H](O)[C@H]2O)c(-c2ccc(O)c(O)c2)oc2cc(O)cc(O)c12
REMARK SMILES IDX 4 1 3 2 16 3 25 4 2 5 26 6 1 7 33 8 27 9 31 10 28 11 30 12
REMARK SMILES IDX 17 13 18 14 19 15 20 16 24 17 22 18 21 19 23 21 32 23 29 25
REMARK SMILES IDX 5 27 14 28 6 29 12 30 7 31 10 32 15 33 13 35 8 37 9 38 11 40
REMARK H PARENT 21 20 23 22 32 24 29 26 15 34 13 36 9 39 11 41
REMARK Flexibility Score: inf
ROOT
ATOM      1  O   UNL     1      13.710 -35.588  -1.132  1.00  0.00    -0.454 OA
ENDROOT
BRANCH   1   2
ATOM      2  C   UNL     1      13.076 -36.371  -2.116  1.00  0.00     0.214 A 
ATOM      3  C   UNL     1      13.814 -37.404  -2.723  1.00  0.00     0.180 A 
ATOM      4  O   UNL     1      13.280 -38.115  -3.708  1.00  0.00    -0.452 OA
ATOM      5  C   UNL     1      11.749 -36.155  -2.544  1.00  0.00     0.239 A 
ATOM      6  C   UNL     1      12.040 -37.943  -4.145  1.00  0.00     0.146 A 
ATOM      7  O   UNL     1      11.083 -35.217  -2.039  1.00  0.00    -0.285 OA
ATOM      8  C   UNL     1      11.188 -36.978  -3.551  1.00  0.00     0.111 A 
ATOM      9  C   UNL     1      11.593 -38.729  -5.210  1.00  0.00     0.094 A 
ATOM     10  C   UNL     1       9.847 -36.871  -4.031  1.00  0.00     0.134 A 
ATOM     11  C   UNL     1      10.300 -38.570  -5.711  1.00  0.00     0.123 A 
ATOM     12  C   UNL     1       9.440 -37.644  -5.124  1.00  0.00     0.093 A 
BRANCH   3  13
ATOM     13  C   UNL     1      15.215 -37.690  -2.342  1.00  0.00     0.025 A 
ATOM     14  C   UNL     1      15.523 -38.432  -1.190  1.00  0.00     0.016 A 
ATOM     15  C   UNL     1      16.853 -38.684  -0.844  1.00  0.00     0.051 A 
ATOM     16  C   UNL     1      17.893 -38.215  -1.652  1.00  0.00     0.157 A 
ATOM     17  C   UNL     1      16.261 -37.241  -3.163  1.00  0.00     0.062 A 
ATOM     18  C   UNL     1      17.598 -37.494  -2.821  1.00  0.00     0.158 A 
BRANCH  16  19
ATOM     19  O   UNL     1      19.212 -38.479  -1.280  1.00  0.00    -0.504 OA
ATOM     20  H   UNL     1      19.949 -38.600  -1.964  1.00  0.00     0.293 HD
ENDBRANCH  16  19
BRANCH  18  21
ATOM     21  O   UNL     1      18.629 -37.030  -3.635  1.00  0.00    -0.504 OA
ATOM     22  H   UNL     1      19.219 -36.255  -3.355  1.00  0.00     0.293 HD
ENDBRANCH  18  21
ENDBRANCH   3  13
BRANCH  10  23
ATOM     23  O   UNL     1       8.875 -36.046  -3.455  1.00  0.00    -0.507 OA
ATOM     24  H   UNL     1       8.206 -36.346  -2.762  1.00  0.00     0.293 HD
ENDBRANCH  10  23
BRANCH  11  25
ATOM     25  O   UNL     1       9.856 -39.334  -6.789  1.00  0.00    -0.508 OA
ATOM     26  H   UNL     1       8.929 -39.212  -7.180  1.00  0.00     0.293 HD
ENDBRANCH  11  25
ENDBRANCH   1   2
BRANCH   1  27
ATOM     27  C   UNL     1      13.344 -35.499   0.249  1.00  0.00     0.339 C 
ATOM     28  C   UNL     1      12.902 -34.069   0.590  1.00  0.00     0.214 C 
ATOM     29  O   UNL     1      14.381 -35.965   1.105  1.00  0.00    -0.332 OA
ATOM     30  C   UNL     1      14.107 -33.119   0.542  1.00  0.00     0.180 C 
ATOM     31  C   UNL     1      15.537 -35.134   1.141  1.00  0.00     0.179 C 
ATOM     32  C   UNL     1      15.217 -33.655   1.459  1.00  0.00     0.177 C 
BRANCH  28  33
ATOM     33  O   UNL     1      11.922 -33.657  -0.329  1.00  0.00    -0.384 OA
ATOM     34  H   UNL     1      11.145 -34.266  -0.217  1.00  0.00     0.211 HD
ENDBRANCH  28  33
BRANCH  30  35
ATOM     35  O   UNL     1      13.729 -31.833   0.965  1.00  0.00    -0.387 OA
ATOM     36  H   UNL     1      13.716 -31.845   1.958  1.00  0.00     0.211 HD
ENDBRANCH  30  35
BRANCH  31  37
ATOM     37  C   UNL     1      16.432 -35.322  -0.100  1.00  0.00     0.191 C 
BRANCH  37  38
ATOM     38  O   UNL     1      17.779 -35.370   0.287  1.00  0.00    -0.394 OA
ATOM     39  H   UNL     1      18.292 -35.615  -0.526  1.00  0.00     0.210 HD
ENDBRANCH  37  38
ENDBRANCH  31  37
BRANCH  32  40
ATOM     40  O   UNL     1      14.821 -33.560   2.807  1.00  0.00    -0.387 OA
ATOM     41  H   UNL     1      14.981 -34.446   3.223  1.00  0.00     0.211 HD
ENDBRANCH  32  40
ENDBRANCH   1  27
TORSDOF 12
ENDMDL
MODEL 5
REMARK VINA RESULT:    -6.168      3.098      6.886
REMARK INTER + INTRA:         -10.533
REMARK INTER:                  -9.141
REMARK INTRA:                  -1.392
REMARK UNBOUND:                -1.481
REMARK SMILES O=c1c(O[C@H]2O[C@@H](CO)[C@H](O)[C@H](O)[C@H]2O)c(-c2ccc(O)c(O)c2)oc2cc(O)cc(O)c12
REMARK SMILES IDX 4 1 3 2 16 3 25 4 2 5 26 6 1 7 33 8 27 9 31 10 28 11 30 12
REMARK SMILES IDX 17 13 18 14 19 15 20 16 24 17 22 18 21 19 23 21 32 23 29 25
REMARK SMILES IDX 5 27 14 28 6 29 12 30 7 31 10 32 15 33 13 35 8 37 9 38 11 40
REMARK H PARENT 21 20 23 22 32 24 29 26 15 34 13 36 9 39 11 41
REMARK Flexibility Score: inf
ROOT
ATOM      1  O   UNL     1      12.872 -35.454  -1.353  1.00  0.00    -0.454 OA
ENDROOT
BRANCH   1   2
ATOM      2  C   UNL     1      13.924 -36.021  -0.609  1.00  0.00     0.214 A 
ATOM      3  C   UNL     1      14.104 -35.598   0.721  1.00  0.00     0.180 A 
ATOM      4  O   UNL     1      15.130 -36.051   1.431  1.00  0.00    -0.452 OA
ATOM      5  C   UNL     1      14.825 -36.970  -1.138  1.00  0.00     0.239 A 
ATOM      6  C   UNL     1      16.002 -36.938   0.973  1.00  0.00     0.146 A 
ATOM      7  O   UNL     1      14.703 -37.336  -2.334  1.00  0.00    -0.285 OA
ATOM      8  C   UNL     1      15.868 -37.482  -0.329  1.00  0.00     0.111 A 
ATOM      9  C   UNL     1      17.061 -37.320   1.800  1.00  0.00     0.094 A 
ATOM     10  C   UNL     1      16.809 -38.471  -0.751  1.00  0.00     0.134 A 
ATOM     11  C   UNL     1      18.011 -38.240   1.352  1.00  0.00     0.123 A 
ATOM     12  C   UNL     1      17.882 -38.804   0.084  1.00  0.00     0.093 A 
BRANCH   3  13
ATOM     13  C   UNL     1      13.212 -34.598   1.349  1.00  0.00     0.025 A 
ATOM     14  C   UNL     1      11.900 -34.924   1.729  1.00  0.00     0.016 A 
ATOM     15  C   UNL     1      11.073 -33.963   2.314  1.00  0.00     0.051 A 
ATOM     16  C   UNL     1      11.547 -32.668   2.543  1.00  0.00     0.157 A 
ATOM     17  C   UNL     1      13.694 -33.304   1.602  1.00  0.00     0.062 A 
ATOM     18  C   UNL     1      12.866 -32.336   2.191  1.00  0.00     0.158 A 
BRANCH  16  19
ATOM     19  O   UNL     1      10.698 -31.727   3.125  1.00  0.00    -0.504 OA
ATOM     20  H   UNL     1      10.470 -30.853   2.667  1.00  0.00     0.293 HD
ENDBRANCH  16  19
BRANCH  18  21
ATOM     21  O   UNL     1      13.350 -31.050   2.424  1.00  0.00    -0.504 OA
ATOM     22  H   UNL     1      12.736 -30.243   2.417  1.00  0.00     0.293 HD
ENDBRANCH  18  21
ENDBRANCH   3  13
BRANCH  10  23
ATOM     23  O   UNL     1      16.720 -39.169  -1.959  1.00  0.00    -0.507 OA
ATOM     24  H   UNL     1      16.473 -38.752  -2.845  1.00  0.00     0.293 HD
ENDBRANCH  10  23
BRANCH  11  25
ATOM     25  O   UNL     1      19.084 -38.606   2.162  1.00  0.00    -0.508 OA
ATOM     26  H   UNL     1      19.189 -38.239   3.102  1.00  0.00     0.293 HD
ENDBRANCH  11  25
ENDBRANCH   1   2
BRANCH   1  27
ATOM     27  C   UNL     1      12.978 -34.832  -2.639  1.00  0.00     0.339 C 
ATOM     28  C   UNL     1      12.247 -33.481  -2.637  1.00  0.00     0.214 C 
ATOM     29  O   UNL     1      12.531 -35.689  -3.683  1.00  0.00    -0.332 OA
ATOM     30  C   UNL     1      10.731 -33.703  -2.540  1.00  0.00     0.180 C 
ATOM     31  C   UNL     1      11.129 -35.938  -3.685  1.00  0.00     0.179 C 
ATOM     32  C   UNL     1      10.279 -34.645  -3.666  1.00  0.00     0.177 C 
BRANCH  28  33
ATOM     33  O   UNL     1      12.697 -32.715  -1.548  1.00  0.00    -0.384 OA
ATOM     34  H   UNL     1      11.921 -32.593  -0.940  1.00  0.00     0.211 HD
ENDBRANCH  28  33
BRANCH  30  35
ATOM     35  O   UNL     1      10.053 -32.477  -2.654  1.00  0.00    -0.387 OA
ATOM     36  H   UNL     1      10.735 -31.759  -2.583  1.00  0.00     0.211 HD
ENDBRANCH  30  35
BRANCH  31  37
ATOM     37  C   UNL     1      10.715 -36.969  -2.617  1.00  0.00     0.191 C 
BRANCH  37  38
ATOM     38  O   UNL     1      11.677 -37.986  -2.538  1.00  0.00    -0.394 OA
ATOM     39  H   UNL     1      12.535 -37.538  -2.315  1.00  0.00     0.210 HD
ENDBRANCH  37  38
ENDBRANCH  31  37
BRANCH  32  40
ATOM     40  O   UNL     1      10.404 -34.006  -4.914  1.00  0.00    -0.387 OA
ATOM     41  H   UNL     1       9.494 -33.728  -5.194  1.00  0.00     0.211 HD
ENDBRANCH  32  40
ENDBRANCH   1  27
TORSDOF 12
ENDMDL
MODEL 6
REMARK VINA RESULT:    -6.126      2.110      7.672
REMARK INTER + INTRA:         -10.472
REMARK INTER:                  -9.165
REMARK INTRA:                  -1.307
REMARK UNBOUND:                -1.481
REMARK SMILES O=c1c(O[C@H]2O[C@@H](CO)[C@H](O)[C@H](O)[C@H]2O)c(-c2ccc(O)c(O)c2)oc2cc(O)cc(O)c12
REMARK SMILES IDX 4 1 3 2 16 3 25 4 2 5 26 6 1 7 33 8 27 9 31 10 28 11 30 12
REMARK SMILES IDX 17 13 18 14 19 15 20 16 24 17 22 18 21 19 23 21 32 23 29 25
REMARK SMILES IDX 5 27 14 28 6 29 12 30 7 31 10 32 15 33 13 35 8 37 9 38 11 40
REMARK H PARENT 21 20 23 22 32 24 29 26 15 34 13 36 9 39 11 41
REMARK Flexibility Score: inf
ROOT
ATOM      1  O   UNL     1      13.733 -37.231  -2.357  1.00  0.00    -0.454 OA
ENDROOT
BRANCH   1   2
ATOM      2  C   UNL     1      14.532 -36.729  -1.311  1.00  0.00     0.214 A 
ATOM      3  C   UNL     1      14.224 -35.461  -0.785  1.00  0.00     0.180 A 
ATOM      4  O   UNL     1      14.997 -34.920   0.147  1.00  0.00    -0.452 OA
ATOM      5  C   UNL     1      15.643 -37.421  -0.784  1.00  0.00     0.239 A 
ATOM      6  C   UNL     1      16.052 -35.531   0.667  1.00  0.00     0.146 A 
ATOM      7  O   UNL     1      15.957 -38.540  -1.262  1.00  0.00    -0.285 OA
ATOM      8  C   UNL     1      16.407 -36.842   0.258  1.00  0.00     0.111 A 
ATOM      9  C   UNL     1      16.813 -34.852   1.622  1.00  0.00     0.094 A 
ATOM     10  C   UNL     1      17.525 -37.469   0.889  1.00  0.00     0.134 A 
ATOM     11  C   UNL     1      17.941 -35.453   2.184  1.00  0.00     0.123 A 
ATOM     12  C   UNL     1      18.291 -36.749   1.813  1.00  0.00     0.093 A 
BRANCH   3  13
ATOM     13  C   UNL     1      13.083 -34.664  -1.290  1.00  0.00     0.025 A 
ATOM     14  C   UNL     1      13.282 -33.470  -2.001  1.00  0.00     0.016 A 
ATOM     15  C   UNL     1      12.191 -32.730  -2.462  1.00  0.00     0.051 A 
ATOM     16  C   UNL     1      10.887 -33.179  -2.235  1.00  0.00     0.157 A 
ATOM     17  C   UNL     1      11.773 -35.125  -1.084  1.00  0.00     0.062 A 
ATOM     18  C   UNL     1      10.675 -34.385  -1.547  1.00  0.00     0.158 A 
BRANCH  16  19
ATOM     19  O   UNL     1       9.816 -32.417  -2.704  1.00  0.00    -0.504 OA
ATOM     20  H   UNL     1       9.033 -32.834  -3.190  1.00  0.00     0.293 HD
ENDBRANCH  16  19
BRANCH  18  21
ATOM     21  O   UNL     1       9.377 -34.843  -1.324  1.00  0.00    -0.504 OA
ATOM     22  H   UNL     1       8.863 -34.595  -0.486  1.00  0.00     0.293 HD
ENDBRANCH  18  21
ENDBRANCH   3  13
BRANCH  10  23
ATOM     23  O   UNL     1      17.906 -38.796   0.663  1.00  0.00    -0.507 OA
ATOM     24  H   UNL     1      17.381 -39.603   0.970  1.00  0.00     0.293 HD
ENDBRANCH  10  23
BRANCH  11  25
ATOM     25  O   UNL     1      18.718 -34.771   3.119  1.00  0.00    -0.508 OA
ATOM     26  H   UNL     1      18.901 -35.156   4.039  1.00  0.00     0.293 HD
ENDBRANCH  11  25
ENDBRANCH   1   2
BRANCH   1  27
ATOM     27  C   UNL     1      14.140 -37.437  -3.714  1.00  0.00     0.339 C 
ATOM     28  C   UNL     1      13.050 -36.941  -4.676  1.00  0.00     0.214 C 
ATOM     29  O   UNL     1      14.506 -38.790  -3.961  1.00  0.00    -0.332 OA
ATOM     30  C   UNL     1      11.819 -37.856  -4.595  1.00  0.00     0.180 C 
ATOM     31  C   UNL     1      13.422 -39.712  -3.924  1.00  0.00     0.179 C 
ATOM     32  C   UNL     1      12.246 -39.310  -4.845  1.00  0.00     0.177 C 
BRANCH  28  33
ATOM     33  O   UNL     1      12.700 -35.623  -4.336  1.00  0.00    -0.384 OA
ATOM     34  H   UNL     1      13.142 -35.027  -4.996  1.00  0.00     0.211 HD
ENDBRANCH  28  33
BRANCH  30  35
ATOM     35  O   UNL     1      10.866 -37.474  -5.554  1.00  0.00    -0.387 OA
ATOM     36  H   UNL     1      10.556 -36.563  -5.310  1.00  0.00     0.211 HD
ENDBRANCH  30  35
BRANCH  31  37
ATOM     37  C   UNL     1      12.993 -40.056  -2.484  1.00  0.00     0.191 C 
BRANCH  37  38
ATOM     38  O   UNL     1      14.115 -40.424  -1.728  1.00  0.00    -0.394 OA
ATOM     39  H   UNL     1      14.698 -39.621  -1.689  1.00  0.00     0.210 HD
ENDBRANCH  37  38
ENDBRANCH  31  37
BRANCH  32  40
ATOM     40  O   UNL     1      12.646 -39.475  -6.184  1.00  0.00    -0.387 OA
ATOM     41  H   UNL     1      13.635 -39.387  -6.209  1.00  0.00     0.211 HD
ENDBRANCH  32  40
ENDBRANCH   1  27
TORSDOF 12
ENDMDL
MODEL 7
REMARK VINA RESULT:    -6.057      2.045      6.281
REMARK INTER + INTRA:         -10.371
REMARK INTER:                  -9.153
REMARK INTRA:                  -1.218
REMARK UNBOUND:                -1.481
REMARK SMILES O=c1c(O[C@H]2O[C@@H](CO)[C@H](O)[C@H](O)[C@H]2O)c(-c2ccc(O)c(O)c2)oc2cc(O)cc(O)c12
REMARK SMILES IDX 4 1 3 2 16 3 25 4 2 5 26 6 1 7 33 8 27 9 31 10 28 11 30 12
REMARK SMILES IDX 17 13 18 14 19 15 20 16 24 17 22 18 21 19 23 21 32 23 29 25
REMARK SMILES IDX 5 27 14 28 6 29 12 30 7 31 10 32 15 33 13 35 8 37 9 38 11 40
REMARK H PARENT 21 20 23 22 32 24 29 26 15 34 13 36 9 39 11 41
REMARK Flexibility Score: inf
ROOT
ATOM      1  O   UNL     1      13.022 -35.669  -2.129  1.00  0.00    -0.454 OA
ENDROOT
BRANCH   1   2
ATOM      2  C   UNL     1      14.153 -36.210  -1.487  1.00  0.00     0.214 A 
ATOM      3  C   UNL     1      14.636 -37.457  -1.924  1.00  0.00     0.180 A 
ATOM      4  O   UNL     1      15.651 -38.036  -1.295  1.00  0.00    -0.452 OA
ATOM      5  C   UNL     1      14.809 -35.577  -0.409  1.00  0.00     0.239 A 
ATOM      6  C   UNL     1      16.293 -37.481  -0.277  1.00  0.00     0.146 A 
ATOM      7  O   UNL     1      14.374 -34.479   0.019  1.00  0.00    -0.285 OA
ATOM      8  C   UNL     1      15.932 -36.193   0.194  1.00  0.00     0.111 A 
ATOM      9  C   UNL     1      17.329 -38.197   0.329  1.00  0.00     0.094 A 
ATOM     10  C   UNL     1      16.691 -35.625   1.263  1.00  0.00     0.134 A 
ATOM     11  C   UNL     1      18.021 -37.657   1.414  1.00  0.00     0.123 A 
ATOM     12  C   UNL     1      17.697 -36.382   1.875  1.00  0.00     0.093 A 
BRANCH   3  13
ATOM     13  C   UNL     1      13.999 -38.193  -3.039  1.00  0.00     0.025 A 
ATOM     14  C   UNL     1      14.118 -37.754  -4.367  1.00  0.00     0.016 A 
ATOM     15  C   UNL     1      13.503 -38.459  -5.404  1.00  0.00     0.051 A 
ATOM     16  C   UNL     1      12.776 -39.622  -5.133  1.00  0.00     0.157 A 
ATOM     17  C   UNL     1      13.288 -39.373  -2.772  1.00  0.00     0.062 A 
ATOM     18  C   UNL     1      12.671 -40.085  -3.811  1.00  0.00     0.158 A 
BRANCH  16  19
ATOM     19  O   UNL     1      12.169 -40.304  -6.188  1.00  0.00    -0.504 OA
ATOM     20  H   UNL     1      11.211 -40.124  -6.463  1.00  0.00     0.293 HD
ENDBRANCH  16  19
BRANCH  18  21
ATOM     21  O   UNL     1      11.954 -41.248  -3.534  1.00  0.00    -0.504 OA
ATOM     22  H   UNL     1      12.406 -42.155  -3.496  1.00  0.00     0.293 HD
ENDBRANCH  18  21
ENDBRANCH   3  13
BRANCH  10  23
ATOM     23  O   UNL     1      16.515 -34.322   1.739  1.00  0.00    -0.507 OA
ATOM     24  H   UNL     1      17.261 -33.654   1.868  1.00  0.00     0.293 HD
ENDBRANCH  10  23
BRANCH  11  25
ATOM     25  O   UNL     1      19.039 -38.376   2.038  1.00  0.00    -0.508 OA
ATOM     26  H   UNL     1      19.234 -39.341   1.793  1.00  0.00     0.293 HD
ENDBRANCH  11  25
ENDBRANCH   1   2
BRANCH   1  27
ATOM     27  C   UNL     1      11.693 -35.607  -1.601  1.00  0.00     0.339 C 
ATOM     28  C   UNL     1      10.666 -35.827  -2.722  1.00  0.00     0.214 C 
ATOM     29  O   UNL     1      11.461 -34.402  -0.882  1.00  0.00    -0.332 OA
ATOM     30  C   UNL     1      10.661 -34.623  -3.675  1.00  0.00     0.180 C 
ATOM     31  C   UNL     1      11.421 -33.230  -1.689  1.00  0.00     0.179 C 
ATOM     32  C   UNL     1      10.429 -33.335  -2.871  1.00  0.00     0.177 C 
BRANCH  28  33
ATOM     33  O   UNL     1      10.992 -37.001  -3.423  1.00  0.00    -0.384 OA
ATOM     34  H   UNL     1      11.951 -36.932  -3.671  1.00  0.00     0.211 HD
ENDBRANCH  28  33
BRANCH  30  35
ATOM     35  O   UNL     1       9.644 -34.767  -4.635  1.00  0.00    -0.387 OA
ATOM     36  H   UNL     1       9.684 -35.704  -4.961  1.00  0.00     0.211 HD
ENDBRANCH  30  35
BRANCH  31  37
ATOM     37  C   UNL     1      12.828 -32.752  -2.100  1.00  0.00     0.191 C 
BRANCH  37  38
ATOM     38  O   UNL     1      13.429 -32.068  -1.034  1.00  0.00    -0.394 OA
ATOM     39  H   UNL     1      14.116 -32.681  -0.664  1.00  0.00     0.210 HD
ENDBRANCH  37  38
ENDBRANCH  31  37
BRANCH  32  40
ATOM     40  O   UNL     1       9.117 -33.312  -2.361  1.00  0.00    -0.387 OA
ATOM     41  H   UNL     1       8.833 -34.254  -2.236  1.00  0.00     0.211 HD
ENDBRANCH  32  40
ENDBRANCH   1  27
TORSDOF 12
ENDMDL
MODEL 8
REMARK VINA RESULT:    -6.056      1.559      4.997
REMARK INTER + INTRA:         -10.370
REMARK INTER:                  -8.794
REMARK INTRA:                  -1.575
REMARK UNBOUND:                -1.481
REMARK SMILES O=c1c(O[C@H]2O[C@@H](CO)[C@H](O)[C@H](O)[C@H]2O)c(-c2ccc(O)c(O)c2)oc2cc(O)cc(O)c12
REMARK SMILES IDX 4 1 3 2 16 3 25 4 2 5 26 6 1 7 33 8 27 9 31 10 28 11 30 12
REMARK SMILES IDX 17 13 18 14 19 15 20 16 24 17 22 18 21 19 23 21 32 23 29 25
REMARK SMILES IDX 5 27 14 28 6 29 12 30 7 31 10 32 15 33 13 35 8 37 9 38 11 40
REMARK H PARENT 21 20 23 22 32 24 29 26 15 34 13 36 9 39 11 41
REMARK Flexibility Score: inf
ROOT
ATOM      1  O   UNL     1      14.541 -38.086  -1.788  1.00  0.00    -0.454 OA
ENDROOT
BRANCH   1   2
ATOM      2  C   UNL     1      13.620 -38.260  -2.840  1.00  0.00     0.214 A 
ATOM      3  C   UNL     1      12.811 -37.169  -3.206  1.00  0.00     0.180 A 
ATOM      4  O   UNL     1      11.879 -37.315  -4.139  1.00  0.00    -0.452 OA
ATOM      5  C   UNL     1      13.449 -39.482  -3.526  1.00  0.00     0.239 A 
ATOM      6  C   UNL     1      11.680 -38.444  -4.805  1.00  0.00     0.146 A 
ATOM      7  O   UNL     1      14.138 -40.479  -3.193  1.00  0.00    -0.285 OA
ATOM      8  C   UNL     1      12.491 -39.582  -4.563  1.00  0.00     0.111 A 
ATOM      9  C   UNL     1      10.648 -38.491  -5.745  1.00  0.00     0.094 A 
ATOM     10  C   UNL     1      12.262 -40.755  -5.345  1.00  0.00     0.134 A 
ATOM     11  C   UNL     1      10.394 -39.664  -6.458  1.00  0.00     0.123 A 
ATOM     12  C   UNL     1      11.196 -40.785  -6.251  1.00  0.00     0.093 A 
BRANCH   3  13
ATOM     13  C   UNL     1      12.918 -35.857  -2.530  1.00  0.00     0.025 A 
ATOM     14  C   UNL     1      13.582 -34.776  -3.132  1.00  0.00     0.016 A 
ATOM     15  C   UNL     1      13.677 -33.548  -2.473  1.00  0.00     0.051 A 
ATOM     16  C   UNL     1      13.098 -33.376  -1.213  1.00  0.00     0.157 A 
ATOM     17  C   UNL     1      12.316 -35.675  -1.275  1.00  0.00     0.062 A 
ATOM     18  C   UNL     1      12.408 -34.442  -0.611  1.00  0.00     0.158 A 
BRANCH  16  19
ATOM     19  O   UNL     1      13.212 -32.140  -0.576  1.00  0.00    -0.504 OA
ATOM     20  H   UNL     1      13.946 -31.482  -0.808  1.00  0.00     0.293 HD
ENDBRANCH  16  19
BRANCH  18  21
ATOM     21  O   UNL     1      11.821 -34.276   0.642  1.00  0.00    -0.504 OA
ATOM     22  H   UNL     1      11.540 -35.070   1.206  1.00  0.00     0.293 HD
ENDBRANCH  18  21
ENDBRANCH   3  13
BRANCH  10  23
ATOM     23  O   UNL     1      13.064 -41.900  -5.289  1.00  0.00    -0.507 OA
ATOM     24  H   UNL     1      12.777 -42.816  -5.600  1.00  0.00     0.293 HD
ENDBRANCH  10  23
BRANCH  11  25
ATOM     25  O   UNL     1       9.350 -39.725  -7.379  1.00  0.00    -0.508 OA
ATOM     26  H   UNL     1       9.321 -40.434  -8.103  1.00  0.00     0.293 HD
ENDBRANCH  11  25
ENDBRANCH   1   2
BRANCH   1  27
ATOM     27  C   UNL     1      15.774 -37.362  -1.849  1.00  0.00     0.339 C 
ATOM     28  C   UNL     1      16.961 -38.320  -1.674  1.00  0.00     0.214 C 
ATOM     29  O   UNL     1      15.806 -36.284  -0.922  1.00  0.00    -0.332 OA
ATOM     30  C   UNL     1      17.002 -38.851  -0.234  1.00  0.00     0.180 C 
ATOM     31  C   UNL     1      15.863 -36.681   0.445  1.00  0.00     0.179 C 
ATOM     32  C   UNL     1      17.016 -37.668   0.746  1.00  0.00     0.177 C 
BRANCH  28  33
ATOM     33  O   UNL     1      16.832 -39.386  -2.581  1.00  0.00    -0.384 OA
ATOM     34  H   UNL     1      16.519 -38.999  -3.440  1.00  0.00     0.211 HD
ENDBRANCH  28  33
BRANCH  30  35
ATOM     35  O   UNL     1      18.150 -39.637  -0.037  1.00  0.00    -0.387 OA
ATOM     36  H   UNL     1      18.088 -40.020   0.877  1.00  0.00     0.211 HD
ENDBRANCH  30  35
BRANCH  31  37
ATOM     37  C   UNL     1      14.494 -37.144   0.979  1.00  0.00     0.191 C 
BRANCH  37  38
ATOM     38  O   UNL     1      13.984 -36.192   1.874  1.00  0.00    -0.394 OA
ATOM     39  H   UNL     1      13.304 -35.674   1.370  1.00  0.00     0.210 HD
ENDBRANCH  37  38
ENDBRANCH  31  37
BRANCH  32  40
ATOM     40  O   UNL     1      18.238 -36.975   0.654  1.00  0.00    -0.387 OA
ATOM     41  H   UNL     1      18.027 -36.006   0.658  1.00  0.00     0.211 HD
ENDBRANCH  32  40
ENDBRANCH   1  27
TORSDOF 12
ENDMDL
MODEL 9
REMARK VINA RESULT:    -5.974      0.803      2.199
REMARK INTER + INTRA:         -10.249
REMARK INTER:                  -9.089
REMARK INTRA:                  -1.160
REMARK UNBOUND:                -1.481
REMARK SMILES O=c1c(O[C@H]2O[C@@H](CO)[C@H](O)[C@H](O)[C@H]2O)c(-c2ccc(O)c(O)c2)oc2cc(O)cc(O)c12
REMARK SMILES IDX 4 1 3 2 16 3 25 4 2 5 26 6 1 7 33 8 27 9 31 10 28 11 30 12
REMARK SMILES IDX 17 13 18 14 19 15 20 16 24 17 22 18 21 19 23 21 32 23 29 25
REMARK SMILES IDX 5 27 14 28 6 29 12 30 7 31 10 32 15 33 13 35 8 37 9 38 11 40
REMARK H PARENT 21 20 23 22 32 24 29 26 15 34 13 36 9 39 11 41
REMARK Flexibility Score: inf
ROOT
ATOM      1  O   UNL     1      13.149 -36.455  -2.680  1.00  0.00    -0.454 OA
ENDROOT
BRANCH   1   2
ATOM      2  C   UNL     1      12.904 -37.651  -3.381  1.00  0.00     0.214 A 
ATOM      3  C   UNL     1      13.854 -38.685  -3.287  1.00  0.00     0.180 A 
ATOM      4  O   UNL     1      13.699 -39.798  -3.993  1.00  0.00    -0.452 OA
ATOM      5  C   UNL     1      11.769 -37.855  -4.195  1.00  0.00     0.239 A 
ATOM      6  C   UNL     1      12.652 -40.030  -4.773  1.00  0.00     0.146 A 
ATOM      7  O   UNL     1      10.925 -36.932  -4.320  1.00  0.00    -0.285 OA
ATOM      8  C   UNL     1      11.603 -39.082  -4.880  1.00  0.00     0.111 A 
ATOM      9  C   UNL     1      12.610 -41.226  -5.494  1.00  0.00     0.094 A 
ATOM     10  C   UNL     1      10.478 -39.408  -5.698  1.00  0.00     0.134 A 
ATOM     11  C   UNL     1      11.534 -41.503  -6.339  1.00  0.00     0.123 A 
ATOM     12  C   UNL     1      10.482 -40.595  -6.439  1.00  0.00     0.093 A 
BRANCH   3  13
ATOM     13  C   UNL     1      15.077 -38.549  -2.465  1.00  0.00     0.025 A 
ATOM     14  C   UNL     1      15.034 -38.653  -1.066  1.00  0.00     0.016 A 
ATOM     15  C   UNL     1      16.199 -38.515  -0.308  1.00  0.00     0.051 A 
ATOM     16  C   UNL     1      17.426 -38.286  -0.937  1.00  0.00     0.157 A 
ATOM     17  C   UNL     1      16.314 -38.343  -3.095  1.00  0.00     0.062 A 
ATOM     18  C   UNL     1      17.487 -38.205  -2.338  1.00  0.00     0.158 A 
BRANCH  16  19
ATOM     19  O   UNL     1      18.574 -38.147  -0.156  1.00  0.00    -0.504 OA
ATOM     20  H   UNL     1      19.394 -37.657  -0.488  1.00  0.00     0.293 HD
ENDBRANCH  16  19
BRANCH  18  21
ATOM     21  O   UNL     1      18.708 -37.985  -2.973  1.00  0.00    -0.504 OA
ATOM     22  H   UNL     1      18.774 -37.891  -3.981  1.00  0.00     0.293 HD
ENDBRANCH  18  21
ENDBRANCH   3  13
BRANCH  10  23
ATOM     23  O   UNL     1       9.328 -38.616  -5.795  1.00  0.00    -0.507 OA
ATOM     24  H   UNL     1       8.767 -38.522  -6.629  1.00  0.00     0.293 HD
ENDBRANCH  10  23
BRANCH  11  25
ATOM     25  O   UNL     1      11.497 -42.683  -7.080  1.00  0.00    -0.508 OA
ATOM     26  H   UNL     1      12.082 -43.477  -6.843  1.00  0.00     0.293 HD
ENDBRANCH  11  25
ENDBRANCH   1   2
BRANCH   1  27
ATOM     27  C   UNL     1      13.610 -35.220  -3.239  1.00  0.00     0.339 C 
ATOM     28  C   UNL     1      14.512 -34.486  -2.236  1.00  0.00     0.214 C 
ATOM     29  O   UNL     1      12.535 -34.408  -3.696  1.00  0.00    -0.332 OA
ATOM     30  C   UNL     1      13.679 -33.980  -1.050  1.00  0.00     0.180 C 
ATOM     31  C   UNL     1      11.714 -33.876  -2.661  1.00  0.00     0.179 C 
ATOM     32  C   UNL     1      12.515 -33.123  -1.572  1.00  0.00     0.177 C 
BRANCH  28  33
ATOM     33  O   UNL     1      15.512 -35.366  -1.786  1.00  0.00    -0.384 OA
ATOM     34  H   UNL     1      15.051 -36.128  -1.348  1.00  0.00     0.211 HD
ENDBRANCH  28  33
BRANCH  30  35
ATOM     35  O   UNL     1      14.478 -33.210  -0.188  1.00  0.00    -0.387 OA
ATOM     36  H   UNL     1      15.217 -32.834  -0.735  1.00  0.00     0.211 HD
ENDBRANCH  30  35
BRANCH  31  37
ATOM     37  C   UNL     1      10.730 -34.919  -2.097  1.00  0.00     0.191 C 
BRANCH  37  38
ATOM     38  O   UNL     1       9.573 -34.959  -2.888  1.00  0.00    -0.394 OA
ATOM     39  H   UNL     1       8.844 -34.579  -2.332  1.00  0.00     0.210 HD
ENDBRANCH  37  38
ENDBRANCH  31  37
BRANCH  32  40
ATOM     40  O   UNL     1      13.005 -31.923  -2.122  1.00  0.00    -0.387 OA
ATOM     41  H   UNL     1      12.524 -31.178  -1.676  1.00  0.00     0.211 HD
ENDBRANCH  32  40
ENDBRANCH   1  27
TORSDOF 12
ENDMDL
