MODEL 1
REMARK VINA RESULT:    35.445      0.000      0.000
REMARK INTER + INTRA:          41.569
REMARK INTER:                  41.662
REMARK INTRA:                  -0.092
REMARK UNBOUND:                -0.092
REMARK SMILES O=c1c(O)c(-c2ccc(O)cc2)oc2cc(O)cc(O)c12
REMARK SMILES IDX 5 1 3 2 2 3 1 4 21 5 19 6 18 7 16 8 15 9 14 10 13 11 6 12
REMARK SMILES IDX 7 13 8 14 9 15 12 16 11 17 10 18 4 20 20 22 17 24
REMARK H PARENT 10 19 4 21 20 23 17 25
REMARK Flexibility Score: inf
ROOT
ATOM      1  C   UNL     1      31.183   4.615   0.152  1.00  0.00     0.180 A 
ATOM      2  C   UNL     1      31.223   5.950   0.589  1.00  0.00     0.208 A 
ATOM      3  C   UNL     1      32.432   6.471   1.077  1.00  0.00     0.238 A 
ATOM      4  O   UNL     1      32.449   7.650   1.517  1.00  0.00    -0.285 OA
ATOM      5  C   UNL     1      33.591   5.656   1.105  1.00  0.00     0.111 A 
ATOM      6  C   UNL     1      34.877   6.092   1.541  1.00  0.00     0.134 A 
ATOM      7  C   UNL     1      35.920   5.165   1.650  1.00  0.00     0.093 A 
ATOM      8  C   UNL     1      35.742   3.832   1.278  1.00  0.00     0.123 A 
ATOM      9  C   UNL     1      34.504   3.408   0.794  1.00  0.00     0.094 A 
ATOM     10  C   UNL     1      33.433   4.303   0.708  1.00  0.00     0.146 A 
ATOM     11  O   UNL     1      32.269   3.857   0.252  1.00  0.00    -0.452 OA
ENDROOT
BRANCH   1  12
ATOM     12  C   UNL     1      29.952   4.002  -0.398  1.00  0.00     0.021 A 
ATOM     13  C   UNL     1      29.325   2.917   0.240  1.00  0.00     0.016 A 
ATOM     14  C   UNL     1      28.150   2.371  -0.286  1.00  0.00     0.047 A 
ATOM     15  C   UNL     1      27.580   2.910  -1.446  1.00  0.00     0.115 A 
ATOM     16  C   UNL     1      29.363   4.549  -1.550  1.00  0.00     0.016 A 
ATOM     17  C   UNL     1      28.188   4.001  -2.074  1.00  0.00     0.047 A 
BRANCH  15  18
ATOM     18  O   UNL     1      26.411   2.373  -1.979  1.00  0.00    -0.508 OA
ATOM     19  H   UNL     1      25.519   2.474  -1.508  1.00  0.00     0.293 HD
ENDBRANCH  15  18
ENDBRANCH   1  12
BRANCH   2  20
ATOM     20  O   UNL     1      30.064   6.731   0.573  1.00  0.00    -0.502 OA
ATOM     21  H   UNL     1      29.207   6.422   0.128  1.00  0.00     0.293 HD
ENDBRANCH   2  20
BRANCH   6  22
ATOM     22  O   UNL     1      35.188   7.420   1.850  1.00  0.00    -0.507 OA
ATOM     23  H   UNL     1      35.169   7.813   2.779  1.00  0.00     0.293 HD
ENDBRANCH   6  22
BRANCH   8  24
ATOM     24  O   UNL     1      36.806   2.940   1.385  1.00  0.00    -0.508 OA
ATOM     25  H   UNL     1      37.763   3.234   1.233  1.00  0.00     0.293 HD
ENDBRANCH   8  24
TORSDOF 5
ENDMDL
