MODEL 1
REMARK VINA RESULT:    -6.947      0.000      0.000
REMARK INTER + INTRA:          -8.431
REMARK INTER:                  -8.165
REMARK INTRA:                  -0.266
REMARK UNBOUND:                -0.266
REMARK SMILES O=c1cc(-c2ccc(O)c(O)c2)oc2cc(O)cc(O)c12
REMARK SMILES IDX 4 1 3 2 2 3 1 4 21 5 19 6 18 7 16 8 15 9 14 10 13 11 5 12
REMARK SMILES IDX 6 13 7 14 8 15 12 16 10 17 9 18 11 20 20 22 17 24
REMARK H PARENT 9 19 11 21 20 23 17 25
REMARK Flexibility Score: inf
ROOT
ATOM      1  C   UNL     1     116.602 121.424 121.740  1.00  0.00     0.138 A 
ATOM      2  C   UNL     1     116.875 120.443 122.703  1.00  0.00     0.100 A 
ATOM      3  C   UNL     1     117.074 120.818 124.032  1.00  0.00     0.197 A 
ATOM      4  O   UNL     1     117.262 119.910 124.882  1.00  0.00    -0.289 OA
ATOM      5  C   UNL     1     117.033 122.187 124.391  1.00  0.00     0.107 A 
ATOM      6  C   UNL     1     117.254 122.690 125.709  1.00  0.00     0.134 A 
ATOM      7  C   UNL     1     117.090 124.057 125.962  1.00  0.00     0.093 A 
ATOM      8  C   UNL     1     116.771 124.947 124.937  1.00  0.00     0.123 A 
ATOM      9  C   UNL     1     116.602 124.474 123.636  1.00  0.00     0.094 A 
ATOM     10  C   UNL     1     116.724 123.110 123.357  1.00  0.00     0.146 A 
ATOM     11  O   UNL     1     116.537 122.699 122.108  1.00  0.00    -0.456 OA
ENDROOT
BRANCH   1  12
ATOM     12  C   UNL     1     116.385 121.082 120.311  1.00  0.00     0.021 A 
ATOM     13  C   UNL     1     117.252 121.536 119.301  1.00  0.00     0.016 A 
ATOM     14  C   UNL     1     117.028 121.190 117.968  1.00  0.00     0.051 A 
ATOM     15  C   UNL     1     115.944 120.381 117.611  1.00  0.00     0.157 A 
ATOM     16  C   UNL     1     115.304 120.258 119.953  1.00  0.00     0.062 A 
ATOM     17  C   UNL     1     115.071 119.906 118.617  1.00  0.00     0.158 A 
BRANCH  15  18
ATOM     18  O   UNL     1     115.775 120.075 116.258  1.00  0.00    -0.504 OA
ATOM     19  H   UNL     1     115.152 120.575 115.641  1.00  0.00     0.293 HD
ENDBRANCH  15  18
BRANCH  17  20
ATOM     20  O   UNL     1     113.972 119.092 118.339  1.00  0.00    -0.504 OA
ATOM     21  H   UNL     1     113.012 119.398 118.407  1.00  0.00     0.293 HD
ENDBRANCH  17  20
ENDBRANCH   1  12
BRANCH   6  22
ATOM     22  O   UNL     1     117.655 121.901 126.792  1.00  0.00    -0.507 OA
ATOM     23  H   UNL     1     118.601 121.605 126.975  1.00  0.00     0.293 HD
ENDBRANCH   6  22
BRANCH   8  24
ATOM     24  O   UNL     1     116.631 126.304 125.224  1.00  0.00    -0.508 OA
ATOM     25  H   UNL     1     117.088 127.013 124.663  1.00  0.00     0.293 HD
ENDBRANCH   8  24
TORSDOF 5
ENDMDL
MODEL 2
REMARK VINA RESULT:    -6.927      5.291      6.018
REMARK INTER + INTRA:          -8.409
REMARK INTER:                  -8.144
REMARK INTRA:                  -0.265
REMARK UNBOUND:                -0.266
REMARK SMILES O=c1cc(-c2ccc(O)c(O)c2)oc2cc(O)cc(O)c12
REMARK SMILES IDX 4 1 3 2 2 3 1 4 21 5 19 6 18 7 16 8 15 9 14 10 13 11 5 12
REMARK SMILES IDX 6 13 7 14 8 15 12 16 10 17 9 18 11 20 20 22 17 24
REMARK H PARENT 9 19 11 21 20 23 17 25
REMARK Flexibility Score: inf
ROOT
ATOM      1  C   UNL     1     121.352 122.448 121.728  1.00  0.00     0.138 A 
ATOM      2  C   UNL     1     120.358 122.198 122.684  1.00  0.00     0.100 A 
ATOM      3  C   UNL     1     120.718 122.001 124.017  1.00  0.00     0.197 A 
ATOM      4  O   UNL     1     119.798 121.836 124.860  1.00  0.00    -0.289 OA
ATOM      5  C   UNL     1     122.083 122.018 124.388  1.00  0.00     0.107 A 
ATOM      6  C   UNL     1     122.571 121.796 125.713  1.00  0.00     0.134 A 
ATOM      7  C   UNL     1     123.939 121.936 125.977  1.00  0.00     0.093 A 
ATOM      8  C   UNL     1     124.843 122.232 124.958  1.00  0.00     0.123 A 
ATOM      9  C   UNL     1     124.385 122.402 123.651  1.00  0.00     0.094 A 
ATOM     10  C   UNL     1     123.022 122.303 123.361  1.00  0.00     0.146 A 
ATOM     11  O   UNL     1     122.625 122.490 122.107  1.00  0.00    -0.456 OA
ENDROOT
BRANCH   1  12
ATOM     12  C   UNL     1     121.027 122.662 120.295  1.00  0.00     0.021 A 
ATOM     13  C   UNL     1     121.512 121.807 119.289  1.00  0.00     0.016 A 
ATOM     14  C   UNL     1     121.181 122.028 117.951  1.00  0.00     0.051 A 
ATOM     15  C   UNL     1     120.357 123.097 117.586  1.00  0.00     0.157 A 
ATOM     16  C   UNL     1     120.187 123.728 119.927  1.00  0.00     0.062 A 
ATOM     17  C   UNL     1     119.851 123.958 118.587  1.00  0.00     0.158 A 
BRANCH  15  18
ATOM     18  O   UNL     1     120.068 123.264 116.229  1.00  0.00    -0.504 OA
ATOM     19  H   UNL     1     119.617 122.564 115.658  1.00  0.00     0.293 HD
ENDBRANCH  15  18
BRANCH  17  20
ATOM     20  O   UNL     1     119.020 125.042 118.301  1.00  0.00    -0.504 OA
ATOM     21  H   UNL     1     118.829 125.793 118.948  1.00  0.00     0.293 HD
ENDBRANCH  17  20
ENDBRANCH   1  12
BRANCH   6  22
ATOM     22  O   UNL     1     121.765 121.417 126.790  1.00  0.00    -0.507 OA
ATOM     23  H   UNL     1     120.872 121.824 127.019  1.00  0.00     0.293 HD
ENDBRANCH   6  22
BRANCH   8  24
ATOM     24  O   UNL     1     126.200 122.348 125.256  1.00  0.00    -0.508 OA
ATOM     25  H   UNL     1     126.900 121.827 124.742  1.00  0.00     0.293 HD
ENDBRANCH   8  24
TORSDOF 5
ENDMDL
MODEL 3
REMARK VINA RESULT:    -6.899      6.893      8.522
REMARK INTER + INTRA:          -8.376
REMARK INTER:                  -8.111
REMARK INTRA:                  -0.265
REMARK UNBOUND:                -0.266
REMARK SMILES O=c1cc(-c2ccc(O)c(O)c2)oc2cc(O)cc(O)c12
REMARK SMILES IDX 4 1 3 2 2 3 1 4 21 5 19 6 18 7 16 8 15 9 14 10 13 11 5 12
REMARK SMILES IDX 6 13 7 14 8 15 12 16 10 17 9 18 11 20 20 22 17 24
REMARK H PARENT 9 19 11 21 20 23 17 25
REMARK Flexibility Score: inf
ROOT
ATOM      1  C   UNL     1     122.406 117.753 121.701  1.00  0.00     0.138 A 
ATOM      2  C   UNL     1     122.150 118.726 122.676  1.00  0.00     0.100 A 
ATOM      3  C   UNL     1     121.967 118.341 124.005  1.00  0.00     0.197 A 
ATOM      4  O   UNL     1     121.795 119.243 124.864  1.00  0.00    -0.289 OA
ATOM      5  C   UNL     1     122.005 116.969 124.352  1.00  0.00     0.107 A 
ATOM      6  C   UNL     1     121.799 116.456 125.669  1.00  0.00     0.134 A 
ATOM      7  C   UNL     1     121.960 115.085 125.908  1.00  0.00     0.093 A 
ATOM      8  C   UNL     1     122.261 114.203 124.871  1.00  0.00     0.123 A 
ATOM      9  C   UNL     1     122.416 114.686 123.571  1.00  0.00     0.094 A 
ATOM     10  C   UNL     1     122.296 116.053 123.306  1.00  0.00     0.146 A 
ATOM     11  O   UNL     1     122.469 116.474 122.058  1.00  0.00    -0.456 OA
ENDROOT
BRANCH   1  12
ATOM     12  C   UNL     1     122.606 118.105 120.273  1.00  0.00     0.021 A 
ATOM     13  C   UNL     1     121.678 117.738 119.283  1.00  0.00     0.016 A 
ATOM     14  C   UNL     1     121.889 118.093 117.949  1.00  0.00     0.051 A 
ATOM     15  C   UNL     1     123.020 118.825 117.573  1.00  0.00     0.157 A 
ATOM     16  C   UNL     1     123.736 118.853 119.896  1.00  0.00     0.062 A 
ATOM     17  C   UNL     1     123.955 119.213 118.560  1.00  0.00     0.158 A 
BRANCH  15  18
ATOM     18  O   UNL     1     123.172 119.144 116.222  1.00  0.00    -0.504 OA
ATOM     19  H   UNL     1     122.430 119.507 115.641  1.00  0.00     0.293 HD
ENDBRANCH  15  18
BRANCH  17  20
ATOM     20  O   UNL     1     125.104 119.947 118.264  1.00  0.00    -0.504 OA
ATOM     21  H   UNL     1     125.519 119.999 117.345  1.00  0.00     0.293 HD
ENDBRANCH  17  20
ENDBRANCH   1  12
BRANCH   6  22
ATOM     22  O   UNL     1     121.416 117.237 126.763  1.00  0.00    -0.507 OA
ATOM     23  H   UNL     1     121.056 118.177 126.707  1.00  0.00     0.293 HD
ENDBRANCH   6  22
BRANCH   8  24
ATOM     24  O   UNL     1     122.397 112.843 125.145  1.00  0.00    -0.508 OA
ATOM     25  H   UNL     1     122.701 112.514 126.054  1.00  0.00     0.293 HD
ENDBRANCH   8  24
TORSDOF 5
ENDMDL
MODEL 4
REMARK VINA RESULT:    -6.879      5.328      5.985
REMARK INTER + INTRA:          -8.352
REMARK INTER:                  -8.086
REMARK INTRA:                  -0.265
REMARK UNBOUND:                -0.266
REMARK SMILES O=c1cc(-c2ccc(O)c(O)c2)oc2cc(O)cc(O)c12
REMARK SMILES IDX 4 1 3 2 2 3 1 4 21 5 19 6 18 7 16 8 15 9 14 10 13 11 5 12
REMARK SMILES IDX 6 13 7 14 8 15 12 16 10 17 9 18 11 20 20 22 17 24
REMARK H PARENT 9 19 11 21 20 23 17 25
REMARK Flexibility Score: inf
ROOT
ATOM      1  C   UNL     1     117.868 116.650 121.771  1.00  0.00     0.138 A 
ATOM      2  C   UNL     1     118.908 116.853 122.688  1.00  0.00     0.100 A 
ATOM      3  C   UNL     1     118.610 117.060 124.035  1.00  0.00     0.197 A 
ATOM      4  O   UNL     1     119.567 117.182 124.841  1.00  0.00    -0.289 OA
ATOM      5  C   UNL     1     117.260 117.099 124.459  1.00  0.00     0.107 A 
ATOM      6  C   UNL     1     116.834 117.337 125.801  1.00  0.00     0.134 A 
ATOM      7  C   UNL     1     115.473 117.254 126.118  1.00  0.00     0.093 A 
ATOM      8  C   UNL     1     114.518 117.001 125.135  1.00  0.00     0.123 A 
ATOM      9  C   UNL     1     114.917 116.817 123.810  1.00  0.00     0.094 A 
ATOM     10  C   UNL     1     116.271 116.859 123.468  1.00  0.00     0.146 A 
ATOM     11  O   UNL     1     116.610 116.660 122.199  1.00  0.00    -0.456 OA
ENDROOT
BRANCH   1  12
ATOM     12  C   UNL     1     118.128 116.428 120.326  1.00  0.00     0.021 A 
ATOM     13  C   UNL     1     117.632 117.301 119.341  1.00  0.00     0.016 A 
ATOM     14  C   UNL     1     117.901 117.072 117.991  1.00  0.00     0.051 A 
ATOM     15  C   UNL     1     118.674 115.976 117.591  1.00  0.00     0.157 A 
ATOM     16  C   UNL     1     118.916 115.335 119.924  1.00  0.00     0.062 A 
ATOM     17  C   UNL     1     119.191 115.097 118.571  1.00  0.00     0.158 A 
BRANCH  15  18
ATOM     18  O   UNL     1     118.902 115.802 116.224  1.00  0.00    -0.504 OA
ATOM     19  H   UNL     1     118.224 115.417 115.584  1.00  0.00     0.293 HD
ENDBRANCH  15  18
BRANCH  17  20
ATOM     20  O   UNL     1     119.973 113.987 118.251  1.00  0.00    -0.504 OA
ATOM     21  H   UNL     1     120.974 114.019 118.126  1.00  0.00     0.293 HD
ENDBRANCH  17  20
ENDBRANCH   1  12
BRANCH   6  22
ATOM     22  O   UNL     1     117.696 117.677 126.848  1.00  0.00    -0.507 OA
ATOM     23  H   UNL     1     117.669 118.543 127.364  1.00  0.00     0.293 HD
ENDBRANCH   6  22
BRANCH   8  24
ATOM     24  O   UNL     1     113.170 116.942 125.485  1.00  0.00    -0.508 OA
ATOM     25  H   UNL     1     112.686 116.057 125.579  1.00  0.00     0.293 HD
ENDBRANCH   8  24
TORSDOF 5
ENDMDL
MODEL 5
REMARK VINA RESULT:    -6.775      6.113      8.313
REMARK INTER + INTRA:          -8.229
REMARK INTER:                  -7.946
REMARK INTRA:                  -0.283
REMARK UNBOUND:                -0.266
REMARK SMILES O=c1cc(-c2ccc(O)c(O)c2)oc2cc(O)cc(O)c12
REMARK SMILES IDX 4 1 3 2 2 3 1 4 21 5 19 6 18 7 16 8 15 9 14 10 13 11 5 12
REMARK SMILES IDX 6 13 7 14 8 15 12 16 10 17 9 18 11 20 20 22 17 24
REMARK H PARENT 9 19 11 21 20 23 17 25
REMARK Flexibility Score: inf
ROOT
ATOM      1  C   UNL     1     122.145 118.483 122.163  1.00  0.00     0.138 A 
ATOM      2  C   UNL     1     123.013 118.371 121.069  1.00  0.00     0.100 A 
ATOM      3  C   UNL     1     123.045 119.381 120.107  1.00  0.00     0.197 A 
ATOM      4  O   UNL     1     123.874 119.277 119.167  1.00  0.00    -0.289 OA
ATOM      5  C   UNL     1     122.176 120.492 120.224  1.00  0.00     0.107 A 
ATOM      6  C   UNL     1     122.096 121.566 119.286  1.00  0.00     0.134 A 
ATOM      7  C   UNL     1     121.267 122.661 119.560  1.00  0.00     0.093 A 
ATOM      8  C   UNL     1     120.474 122.696 120.706  1.00  0.00     0.123 A 
ATOM      9  C   UNL     1     120.505 121.629 121.604  1.00  0.00     0.094 A 
ATOM     10  C   UNL     1     121.348 120.538 121.377  1.00  0.00     0.146 A 
ATOM     11  O   UNL     1     121.362 119.552 122.267  1.00  0.00    -0.456 OA
ENDROOT
BRANCH   1  12
ATOM     12  C   UNL     1     122.068 117.437 123.215  1.00  0.00     0.021 A 
ATOM     13  C   UNL     1     121.801 117.756 124.558  1.00  0.00     0.016 A 
ATOM     14  C   UNL     1     121.725 116.750 125.522  1.00  0.00     0.051 A 
ATOM     15  C   UNL     1     121.905 115.407 125.172  1.00  0.00     0.157 A 
ATOM     16  C   UNL     1     122.235 116.086 122.861  1.00  0.00     0.062 A 
ATOM     17  C   UNL     1     122.161 115.071 123.823  1.00  0.00     0.158 A 
BRANCH  15  18
ATOM     18  O   UNL     1     121.819 114.451 126.186  1.00  0.00    -0.504 OA
ATOM     19  H   UNL     1     121.040 114.371 126.822  1.00  0.00     0.293 HD
ENDBRANCH  15  18
BRANCH  17  20
ATOM     20  O   UNL     1     122.347 113.755 123.395  1.00  0.00    -0.504 OA
ATOM     21  H   UNL     1     122.434 113.483 122.427  1.00  0.00     0.293 HD
ENDBRANCH  17  20
ENDBRANCH   1  12
BRANCH   6  22
ATOM     22  O   UNL     1     122.785 121.597 118.070  1.00  0.00    -0.507 OA
ATOM     23  H   UNL     1     122.598 122.236 117.313  1.00  0.00     0.293 HD
ENDBRANCH   6  22
BRANCH   8  24
ATOM     24  O   UNL     1     119.649 123.796 120.937  1.00  0.00    -0.508 OA
ATOM     25  H   UNL     1     120.002 124.743 120.875  1.00  0.00     0.293 HD
ENDBRANCH   8  24
TORSDOF 5
ENDMDL
MODEL 6
REMARK VINA RESULT:    -6.768      4.440      7.749
REMARK INTER + INTRA:          -8.222
REMARK INTER:                  -7.938
REMARK INTRA:                  -0.283
REMARK UNBOUND:                -0.266
REMARK SMILES O=c1cc(-c2ccc(O)c(O)c2)oc2cc(O)cc(O)c12
REMARK SMILES IDX 4 1 3 2 2 3 1 4 21 5 19 6 18 7 16 8 15 9 14 10 13 11 5 12
REMARK SMILES IDX 6 13 7 14 8 15 12 16 10 17 9 18 11 20 20 22 17 24
REMARK H PARENT 9 19 11 21 20 23 17 25
REMARK Flexibility Score: inf
ROOT
ATOM      1  C   UNL     1     120.519 122.164 122.084  1.00  0.00     0.138 A 
ATOM      2  C   UNL     1     120.605 123.040 120.994  1.00  0.00     0.100 A 
ATOM      3  C   UNL     1     119.589 123.053 120.038  1.00  0.00     0.197 A 
ATOM      4  O   UNL     1     119.667 123.890 119.102  1.00  0.00    -0.289 OA
ATOM      5  C   UNL     1     118.498 122.159 120.156  1.00  0.00     0.107 A 
ATOM      6  C   UNL     1     117.421 122.059 119.224  1.00  0.00     0.134 A 
ATOM      7  C   UNL     1     116.346 121.205 119.500  1.00  0.00     0.093 A 
ATOM      8  C   UNL     1     116.337 120.404 120.642  1.00  0.00     0.123 A 
ATOM      9  C   UNL     1     117.407 120.455 121.534  1.00  0.00     0.094 A 
ATOM     10  C   UNL     1     118.478 121.324 121.305  1.00  0.00     0.146 A 
ATOM     11  O   UNL     1     119.469 121.356 122.190  1.00  0.00    -0.456 OA
ENDROOT
BRANCH   1  12
ATOM     12  C   UNL     1     121.572 122.105 123.128  1.00  0.00     0.021 A 
ATOM     13  C   UNL     1     121.269 121.817 124.471  1.00  0.00     0.016 A 
ATOM     14  C   UNL     1     122.282 121.758 125.429  1.00  0.00     0.051 A 
ATOM     15  C   UNL     1     123.617 121.977 125.073  1.00  0.00     0.157 A 
ATOM     16  C   UNL     1     122.916 122.311 122.769  1.00  0.00     0.062 A 
ATOM     17  C   UNL     1     123.939 122.255 123.724  1.00  0.00     0.158 A 
BRANCH  15  18
ATOM     18  O   UNL     1     124.582 121.908 126.081  1.00  0.00    -0.504 OA
ATOM     19  H   UNL     1     124.380 121.658 127.038  1.00  0.00     0.293 HD
ENDBRANCH  15  18
BRANCH  17  20
ATOM     20  O   UNL     1     125.247 122.480 123.291  1.00  0.00    -0.504 OA
ATOM     21  H   UNL     1     125.678 123.392 123.249  1.00  0.00     0.293 HD
ENDBRANCH  17  20
ENDBRANCH   1  12
BRANCH   6  22
ATOM     22  O   UNL     1     117.367 122.754 118.012  1.00  0.00    -0.507 OA
ATOM     23  H   UNL     1     116.540 123.183 117.626  1.00  0.00     0.293 HD
ENDBRANCH   6  22
BRANCH   8  24
ATOM     24  O   UNL     1     115.257 119.554 120.874  1.00  0.00    -0.508 OA
ATOM     25  H   UNL     1     114.596 119.325 120.141  1.00  0.00     0.293 HD
ENDBRANCH   8  24
TORSDOF 5
ENDMDL
MODEL 7
REMARK VINA RESULT:    -6.716      5.856      7.914
REMARK INTER + INTRA:          -8.160
REMARK INTER:                  -7.874
REMARK INTRA:                  -0.286
REMARK UNBOUND:                -0.266
REMARK SMILES O=c1cc(-c2ccc(O)c(O)c2)oc2cc(O)cc(O)c12
REMARK SMILES IDX 4 1 3 2 2 3 1 4 21 5 19 6 18 7 16 8 15 9 14 10 13 11 5 12
REMARK SMILES IDX 6 13 7 14 8 15 12 16 10 17 9 18 11 20 20 22 17 24
REMARK H PARENT 9 19 11 21 20 23 17 25
REMARK Flexibility Score: inf
ROOT
ATOM      1  C   UNL     1     118.493 116.872 121.976  1.00  0.00     0.138 A 
ATOM      2  C   UNL     1     118.368 116.034 120.860  1.00  0.00     0.100 A 
ATOM      3  C   UNL     1     119.370 116.024 119.889  1.00  0.00     0.197 A 
ATOM      4  O   UNL     1     119.255 115.220 118.928  1.00  0.00    -0.289 OA
ATOM      5  C   UNL     1     120.487 116.883 120.021  1.00  0.00     0.107 A 
ATOM      6  C   UNL     1     121.554 116.983 119.076  1.00  0.00     0.134 A 
ATOM      7  C   UNL     1     122.655 117.798 119.364  1.00  0.00     0.093 A 
ATOM      8  C   UNL     1     122.703 118.560 120.530  1.00  0.00     0.123 A 
ATOM      9  C   UNL     1     121.644 118.510 121.436  1.00  0.00     0.094 A 
ATOM     10  C   UNL     1     120.546 117.679 121.196  1.00  0.00     0.146 A 
ATOM     11  O   UNL     1     119.567 117.646 122.093  1.00  0.00    -0.456 OA
ENDROOT
BRANCH   1  12
ATOM     12  C   UNL     1     117.457 116.926 123.038  1.00  0.00     0.021 A 
ATOM     13  C   UNL     1     117.772 117.267 124.365  1.00  0.00     0.016 A 
ATOM     14  C   UNL     1     116.774 117.319 125.339  1.00  0.00     0.051 A 
ATOM     15  C   UNL     1     115.442 117.041 125.015  1.00  0.00     0.157 A 
ATOM     16  C   UNL     1     116.115 116.660 122.710  1.00  0.00     0.062 A 
ATOM     17  C   UNL     1     115.108 116.709 123.681  1.00  0.00     0.158 A 
BRANCH  15  18
ATOM     18  O   UNL     1     114.493 117.107 126.037  1.00  0.00    -0.504 OA
ATOM     19  H   UNL     1     113.948 116.318 126.353  1.00  0.00     0.293 HD
ENDBRANCH  15  18
BRANCH  17  20
ATOM     20  O   UNL     1     113.802 116.423 123.280  1.00  0.00    -0.504 OA
ATOM     21  H   UNL     1     113.552 116.114 122.352  1.00  0.00     0.293 HD
ENDBRANCH  17  20
ENDBRANCH   1  12
BRANCH   6  22
ATOM     22  O   UNL     1     121.571 116.327 117.842  1.00  0.00    -0.507 OA
ATOM     23  H   UNL     1     120.808 116.310 117.183  1.00  0.00     0.293 HD
ENDBRANCH   6  22
BRANCH   8  24
ATOM     24  O   UNL     1     123.809 119.373 120.774  1.00  0.00    -0.508 OA
ATOM     25  H   UNL     1     124.641 119.321 120.198  1.00  0.00     0.293 HD
ENDBRANCH   8  24
TORSDOF 5
ENDMDL
MODEL 8
REMARK VINA RESULT:    -6.670      2.762      7.277
REMARK INTER + INTRA:          -8.107
REMARK INTER:                  -7.820
REMARK INTRA:                  -0.286
REMARK UNBOUND:                -0.266
REMARK SMILES O=c1cc(-c2ccc(O)c(O)c2)oc2cc(O)cc(O)c12
REMARK SMILES IDX 4 1 3 2 2 3 1 4 21 5 19 6 18 7 16 8 15 9 14 10 13 11 5 12
REMARK SMILES IDX 6 13 7 14 8 15 12 16 10 17 9 18 11 20 20 22 17 24
REMARK H PARENT 9 19 11 21 20 23 17 25
REMARK Flexibility Score: inf
ROOT
ATOM      1  C   UNL     1     116.927 120.527 122.044  1.00  0.00     0.138 A 
ATOM      2  C   UNL     1     116.082 120.609 120.929  1.00  0.00     0.100 A 
ATOM      3  C   UNL     1     116.094 119.589 119.978  1.00  0.00     0.197 A 
ATOM      4  O   UNL     1     115.284 119.664 119.018  1.00  0.00    -0.289 OA
ATOM      5  C   UNL     1     116.984 118.498 120.126  1.00  0.00     0.107 A 
ATOM      6  C   UNL     1     117.109 117.417 119.201  1.00  0.00     0.134 A 
ATOM      7  C   UNL     1     117.955 116.343 119.505  1.00  0.00     0.093 A 
ATOM      8  C   UNL     1     118.723 116.338 120.669  1.00  0.00     0.123 A 
ATOM      9  C   UNL     1     118.648 117.412 121.555  1.00  0.00     0.094 A 
ATOM     10  C   UNL     1     117.787 118.482 121.298  1.00  0.00     0.146 A 
ATOM     11  O   UNL     1     117.731 119.477 122.177  1.00  0.00    -0.456 OA
ENDROOT
BRANCH   1  12
ATOM     12  C   UNL     1     116.957 121.585 123.086  1.00  0.00     0.021 A 
ATOM     13  C   UNL     1     117.302 121.302 124.419  1.00  0.00     0.016 A 
ATOM     14  C   UNL     1     117.331 122.319 125.374  1.00  0.00     0.051 A 
ATOM     15  C   UNL     1     117.027 123.638 125.024  1.00  0.00     0.157 A 
ATOM     16  C   UNL     1     116.665 122.914 122.731  1.00  0.00     0.062 A 
ATOM     17  C   UNL     1     116.691 123.941 123.684  1.00  0.00     0.158 A 
BRANCH  15  18
ATOM     18  O   UNL     1     117.071 124.608 126.028  1.00  0.00    -0.504 OA
ATOM     19  H   UNL     1     117.882 124.790 126.601  1.00  0.00     0.293 HD
ENDBRANCH  15  18
BRANCH  17  20
ATOM     20  O   UNL     1     116.379 125.233 123.257  1.00  0.00    -0.504 OA
ATOM     21  H   UNL     1     116.839 126.065 123.597  1.00  0.00     0.293 HD
ENDBRANCH  17  20
ENDBRANCH   1  12
BRANCH   6  22
ATOM     22  O   UNL     1     116.449 117.358 117.971  1.00  0.00    -0.507 OA
ATOM     23  H   UNL     1     115.800 118.049 117.627  1.00  0.00     0.293 HD
ENDBRANCH   6  22
BRANCH   8  24
ATOM     24  O   UNL     1     119.567 115.259 120.930  1.00  0.00    -0.508 OA
ATOM     25  H   UNL     1     120.123 115.215 121.776  1.00  0.00     0.293 HD
ENDBRANCH   8  24
TORSDOF 5
ENDMDL
MODEL 9
REMARK VINA RESULT:    -6.637      4.916      8.213
REMARK INTER + INTRA:          -8.068
REMARK INTER:                  -7.750
REMARK INTRA:                  -0.318
REMARK UNBOUND:                -0.266
REMARK SMILES O=c1cc(-c2ccc(O)c(O)c2)oc2cc(O)cc(O)c12
REMARK SMILES IDX 4 1 3 2 2 3 1 4 21 5 19 6 18 7 16 8 15 9 14 10 13 11 5 12
REMARK SMILES IDX 6 13 7 14 8 15 12 16 10 17 9 18 11 20 20 22 17 24
REMARK H PARENT 9 19 11 21 20 23 17 25
REMARK Flexibility Score: inf
ROOT
ATOM      1  C   UNL     1     120.995 122.226 122.166  1.00  0.00     0.138 A 
ATOM      2  C   UNL     1     119.623 122.195 122.449  1.00  0.00     0.100 A 
ATOM      3  C   UNL     1     118.701 122.281 121.406  1.00  0.00     0.197 A 
ATOM      4  O   UNL     1     117.478 122.194 121.688  1.00  0.00    -0.289 OA
ATOM      5  C   UNL     1     119.156 122.434 120.075  1.00  0.00     0.107 A 
ATOM      6  C   UNL     1     118.308 122.566 118.933  1.00  0.00     0.134 A 
ATOM      7  C   UNL     1     118.875 122.612 117.654  1.00  0.00     0.093 A 
ATOM      8  C   UNL     1     120.258 122.590 117.477  1.00  0.00     0.123 A 
ATOM      9  C   UNL     1     121.099 122.513 118.587  1.00  0.00     0.094 A 
ATOM     10  C   UNL     1     120.563 122.429 119.875  1.00  0.00     0.146 A 
ATOM     11  O   UNL     1     121.398 122.338 120.905  1.00  0.00    -0.456 OA
ENDROOT
BRANCH   1  12
ATOM     12  C   UNL     1     122.020 122.141 123.237  1.00  0.00     0.021 A 
ATOM     13  C   UNL     1     121.674 121.876 124.574  1.00  0.00     0.016 A 
ATOM     14  C   UNL     1     122.662 121.793 125.557  1.00  0.00     0.051 A 
ATOM     15  C   UNL     1     124.011 121.963 125.232  1.00  0.00     0.157 A 
ATOM     16  C   UNL     1     123.378 122.298 122.909  1.00  0.00     0.062 A 
ATOM     17  C   UNL     1     124.375 122.217 123.890  1.00  0.00     0.158 A 
BRANCH  15  18
ATOM     18  O   UNL     1     124.948 121.871 126.264  1.00  0.00    -0.504 OA
ATOM     19  H   UNL     1     124.812 122.260 127.186  1.00  0.00     0.293 HD
ENDBRANCH  15  18
BRANCH  17  20
ATOM     20  O   UNL     1     125.700 122.393 123.488  1.00  0.00    -0.504 OA
ATOM     21  H   UNL     1     126.468 122.543 124.126  1.00  0.00     0.293 HD
ENDBRANCH  17  20
ENDBRANCH   1  12
BRANCH   6  22
ATOM     22  O   UNL     1     116.916 122.677 119.001  1.00  0.00    -0.507 OA
ATOM     23  H   UNL     1     116.280 122.464 118.249  1.00  0.00     0.293 HD
ENDBRANCH   6  22
BRANCH   8  24
ATOM     24  O   UNL     1     120.786 122.654 116.188  1.00  0.00    -0.508 OA
ATOM     25  H   UNL     1     120.223 122.952 115.400  1.00  0.00     0.293 HD
ENDBRANCH   8  24
TORSDOF 5
ENDMDL
