MODEL 1
REMARK VINA RESULT:    -3.145      0.000      0.000
REMARK INTER + INTRA:         -12.776
REMARK INTER:                  -8.294
REMARK INTRA:                  -4.482
REMARK UNBOUND:                -4.482
REMARK SMILES CCCCCCCCCCCCCCCCCCCCCCCCCCCCCC(=O)[O-]
REMARK SMILES IDX 16 1 17 2 18 3 19 4 20 5 21 6 22 7 23 8 24 9 25 10 26 11
REMARK SMILES IDX 27 12 28 13 29 14 30 15 31 16 32 17 15 18 14 19 13 20 12 21
REMARK SMILES IDX 11 22 10 23 9 24 8 25 7 26 6 27 5 28 4 29 3 30 2 31 1 32
REMARK H PARENT
REMARK Flexibility Score: inf
ROOT
ATOM      1  C   UNL     1    -104.652  22.374  17.775  1.00  0.00     0.000 C 
ENDROOT
BRANCH   1   2
ATOM      2  C   UNL     1    -103.312  22.138  18.488  1.00  0.00     0.000 C 
BRANCH   2   3
ATOM      3  C   UNL     1    -102.361  23.342  18.396  1.00  0.00     0.000 C 
BRANCH   3   4
ATOM      4  C   UNL     1    -102.090  23.992  19.765  1.00  0.00     0.000 C 
BRANCH   4   5
ATOM      5  C   UNL     1    -101.056  25.132  19.690  1.00  0.00     0.000 C 
BRANCH   5   6
ATOM      6  C   UNL     1    -101.550  26.420  19.005  1.00  0.00     0.000 C 
BRANCH   6   7
ATOM      7  C   UNL     1    -101.881  27.544  20.002  1.00  0.00     0.000 C 
BRANCH   7   8
ATOM      8  C   UNL     1    -103.142  27.231  20.827  1.00  0.00     0.000 C 
BRANCH   8   9
ATOM      9  C   UNL     1    -103.989  28.486  21.141  1.00  0.00     0.000 C 
BRANCH   9  10
ATOM     10  C   UNL     1    -104.949  28.291  22.329  1.00  0.00     0.000 C 
BRANCH  10  11
ATOM     11  C   UNL     1    -106.442  28.364  21.959  1.00  0.00     0.000 C 
BRANCH  11  12
ATOM     12  C   UNL     1    -106.844  27.491  20.755  1.00  0.00     0.000 C 
BRANCH  12  13
ATOM     13  C   UNL     1    -108.360  27.205  20.683  1.00  0.00     0.006 C 
BRANCH  13  14
ATOM     14  C   UNL     1    -109.100  27.705  21.932  1.00  0.00     0.053 C 
BRANCH  14  15
ATOM     15  C   UNL     1    -110.044  26.664  22.450  1.00  0.00     0.041 C 
ATOM     16  O   UNL     1    -109.777  26.028  23.506  1.00  0.00    -0.550 OA
ATOM     17  O   UNL     1    -111.230  26.404  21.772  1.00  0.00    -0.550 OA
ENDBRANCH  14  15
ENDBRANCH  13  14
ENDBRANCH  12  13
ENDBRANCH  11  12
ENDBRANCH  10  11
ENDBRANCH   9  10
ENDBRANCH   8   9
ENDBRANCH   7   8
ENDBRANCH   6   7
ENDBRANCH   5   6
ENDBRANCH   4   5
ENDBRANCH   3   4
ENDBRANCH   2   3
ENDBRANCH   1   2
BRANCH   1  18
ATOM     18  C   UNL     1    -104.606  23.660  16.936  1.00  0.00     0.000 C 
BRANCH  18  19
ATOM     19  C   UNL     1    -105.639  24.711  17.384  1.00  0.00     0.000 C 
BRANCH  19  20
ATOM     20  C   UNL     1    -105.041  25.984  18.010  1.00  0.00     0.000 C 
BRANCH  20  21
ATOM     21  C   UNL     1    -104.731  27.077  16.972  1.00  0.00     0.000 C 
BRANCH  21  22
ATOM     22  C   UNL     1    -104.759  28.485  17.587  1.00  0.00     0.000 C 
BRANCH  22  23
ATOM     23  C   UNL     1    -106.171  29.100  17.586  1.00  0.00     0.000 C 
BRANCH  23  24
ATOM     24  C   UNL     1    -107.072  28.487  16.504  1.00  0.00    -0.000 C 
BRANCH  24  25
ATOM     25  C   UNL     1    -108.473  28.127  17.028  1.00  0.00    -0.000 C 
BRANCH  25  26
ATOM     26  C   UNL     1    -108.755  26.613  16.991  1.00  0.00    -0.000 C 
BRANCH  26  27
ATOM     27  C   UNL     1    -110.247  26.237  16.916  1.00  0.00    -0.000 C 
BRANCH  27  28
ATOM     28  C   UNL     1    -110.991  26.480  18.240  1.00  0.00    -0.000 C 
BRANCH  28  29
ATOM     29  C   UNL     1    -112.206  25.555  18.422  1.00  0.00    -0.000 C 
BRANCH  29  30
ATOM     30  C   UNL     1    -112.735  24.918  17.123  1.00  0.00    -0.000 C 
BRANCH  30  31
ATOM     31  C   UNL     1    -114.200  25.280  16.832  1.00  0.00    -0.003 C 
ATOM     32  C   UNL     1    -114.702  26.358  17.786  1.00  0.00     0.004 C 
ENDBRANCH  30  31
ENDBRANCH  29  30
ENDBRANCH  28  29
ENDBRANCH  27  28
ENDBRANCH  26  27
ENDBRANCH  25  26
ENDBRANCH  24  25
ENDBRANCH  23  24
ENDBRANCH  22  23
ENDBRANCH  21  22
ENDBRANCH  20  21
ENDBRANCH  19  20
ENDBRANCH  18  19
ENDBRANCH   1  18
TORSDOF 28
ENDMDL
MODEL 2
REMARK VINA RESULT:    -3.110      1.767      8.146
REMARK INTER + INTRA:         -12.682
REMARK INTER:                  -8.933
REMARK INTRA:                  -3.748
REMARK UNBOUND:                -4.482
REMARK SMILES CCCCCCCCCCCCCCCCCCCCCCCCCCCCCC(=O)[O-]
REMARK SMILES IDX 16 1 17 2 18 3 19 4 20 5 21 6 22 7 23 8 24 9 25 10 26 11
REMARK SMILES IDX 27 12 28 13 29 14 30 15 31 16 32 17 15 18 14 19 13 20 12 21
REMARK SMILES IDX 11 22 10 23 9 24 8 25 7 26 6 27 5 28 4 29 3 30 2 31 1 32
REMARK H PARENT
REMARK Flexibility Score: inf
ROOT
ATOM      1  C   UNL     1    -107.277  29.028  21.476  1.00  0.00     0.000 C 
ENDROOT
BRANCH   1   2
ATOM      2  C   UNL     1    -108.581  28.791  22.252  1.00  0.00     0.000 C 
BRANCH   2   3
ATOM      3  C   UNL     1    -108.895  27.301  22.460  1.00  0.00     0.000 C 
BRANCH   3   4
ATOM      4  C   UNL     1    -110.357  27.052  22.872  1.00  0.00     0.000 C 
BRANCH   4   5
ATOM      5  C   UNL     1    -111.368  27.613  21.852  1.00  0.00     0.000 C 
BRANCH   5   6
ATOM      6  C   UNL     1    -111.310  26.973  20.452  1.00  0.00     0.000 C 
BRANCH   6   7
ATOM      7  C   UNL     1    -112.267  25.779  20.296  1.00  0.00     0.000 C 
BRANCH   7   8
ATOM      8  C   UNL     1    -113.534  26.153  19.507  1.00  0.00     0.000 C 
BRANCH   8   9
ATOM      9  C   UNL     1    -113.703  25.335  18.205  1.00  0.00     0.000 C 
BRANCH   9  10
ATOM     10  C   UNL     1    -112.834  25.852  17.044  1.00  0.00     0.000 C 
BRANCH  10  11
ATOM     11  C   UNL     1    -112.033  24.759  16.313  1.00  0.00     0.000 C 
BRANCH  11  12
ATOM     12  C   UNL     1    -110.554  25.109  16.066  1.00  0.00     0.000 C 
BRANCH  12  13
ATOM     13  C   UNL     1    -110.047  26.280  16.935  1.00  0.00     0.006 C 
BRANCH  13  14
ATOM     14  C   UNL     1    -108.525  26.456  16.835  1.00  0.00     0.053 C 
BRANCH  14  15
ATOM     15  C   UNL     1    -107.973  27.079  18.080  1.00  0.00     0.041 C 
ATOM     16  O   UNL     1    -108.008  26.455  19.176  1.00  0.00    -0.550 OA
ATOM     17  O   UNL     1    -107.406  28.347  18.029  1.00  0.00    -0.550 OA
ENDBRANCH  14  15
ENDBRANCH  13  14
ENDBRANCH  12  13
ENDBRANCH  11  12
ENDBRANCH  10  11
ENDBRANCH   9  10
ENDBRANCH   8   9
ENDBRANCH   7   8
ENDBRANCH   6   7
ENDBRANCH   5   6
ENDBRANCH   4   5
ENDBRANCH   3   4
ENDBRANCH   2   3
ENDBRANCH   1   2
BRANCH   1  18
ATOM     18  C   UNL     1    -106.205  28.004  21.882  1.00  0.00     0.000 C 
BRANCH  18  19
ATOM     19  C   UNL     1    -104.843  28.649  22.198  1.00  0.00     0.000 C 
BRANCH  19  20
ATOM     20  C   UNL     1    -103.619  27.766  21.895  1.00  0.00     0.000 C 
BRANCH  20  21
ATOM     21  C   UNL     1    -102.973  28.080  20.534  1.00  0.00     0.000 C 
BRANCH  21  22
ATOM     22  C   UNL     1    -102.219  26.871  19.958  1.00  0.00     0.000 C 
BRANCH  22  23
ATOM     23  C   UNL     1    -103.165  25.717  19.573  1.00  0.00     0.000 C 
BRANCH  23  24
ATOM     24  C   UNL     1    -104.364  26.199  18.742  1.00  0.00    -0.000 C 
BRANCH  24  25
ATOM     25  C   UNL     1    -104.425  25.547  17.350  1.00  0.00    -0.000 C 
BRANCH  25  26
ATOM     26  C   UNL     1    -105.414  24.367  17.286  1.00  0.00    -0.000 C 
BRANCH  26  27
ATOM     27  C   UNL     1    -104.772  23.006  16.952  1.00  0.00    -0.000 C 
BRANCH  27  28
ATOM     28  C   UNL     1    -104.325  22.235  18.205  1.00  0.00    -0.000 C 
BRANCH  28  29
ATOM     29  C   UNL     1    -102.799  22.055  18.282  1.00  0.00    -0.000 C 
BRANCH  29  30
ATOM     30  C   UNL     1    -102.125  21.666  16.953  1.00  0.00    -0.000 C 
BRANCH  30  31
ATOM     31  C   UNL     1    -100.903  22.537  16.623  1.00  0.00    -0.003 C 
ATOM     32  C   UNL     1    -101.014  23.912  17.274  1.00  0.00     0.004 C 
ENDBRANCH  30  31
ENDBRANCH  29  30
ENDBRANCH  28  29
ENDBRANCH  27  28
ENDBRANCH  26  27
ENDBRANCH  25  26
ENDBRANCH  24  25
ENDBRANCH  23  24
ENDBRANCH  22  23
ENDBRANCH  21  22
ENDBRANCH  20  21
ENDBRANCH  19  20
ENDBRANCH  18  19
ENDBRANCH   1  18
TORSDOF 28
ENDMDL
MODEL 3
REMARK VINA RESULT:    -3.092      2.340      5.813
REMARK INTER + INTRA:         -12.636
REMARK INTER:                  -8.029
REMARK INTRA:                  -4.606
REMARK UNBOUND:                -4.482
REMARK SMILES CCCCCCCCCCCCCCCCCCCCCCCCCCCCCC(=O)[O-]
REMARK SMILES IDX 16 1 17 2 18 3 19 4 20 5 21 6 22 7 23 8 24 9 25 10 26 11
REMARK SMILES IDX 27 12 28 13 29 14 30 15 31 16 32 17 15 18 14 19 13 20 12 21
REMARK SMILES IDX 11 22 10 23 9 24 8 25 7 26 6 27 5 28 4 29 3 30 2 31 1 32
REMARK H PARENT
REMARK Flexibility Score: inf
ROOT
ATOM      1  C   UNL     1    -107.254  27.453  20.542  1.00  0.00     0.000 C 
ENDROOT
BRANCH   1   2
ATOM      2  C   UNL     1    -106.613  27.864  21.876  1.00  0.00     0.000 C 
BRANCH   2   3
ATOM      3  C   UNL     1    -105.602  29.012  21.729  1.00  0.00     0.000 C 
BRANCH   3   4
ATOM      4  C   UNL     1    -104.149  28.516  21.615  1.00  0.00     0.000 C 
BRANCH   4   5
ATOM      5  C   UNL     1    -103.528  28.798  20.233  1.00  0.00     0.000 C 
BRANCH   5   6
ATOM      6  C   UNL     1    -103.636  27.644  19.218  1.00  0.00     0.000 C 
BRANCH   6   7
ATOM      7  C   UNL     1    -103.241  26.281  19.811  1.00  0.00     0.000 C 
BRANCH   7   8
ATOM      8  C   UNL     1    -101.715  26.126  19.936  1.00  0.00     0.000 C 
BRANCH   8   9
ATOM      9  C   UNL     1    -101.254  24.651  19.955  1.00  0.00     0.000 C 
BRANCH   9  10
ATOM     10  C   UNL     1    -102.034  23.756  18.974  1.00  0.00     0.000 C 
BRANCH  10  11
ATOM     11  C   UNL     1    -101.338  23.541  17.617  1.00  0.00     0.000 C 
BRANCH  11  12
ATOM     12  C   UNL     1    -102.206  23.889  16.392  1.00  0.00     0.000 C 
BRANCH  12  13
ATOM     13  C   UNL     1    -103.590  24.463  16.765  1.00  0.00     0.006 C 
BRANCH  13  14
ATOM     14  C   UNL     1    -104.737  23.644  16.156  1.00  0.00     0.053 C 
BRANCH  14  15
ATOM     15  C   UNL     1    -105.465  22.871  17.212  1.00  0.00     0.041 C 
ATOM     16  O   UNL     1    -106.724  22.910  17.278  1.00  0.00    -0.550 OA
ATOM     17  O   UNL     1    -104.752  22.094  18.118  1.00  0.00    -0.550 OA
ENDBRANCH  14  15
ENDBRANCH  13  14
ENDBRANCH  12  13
ENDBRANCH  11  12
ENDBRANCH  10  11
ENDBRANCH   9  10
ENDBRANCH   8   9
ENDBRANCH   7   8
ENDBRANCH   6   7
ENDBRANCH   5   6
ENDBRANCH   4   5
ENDBRANCH   3   4
ENDBRANCH   2   3
ENDBRANCH   1   2
BRANCH   1  18
ATOM     18  C   UNL     1    -107.346  28.653  19.587  1.00  0.00     0.000 C 
BRANCH  18  19
ATOM     19  C   UNL     1    -107.207  28.258  18.105  1.00  0.00     0.000 C 
BRANCH  19  20
ATOM     20  C   UNL     1    -106.928  26.766  17.853  1.00  0.00     0.000 C 
BRANCH  20  21
ATOM     21  C   UNL     1    -107.873  26.145  16.807  1.00  0.00     0.000 C 
BRANCH  21  22
ATOM     22  C   UNL     1    -109.256  26.814  16.807  1.00  0.00     0.000 C 
BRANCH  22  23
ATOM     23  C   UNL     1    -110.401  25.799  16.629  1.00  0.00     0.000 C 
BRANCH  23  24
ATOM     24  C   UNL     1    -111.738  26.480  16.301  1.00  0.00    -0.000 C 
BRANCH  24  25
ATOM     25  C   UNL     1    -112.848  26.132  17.307  1.00  0.00    -0.000 C 
BRANCH  25  26
ATOM     26  C   UNL     1    -112.715  26.901  18.635  1.00  0.00    -0.000 C 
BRANCH  26  27
ATOM     27  C   UNL     1    -112.192  26.062  19.816  1.00  0.00    -0.000 C 
BRANCH  27  28
ATOM     28  C   UNL     1    -110.831  26.552  20.340  1.00  0.00    -0.000 C 
BRANCH  28  29
ATOM     29  C   UNL     1    -110.920  27.913  21.052  1.00  0.00    -0.000 C 
BRANCH  29  30
ATOM     30  C   UNL     1    -110.683  27.864  22.573  1.00  0.00    -0.000 C 
BRANCH  30  31
ATOM     31  C   UNL     1    -109.822  26.667  23.007  1.00  0.00    -0.003 C 
ATOM     32  C   UNL     1    -110.654  25.633  23.759  1.00  0.00     0.004 C 
ENDBRANCH  30  31
ENDBRANCH  29  30
ENDBRANCH  28  29
ENDBRANCH  27  28
ENDBRANCH  26  27
ENDBRANCH  25  26
ENDBRANCH  24  25
ENDBRANCH  23  24
ENDBRANCH  22  23
ENDBRANCH  21  22
ENDBRANCH  20  21
ENDBRANCH  19  20
ENDBRANCH  18  19
ENDBRANCH   1  18
TORSDOF 28
ENDMDL
MODEL 4
REMARK VINA RESULT:    -3.055      1.291      2.431
REMARK INTER + INTRA:         -12.537
REMARK INTER:                  -8.239
REMARK INTRA:                  -4.298
REMARK UNBOUND:                -4.482
REMARK SMILES CCCCCCCCCCCCCCCCCCCCCCCCCCCCCC(=O)[O-]
REMARK SMILES IDX 16 1 17 2 18 3 19 4 20 5 21 6 22 7 23 8 24 9 25 10 26 11
REMARK SMILES IDX 27 12 28 13 29 14 30 15 31 16 32 17 15 18 14 19 13 20 12 21
REMARK SMILES IDX 11 22 10 23 9 24 8 25 7 26 6 27 5 28 4 29 3 30 2 31 1 32
REMARK H PARENT
REMARK Flexibility Score: inf
ROOT
ATOM      1  C   UNL     1    -104.709  23.003  17.056  1.00  0.00     0.000 C 
ENDROOT
BRANCH   1   2
ATOM      2  C   UNL     1    -103.921  22.245  18.134  1.00  0.00     0.000 C 
BRANCH   2   3
ATOM      3  C   UNL     1    -102.594  22.930  18.501  1.00  0.00     0.000 C 
BRANCH   3   4
ATOM      4  C   UNL     1    -102.457  23.190  20.012  1.00  0.00     0.000 C 
BRANCH   4   5
ATOM      5  C   UNL     1    -101.841  24.567  20.327  1.00  0.00     0.000 C 
BRANCH   5   6
ATOM      6  C   UNL     1    -101.656  25.495  19.112  1.00  0.00     0.000 C 
BRANCH   6   7
ATOM      7  C   UNL     1    -102.485  26.788  19.209  1.00  0.00     0.000 C 
BRANCH   7   8
ATOM      8  C   UNL     1    -103.488  26.745  20.375  1.00  0.00     0.000 C 
BRANCH   8   9
ATOM      9  C   UNL     1    -103.269  27.875  21.406  1.00  0.00     0.000 C 
BRANCH   9  10
ATOM     10  C   UNL     1    -104.583  28.452  21.967  1.00  0.00     0.000 C 
BRANCH  10  11
ATOM     11  C   UNL     1    -105.845  27.667  21.564  1.00  0.00     0.000 C 
BRANCH  11  12
ATOM     12  C   UNL     1    -107.162  28.449  21.727  1.00  0.00     0.000 C 
BRANCH  12  13
ATOM     13  C   UNL     1    -108.415  27.546  21.733  1.00  0.00     0.006 C 
BRANCH  13  14
ATOM     14  C   UNL     1    -109.642  28.267  22.310  1.00  0.00     0.053 C 
BRANCH  14  15
ATOM     15  C   UNL     1    -110.408  27.370  23.232  1.00  0.00     0.041 C 
ATOM     16  O   UNL     1    -110.867  27.815  24.320  1.00  0.00    -0.550 OA
ATOM     17  O   UNL     1    -110.628  26.042  22.885  1.00  0.00    -0.550 OA
ENDBRANCH  14  15
ENDBRANCH  13  14
ENDBRANCH  12  13
ENDBRANCH  11  12
ENDBRANCH  10  11
ENDBRANCH   9  10
ENDBRANCH   8   9
ENDBRANCH   7   8
ENDBRANCH   6   7
ENDBRANCH   5   6
ENDBRANCH   4   5
ENDBRANCH   3   4
ENDBRANCH   2   3
ENDBRANCH   1   2
BRANCH   1  18
ATOM     18  C   UNL     1    -104.759  24.507  17.369  1.00  0.00     0.000 C 
BRANCH  18  19
ATOM     19  C   UNL     1    -106.179  25.095  17.288  1.00  0.00     0.000 C 
BRANCH  19  20
ATOM     20  C   UNL     1    -106.507  26.153  18.356  1.00  0.00     0.000 C 
BRANCH  20  21
ATOM     21  C   UNL     1    -107.350  27.320  17.809  1.00  0.00     0.000 C 
BRANCH  21  22
ATOM     22  C   UNL     1    -108.853  27.114  18.054  1.00  0.00     0.000 C 
BRANCH  22  23
ATOM     23  C   UNL     1    -109.596  28.441  18.300  1.00  0.00     0.000 C 
BRANCH  23  24
ATOM     24  C   UNL     1    -111.112  28.241  18.444  1.00  0.00    -0.000 C 
BRANCH  24  25
ATOM     25  C   UNL     1    -111.475  27.139  19.454  1.00  0.00    -0.000 C 
BRANCH  25  26
ATOM     26  C   UNL     1    -112.707  27.493  20.309  1.00  0.00    -0.000 C 
BRANCH  26  27
ATOM     27  C   UNL     1    -114.062  27.230  19.626  1.00  0.00    -0.000 C 
BRANCH  27  28
ATOM     28  C   UNL     1    -114.109  25.879  18.894  1.00  0.00    -0.000 C 
BRANCH  28  29
ATOM     29  C   UNL     1    -114.449  26.020  17.400  1.00  0.00    -0.000 C 
BRANCH  29  30
ATOM     30  C   UNL     1    -113.697  25.051  16.470  1.00  0.00    -0.000 C 
BRANCH  30  31
ATOM     31  C   UNL     1    -112.436  24.457  17.118  1.00  0.00    -0.003 C 
ATOM     32  C   UNL     1    -111.185  24.817  16.322  1.00  0.00     0.004 C 
ENDBRANCH  30  31
ENDBRANCH  29  30
ENDBRANCH  28  29
ENDBRANCH  27  28
ENDBRANCH  26  27
ENDBRANCH  25  26
ENDBRANCH  24  25
ENDBRANCH  23  24
ENDBRANCH  22  23
ENDBRANCH  21  22
ENDBRANCH  20  21
ENDBRANCH  19  20
ENDBRANCH  18  19
ENDBRANCH   1  18
TORSDOF 28
ENDMDL
MODEL 5
REMARK VINA RESULT:    -3.044      3.360      9.521
REMARK INTER + INTRA:         -12.508
REMARK INTER:                  -9.578
REMARK INTRA:                  -2.930
REMARK UNBOUND:                -4.482
REMARK SMILES CCCCCCCCCCCCCCCCCCCCCCCCCCCCCC(=O)[O-]
REMARK SMILES IDX 16 1 17 2 18 3 19 4 20 5 21 6 22 7 23 8 24 9 25 10 26 11
REMARK SMILES IDX 27 12 28 13 29 14 30 15 31 16 32 17 15 18 14 19 13 20 12 21
REMARK SMILES IDX 11 22 10 23 9 24 8 25 7 26 6 27 5 28 4 29 3 30 2 31 1 32
REMARK H PARENT
REMARK Flexibility Score: inf
ROOT
ATOM      1  C   UNL     1    -109.478  26.889  22.818  1.00  0.00     0.000 C 
ENDROOT
BRANCH   1   2
ATOM      2  C   UNL     1    -110.737  27.640  23.276  1.00  0.00     0.000 C 
BRANCH   2   3
ATOM      3  C   UNL     1    -111.081  28.840  22.379  1.00  0.00     0.000 C 
BRANCH   3   4
ATOM      4  C   UNL     1    -112.118  28.496  21.295  1.00  0.00     0.000 C 
BRANCH   4   5
ATOM      5  C   UNL     1    -111.475  28.211  19.924  1.00  0.00     0.000 C 
BRANCH   5   6
ATOM      6  C   UNL     1    -111.287  26.720  19.585  1.00  0.00     0.000 C 
BRANCH   6   7
ATOM      7  C   UNL     1    -112.168  25.793  20.439  1.00  0.00     0.000 C 
BRANCH   7   8
ATOM      8  C   UNL     1    -113.082  24.906  19.575  1.00  0.00     0.000 C 
BRANCH   8   9
ATOM      9  C   UNL     1    -114.054  25.719  18.688  1.00  0.00     0.000 C 
BRANCH   9  10
ATOM     10  C   UNL     1    -114.963  26.668  19.492  1.00  0.00     0.000 C 
BRANCH  10  11
ATOM     11  C   UNL     1    -116.020  27.403  18.647  1.00  0.00     0.000 C 
BRANCH  11  12
ATOM     12  C   UNL     1    -116.193  26.850  17.219  1.00  0.00     0.000 C 
BRANCH  12  13
ATOM     13  C   UNL     1    -117.668  26.603  16.833  1.00  0.00     0.006 C 
BRANCH  13  14
ATOM     14  C   UNL     1    -118.631  26.961  17.974  1.00  0.00     0.053 C 
BRANCH  14  15
ATOM     15  C   UNL     1    -119.517  25.803  18.313  1.00  0.00     0.041 C 
ATOM     16  O   UNL     1    -119.793  24.934  17.441  1.00  0.00    -0.550 OA
ATOM     17  O   UNL     1    -120.028  25.673  19.599  1.00  0.00    -0.550 OA
ENDBRANCH  14  15
ENDBRANCH  13  14
ENDBRANCH  12  13
ENDBRANCH  11  12
ENDBRANCH  10  11
ENDBRANCH   9  10
ENDBRANCH   8   9
ENDBRANCH   7   8
ENDBRANCH   6   7
ENDBRANCH   5   6
ENDBRANCH   4   5
ENDBRANCH   3   4
ENDBRANCH   2   3
ENDBRANCH   1   2
BRANCH   1  18
ATOM     18  C   UNL     1    -108.440  27.862  22.238  1.00  0.00     0.000 C 
BRANCH  18  19
ATOM     19  C   UNL     1    -107.831  27.376  20.910  1.00  0.00     0.000 C 
BRANCH  19  20
ATOM     20  C   UNL     1    -106.311  27.580  20.779  1.00  0.00     0.000 C 
BRANCH  20  21
ATOM     21  C   UNL     1    -105.671  28.172  22.048  1.00  0.00     0.000 C 
BRANCH  21  22
ATOM     22  C   UNL     1    -104.140  28.042  22.039  1.00  0.00     0.000 C 
BRANCH  22  23
ATOM     23  C   UNL     1    -103.618  27.311  20.787  1.00  0.00     0.000 C 
BRANCH  23  24
ATOM     24  C   UNL     1    -102.330  27.942  20.238  1.00  0.00    -0.000 C 
BRANCH  24  25
ATOM     25  C   UNL     1    -101.516  26.972  19.365  1.00  0.00    -0.000 C 
BRANCH  25  26
ATOM     26  C   UNL     1    -101.717  25.497  19.761  1.00  0.00    -0.000 C 
BRANCH  26  27
ATOM     27  C   UNL     1    -100.513  24.582  19.470  1.00  0.00    -0.000 C 
BRANCH  27  28
ATOM     28  C   UNL     1    -100.145  24.537  17.977  1.00  0.00    -0.000 C 
BRANCH  28  29
ATOM     29  C   UNL     1    -100.673  23.277  17.269  1.00  0.00    -0.000 C 
BRANCH  29  30
ATOM     30  C   UNL     1    -102.166  23.324  16.894  1.00  0.00    -0.000 C 
BRANCH  30  31
ATOM     31  C   UNL     1    -102.938  22.075  17.349  1.00  0.00    -0.003 C 
ATOM     32  C   UNL     1    -103.235  22.125  18.844  1.00  0.00     0.004 C 
ENDBRANCH  30  31
ENDBRANCH  29  30
ENDBRANCH  28  29
ENDBRANCH  27  28
ENDBRANCH  26  27
ENDBRANCH  25  26
ENDBRANCH  24  25
ENDBRANCH  23  24
ENDBRANCH  22  23
ENDBRANCH  21  22
ENDBRANCH  20  21
ENDBRANCH  19  20
ENDBRANCH  18  19
ENDBRANCH   1  18
TORSDOF 28
ENDMDL
MODEL 6
REMARK VINA RESULT:    -2.867      2.618      5.359
REMARK INTER + INTRA:         -12.042
REMARK INTER:                  -7.260
REMARK INTRA:                  -4.782
REMARK UNBOUND:                -4.482
REMARK SMILES CCCCCCCCCCCCCCCCCCCCCCCCCCCCCC(=O)[O-]
REMARK SMILES IDX 16 1 17 2 18 3 19 4 20 5 21 6 22 7 23 8 24 9 25 10 26 11
REMARK SMILES IDX 27 12 28 13 29 14 30 15 31 16 32 17 15 18 14 19 13 20 12 21
REMARK SMILES IDX 11 22 10 23 9 24 8 25 7 26 6 27 5 28 4 29 3 30 2 31 1 32
REMARK H PARENT
REMARK Flexibility Score: inf
ROOT
ATOM      1  C   UNL     1    -106.828  27.231  19.964  1.00  0.00     0.000 C 
ENDROOT
BRANCH   1   2
ATOM      2  C   UNL     1    -106.941  27.792  21.390  1.00  0.00     0.000 C 
BRANCH   2   3
ATOM      3  C   UNL     1    -105.855  28.829  21.716  1.00  0.00     0.000 C 
BRANCH   3   4
ATOM      4  C   UNL     1    -104.556  28.188  22.236  1.00  0.00     0.000 C 
BRANCH   4   5
ATOM      5  C   UNL     1    -103.420  28.210  21.195  1.00  0.00     0.000 C 
BRANCH   5   6
ATOM      6  C   UNL     1    -103.156  26.870  20.483  1.00  0.00     0.000 C 
BRANCH   6   7
ATOM      7  C   UNL     1    -101.783  26.814  19.793  1.00  0.00     0.000 C 
BRANCH   7   8
ATOM      8  C   UNL     1    -101.523  28.056  18.922  1.00  0.00     0.000 C 
BRANCH   8   9
ATOM      9  C   UNL     1    -101.859  27.831  17.429  1.00  0.00     0.000 C 
BRANCH   9  10
ATOM     10  C   UNL     1    -101.084  26.658  16.800  1.00  0.00     0.000 C 
BRANCH  10  11
ATOM     11  C   UNL     1    -101.953  25.436  16.449  1.00  0.00     0.000 C 
BRANCH  11  12
ATOM     12  C   UNL     1    -101.232  24.081  16.579  1.00  0.00     0.000 C 
BRANCH  12  13
ATOM     13  C   UNL     1    -101.682  23.263  17.809  1.00  0.00     0.006 C 
BRANCH  13  14
ATOM     14  C   UNL     1    -102.472  22.008  17.410  1.00  0.00     0.053 C 
BRANCH  14  15
ATOM     15  C   UNL     1    -103.944  22.224  17.580  1.00  0.00     0.041 C 
ATOM     16  O   UNL     1    -104.543  21.771  18.594  1.00  0.00    -0.550 OA
ATOM     17  O   UNL     1    -104.656  22.938  16.623  1.00  0.00    -0.550 OA
ENDBRANCH  14  15
ENDBRANCH  13  14
ENDBRANCH  12  13
ENDBRANCH  11  12
ENDBRANCH  10  11
ENDBRANCH   9  10
ENDBRANCH   8   9
ENDBRANCH   7   8
ENDBRANCH   6   7
ENDBRANCH   5   6
ENDBRANCH   4   5
ENDBRANCH   3   4
ENDBRANCH   2   3
ENDBRANCH   1   2
BRANCH   1  18
ATOM     18  C   UNL     1    -106.668  28.365  18.941  1.00  0.00     0.000 C 
BRANCH  18  19
ATOM     19  C   UNL     1    -105.526  28.119  17.938  1.00  0.00     0.000 C 
BRANCH  19  20
ATOM     20  C   UNL     1    -105.377  26.661  17.467  1.00  0.00     0.000 C 
BRANCH  20  21
ATOM     21  C   UNL     1    -106.327  26.302  16.309  1.00  0.00     0.000 C 
BRANCH  21  22
ATOM     22  C   UNL     1    -107.413  25.303  16.739  1.00  0.00     0.000 C 
BRANCH  22  23
ATOM     23  C   UNL     1    -108.828  25.769  16.346  1.00  0.00     0.000 C 
BRANCH  23  24
ATOM     24  C   UNL     1    -108.965  27.298  16.368  1.00  0.00    -0.000 C 
BRANCH  24  25
ATOM     25  C   UNL     1    -110.403  27.765  16.656  1.00  0.00    -0.000 C 
BRANCH  25  26
ATOM     26  C   UNL     1    -110.522  28.556  17.972  1.00  0.00    -0.000 C 
BRANCH  26  27
ATOM     27  C   UNL     1    -110.357  27.712  19.250  1.00  0.00    -0.000 C 
BRANCH  27  28
ATOM     28  C   UNL     1    -111.687  27.481  19.988  1.00  0.00    -0.000 C 
BRANCH  28  29
ATOM     29  C   UNL     1    -112.012  25.989  20.181  1.00  0.00    -0.000 C 
BRANCH  29  30
ATOM     30  C   UNL     1    -113.448  25.586  19.800  1.00  0.00    -0.000 C 
BRANCH  30  31
ATOM     31  C   UNL     1    -113.625  25.350  18.292  1.00  0.00    -0.003 C 
ATOM     32  C   UNL     1    -112.391  24.688  17.689  1.00  0.00     0.004 C 
ENDBRANCH  30  31
ENDBRANCH  29  30
ENDBRANCH  28  29
ENDBRANCH  27  28
ENDBRANCH  26  27
ENDBRANCH  25  26
ENDBRANCH  24  25
ENDBRANCH  23  24
ENDBRANCH  22  23
ENDBRANCH  21  22
ENDBRANCH  20  21
ENDBRANCH  19  20
ENDBRANCH  18  19
ENDBRANCH   1  18
TORSDOF 28
ENDMDL
MODEL 7
REMARK VINA RESULT:    -2.850      2.688      7.106
REMARK INTER + INTRA:         -11.997
REMARK INTER:                  -7.902
REMARK INTRA:                  -4.095
REMARK UNBOUND:                -4.482
REMARK SMILES CCCCCCCCCCCCCCCCCCCCCCCCCCCCCC(=O)[O-]
REMARK SMILES IDX 16 1 17 2 18 3 19 4 20 5 21 6 22 7 23 8 24 9 25 10 26 11
REMARK SMILES IDX 27 12 28 13 29 14 30 15 31 16 32 17 15 18 14 19 13 20 12 21
REMARK SMILES IDX 11 22 10 23 9 24 8 25 7 26 6 27 5 28 4 29 3 30 2 31 1 32
REMARK H PARENT
REMARK Flexibility Score: inf
ROOT
ATOM      1  C   UNL     1    -109.314  26.924  22.313  1.00  0.00     0.000 C 
ENDROOT
BRANCH   1   2
ATOM      2  C   UNL     1    -109.218  28.374  21.813  1.00  0.00     0.000 C 
BRANCH   2   3
ATOM      3  C   UNL     1    -108.532  28.493  20.443  1.00  0.00     0.000 C 
BRANCH   3   4
ATOM      4  C   UNL     1    -107.381  27.487  20.263  1.00  0.00     0.000 C 
BRANCH   4   5
ATOM      5  C   UNL     1    -105.992  28.138  20.406  1.00  0.00     0.000 C 
BRANCH   5   6
ATOM      6  C   UNL     1    -105.461  28.242  21.848  1.00  0.00     0.000 C 
BRANCH   6   7
ATOM      7  C   UNL     1    -103.948  27.986  21.953  1.00  0.00     0.000 C 
BRANCH   7   8
ATOM      8  C   UNL     1    -103.407  27.212  20.738  1.00  0.00     0.000 C 
BRANCH   8   9
ATOM      9  C   UNL     1    -101.969  27.622  20.348  1.00  0.00     0.000 C 
BRANCH   9  10
ATOM     10  C   UNL     1    -101.723  27.609  18.827  1.00  0.00     0.000 C 
BRANCH  10  11
ATOM     11  C   UNL     1    -100.659  26.597  18.363  1.00  0.00     0.000 C 
BRANCH  11  12
ATOM     12  C   UNL     1    -100.667  25.265  19.136  1.00  0.00     0.000 C 
BRANCH  12  13
ATOM     13  C   UNL     1    -101.311  24.103  18.349  1.00  0.00     0.006 C 
BRANCH  13  14
ATOM     14  C   UNL     1    -102.399  23.388  19.162  1.00  0.00     0.053 C 
BRANCH  14  15
ATOM     15  C   UNL     1    -103.024  22.282  18.370  1.00  0.00     0.041 C 
ATOM     16  O   UNL     1    -104.240  21.987  18.533  1.00  0.00    -0.550 OA
ATOM     17  O   UNL     1    -102.266  21.582  17.437  1.00  0.00    -0.550 OA
ENDBRANCH  14  15
ENDBRANCH  13  14
ENDBRANCH  12  13
ENDBRANCH  11  12
ENDBRANCH  10  11
ENDBRANCH   9  10
ENDBRANCH   8   9
ENDBRANCH   7   8
ENDBRANCH   6   7
ENDBRANCH   5   6
ENDBRANCH   4   5
ENDBRANCH   3   4
ENDBRANCH   2   3
ENDBRANCH   1   2
BRANCH   1  18
ATOM     18  C   UNL     1    -110.775  26.534  22.584  1.00  0.00     0.000 C 
BRANCH  18  19
ATOM     19  C   UNL     1    -111.617  26.412  21.300  1.00  0.00     0.000 C 
BRANCH  19  20
ATOM     20  C   UNL     1    -112.457  25.127  21.193  1.00  0.00     0.000 C 
BRANCH  20  21
ATOM     21  C   UNL     1    -113.475  25.168  20.039  1.00  0.00     0.000 C 
BRANCH  21  22
ATOM     22  C   UNL     1    -113.304  26.417  19.160  1.00  0.00     0.000 C 
BRANCH  22  23
ATOM     23  C   UNL     1    -113.533  26.121  17.665  1.00  0.00     0.000 C 
BRANCH  23  24
ATOM     24  C   UNL     1    -112.300  26.450  16.811  1.00  0.00    -0.000 C 
BRANCH  24  25
ATOM     25  C   UNL     1    -111.000  26.499  17.633  1.00  0.00    -0.000 C 
BRANCH  25  26
ATOM     26  C   UNL     1    -110.182  27.779  17.384  1.00  0.00    -0.000 C 
BRANCH  26  27
ATOM     27  C   UNL     1    -109.092  27.648  16.303  1.00  0.00    -0.000 C 
BRANCH  27  28
ATOM     28  C   UNL     1    -108.679  26.188  16.048  1.00  0.00    -0.000 C 
BRANCH  28  29
ATOM     29  C   UNL     1    -107.247  25.881  16.522  1.00  0.00    -0.000 C 
BRANCH  29  30
ATOM     30  C   UNL     1    -106.205  26.961  16.175  1.00  0.00    -0.000 C 
BRANCH  30  31
ATOM     31  C   UNL     1    -105.002  26.961  17.132  1.00  0.00    -0.003 C 
ATOM     32  C   UNL     1    -104.808  25.592  17.773  1.00  0.00     0.004 C 
ENDBRANCH  30  31
ENDBRANCH  29  30
ENDBRANCH  28  29
ENDBRANCH  27  28
ENDBRANCH  26  27
ENDBRANCH  25  26
ENDBRANCH  24  25
ENDBRANCH  23  24
ENDBRANCH  22  23
ENDBRANCH  21  22
ENDBRANCH  20  21
ENDBRANCH  19  20
ENDBRANCH  18  19
ENDBRANCH   1  18
TORSDOF 28
ENDMDL
MODEL 8
REMARK VINA RESULT:    -2.749      2.757      6.747
REMARK INTER + INTRA:         -11.732
REMARK INTER:                  -6.931
REMARK INTRA:                  -4.801
REMARK UNBOUND:                -4.482
REMARK SMILES CCCCCCCCCCCCCCCCCCCCCCCCCCCCCC(=O)[O-]
REMARK SMILES IDX 16 1 17 2 18 3 19 4 20 5 21 6 22 7 23 8 24 9 25 10 26 11
REMARK SMILES IDX 27 12 28 13 29 14 30 15 31 16 32 17 15 18 14 19 13 20 12 21
REMARK SMILES IDX 11 22 10 23 9 24 8 25 7 26 6 27 5 28 4 29 3 30 2 31 1 32
REMARK H PARENT
REMARK Flexibility Score: inf
ROOT
ATOM      1  C   UNL     1    -110.845  27.670  16.480  1.00  0.00     0.000 C 
ENDROOT
BRANCH   1   2
ATOM      2  C   UNL     1    -109.879  28.682  17.114  1.00  0.00     0.000 C 
BRANCH   2   3
ATOM      3  C   UNL     1    -108.832  28.025  18.027  1.00  0.00     0.000 C 
BRANCH   3   4
ATOM      4  C   UNL     1    -107.420  28.606  17.830  1.00  0.00     0.000 C 
BRANCH   4   5
ATOM      5  C   UNL     1    -106.355  27.888  18.682  1.00  0.00     0.000 C 
BRANCH   5   6
ATOM      6  C   UNL     1    -106.875  27.261  19.990  1.00  0.00     0.000 C 
BRANCH   6   7
ATOM      7  C   UNL     1    -106.980  28.273  21.143  1.00  0.00     0.000 C 
BRANCH   7   8
ATOM      8  C   UNL     1    -105.899  28.043  22.214  1.00  0.00     0.000 C 
BRANCH   8   9
ATOM      9  C   UNL     1    -104.550  28.716  21.870  1.00  0.00     0.000 C 
BRANCH   9  10
ATOM     10  C   UNL     1    -103.426  27.707  21.570  1.00  0.00     0.000 C 
BRANCH  10  11
ATOM     11  C   UNL     1    -102.475  28.133  20.436  1.00  0.00     0.000 C 
BRANCH  11  12
ATOM     12  C   UNL     1    -102.676  27.368  19.114  1.00  0.00     0.000 C 
BRANCH  12  13
ATOM     13  C   UNL     1    -102.754  25.836  19.298  1.00  0.00     0.006 C 
BRANCH  13  14
ATOM     14  C   UNL     1    -103.819  25.201  18.392  1.00  0.00     0.053 C 
BRANCH  14  15
ATOM     15  C   UNL     1    -103.585  23.730  18.238  1.00  0.00     0.041 C 
ATOM     16  O   UNL     1    -104.362  23.030  17.532  1.00  0.00    -0.550 OA
ATOM     17  O   UNL     1    -102.497  23.131  18.862  1.00  0.00    -0.550 OA
ENDBRANCH  14  15
ENDBRANCH  13  14
ENDBRANCH  12  13
ENDBRANCH  11  12
ENDBRANCH  10  11
ENDBRANCH   9  10
ENDBRANCH   8   9
ENDBRANCH   7   8
ENDBRANCH   6   7
ENDBRANCH   5   6
ENDBRANCH   4   5
ENDBRANCH   3   4
ENDBRANCH   2   3
ENDBRANCH   1   2
BRANCH   1  18
ATOM     18  C   UNL     1    -110.437  26.231  16.831  1.00  0.00     0.000 C 
BRANCH  18  19
ATOM     19  C   UNL     1    -111.641  25.301  17.067  1.00  0.00     0.000 C 
BRANCH  19  20
ATOM     20  C   UNL     1    -112.273  25.397  18.468  1.00  0.00     0.000 C 
BRANCH  20  21
ATOM     21  C   UNL     1    -113.803  25.560  18.428  1.00  0.00     0.000 C 
BRANCH  21  22
ATOM     22  C   UNL     1    -114.279  26.259  17.145  1.00  0.00     0.000 C 
BRANCH  22  23
ATOM     23  C   UNL     1    -115.431  27.248  17.405  1.00  0.00     0.000 C 
BRANCH  23  24
ATOM     24  C   UNL     1    -114.992  28.710  17.237  1.00  0.00    -0.000 C 
BRANCH  24  25
ATOM     25  C   UNL     1    -113.853  29.105  18.192  1.00  0.00    -0.000 C 
BRANCH  25  26
ATOM     26  C   UNL     1    -114.281  29.090  19.672  1.00  0.00    -0.000 C 
BRANCH  26  27
ATOM     27  C   UNL     1    -113.207  28.573  20.648  1.00  0.00    -0.000 C 
BRANCH  27  28
ATOM     28  C   UNL     1    -111.775  28.861  20.166  1.00  0.00    -0.000 C 
BRANCH  28  29
ATOM     29  C   UNL     1    -110.703  28.390  21.164  1.00  0.00    -0.000 C 
BRANCH  29  30
ATOM     30  C   UNL     1    -110.424  26.876  21.147  1.00  0.00    -0.000 C 
BRANCH  30  31
ATOM     31  C   UNL     1    -111.038  26.139  22.347  1.00  0.00    -0.003 C 
ATOM     32  C   UNL     1    -110.093  26.152  23.544  1.00  0.00     0.004 C 
ENDBRANCH  30  31
ENDBRANCH  29  30
ENDBRANCH  28  29
ENDBRANCH  27  28
ENDBRANCH  26  27
ENDBRANCH  25  26
ENDBRANCH  24  25
ENDBRANCH  23  24
ENDBRANCH  22  23
ENDBRANCH  21  22
ENDBRANCH  20  21
ENDBRANCH  19  20
ENDBRANCH  18  19
ENDBRANCH   1  18
TORSDOF 28
ENDMDL
MODEL 9
REMARK VINA RESULT:    -2.723      2.698      8.522
REMARK INTER + INTRA:         -11.663
REMARK INTER:                  -7.270
REMARK INTRA:                  -4.393
REMARK UNBOUND:                -4.482
REMARK SMILES CCCCCCCCCCCCCCCCCCCCCCCCCCCCCC(=O)[O-]
REMARK SMILES IDX 16 1 17 2 18 3 19 4 20 5 21 6 22 7 23 8 24 9 25 10 26 11
REMARK SMILES IDX 27 12 28 13 29 14 30 15 31 16 32 17 15 18 14 19 13 20 12 21
REMARK SMILES IDX 11 22 10 23 9 24 8 25 7 26 6 27 5 28 4 29 3 30 2 31 1 32
REMARK H PARENT
REMARK Flexibility Score: inf
ROOT
ATOM      1  C   UNL     1    -109.236  26.876  22.811  1.00  0.00     0.000 C 
ENDROOT
BRANCH   1   2
ATOM      2  C   UNL     1    -110.656  27.332  23.176  1.00  0.00     0.000 C 
BRANCH   2   3
ATOM      3  C   UNL     1    -111.050  28.662  22.513  1.00  0.00     0.000 C 
BRANCH   3   4
ATOM      4  C   UNL     1    -111.975  28.470  21.298  1.00  0.00     0.000 C 
BRANCH   4   5
ATOM      5  C   UNL     1    -111.355  28.993  19.987  1.00  0.00     0.000 C 
BRANCH   5   6
ATOM      6  C   UNL     1    -110.698  27.920  19.099  1.00  0.00     0.000 C 
BRANCH   6   7
ATOM      7  C   UNL     1    -110.967  26.486  19.587  1.00  0.00     0.000 C 
BRANCH   7   8
ATOM      8  C   UNL     1    -112.014  25.767  18.718  1.00  0.00     0.000 C 
BRANCH   8   9
ATOM      9  C   UNL     1    -113.344  25.506  19.461  1.00  0.00     0.000 C 
BRANCH   9  10
ATOM     10  C   UNL     1    -114.559  26.169  18.786  1.00  0.00     0.000 C 
BRANCH  10  11
ATOM     11  C   UNL     1    -114.218  27.404  17.933  1.00  0.00     0.000 C 
BRANCH  11  12
ATOM     12  C   UNL     1    -114.698  28.742  18.527  1.00  0.00     0.000 C 
BRANCH  12  13
ATOM     13  C   UNL     1    -115.700  28.572  19.689  1.00  0.00     0.006 C 
BRANCH  13  14
ATOM     14  C   UNL     1    -117.105  29.068  19.316  1.00  0.00     0.053 C 
BRANCH  14  15
ATOM     15  C   UNL     1    -117.900  27.984  18.656  1.00  0.00     0.041 C 
ATOM     16  O   UNL     1    -118.464  28.190  17.547  1.00  0.00    -0.550 OA
ATOM     17  O   UNL     1    -118.008  26.736  19.261  1.00  0.00    -0.550 OA
ENDBRANCH  14  15
ENDBRANCH  13  14
ENDBRANCH  12  13
ENDBRANCH  11  12
ENDBRANCH  10  11
ENDBRANCH   9  10
ENDBRANCH   8   9
ENDBRANCH   7   8
ENDBRANCH   6   7
ENDBRANCH   5   6
ENDBRANCH   4   5
ENDBRANCH   3   4
ENDBRANCH   2   3
ENDBRANCH   1   2
BRANCH   1  18
ATOM     18  C   UNL     1    -108.428  28.033  22.205  1.00  0.00     0.000 C 
BRANCH  18  19
ATOM     19  C   UNL     1    -107.478  27.584  21.080  1.00  0.00     0.000 C 
BRANCH  19  20
ATOM     20  C   UNL     1    -106.170  28.388  20.973  1.00  0.00     0.000 C 
BRANCH  20  21
ATOM     21  C   UNL     1    -105.285  28.269  22.227  1.00  0.00     0.000 C 
BRANCH  21  22
ATOM     22  C   UNL     1    -103.839  27.883  21.881  1.00  0.00     0.000 C 
BRANCH  22  23
ATOM     23  C   UNL     1    -103.243  28.767  20.769  1.00  0.00     0.000 C 
BRANCH  23  24
ATOM     24  C   UNL     1    -101.832  28.318  20.362  1.00  0.00    -0.000 C 
BRANCH  24  25
ATOM     25  C   UNL     1    -101.506  28.637  18.892  1.00  0.00    -0.000 C 
BRANCH  25  26
ATOM     26  C   UNL     1    -100.590  27.584  18.241  1.00  0.00    -0.000 C 
BRANCH  26  27
ATOM     27  C   UNL     1    -100.845  26.135  18.699  1.00  0.00    -0.000 C 
BRANCH  27  28
ATOM     28  C   UNL     1    -101.999  25.464  17.935  1.00  0.00    -0.000 C 
BRANCH  28  29
ATOM     29  C   UNL     1    -103.206  25.146  18.836  1.00  0.00    -0.000 C 
BRANCH  29  30
ATOM     30  C   UNL     1    -104.387  26.126  18.706  1.00  0.00    -0.000 C 
BRANCH  30  31
ATOM     31  C   UNL     1    -105.524  25.580  17.827  1.00  0.00    -0.003 C 
ATOM     32  C   UNL     1    -106.451  26.700  17.367  1.00  0.00     0.004 C 
ENDBRANCH  30  31
ENDBRANCH  29  30
ENDBRANCH  28  29
ENDBRANCH  27  28
ENDBRANCH  26  27
ENDBRANCH  25  26
ENDBRANCH  24  25
ENDBRANCH  23  24
ENDBRANCH  22  23
ENDBRANCH  21  22
ENDBRANCH  20  21
ENDBRANCH  19  20
ENDBRANCH  18  19
ENDBRANCH   1  18
TORSDOF 28
ENDMDL
