MODEL 1
REMARK VINA RESULT:    -2.918      0.000      0.000
REMARK INTER + INTRA:         -13.746
REMARK INTER:                  -7.695
REMARK INTRA:                  -6.050
REMARK UNBOUND:                -6.050
REMARK SMILES CCCCCCCCCCCCCCCCCCCCCCCCCCCCCC(=O)[O-]
REMARK SMILES IDX 16 1 17 2 18 3 19 4 20 5 21 6 22 7 23 8 24 9 25 10 26 11
REMARK SMILES IDX 27 12 28 13 29 14 30 15 31 16 32 17 15 18 14 19 13 20 12 21
REMARK SMILES IDX 11 22 10 23 9 24 8 25 7 26 6 27 5 28 4 29 3 30 2 31 1 32
REMARK H PARENT
REMARK Flexibility Score: inf
ROOT
ATOM      1  C   UNL     1      54.047  27.676  49.814  1.00  0.00     0.000 C 
ENDROOT
BRANCH   1   2
ATOM      2  C   UNL     1      55.102  26.588  50.093  1.00  0.00     0.000 C 
BRANCH   2   3
ATOM      3  C   UNL     1      54.842  25.836  51.410  1.00  0.00     0.000 C 
BRANCH   3   4
ATOM      4  C   UNL     1      55.864  26.190  52.506  1.00  0.00     0.000 C 
BRANCH   4   5
ATOM      5  C   UNL     1      57.308  25.837  52.117  1.00  0.00     0.000 C 
BRANCH   5   6
ATOM      6  C   UNL     1      58.294  26.994  52.367  1.00  0.00     0.000 C 
BRANCH   6   7
ATOM      7  C   UNL     1      57.588  28.344  52.585  1.00  0.00     0.000 C 
BRANCH   7   8
ATOM      8  C   UNL     1      57.994  29.430  51.562  1.00  0.00     0.000 C 
BRANCH   8   9
ATOM      9  C   UNL     1      57.876  28.951  50.104  1.00  0.00     0.000 C 
BRANCH   9  10
ATOM     10  C   UNL     1      59.227  29.009  49.367  1.00  0.00     0.000 C 
BRANCH  10  11
ATOM     11  C   UNL     1      59.801  27.609  49.075  1.00  0.00     0.000 C 
BRANCH  11  12
ATOM     12  C   UNL     1      61.185  27.339  49.704  1.00  0.00     0.000 C 
BRANCH  12  13
ATOM     13  C   UNL     1      61.442  25.880  50.143  1.00  0.00     0.006 C 
BRANCH  13  14
ATOM     14  C   UNL     1      60.229  24.948  49.983  1.00  0.00     0.053 C 
BRANCH  14  15
ATOM     15  C   UNL     1      60.534  23.528  50.348  1.00  0.00     0.041 C 
ATOM     16  O   UNL     1      61.303  22.842  49.624  1.00  0.00    -0.550 OA
ATOM     17  O   UNL     1      59.944  22.948  51.464  1.00  0.00    -0.550 OA
ENDBRANCH  14  15
ENDBRANCH  13  14
ENDBRANCH  12  13
ENDBRANCH  11  12
ENDBRANCH  10  11
ENDBRANCH   9  10
ENDBRANCH   8   9
ENDBRANCH   7   8
ENDBRANCH   6   7
ENDBRANCH   5   6
ENDBRANCH   4   5
ENDBRANCH   3   4
ENDBRANCH   2   3
ENDBRANCH   1   2
BRANCH   1  18
ATOM     18  C   UNL     1      54.381  29.030  50.476  1.00  0.00     0.000 C 
BRANCH  18  19
ATOM     19  C   UNL     1      53.457  29.404  51.651  1.00  0.00     0.000 C 
BRANCH  19  20
ATOM     20  C   UNL     1      54.225  29.644  52.962  1.00  0.00     0.000 C 
BRANCH  20  21
ATOM     21  C   UNL     1      54.734  31.089  53.110  1.00  0.00     0.000 C 
BRANCH  21  22
ATOM     22  C   UNL     1      55.927  31.282  54.066  1.00  0.00     0.000 C 
BRANCH  22  23
ATOM     23  C   UNL     1      56.970  32.310  53.580  1.00  0.00     0.000 C 
BRANCH  23  24
ATOM     24  C   UNL     1      58.376  32.025  54.136  1.00  0.00    -0.000 C 
BRANCH  24  25
ATOM     25  C   UNL     1      58.377  30.944  55.227  1.00  0.00    -0.000 C 
BRANCH  25  26
ATOM     26  C   UNL     1      59.653  30.082  55.203  1.00  0.00    -0.000 C 
BRANCH  26  27
ATOM     27  C   UNL     1      60.596  30.482  54.056  1.00  0.00    -0.000 C 
BRANCH  27  28
ATOM     28  C   UNL     1      61.226  29.258  53.367  1.00  0.00    -0.000 C 
BRANCH  28  29
ATOM     29  C   UNL     1      62.099  29.645  52.163  1.00  0.00    -0.000 C 
BRANCH  29  30
ATOM     30  C   UNL     1      61.479  30.782  51.330  1.00  0.00    -0.000 C 
BRANCH  30  31
ATOM     31  C   UNL     1      62.251  31.054  50.030  1.00  0.00    -0.003 C 
ATOM     32  C   UNL     1      63.115  32.311  50.113  1.00  0.00     0.004 C 
ENDBRANCH  30  31
ENDBRANCH  29  30
ENDBRANCH  28  29
ENDBRANCH  27  28
ENDBRANCH  26  27
ENDBRANCH  25  26
ENDBRANCH  24  25
ENDBRANCH  23  24
ENDBRANCH  22  23
ENDBRANCH  21  22
ENDBRANCH  20  21
ENDBRANCH  19  20
ENDBRANCH  18  19
ENDBRANCH   1  18
TORSDOF 28
ENDMDL
MODEL 2
REMARK VINA RESULT:    -2.848      1.632      4.116
REMARK INTER + INTRA:         -13.560
REMARK INTER:                  -7.073
REMARK INTRA:                  -6.487
REMARK UNBOUND:                -6.050
REMARK SMILES CCCCCCCCCCCCCCCCCCCCCCCCCCCCCC(=O)[O-]
REMARK SMILES IDX 16 1 17 2 18 3 19 4 20 5 21 6 22 7 23 8 24 9 25 10 26 11
REMARK SMILES IDX 27 12 28 13 29 14 30 15 31 16 32 17 15 18 14 19 13 20 12 21
REMARK SMILES IDX 11 22 10 23 9 24 8 25 7 26 6 27 5 28 4 29 3 30 2 31 1 32
REMARK H PARENT
REMARK Flexibility Score: inf
ROOT
ATOM      1  C   UNL     1      54.055  29.693  50.830  1.00  0.00     0.000 C 
ENDROOT
BRANCH   1   2
ATOM      2  C   UNL     1      53.598  28.230  50.983  1.00  0.00     0.000 C 
BRANCH   2   3
ATOM      3  C   UNL     1      53.733  27.428  49.677  1.00  0.00     0.000 C 
BRANCH   3   4
ATOM      4  C   UNL     1      54.465  26.089  49.876  1.00  0.00     0.000 C 
BRANCH   4   5
ATOM      5  C   UNL     1      55.992  26.216  49.757  1.00  0.00     0.000 C 
BRANCH   5   6
ATOM      6  C   UNL     1      56.698  26.237  51.125  1.00  0.00     0.000 C 
BRANCH   6   7
ATOM      7  C   UNL     1      57.468  27.545  51.380  1.00  0.00     0.000 C 
BRANCH   7   8
ATOM      8  C   UNL     1      57.334  28.579  50.237  1.00  0.00     0.000 C 
BRANCH   8   9
ATOM      9  C   UNL     1      58.687  29.183  49.818  1.00  0.00     0.000 C 
BRANCH   9  10
ATOM     10  C   UNL     1      59.572  28.160  49.081  1.00  0.00     0.000 C 
BRANCH  10  11
ATOM     11  C   UNL     1      60.881  27.861  49.836  1.00  0.00     0.000 C 
BRANCH  11  12
ATOM     12  C   UNL     1      60.904  26.500  50.565  1.00  0.00     0.000 C 
BRANCH  12  13
ATOM     13  C   UNL     1      60.144  25.355  49.858  1.00  0.00     0.006 C 
BRANCH  13  14
ATOM     14  C   UNL     1      59.686  24.226  50.797  1.00  0.00     0.053 C 
BRANCH  14  15
ATOM     15  C   UNL     1      60.388  22.929  50.532  1.00  0.00     0.041 C 
ATOM     16  O   UNL     1      60.178  21.935  51.276  1.00  0.00    -0.550 OA
ATOM     17  O   UNL     1      61.300  22.825  49.489  1.00  0.00    -0.550 OA
ENDBRANCH  14  15
ENDBRANCH  13  14
ENDBRANCH  12  13
ENDBRANCH  11  12
ENDBRANCH  10  11
ENDBRANCH   9  10
ENDBRANCH   8   9
ENDBRANCH   7   8
ENDBRANCH   6   7
ENDBRANCH   5   6
ENDBRANCH   4   5
ENDBRANCH   3   4
ENDBRANCH   2   3
ENDBRANCH   1   2
BRANCH   1  18
ATOM     18  C   UNL     1      54.307  30.395  52.182  1.00  0.00     0.000 C 
BRANCH  18  19
ATOM     19  C   UNL     1      54.668  29.437  53.333  1.00  0.00     0.000 C 
BRANCH  19  20
ATOM     20  C   UNL     1      56.146  29.531  53.748  1.00  0.00     0.000 C 
BRANCH  20  21
ATOM     21  C   UNL     1      56.750  30.929  53.529  1.00  0.00     0.000 C 
BRANCH  21  22
ATOM     22  C   UNL     1      58.174  30.957  52.940  1.00  0.00     0.000 C 
BRANCH  22  23
ATOM     23  C   UNL     1      59.263  30.406  53.884  1.00  0.00     0.000 C 
BRANCH  23  24
ATOM     24  C   UNL     1      60.154  29.355  53.199  1.00  0.00    -0.000 C 
BRANCH  24  25
ATOM     25  C   UNL     1      60.380  28.109  54.068  1.00  0.00    -0.000 C 
BRANCH  25  26
ATOM     26  C   UNL     1      59.060  27.487  54.563  1.00  0.00    -0.000 C 
BRANCH  26  27
ATOM     27  C   UNL     1      58.862  27.688  56.075  1.00  0.00    -0.000 C 
BRANCH  27  28
ATOM     28  C   UNL     1      57.454  27.269  56.537  1.00  0.00    -0.000 C 
BRANCH  28  29
ATOM     29  C   UNL     1      56.897  26.086  55.731  1.00  0.00    -0.000 C 
BRANCH  29  30
ATOM     30  C   UNL     1      55.425  26.292  55.328  1.00  0.00    -0.000 C 
BRANCH  30  31
ATOM     31  C   UNL     1      55.016  25.436  54.120  1.00  0.00    -0.003 C 
ATOM     32  C   UNL     1      53.624  25.786  53.596  1.00  0.00     0.004 C 
ENDBRANCH  30  31
ENDBRANCH  29  30
ENDBRANCH  28  29
ENDBRANCH  27  28
ENDBRANCH  26  27
ENDBRANCH  25  26
ENDBRANCH  24  25
ENDBRANCH  23  24
ENDBRANCH  22  23
ENDBRANCH  21  22
ENDBRANCH  20  21
ENDBRANCH  19  20
ENDBRANCH  18  19
ENDBRANCH   1  18
TORSDOF 28
ENDMDL
MODEL 3
REMARK VINA RESULT:    -2.788      2.594      4.712
REMARK INTER + INTRA:         -13.401
REMARK INTER:                  -7.372
REMARK INTRA:                  -6.030
REMARK UNBOUND:                -6.050
REMARK SMILES CCCCCCCCCCCCCCCCCCCCCCCCCCCCCC(=O)[O-]
REMARK SMILES IDX 16 1 17 2 18 3 19 4 20 5 21 6 22 7 23 8 24 9 25 10 26 11
REMARK SMILES IDX 27 12 28 13 29 14 30 15 31 16 32 17 15 18 14 19 13 20 12 21
REMARK SMILES IDX 11 22 10 23 9 24 8 25 7 26 6 27 5 28 4 29 3 30 2 31 1 32
REMARK H PARENT
REMARK Flexibility Score: inf
ROOT
ATOM      1  C   UNL     1      54.659  26.186  49.459  1.00  0.00     0.000 C 
ENDROOT
BRANCH   1   2
ATOM      2  C   UNL     1      55.458  25.663  50.667  1.00  0.00     0.000 C 
BRANCH   2   3
ATOM      3  C   UNL     1      56.963  25.958  50.554  1.00  0.00     0.000 C 
BRANCH   3   4
ATOM      4  C   UNL     1      57.803  25.157  51.565  1.00  0.00     0.000 C 
BRANCH   4   5
ATOM      5  C   UNL     1      58.517  26.048  52.593  1.00  0.00     0.000 C 
BRANCH   5   6
ATOM      6  C   UNL     1      60.032  25.784  52.663  1.00  0.00     0.000 C 
BRANCH   6   7
ATOM      7  C   UNL     1      60.738  26.635  53.734  1.00  0.00     0.000 C 
BRANCH   7   8
ATOM      8  C   UNL     1      59.890  27.823  54.243  1.00  0.00     0.000 C 
BRANCH   8   9
ATOM      9  C   UNL     1      60.695  29.133  54.337  1.00  0.00     0.000 C 
BRANCH   9  10
ATOM     10  C   UNL     1      62.212  28.887  54.237  1.00  0.00     0.000 C 
BRANCH  10  11
ATOM     11  C   UNL     1      62.929  29.959  53.394  1.00  0.00     0.000 C 
BRANCH  11  12
ATOM     12  C   UNL     1      62.621  29.898  51.882  1.00  0.00     0.000 C 
BRANCH  12  13
ATOM     13  C   UNL     1      62.175  31.231  51.241  1.00  0.00     0.006 C 
BRANCH  13  14
ATOM     14  C   UNL     1      62.374  31.299  49.717  1.00  0.00     0.053 C 
BRANCH  14  15
ATOM     15  C   UNL     1      63.811  31.168  49.313  1.00  0.00     0.041 C 
ATOM     16  O   UNL     1      64.670  31.965  49.773  1.00  0.00    -0.550 OA
ATOM     17  O   UNL     1      64.197  30.193  48.402  1.00  0.00    -0.550 OA
ENDBRANCH  14  15
ENDBRANCH  13  14
ENDBRANCH  12  13
ENDBRANCH  11  12
ENDBRANCH  10  11
ENDBRANCH   9  10
ENDBRANCH   8   9
ENDBRANCH   7   8
ENDBRANCH   6   7
ENDBRANCH   5   6
ENDBRANCH   4   5
ENDBRANCH   3   4
ENDBRANCH   2   3
ENDBRANCH   1   2
BRANCH   1  18
ATOM     18  C   UNL     1      53.681  27.324  49.824  1.00  0.00     0.000 C 
BRANCH  18  19
ATOM     19  C   UNL     1      54.368  28.658  50.175  1.00  0.00     0.000 C 
BRANCH  19  20
ATOM     20  C   UNL     1      53.611  29.454  51.252  1.00  0.00     0.000 C 
BRANCH  20  21
ATOM     21  C   UNL     1      54.091  29.147  52.681  1.00  0.00     0.000 C 
BRANCH  21  22
ATOM     22  C   UNL     1      55.537  28.624  52.803  1.00  0.00     0.000 C 
BRANCH  22  23
ATOM     23  C   UNL     1      56.497  29.577  53.545  1.00  0.00     0.000 C 
BRANCH  23  24
ATOM     24  C   UNL     1      57.593  30.139  52.623  1.00  0.00    -0.000 C 
BRANCH  24  25
ATOM     25  C   UNL     1      57.702  29.375  51.294  1.00  0.00    -0.000 C 
BRANCH  25  26
ATOM     26  C   UNL     1      59.155  29.257  50.799  1.00  0.00    -0.000 C 
BRANCH  26  27
ATOM     27  C   UNL     1      59.230  28.718  49.360  1.00  0.00    -0.000 C 
BRANCH  27  28
ATOM     28  C   UNL     1      60.049  27.418  49.267  1.00  0.00    -0.000 C 
BRANCH  28  29
ATOM     29  C   UNL     1      61.548  27.647  49.518  1.00  0.00    -0.000 C 
BRANCH  29  30
ATOM     30  C   UNL     1      62.297  26.338  49.833  1.00  0.00    -0.000 C 
BRANCH  30  31
ATOM     31  C   UNL     1      63.321  26.500  50.965  1.00  0.00    -0.003 C 
ATOM     32  C   UNL     1      63.635  25.180  51.667  1.00  0.00     0.004 C 
ENDBRANCH  30  31
ENDBRANCH  29  30
ENDBRANCH  28  29
ENDBRANCH  27  28
ENDBRANCH  26  27
ENDBRANCH  25  26
ENDBRANCH  24  25
ENDBRANCH  23  24
ENDBRANCH  22  23
ENDBRANCH  21  22
ENDBRANCH  20  21
ENDBRANCH  19  20
ENDBRANCH  18  19
ENDBRANCH   1  18
TORSDOF 28
ENDMDL
MODEL 4
REMARK VINA RESULT:    -2.767      2.476      5.981
REMARK INTER + INTRA:         -13.346
REMARK INTER:                  -7.339
REMARK INTRA:                  -6.007
REMARK UNBOUND:                -6.050
REMARK SMILES CCCCCCCCCCCCCCCCCCCCCCCCCCCCCC(=O)[O-]
REMARK SMILES IDX 16 1 17 2 18 3 19 4 20 5 21 6 22 7 23 8 24 9 25 10 26 11
REMARK SMILES IDX 27 12 28 13 29 14 30 15 31 16 32 17 15 18 14 19 13 20 12 21
REMARK SMILES IDX 11 22 10 23 9 24 8 25 7 26 6 27 5 28 4 29 3 30 2 31 1 32
REMARK H PARENT
REMARK Flexibility Score: inf
ROOT
ATOM      1  C   UNL     1      59.495  29.564  54.510  1.00  0.00     0.000 C 
ENDROOT
BRANCH   1   2
ATOM      2  C   UNL     1      59.648  29.035  53.072  1.00  0.00     0.000 C 
BRANCH   2   3
ATOM      3  C   UNL     1      58.964  29.939  52.033  1.00  0.00     0.000 C 
BRANCH   3   4
ATOM      4  C   UNL     1      58.074  29.151  51.054  1.00  0.00     0.000 C 
BRANCH   4   5
ATOM      5  C   UNL     1      58.620  29.146  49.618  1.00  0.00     0.000 C 
BRANCH   5   6
ATOM      6  C   UNL     1      59.702  28.073  49.393  1.00  0.00     0.000 C 
BRANCH   6   7
ATOM      7  C   UNL     1      59.127  26.646  49.349  1.00  0.00     0.000 C 
BRANCH   7   8
ATOM      8  C   UNL     1      59.777  25.681  50.367  1.00  0.00     0.000 C 
BRANCH   8   9
ATOM      9  C   UNL     1      61.127  26.195  50.898  1.00  0.00     0.000 C 
BRANCH   9  10
ATOM     10  C   UNL     1      62.305  25.327  50.416  1.00  0.00     0.000 C 
BRANCH  10  11
ATOM     11  C   UNL     1      63.505  26.171  49.942  1.00  0.00     0.000 C 
BRANCH  11  12
ATOM     12  C   UNL     1      63.122  27.483  49.224  1.00  0.00     0.000 C 
BRANCH  12  13
ATOM     13  C   UNL     1      63.720  28.771  49.834  1.00  0.00     0.006 C 
BRANCH  13  14
ATOM     14  C   UNL     1      62.953  29.309  51.054  1.00  0.00     0.053 C 
BRANCH  14  15
ATOM     15  C   UNL     1      62.324  30.645  50.802  1.00  0.00     0.041 C 
ATOM     16  O   UNL     1      61.923  30.945  49.646  1.00  0.00    -0.550 OA
ATOM     17  O   UNL     1      62.211  31.573  51.829  1.00  0.00    -0.550 OA
ENDBRANCH  14  15
ENDBRANCH  13  14
ENDBRANCH  12  13
ENDBRANCH  11  12
ENDBRANCH  10  11
ENDBRANCH   9  10
ENDBRANCH   8   9
ENDBRANCH   7   8
ENDBRANCH   6   7
ENDBRANCH   5   6
ENDBRANCH   4   5
ENDBRANCH   3   4
ENDBRANCH   2   3
ENDBRANCH   1   2
BRANCH   1  18
ATOM     18  C   UNL     1      58.087  29.331  55.098  1.00  0.00     0.000 C 
BRANCH  18  19
ATOM     19  C   UNL     1      57.381  30.614  55.576  1.00  0.00     0.000 C 
BRANCH  19  20
ATOM     20  C   UNL     1      56.408  31.187  54.531  1.00  0.00     0.000 C 
BRANCH  20  21
ATOM     21  C   UNL     1      55.551  30.108  53.847  1.00  0.00     0.000 C 
BRANCH  21  22
ATOM     22  C   UNL     1      54.918  30.512  52.501  1.00  0.00     0.000 C 
BRANCH  22  23
ATOM     23  C   UNL     1      53.897  29.496  51.949  1.00  0.00     0.000 C 
BRANCH  23  24
ATOM     24  C   UNL     1      54.025  29.304  50.427  1.00  0.00    -0.000 C 
BRANCH  24  25
ATOM     25  C   UNL     1      54.035  27.825  50.013  1.00  0.00    -0.000 C 
BRANCH  25  26
ATOM     26  C   UNL     1      55.450  27.219  50.017  1.00  0.00    -0.000 C 
BRANCH  26  27
ATOM     27  C   UNL     1      55.470  25.806  50.625  1.00  0.00    -0.000 C 
BRANCH  27  28
ATOM     28  C   UNL     1      55.148  25.816  52.130  1.00  0.00    -0.000 C 
BRANCH  28  29
ATOM     29  C   UNL     1      56.126  26.685  52.936  1.00  0.00    -0.000 C 
BRANCH  29  30
ATOM     30  C   UNL     1      57.502  26.016  53.105  1.00  0.00    -0.000 C 
BRANCH  30  31
ATOM     31  C   UNL     1      57.403  24.590  53.667  1.00  0.00    -0.003 C 
ATOM     32  C   UNL     1      58.340  23.613  52.959  1.00  0.00     0.004 C 
ENDBRANCH  30  31
ENDBRANCH  29  30
ENDBRANCH  28  29
ENDBRANCH  27  28
ENDBRANCH  26  27
ENDBRANCH  25  26
ENDBRANCH  24  25
ENDBRANCH  23  24
ENDBRANCH  22  23
ENDBRANCH  21  22
ENDBRANCH  20  21
ENDBRANCH  19  20
ENDBRANCH  18  19
ENDBRANCH   1  18
TORSDOF 28
ENDMDL
MODEL 5
REMARK VINA RESULT:    -2.732      7.023     10.814
REMARK INTER + INTRA:         -13.254
REMARK INTER:                  -6.749
REMARK INTRA:                  -6.505
REMARK UNBOUND:                -6.050
REMARK SMILES CCCCCCCCCCCCCCCCCCCCCCCCCCCCCC(=O)[O-]
REMARK SMILES IDX 16 1 17 2 18 3 19 4 20 5 21 6 22 7 23 8 24 9 25 10 26 11
REMARK SMILES IDX 27 12 28 13 29 14 30 15 31 16 32 17 15 18 14 19 13 20 12 21
REMARK SMILES IDX 11 22 10 23 9 24 8 25 7 26 6 27 5 28 4 29 3 30 2 31 1 32
REMARK H PARENT
REMARK Flexibility Score: inf
ROOT
ATOM      1  C   UNL     1      64.209  33.527  60.067  1.00  0.00     0.000 C 
ENDROOT
BRANCH   1   2
ATOM      2  C   UNL     1      62.879  32.864  59.662  1.00  0.00     0.000 C 
BRANCH   2   3
ATOM      3  C   UNL     1      61.760  33.105  60.690  1.00  0.00     0.000 C 
BRANCH   3   4
ATOM      4  C   UNL     1      61.191  31.795  61.266  1.00  0.00     0.000 C 
BRANCH   4   5
ATOM      5  C   UNL     1      61.662  30.548  60.500  1.00  0.00     0.000 C 
BRANCH   5   6
ATOM      6  C   UNL     1      62.011  29.372  61.430  1.00  0.00     0.000 C 
BRANCH   6   7
ATOM      7  C   UNL     1      63.430  28.825  61.194  1.00  0.00     0.000 C 
BRANCH   7   8
ATOM      8  C   UNL     1      64.508  29.925  61.061  1.00  0.00     0.000 C 
BRANCH   8   9
ATOM      9  C   UNL     1      65.559  29.603  59.983  1.00  0.00     0.000 C 
BRANCH   9  10
ATOM     10  C   UNL     1      65.214  30.249  58.628  1.00  0.00     0.000 C 
BRANCH  10  11
ATOM     11  C   UNL     1      64.631  29.236  57.624  1.00  0.00     0.000 C 
BRANCH  11  12
ATOM     12  C   UNL     1      63.129  29.425  57.320  1.00  0.00     0.000 C 
BRANCH  12  13
ATOM     13  C   UNL     1      62.698  30.870  56.981  1.00  0.00     0.006 C 
BRANCH  13  14
ATOM     14  C   UNL     1      63.140  31.352  55.589  1.00  0.00     0.053 C 
BRANCH  14  15
ATOM     15  C   UNL     1      63.721  32.734  55.610  1.00  0.00     0.041 C 
ATOM     16  O   UNL     1      63.342  33.589  54.766  1.00  0.00    -0.550 OA
ATOM     17  O   UNL     1      64.703  33.068  56.533  1.00  0.00    -0.550 OA
ENDBRANCH  14  15
ENDBRANCH  13  14
ENDBRANCH  12  13
ENDBRANCH  11  12
ENDBRANCH  10  11
ENDBRANCH   9  10
ENDBRANCH   8   9
ENDBRANCH   7   8
ENDBRANCH   6   7
ENDBRANCH   5   6
ENDBRANCH   4   5
ENDBRANCH   3   4
ENDBRANCH   2   3
ENDBRANCH   1   2
BRANCH   1  18
ATOM     18  C   UNL     1      64.126  34.286  61.409  1.00  0.00     0.000 C 
BRANCH  18  19
ATOM     19  C   UNL     1      64.887  35.625  61.425  1.00  0.00     0.000 C 
BRANCH  19  20
ATOM     20  C   UNL     1      63.949  36.845  61.430  1.00  0.00     0.000 C 
BRANCH  20  21
ATOM     21  C   UNL     1      62.482  36.483  61.141  1.00  0.00     0.000 C 
BRANCH  21  22
ATOM     22  C   UNL     1      61.942  36.927  59.767  1.00  0.00     0.000 C 
BRANCH  22  23
ATOM     23  C   UNL     1      62.926  36.713  58.598  1.00  0.00     0.000 C 
BRANCH  23  24
ATOM     24  C   UNL     1      62.339  35.811  57.498  1.00  0.00    -0.000 C 
BRANCH  24  25
ATOM     25  C   UNL     1      60.910  35.344  57.810  1.00  0.00    -0.000 C 
BRANCH  25  26
ATOM     26  C   UNL     1      60.523  34.069  57.038  1.00  0.00    -0.000 C 
BRANCH  26  27
ATOM     27  C   UNL     1      59.163  33.512  57.492  1.00  0.00    -0.000 C 
BRANCH  27  28
ATOM     28  C   UNL     1      59.292  32.122  58.142  1.00  0.00    -0.000 C 
BRANCH  28  29
ATOM     29  C   UNL     1      58.852  30.989  57.201  1.00  0.00    -0.000 C 
BRANCH  29  30
ATOM     30  C   UNL     1      59.349  29.610  57.672  1.00  0.00    -0.000 C 
BRANCH  30  31
ATOM     31  C   UNL     1      58.592  29.097  58.906  1.00  0.00    -0.003 C 
ATOM     32  C   UNL     1      57.076  29.113  58.714  1.00  0.00     0.004 C 
ENDBRANCH  30  31
ENDBRANCH  29  30
ENDBRANCH  28  29
ENDBRANCH  27  28
ENDBRANCH  26  27
ENDBRANCH  25  26
ENDBRANCH  24  25
ENDBRANCH  23  24
ENDBRANCH  22  23
ENDBRANCH  21  22
ENDBRANCH  20  21
ENDBRANCH  19  20
ENDBRANCH  18  19
ENDBRANCH   1  18
TORSDOF 28
ENDMDL
MODEL 6
REMARK VINA RESULT:    -2.698      7.782     11.512
REMARK INTER + INTRA:         -13.166
REMARK INTER:                  -7.731
REMARK INTRA:                  -5.434
REMARK UNBOUND:                -6.050
REMARK SMILES CCCCCCCCCCCCCCCCCCCCCCCCCCCCCC(=O)[O-]
REMARK SMILES IDX 16 1 17 2 18 3 19 4 20 5 21 6 22 7 23 8 24 9 25 10 26 11
REMARK SMILES IDX 27 12 28 13 29 14 30 15 31 16 32 17 15 18 14 19 13 20 12 21
REMARK SMILES IDX 11 22 10 23 9 24 8 25 7 26 6 27 5 28 4 29 3 30 2 31 1 32
REMARK H PARENT
REMARK Flexibility Score: inf
ROOT
ATOM      1  C   UNL     1      64.009  35.356  61.129  1.00  0.00     0.000 C 
ENDROOT
BRANCH   1   2
ATOM      2  C   UNL     1      62.824  36.292  60.824  1.00  0.00     0.000 C 
BRANCH   2   3
ATOM      3  C   UNL     1      61.503  35.529  60.628  1.00  0.00     0.000 C 
BRANCH   3   4
ATOM      4  C   UNL     1      61.421  34.827  59.260  1.00  0.00     0.000 C 
BRANCH   4   5
ATOM      5  C   UNL     1      61.118  33.324  59.374  1.00  0.00     0.000 C 
BRANCH   5   6
ATOM      6  C   UNL     1      61.736  32.684  60.631  1.00  0.00     0.000 C 
BRANCH   6   7
ATOM      7  C   UNL     1      61.005  31.402  61.068  1.00  0.00     0.000 C 
BRANCH   7   8
ATOM      8  C   UNL     1      61.926  30.363  61.750  1.00  0.00     0.000 C 
BRANCH   8   9
ATOM      9  C   UNL     1      63.419  30.614  61.471  1.00  0.00     0.000 C 
BRANCH   9  10
ATOM     10  C   UNL     1      64.138  29.341  60.988  1.00  0.00     0.000 C 
BRANCH  10  11
ATOM     11  C   UNL     1      65.628  29.587  60.679  1.00  0.00     0.000 C 
BRANCH  11  12
ATOM     12  C   UNL     1      66.487  28.306  60.604  1.00  0.00     0.000 C 
BRANCH  12  13
ATOM     13  C   UNL     1      65.720  27.012  60.251  1.00  0.00     0.006 C 
BRANCH  13  14
ATOM     14  C   UNL     1      66.389  26.159  59.159  1.00  0.00     0.053 C 
BRANCH  14  15
ATOM     15  C   UNL     1      65.473  25.860  58.012  1.00  0.00     0.041 C 
ATOM     16  O   UNL     1      65.949  25.616  56.872  1.00  0.00    -0.550 OA
ATOM     17  O   UNL     1      64.095  25.884  58.190  1.00  0.00    -0.550 OA
ENDBRANCH  14  15
ENDBRANCH  13  14
ENDBRANCH  12  13
ENDBRANCH  11  12
ENDBRANCH  10  11
ENDBRANCH   9  10
ENDBRANCH   8   9
ENDBRANCH   7   8
ENDBRANCH   6   7
ENDBRANCH   5   6
ENDBRANCH   4   5
ENDBRANCH   3   4
ENDBRANCH   2   3
ENDBRANCH   1   2
BRANCH   1  18
ATOM     18  C   UNL     1      65.199  35.547  60.164  1.00  0.00     0.000 C 
BRANCH  18  19
ATOM     19  C   UNL     1      65.033  34.833  58.809  1.00  0.00     0.000 C 
BRANCH  19  20
ATOM     20  C   UNL     1      64.883  33.309  58.950  1.00  0.00     0.000 C 
BRANCH  20  21
ATOM     21  C   UNL     1      64.304  32.638  57.692  1.00  0.00     0.000 C 
BRANCH  21  22
ATOM     22  C   UNL     1      63.800  31.192  57.877  1.00  0.00     0.000 C 
BRANCH  22  23
ATOM     23  C   UNL     1      62.718  30.762  56.866  1.00  0.00     0.000 C 
BRANCH  23  24
ATOM     24  C   UNL     1      61.509  30.100  57.548  1.00  0.00    -0.000 C 
BRANCH  24  25
ATOM     25  C   UNL     1      61.879  28.806  58.290  1.00  0.00    -0.000 C 
BRANCH  25  26
ATOM     26  C   UNL     1      60.657  28.121  58.929  1.00  0.00    -0.000 C 
BRANCH  26  27
ATOM     27  C   UNL     1      61.059  26.906  59.782  1.00  0.00    -0.000 C 
BRANCH  27  28
ATOM     28  C   UNL     1      60.768  27.124  61.278  1.00  0.00    -0.000 C 
BRANCH  28  29
ATOM     29  C   UNL     1      61.881  26.570  62.181  1.00  0.00    -0.000 C 
BRANCH  29  30
ATOM     30  C   UNL     1      62.737  25.505  61.470  1.00  0.00    -0.000 C 
BRANCH  30  31
ATOM     31  C   UNL     1      62.439  24.081  61.963  1.00  0.00    -0.003 C 
ATOM     32  C   UNL     1      62.207  24.018  63.471  1.00  0.00     0.004 C 
ENDBRANCH  30  31
ENDBRANCH  29  30
ENDBRANCH  28  29
ENDBRANCH  27  28
ENDBRANCH  26  27
ENDBRANCH  25  26
ENDBRANCH  24  25
ENDBRANCH  23  24
ENDBRANCH  22  23
ENDBRANCH  21  22
ENDBRANCH  20  21
ENDBRANCH  19  20
ENDBRANCH  18  19
ENDBRANCH   1  18
TORSDOF 28
ENDMDL
MODEL 7
REMARK VINA RESULT:    -2.696      7.355     10.675
REMARK INTER + INTRA:         -13.160
REMARK INTER:                  -6.847
REMARK INTRA:                  -6.314
REMARK UNBOUND:                -6.050
REMARK SMILES CCCCCCCCCCCCCCCCCCCCCCCCCCCCCC(=O)[O-]
REMARK SMILES IDX 16 1 17 2 18 3 19 4 20 5 21 6 22 7 23 8 24 9 25 10 26 11
REMARK SMILES IDX 27 12 28 13 29 14 30 15 31 16 32 17 15 18 14 19 13 20 12 21
REMARK SMILES IDX 11 22 10 23 9 24 8 25 7 26 6 27 5 28 4 29 3 30 2 31 1 32
REMARK H PARENT
REMARK Flexibility Score: inf
ROOT
ATOM      1  C   UNL     1      62.428  35.459  57.065  1.00  0.00     0.000 C 
ENDROOT
BRANCH   1   2
ATOM      2  C   UNL     1      62.669  33.970  57.381  1.00  0.00     0.000 C 
BRANCH   2   3
ATOM      3  C   UNL     1      62.335  33.052  56.193  1.00  0.00     0.000 C 
BRANCH   3   4
ATOM      4  C   UNL     1      63.511  32.140  55.798  1.00  0.00     0.000 C 
BRANCH   4   5
ATOM      5  C   UNL     1      64.685  32.214  56.787  1.00  0.00     0.000 C 
BRANCH   5   6
ATOM      6  C   UNL     1      65.059  30.841  57.374  1.00  0.00     0.000 C 
BRANCH   6   7
ATOM      7  C   UNL     1      64.097  29.722  56.936  1.00  0.00     0.000 C 
BRANCH   7   8
ATOM      8  C   UNL     1      63.598  28.838  58.103  1.00  0.00     0.000 C 
BRANCH   8   9
ATOM      9  C   UNL     1      64.742  28.336  59.003  1.00  0.00     0.000 C 
BRANCH   9  10
ATOM     10  C   UNL     1      64.427  28.526  60.498  1.00  0.00     0.000 C 
BRANCH  10  11
ATOM     11  C   UNL     1      63.367  27.531  61.009  1.00  0.00     0.000 C 
BRANCH  11  12
ATOM     12  C   UNL     1      62.016  28.173  61.393  1.00  0.00     0.000 C 
BRANCH  12  13
ATOM     13  C   UNL     1      60.865  27.948  60.387  1.00  0.00     0.006 C 
BRANCH  13  14
ATOM     14  C   UNL     1      59.487  28.412  60.889  1.00  0.00     0.053 C 
BRANCH  14  15
ATOM     15  C   UNL     1      58.567  27.271  61.203  1.00  0.00     0.041 C 
ATOM     16  O   UNL     1      58.849  26.473  62.135  1.00  0.00    -0.550 OA
ATOM     17  O   UNL     1      57.420  27.067  60.447  1.00  0.00    -0.550 OA
ENDBRANCH  14  15
ENDBRANCH  13  14
ENDBRANCH  12  13
ENDBRANCH  11  12
ENDBRANCH  10  11
ENDBRANCH   9  10
ENDBRANCH   8   9
ENDBRANCH   7   8
ENDBRANCH   6   7
ENDBRANCH   5   6
ENDBRANCH   4   5
ENDBRANCH   3   4
ENDBRANCH   2   3
ENDBRANCH   1   2
BRANCH   1  18
ATOM     18  C   UNL     1      61.642  36.195  58.172  1.00  0.00     0.000 C 
BRANCH  18  19
ATOM     19  C   UNL     1      60.879  35.262  59.132  1.00  0.00     0.000 C 
BRANCH  19  20
ATOM     20  C   UNL     1      61.092  35.623  60.612  1.00  0.00     0.000 C 
BRANCH  20  21
ATOM     21  C   UNL     1      61.973  36.868  60.811  1.00  0.00     0.000 C 
BRANCH  21  22
ATOM     22  C   UNL     1      63.350  36.616  61.457  1.00  0.00     0.000 C 
BRANCH  22  23
ATOM     23  C   UNL     1      64.516  36.523  60.451  1.00  0.00     0.000 C 
BRANCH  23  24
ATOM     24  C   UNL     1      64.891  35.068  60.121  1.00  0.00    -0.000 C 
BRANCH  24  25
ATOM     25  C   UNL     1      64.160  34.049  61.008  1.00  0.00    -0.000 C 
BRANCH  25  26
ATOM     26  C   UNL     1      64.507  32.593  60.646  1.00  0.00    -0.000 C 
BRANCH  26  27
ATOM     27  C   UNL     1      63.262  31.791  60.232  1.00  0.00    -0.000 C 
BRANCH  27  28
ATOM     28  C   UNL     1      62.129  31.898  61.269  1.00  0.00    -0.000 C 
BRANCH  28  29
ATOM     29  C   UNL     1      60.735  31.849  60.625  1.00  0.00    -0.000 C 
BRANCH  29  30
ATOM     30  C   UNL     1      60.787  31.426  59.145  1.00  0.00    -0.000 C 
BRANCH  30  31
ATOM     31  C   UNL     1      59.534  31.847  58.364  1.00  0.00    -0.003 C 
ATOM     32  C   UNL     1      58.752  30.652  57.820  1.00  0.00     0.004 C 
ENDBRANCH  30  31
ENDBRANCH  29  30
ENDBRANCH  28  29
ENDBRANCH  27  28
ENDBRANCH  26  27
ENDBRANCH  25  26
ENDBRANCH  24  25
ENDBRANCH  23  24
ENDBRANCH  22  23
ENDBRANCH  21  22
ENDBRANCH  20  21
ENDBRANCH  19  20
ENDBRANCH  18  19
ENDBRANCH   1  18
TORSDOF 28
ENDMDL
MODEL 8
REMARK VINA RESULT:    -2.694      7.858     11.083
REMARK INTER + INTRA:         -13.155
REMARK INTER:                  -6.867
REMARK INTRA:                  -6.288
REMARK UNBOUND:                -6.050
REMARK SMILES CCCCCCCCCCCCCCCCCCCCCCCCCCCCCC(=O)[O-]
REMARK SMILES IDX 16 1 17 2 18 3 19 4 20 5 21 6 22 7 23 8 24 9 25 10 26 11
REMARK SMILES IDX 27 12 28 13 29 14 30 15 31 16 32 17 15 18 14 19 13 20 12 21
REMARK SMILES IDX 11 22 10 23 9 24 8 25 7 26 6 27 5 28 4 29 3 30 2 31 1 32
REMARK H PARENT
REMARK Flexibility Score: inf
ROOT
ATOM      1  C   UNL     1      61.340  33.400  60.135  1.00  0.00     0.000 C 
ENDROOT
BRANCH   1   2
ATOM      2  C   UNL     1      62.617  32.619  59.770  1.00  0.00     0.000 C 
BRANCH   2   3
ATOM      3  C   UNL     1      63.564  32.441  60.968  1.00  0.00     0.000 C 
BRANCH   3   4
ATOM      4  C   UNL     1      63.775  30.962  61.344  1.00  0.00     0.000 C 
BRANCH   4   5
ATOM      5  C   UNL     1      62.461  30.231  61.659  1.00  0.00     0.000 C 
BRANCH   5   6
ATOM      6  C   UNL     1      62.561  28.708  61.455  1.00  0.00     0.000 C 
BRANCH   6   7
ATOM      7  C   UNL     1      62.916  28.321  60.008  1.00  0.00     0.000 C 
BRANCH   7   8
ATOM      8  C   UNL     1      61.996  28.968  58.947  1.00  0.00     0.000 C 
BRANCH   8   9
ATOM      9  C   UNL     1      62.778  29.569  57.766  1.00  0.00     0.000 C 
BRANCH   9  10
ATOM     10  C   UNL     1      64.299  29.386  57.928  1.00  0.00     0.000 C 
BRANCH  10  11
ATOM     11  C   UNL     1      65.080  30.691  57.679  1.00  0.00     0.000 C 
BRANCH  11  12
ATOM     12  C   UNL     1      66.199  30.975  58.705  1.00  0.00     0.000 C 
BRANCH  12  13
ATOM     13  C   UNL     1      66.623  29.769  59.573  1.00  0.00     0.006 C 
BRANCH  13  14
ATOM     14  C   UNL     1      68.098  29.362  59.412  1.00  0.00     0.053 C 
BRANCH  14  15
ATOM     15  C   UNL     1      68.613  28.567  60.573  1.00  0.00     0.041 C 
ATOM     16  O   UNL     1      68.350  28.929  61.750  1.00  0.00    -0.550 OA
ATOM     17  O   UNL     1      69.410  27.450  60.361  1.00  0.00    -0.550 OA
ENDBRANCH  14  15
ENDBRANCH  13  14
ENDBRANCH  12  13
ENDBRANCH  11  12
ENDBRANCH  10  11
ENDBRANCH   9  10
ENDBRANCH   8   9
ENDBRANCH   7   8
ENDBRANCH   6   7
ENDBRANCH   5   6
ENDBRANCH   4   5
ENDBRANCH   3   4
ENDBRANCH   2   3
ENDBRANCH   1   2
BRANCH   1  18
ATOM     18  C   UNL     1      61.336  34.846  59.594  1.00  0.00     0.000 C 
BRANCH  18  19
ATOM     19  C   UNL     1      61.118  35.924  60.672  1.00  0.00     0.000 C 
BRANCH  19  20
ATOM     20  C   UNL     1      62.339  36.842  60.856  1.00  0.00     0.000 C 
BRANCH  20  21
ATOM     21  C   UNL     1      63.573  36.105  61.405  1.00  0.00     0.000 C 
BRANCH  21  22
ATOM     22  C   UNL     1      64.938  36.704  61.013  1.00  0.00     0.000 C 
BRANCH  22  23
ATOM     23  C   UNL     1      65.294  36.550  59.519  1.00  0.00     0.000 C 
BRANCH  23  24
ATOM     24  C   UNL     1      65.437  35.077  59.100  1.00  0.00    -0.000 C 
BRANCH  24  25
ATOM     25  C   UNL     1      64.811  34.785  57.728  1.00  0.00    -0.000 C 
BRANCH  25  26
ATOM     26  C   UNL     1      63.925  35.939  57.225  1.00  0.00    -0.000 C 
BRANCH  26  27
ATOM     27  C   UNL     1      62.803  35.441  56.297  1.00  0.00    -0.000 C 
BRANCH  27  28
ATOM     28  C   UNL     1      62.756  33.904  56.214  1.00  0.00    -0.000 C 
BRANCH  28  29
ATOM     29  C   UNL     1      61.437  33.387  55.620  1.00  0.00    -0.000 C 
BRANCH  29  30
ATOM     30  C   UNL     1      60.740  32.367  56.540  1.00  0.00    -0.000 C 
BRANCH  30  31
ATOM     31  C   UNL     1      59.377  32.861  57.047  1.00  0.00    -0.003 C 
ATOM     32  C   UNL     1      58.711  31.871  58.000  1.00  0.00     0.004 C 
ENDBRANCH  30  31
ENDBRANCH  29  30
ENDBRANCH  28  29
ENDBRANCH  27  28
ENDBRANCH  26  27
ENDBRANCH  25  26
ENDBRANCH  24  25
ENDBRANCH  23  24
ENDBRANCH  22  23
ENDBRANCH  21  22
ENDBRANCH  20  21
ENDBRANCH  19  20
ENDBRANCH  18  19
ENDBRANCH   1  18
TORSDOF 28
ENDMDL
MODEL 9
REMARK VINA RESULT:    -2.690      2.054      4.072
REMARK INTER + INTRA:         -13.142
REMARK INTER:                  -6.678
REMARK INTRA:                  -6.464
REMARK UNBOUND:                -6.050
REMARK SMILES CCCCCCCCCCCCCCCCCCCCCCCCCCCCCC(=O)[O-]
REMARK SMILES IDX 16 1 17 2 18 3 19 4 20 5 21 6 22 7 23 8 24 9 25 10 26 11
REMARK SMILES IDX 27 12 28 13 29 14 30 15 31 16 32 17 15 18 14 19 13 20 12 21
REMARK SMILES IDX 11 22 10 23 9 24 8 25 7 26 6 27 5 28 4 29 3 30 2 31 1 32
REMARK H PARENT
REMARK Flexibility Score: inf
ROOT
ATOM      1  C   UNL     1      54.346  30.078  52.119  1.00  0.00     0.000 C 
ENDROOT
BRANCH   1   2
ATOM      2  C   UNL     1      53.630  29.495  50.886  1.00  0.00     0.000 C 
BRANCH   2   3
ATOM      3  C   UNL     1      54.508  28.500  50.107  1.00  0.00     0.000 C 
BRANCH   3   4
ATOM      4  C   UNL     1      53.755  27.210  49.734  1.00  0.00     0.000 C 
BRANCH   4   5
ATOM      5  C   UNL     1      54.581  25.939  49.985  1.00  0.00     0.000 C 
BRANCH   5   6
ATOM      6  C   UNL     1      55.357  25.983  51.314  1.00  0.00     0.000 C 
BRANCH   6   7
ATOM      7  C   UNL     1      54.436  26.117  52.539  1.00  0.00     0.000 C 
BRANCH   7   8
ATOM      8  C   UNL     1      55.096  26.837  53.738  1.00  0.00     0.000 C 
BRANCH   8   9
ATOM      9  C   UNL     1      56.633  26.855  53.652  1.00  0.00     0.000 C 
BRANCH   9  10
ATOM     10  C   UNL     1      57.195  28.288  53.671  1.00  0.00     0.000 C 
BRANCH  10  11
ATOM     11  C   UNL     1      58.317  28.496  52.634  1.00  0.00     0.000 C 
BRANCH  11  12
ATOM     12  C   UNL     1      57.893  29.292  51.381  1.00  0.00     0.000 C 
BRANCH  12  13
ATOM     13  C   UNL     1      58.148  28.587  50.030  1.00  0.00     0.006 C 
BRANCH  13  14
ATOM     14  C   UNL     1      58.505  27.095  50.152  1.00  0.00     0.053 C 
BRANCH  14  15
ATOM     15  C   UNL     1      59.863  26.776  49.604  1.00  0.00     0.041 C 
ATOM     16  O   UNL     1      60.554  27.681  49.066  1.00  0.00    -0.550 OA
ATOM     17  O   UNL     1      60.351  25.477  49.654  1.00  0.00    -0.550 OA
ENDBRANCH  14  15
ENDBRANCH  13  14
ENDBRANCH  12  13
ENDBRANCH  11  12
ENDBRANCH  10  11
ENDBRANCH   9  10
ENDBRANCH   8   9
ENDBRANCH   7   8
ENDBRANCH   6   7
ENDBRANCH   5   6
ENDBRANCH   4   5
ENDBRANCH   3   4
ENDBRANCH   2   3
ENDBRANCH   1   2
BRANCH   1  18
ATOM     18  C   UNL     1      53.456  30.109  53.380  1.00  0.00     0.000 C 
BRANCH  18  19
ATOM     19  C   UNL     1      54.136  30.727  54.617  1.00  0.00     0.000 C 
BRANCH  19  20
ATOM     20  C   UNL     1      53.811  29.972  55.917  1.00  0.00     0.000 C 
BRANCH  20  21
ATOM     21  C   UNL     1      55.044  29.311  56.557  1.00  0.00     0.000 C 
BRANCH  21  22
ATOM     22  C   UNL     1      56.287  30.212  56.701  1.00  0.00     0.000 C 
BRANCH  22  23
ATOM     23  C   UNL     1      56.287  31.098  57.964  1.00  0.00     0.000 C 
BRANCH  23  24
ATOM     24  C   UNL     1      56.810  32.517  57.683  1.00  0.00    -0.000 C 
BRANCH  24  25
ATOM     25  C   UNL     1      56.003  33.246  56.598  1.00  0.00    -0.000 C 
BRANCH  25  26
ATOM     26  C   UNL     1      56.897  33.829  55.489  1.00  0.00    -0.000 C 
BRANCH  26  27
ATOM     27  C   UNL     1      56.463  33.354  54.091  1.00  0.00    -0.000 C 
BRANCH  27  28
ATOM     28  C   UNL     1      57.354  32.216  53.561  1.00  0.00    -0.000 C 
BRANCH  28  29
ATOM     29  C   UNL     1      58.777  32.689  53.227  1.00  0.00    -0.000 C 
BRANCH  29  30
ATOM     30  C   UNL     1      59.846  31.650  53.615  1.00  0.00    -0.000 C 
BRANCH  30  31
ATOM     31  C   UNL     1      60.071  31.569  55.132  1.00  0.00    -0.003 C 
ATOM     32  C   UNL     1      59.724  30.196  55.704  1.00  0.00     0.004 C 
ENDBRANCH  30  31
ENDBRANCH  29  30
ENDBRANCH  28  29
ENDBRANCH  27  28
ENDBRANCH  26  27
ENDBRANCH  25  26
ENDBRANCH  24  25
ENDBRANCH  23  24
ENDBRANCH  22  23
ENDBRANCH  21  22
ENDBRANCH  20  21
ENDBRANCH  19  20
ENDBRANCH  18  19
ENDBRANCH   1  18
TORSDOF 28
ENDMDL
