MODEL 1
REMARK VINA RESULT:    -6.004      0.000      0.000
REMARK INTER + INTRA:         -12.853
REMARK INTER:                 -11.621
REMARK INTRA:                  -1.232
REMARK UNBOUND:                -1.232
REMARK SMILES CCCCCCCCCCCCCCCCCC(=O)[O-]
REMARK SMILES IDX 10 1 11 2 12 3 13 4 14 5 15 6 16 7 17 8 18 9 19 10 20 11
REMARK SMILES IDX 9 12 8 13 7 14 6 15 5 16 4 17 3 18 2 19 1 20
REMARK H PARENT
REMARK Flexibility Score: inf
ROOT
ATOM      1  C   UNL     1      -0.119 -29.123   5.734  1.00  0.00     0.000 C 
ENDROOT
BRANCH   1   2
ATOM      2  C   UNL     1       1.354 -29.163   5.294  1.00  0.00     0.000 C 
BRANCH   2   3
ATOM      3  C   UNL     1       1.559 -28.672   3.849  1.00  0.00     0.000 C 
BRANCH   3   4
ATOM      4  C   UNL     1       1.400 -29.751   2.757  1.00  0.00     0.000 C 
BRANCH   4   5
ATOM      5  C   UNL     1       0.058 -29.725   2.005  1.00  0.00     0.000 C 
BRANCH   5   6
ATOM      6  C   UNL     1      -0.299 -28.332   1.468  1.00  0.00     0.000 C 
BRANCH   6   7
ATOM      7  C   UNL     1      -1.776 -28.003   1.734  1.00  0.00     0.006 C 
BRANCH   7   8
ATOM      8  C   UNL     1      -1.975 -26.548   2.181  1.00  0.00     0.053 C 
BRANCH   8   9
ATOM      9  C   UNL     1      -2.129 -25.623   1.013  1.00  0.00     0.041 C 
ATOM     10  O   UNL     1      -2.465 -26.076  -0.113  1.00  0.00    -0.550 OA
ATOM     11  O   UNL     1      -1.869 -24.267   1.160  1.00  0.00    -0.550 OA
ENDBRANCH   8   9
ENDBRANCH   7   8
ENDBRANCH   6   7
ENDBRANCH   5   6
ENDBRANCH   4   5
ENDBRANCH   3   4
ENDBRANCH   2   3
ENDBRANCH   1   2
BRANCH   1  12
ATOM     12  C   UNL     1      -0.513 -27.770   6.348  1.00  0.00     0.000 C 
BRANCH  12  13
ATOM     13  C   UNL     1       0.702 -26.967   6.844  1.00  0.00    -0.000 C 
BRANCH  13  14
ATOM     14  C   UNL     1       0.724 -26.819   8.374  1.00  0.00    -0.000 C 
BRANCH  14  15
ATOM     15  C   UNL     1      -0.688 -26.815   8.987  1.00  0.00    -0.000 C 
BRANCH  15  16
ATOM     16  C   UNL     1      -0.680 -26.452  10.480  1.00  0.00    -0.000 C 
BRANCH  16  17
ATOM     17  C   UNL     1      -2.061 -26.000  10.984  1.00  0.00    -0.000 C 
BRANCH  17  18
ATOM     18  C   UNL     1      -3.168 -26.175   9.929  1.00  0.00    -0.000 C 
BRANCH  18  19
ATOM     19  C   UNL     1      -4.381 -25.244  10.108  1.00  0.00    -0.003 C 
ATOM     20  C   UNL     1      -4.107 -24.081  11.061  1.00  0.00     0.004 C 
ENDBRANCH  18  19
ENDBRANCH  17  18
ENDBRANCH  16  17
ENDBRANCH  15  16
ENDBRANCH  14  15
ENDBRANCH  13  14
ENDBRANCH  12  13
ENDBRANCH   1  12
TORSDOF 16
ENDMDL
MODEL 2
REMARK VINA RESULT:    -5.975      0.940      1.624
REMARK INTER + INTRA:         -12.795
REMARK INTER:                 -11.407
REMARK INTRA:                  -1.388
REMARK UNBOUND:                -1.232
REMARK SMILES CCCCCCCCCCCCCCCCCC(=O)[O-]
REMARK SMILES IDX 10 1 11 2 12 3 13 4 14 5 15 6 16 7 17 8 18 9 19 10 20 11
REMARK SMILES IDX 9 12 8 13 7 14 6 15 5 16 4 17 3 18 2 19 1 20
REMARK H PARENT
REMARK Flexibility Score: inf
ROOT
ATOM      1  C   UNL     1       1.347 -29.333   5.062  1.00  0.00     0.000 C 
ENDROOT
BRANCH   1   2
ATOM      2  C   UNL     1       1.625 -29.162   3.559  1.00  0.00     0.000 C 
BRANCH   2   3
ATOM      3  C   UNL     1       0.880 -30.195   2.693  1.00  0.00     0.000 C 
BRANCH   3   4
ATOM      4  C   UNL     1       0.146 -29.617   1.465  1.00  0.00     0.000 C 
BRANCH   4   5
ATOM      5  C   UNL     1      -0.262 -28.138   1.584  1.00  0.00     0.000 C 
BRANCH   5   6
ATOM      6  C   UNL     1      -1.721 -27.955   2.027  1.00  0.00     0.000 C 
BRANCH   6   7
ATOM      7  C   UNL     1      -2.159 -26.490   1.881  1.00  0.00     0.006 C 
BRANCH   7   8
ATOM      8  C   UNL     1      -2.091 -26.005   0.427  1.00  0.00     0.053 C 
BRANCH   8   9
ATOM      9  C   UNL     1      -1.426 -24.668   0.316  1.00  0.00     0.041 C 
ATOM     10  O   UNL     1      -1.810 -23.840  -0.551  1.00  0.00    -0.550 OA
ATOM     11  O   UNL     1      -0.361 -24.349   1.148  1.00  0.00    -0.550 OA
ENDBRANCH   8   9
ENDBRANCH   7   8
ENDBRANCH   6   7
ENDBRANCH   5   6
ENDBRANCH   4   5
ENDBRANCH   3   4
ENDBRANCH   2   3
ENDBRANCH   1   2
BRANCH   1  12
ATOM     12  C   UNL     1      -0.132 -29.112   5.417  1.00  0.00     0.000 C 
BRANCH  12  13
ATOM     13  C   UNL     1      -0.489 -27.623   5.572  1.00  0.00    -0.000 C 
BRANCH  13  14
ATOM     14  C   UNL     1       0.171 -26.985   6.804  1.00  0.00    -0.000 C 
BRANCH  14  15
ATOM     15  C   UNL     1      -0.508 -27.405   8.121  1.00  0.00    -0.000 C 
BRANCH  15  16
ATOM     16  C   UNL     1       0.039 -26.639   9.335  1.00  0.00    -0.000 C 
BRANCH  16  17
ATOM     17  C   UNL     1      -0.974 -26.561  10.489  1.00  0.00    -0.000 C 
BRANCH  17  18
ATOM     18  C   UNL     1      -2.432 -26.487   9.999  1.00  0.00    -0.000 C 
BRANCH  18  19
ATOM     19  C   UNL     1      -3.238 -25.299  10.555  1.00  0.00    -0.003 C 
ATOM     20  C   UNL     1      -4.712 -25.338  10.154  1.00  0.00     0.004 C 
ENDBRANCH  18  19
ENDBRANCH  17  18
ENDBRANCH  16  17
ENDBRANCH  15  16
ENDBRANCH  14  15
ENDBRANCH  13  14
ENDBRANCH  12  13
ENDBRANCH   1  12
TORSDOF 16
ENDMDL
MODEL 3
REMARK VINA RESULT:    -5.964      3.296      7.589
REMARK INTER + INTRA:         -12.774
REMARK INTER:                 -10.802
REMARK INTRA:                  -1.973
REMARK UNBOUND:                -1.232
REMARK SMILES CCCCCCCCCCCCCCCCCC(=O)[O-]
REMARK SMILES IDX 10 1 11 2 12 3 13 4 14 5 15 6 16 7 17 8 18 9 19 10 20 11
REMARK SMILES IDX 9 12 8 13 7 14 6 15 5 16 4 17 3 18 2 19 1 20
REMARK H PARENT
REMARK Flexibility Score: inf
ROOT
ATOM      1  C   UNL     1      -0.115 -29.024   5.393  1.00  0.00     0.000 C 
ENDROOT
BRANCH   1   2
ATOM      2  C   UNL     1      -0.410 -27.697   6.114  1.00  0.00     0.000 C 
BRANCH   2   3
ATOM      3  C   UNL     1       0.866 -26.976   6.584  1.00  0.00     0.000 C 
BRANCH   3   4
ATOM      4  C   UNL     1       1.016 -26.834   8.114  1.00  0.00     0.000 C 
BRANCH   4   5
ATOM      5  C   UNL     1      -0.304 -26.852   8.904  1.00  0.00     0.000 C 
BRANCH   5   6
ATOM      6  C   UNL     1      -0.124 -26.458  10.377  1.00  0.00     0.000 C 
BRANCH   6   7
ATOM      7  C   UNL     1      -1.483 -26.207  11.048  1.00  0.00     0.006 C 
BRANCH   7   8
ATOM      8  C   UNL     1      -2.629 -26.140  10.029  1.00  0.00     0.053 C 
BRANCH   8   9
ATOM      9  C   UNL     1      -3.747 -25.264  10.506  1.00  0.00     0.041 C 
ATOM     10  O   UNL     1      -4.930 -25.493  10.141  1.00  0.00    -0.550 OA
ATOM     11  O   UNL     1      -3.478 -24.177  11.328  1.00  0.00    -0.550 OA
ENDBRANCH   8   9
ENDBRANCH   7   8
ENDBRANCH   6   7
ENDBRANCH   5   6
ENDBRANCH   4   5
ENDBRANCH   3   4
ENDBRANCH   2   3
ENDBRANCH   1   2
BRANCH   1  12
ATOM     12  C   UNL     1       1.380 -29.207   5.087  1.00  0.00     0.000 C 
BRANCH  12  13
ATOM     13  C   UNL     1       1.699 -29.081   3.587  1.00  0.00    -0.000 C 
BRANCH  13  14
ATOM     14  C   UNL     1       0.892 -30.069   2.729  1.00  0.00    -0.000 C 
BRANCH  14  15
ATOM     15  C   UNL     1       0.174 -29.380   1.554  1.00  0.00    -0.000 C 
BRANCH  15  16
ATOM     16  C   UNL     1      -1.051 -28.570   2.006  1.00  0.00    -0.000 C 
BRANCH  16  17
ATOM     17  C   UNL     1      -0.959 -27.088   1.605  1.00  0.00    -0.000 C 
BRANCH  17  18
ATOM     18  C   UNL     1      -1.708 -26.159   2.577  1.00  0.00    -0.000 C 
BRANCH  18  19
ATOM     19  C   UNL     1      -0.801 -25.243   3.419  1.00  0.00    -0.003 C 
ATOM     20  C   UNL     1       0.688 -25.481   3.168  1.00  0.00     0.004 C 
ENDBRANCH  18  19
ENDBRANCH  17  18
ENDBRANCH  16  17
ENDBRANCH  15  16
ENDBRANCH  14  15
ENDBRANCH  13  14
ENDBRANCH  12  13
ENDBRANCH   1  12
TORSDOF 16
ENDMDL
MODEL 4
REMARK VINA RESULT:    -5.899      3.191      7.917
REMARK INTER + INTRA:         -12.649
REMARK INTER:                 -11.270
REMARK INTRA:                  -1.379
REMARK UNBOUND:                -1.232
REMARK SMILES CCCCCCCCCCCCCCCCCC(=O)[O-]
REMARK SMILES IDX 10 1 11 2 12 3 13 4 14 5 15 6 16 7 17 8 18 9 19 10 20 11
REMARK SMILES IDX 9 12 8 13 7 14 6 15 5 16 4 17 3 18 2 19 1 20
REMARK H PARENT
REMARK Flexibility Score: inf
ROOT
ATOM      1  C   UNL     1      -0.053 -29.273   5.608  1.00  0.00     0.000 C 
ENDROOT
BRANCH   1   2
ATOM      2  C   UNL     1      -0.518 -27.818   5.426  1.00  0.00     0.000 C 
BRANCH   2   3
ATOM      3  C   UNL     1      -0.084 -26.902   6.585  1.00  0.00     0.000 C 
BRANCH   3   4
ATOM      4  C   UNL     1      -0.098 -27.557   7.983  1.00  0.00     0.000 C 
BRANCH   4   5
ATOM      5  C   UNL     1       0.113 -26.588   9.159  1.00  0.00     0.000 C 
BRANCH   5   6
ATOM      6  C   UNL     1      -0.802 -26.891  10.354  1.00  0.00     0.000 C 
BRANCH   6   7
ATOM      7  C   UNL     1      -2.261 -26.538  10.032  1.00  0.00     0.006 C 
BRANCH   7   8
ATOM      8  C   UNL     1      -2.805 -25.429  10.943  1.00  0.00     0.053 C 
BRANCH   8   9
ATOM      9  C   UNL     1      -4.203 -25.039  10.572  1.00  0.00     0.041 C 
ATOM     10  O   UNL     1      -4.659 -23.917  10.917  1.00  0.00    -0.550 OA
ATOM     11  O   UNL     1      -5.011 -25.927   9.875  1.00  0.00    -0.550 OA
ENDBRANCH   8   9
ENDBRANCH   7   8
ENDBRANCH   6   7
ENDBRANCH   5   6
ENDBRANCH   4   5
ENDBRANCH   3   4
ENDBRANCH   2   3
ENDBRANCH   1   2
BRANCH   1  12
ATOM     12  C   UNL     1       1.368 -29.508   5.070  1.00  0.00     0.000 C 
BRANCH  12  13
ATOM     13  C   UNL     1       1.485 -29.229   3.561  1.00  0.00    -0.000 C 
BRANCH  13  14
ATOM     14  C   UNL     1       0.823 -30.324   2.709  1.00  0.00    -0.000 C 
BRANCH  14  15
ATOM     15  C   UNL     1       0.097 -29.754   1.477  1.00  0.00    -0.000 C 
BRANCH  15  16
ATOM     16  C   UNL     1      -0.241 -28.263   1.631  1.00  0.00    -0.000 C 
BRANCH  16  17
ATOM     17  C   UNL     1      -1.742 -28.019   1.860  1.00  0.00    -0.000 C 
BRANCH  17  18
ATOM     18  C   UNL     1      -2.080 -26.531   2.068  1.00  0.00    -0.000 C 
BRANCH  18  19
ATOM     19  C   UNL     1      -1.552 -25.591   0.969  1.00  0.00    -0.003 C 
ATOM     20  C   UNL     1      -2.429 -25.583  -0.283  1.00  0.00     0.004 C 
ENDBRANCH  18  19
ENDBRANCH  17  18
ENDBRANCH  16  17
ENDBRANCH  15  16
ENDBRANCH  14  15
ENDBRANCH  13  14
ENDBRANCH  12  13
ENDBRANCH   1  12
TORSDOF 16
ENDMDL
MODEL 5
REMARK VINA RESULT:    -5.718      3.368      7.844
REMARK INTER + INTRA:         -12.299
REMARK INTER:                 -10.082
REMARK INTRA:                  -2.217
REMARK UNBOUND:                -1.232
REMARK SMILES CCCCCCCCCCCCCCCCCC(=O)[O-]
REMARK SMILES IDX 10 1 11 2 12 3 13 4 14 5 15 6 16 7 17 8 18 9 19 10 20 11
REMARK SMILES IDX 9 12 8 13 7 14 6 15 5 16 4 17 3 18 2 19 1 20
REMARK H PARENT
REMARK Flexibility Score: inf
ROOT
ATOM      1  C   UNL     1       1.063 -26.564   4.453  1.00  0.00     0.000 C 
ENDROOT
BRANCH   1   2
ATOM      2  C   UNL     1      -0.252 -26.853   5.196  1.00  0.00     0.000 C 
BRANCH   2   3
ATOM      3  C   UNL     1      -0.510 -28.359   5.391  1.00  0.00     0.000 C 
BRANCH   3   4
ATOM      4  C   UNL     1       0.054 -28.960   6.696  1.00  0.00     0.000 C 
BRANCH   4   5
ATOM      5  C   UNL     1      -0.740 -28.618   7.968  1.00  0.00     0.000 C 
BRANCH   5   6
ATOM      6  C   UNL     1       0.141 -28.043   9.087  1.00  0.00     0.000 C 
BRANCH   6   7
ATOM      7  C   UNL     1      -0.247 -26.590   9.398  1.00  0.00     0.006 C 
BRANCH   7   8
ATOM      8  C   UNL     1      -0.912 -26.448  10.773  1.00  0.00     0.053 C 
BRANCH   8   9
ATOM      9  C   UNL     1      -2.339 -26.007  10.658  1.00  0.00     0.041 C 
ATOM     10  O   UNL     1      -3.131 -26.619   9.893  1.00  0.00    -0.550 OA
ATOM     11  O   UNL     1      -2.786 -24.901  11.369  1.00  0.00    -0.550 OA
ENDBRANCH   8   9
ENDBRANCH   7   8
ENDBRANCH   6   7
ENDBRANCH   5   6
ENDBRANCH   4   5
ENDBRANCH   3   4
ENDBRANCH   2   3
ENDBRANCH   1   2
BRANCH   1  12
ATOM     12  C   UNL     1       0.902 -25.488   3.367  1.00  0.00     0.000 C 
BRANCH  12  13
ATOM     13  C   UNL     1      -0.539 -24.957   3.268  1.00  0.00    -0.000 C 
BRANCH  13  14
ATOM     14  C   UNL     1      -0.945 -24.625   1.823  1.00  0.00    -0.000 C 
BRANCH  14  15
ATOM     15  C   UNL     1      -0.911 -25.859   0.903  1.00  0.00    -0.000 C 
BRANCH  15  16
ATOM     16  C   UNL     1      -2.129 -26.774   1.101  1.00  0.00    -0.000 C 
BRANCH  16  17
ATOM     17  C   UNL     1      -1.758 -28.119   1.746  1.00  0.00    -0.000 C 
BRANCH  17  18
ATOM     18  C   UNL     1      -0.264 -28.461   1.597  1.00  0.00    -0.000 C 
BRANCH  18  19
ATOM     19  C   UNL     1       0.136 -29.849   2.127  1.00  0.00    -0.003 C 
ATOM     20  C   UNL     1       1.546 -29.880   2.717  1.00  0.00     0.004 C 
ENDBRANCH  18  19
ENDBRANCH  17  18
ENDBRANCH  16  17
ENDBRANCH  15  16
ENDBRANCH  14  15
ENDBRANCH  13  14
ENDBRANCH  12  13
ENDBRANCH   1  12
TORSDOF 16
ENDMDL
MODEL 6
REMARK VINA RESULT:    -5.698      1.495      2.073
REMARK INTER + INTRA:         -12.259
REMARK INTER:                 -10.989
REMARK INTRA:                  -1.270
REMARK UNBOUND:                -1.232
REMARK SMILES CCCCCCCCCCCCCCCCCC(=O)[O-]
REMARK SMILES IDX 10 1 11 2 12 3 13 4 14 5 15 6 16 7 17 8 18 9 19 10 20 11
REMARK SMILES IDX 9 12 8 13 7 14 6 15 5 16 4 17 3 18 2 19 1 20
REMARK H PARENT
REMARK Flexibility Score: inf
ROOT
ATOM      1  C   UNL     1      -0.109 -29.480   5.133  1.00  0.00     0.000 C 
ENDROOT
BRANCH   1   2
ATOM      2  C   UNL     1       0.562 -29.020   3.827  1.00  0.00     0.000 C 
BRANCH   2   3
ATOM      3  C   UNL     1       1.478 -27.799   4.025  1.00  0.00     0.000 C 
BRANCH   3   4
ATOM      4  C   UNL     1       0.917 -26.462   3.496  1.00  0.00     0.000 C 
BRANCH   4   5
ATOM      5  C   UNL     1      -0.466 -26.071   4.046  1.00  0.00     0.000 C 
BRANCH   5   6
ATOM      6  C   UNL     1      -1.079 -24.865   3.321  1.00  0.00     0.000 C 
BRANCH   6   7
ATOM      7  C   UNL     1      -0.613 -24.809   1.859  1.00  0.00     0.006 C 
BRANCH   7   8
ATOM      8  C   UNL     1      -1.770 -24.526   0.892  1.00  0.00     0.053 C 
BRANCH   8   9
ATOM      9  C   UNL     1      -2.199 -25.760   0.160  1.00  0.00     0.041 C 
ATOM     10  O   UNL     1      -2.772 -25.667  -0.958  1.00  0.00    -0.550 OA
ATOM     11  O   UNL     1      -1.996 -27.012   0.727  1.00  0.00    -0.550 OA
ENDBRANCH   8   9
ENDBRANCH   7   8
ENDBRANCH   6   7
ENDBRANCH   5   6
ENDBRANCH   4   5
ENDBRANCH   3   4
ENDBRANCH   2   3
ENDBRANCH   1   2
BRANCH   1  12
ATOM     12  C   UNL     1       0.493 -28.802   6.375  1.00  0.00     0.000 C 
BRANCH  12  13
ATOM     13  C   UNL     1      -0.550 -28.008   7.181  1.00  0.00    -0.000 C 
BRANCH  13  14
ATOM     14  C   UNL     1       0.059 -26.785   7.886  1.00  0.00    -0.000 C 
BRANCH  14  15
ATOM     15  C   UNL     1      -0.152 -26.817   9.410  1.00  0.00    -0.000 C 
BRANCH  15  16
ATOM     16  C   UNL     1      -1.592 -27.190   9.796  1.00  0.00    -0.000 C 
BRANCH  16  17
ATOM     17  C   UNL     1      -2.345 -26.024  10.460  1.00  0.00    -0.000 C 
BRANCH  17  18
ATOM     18  C   UNL     1      -3.872 -26.132  10.301  1.00  0.00    -0.000 C 
BRANCH  18  19
ATOM     19  C   UNL     1      -4.637 -24.814  10.517  1.00  0.00    -0.003 C 
ATOM     20  C   UNL     1      -3.977 -23.903  11.552  1.00  0.00     0.004 C 
ENDBRANCH  18  19
ENDBRANCH  17  18
ENDBRANCH  16  17
ENDBRANCH  15  16
ENDBRANCH  14  15
ENDBRANCH  13  14
ENDBRANCH  12  13
ENDBRANCH   1  12
TORSDOF 16
ENDMDL
MODEL 7
REMARK VINA RESULT:    -5.644      3.207      7.617
REMARK INTER + INTRA:         -12.155
REMARK INTER:                 -10.435
REMARK INTRA:                  -1.720
REMARK UNBOUND:                -1.232
REMARK SMILES CCCCCCCCCCCCCCCCCC(=O)[O-]
REMARK SMILES IDX 10 1 11 2 12 3 13 4 14 5 15 6 16 7 17 8 18 9 19 10 20 11
REMARK SMILES IDX 9 12 8 13 7 14 6 15 5 16 4 17 3 18 2 19 1 20
REMARK H PARENT
REMARK Flexibility Score: inf
ROOT
ATOM      1  C   UNL     1      -0.485 -28.482   6.229  1.00  0.00     0.000 C 
ENDROOT
BRANCH   1   2
ATOM      2  C   UNL     1       0.316 -27.215   6.574  1.00  0.00     0.000 C 
BRANCH   2   3
ATOM      3  C   UNL     1       0.808 -27.198   8.033  1.00  0.00     0.000 C 
BRANCH   3   4
ATOM      4  C   UNL     1       0.469 -28.459   8.857  1.00  0.00     0.000 C 
BRANCH   4   5
ATOM      5  C   UNL     1      -0.615 -28.265   9.931  1.00  0.00     0.000 C 
BRANCH   5   6
ATOM      6  C   UNL     1      -0.914 -26.787  10.219  1.00  0.00     0.000 C 
BRANCH   6   7
ATOM      7  C   UNL     1      -2.406 -26.481  10.028  1.00  0.00     0.006 C 
BRANCH   7   8
ATOM      8  C   UNL     1      -2.900 -25.381  10.979  1.00  0.00     0.053 C 
BRANCH   8   9
ATOM      9  C   UNL     1      -4.232 -24.841  10.560  1.00  0.00     0.041 C 
ATOM     10  O   UNL     1      -4.988 -25.524   9.820  1.00  0.00    -0.550 OA
ATOM     11  O   UNL     1      -4.626 -23.571  10.961  1.00  0.00    -0.550 OA
ENDBRANCH   8   9
ENDBRANCH   7   8
ENDBRANCH   6   7
ENDBRANCH   5   6
ENDBRANCH   4   5
ENDBRANCH   3   4
ENDBRANCH   2   3
ENDBRANCH   1   2
BRANCH   1  12
ATOM     12  C   UNL     1       0.190 -29.327   5.137  1.00  0.00     0.000 C 
BRANCH  12  13
ATOM     13  C   UNL     1       1.533 -28.734   4.674  1.00  0.00    -0.000 C 
BRANCH  13  14
ATOM     14  C   UNL     1       1.620 -28.597   3.146  1.00  0.00    -0.000 C 
BRANCH  14  15
ATOM     15  C   UNL     1       1.031 -29.814   2.410  1.00  0.00    -0.000 C 
BRANCH  15  16
ATOM     16  C   UNL     1      -0.280 -29.482   1.680  1.00  0.00    -0.000 C 
BRANCH  16  17
ATOM     17  C   UNL     1      -0.448 -27.975   1.426  1.00  0.00    -0.000 C 
BRANCH  17  18
ATOM     18  C   UNL     1      -1.893 -27.490   1.642  1.00  0.00    -0.000 C 
BRANCH  18  19
ATOM     19  C   UNL     1      -2.017 -26.127   2.345  1.00  0.00    -0.003 C 
ATOM     20  C   UNL     1      -1.115 -26.002   3.572  1.00  0.00     0.004 C 
ENDBRANCH  18  19
ENDBRANCH  17  18
ENDBRANCH  16  17
ENDBRANCH  15  16
ENDBRANCH  14  15
ENDBRANCH  13  14
ENDBRANCH  12  13
ENDBRANCH   1  12
TORSDOF 16
ENDMDL
MODEL 8
REMARK VINA RESULT:    -5.320      3.531      8.379
REMARK INTER + INTRA:         -11.528
REMARK INTER:                 -10.370
REMARK INTRA:                  -1.157
REMARK UNBOUND:                -1.232
REMARK SMILES CCCCCCCCCCCCCCCCCC(=O)[O-]
REMARK SMILES IDX 10 1 11 2 12 3 13 4 14 5 15 6 16 7 17 8 18 9 19 10 20 11
REMARK SMILES IDX 9 12 8 13 7 14 6 15 5 16 4 17 3 18 2 19 1 20
REMARK H PARENT
REMARK Flexibility Score: inf
ROOT
ATOM      1  C   UNL     1      -0.523 -28.284   7.100  1.00  0.00     0.000 C 
ENDROOT
BRANCH   1   2
ATOM      2  C   UNL     1      -0.259 -26.848   7.584  1.00  0.00     0.000 C 
BRANCH   2   3
ATOM      3  C   UNL     1       1.062 -26.713   8.363  1.00  0.00     0.000 C 
BRANCH   3   4
ATOM      4  C   UNL     1       0.911 -26.444   9.875  1.00  0.00     0.000 C 
BRANCH   4   5
ATOM      5  C   UNL     1      -0.054 -27.388  10.613  1.00  0.00     0.000 C 
BRANCH   5   6
ATOM      6  C   UNL     1      -0.978 -26.651  11.593  1.00  0.00     0.000 C 
BRANCH   6   7
ATOM      7  C   UNL     1      -1.925 -25.701  10.846  1.00  0.00     0.006 C 
BRANCH   7   8
ATOM      8  C   UNL     1      -3.082 -26.447  10.169  1.00  0.00     0.053 C 
BRANCH   8   9
ATOM      9  C   UNL     1      -4.413 -25.886  10.565  1.00  0.00     0.041 C 
ATOM     10  O   UNL     1      -5.384 -26.657  10.789  1.00  0.00    -0.550 OA
ATOM     11  O   UNL     1      -4.591 -24.512  10.656  1.00  0.00    -0.550 OA
ENDBRANCH   8   9
ENDBRANCH   7   8
ENDBRANCH   6   7
ENDBRANCH   5   6
ENDBRANCH   4   5
ENDBRANCH   3   4
ENDBRANCH   2   3
ENDBRANCH   1   2
BRANCH   1  12
ATOM     12  C   UNL     1      -0.145 -28.487   5.624  1.00  0.00     0.000 C 
BRANCH  12  13
ATOM     13  C   UNL     1      -0.575 -27.307   4.734  1.00  0.00    -0.000 C 
BRANCH  13  14
ATOM     14  C   UNL     1       0.307 -27.162   3.484  1.00  0.00    -0.000 C 
BRANCH  14  15
ATOM     15  C   UNL     1      -0.022 -28.209   2.405  1.00  0.00    -0.000 C 
BRANCH  15  16
ATOM     16  C   UNL     1      -1.203 -27.785   1.516  1.00  0.00    -0.000 C 
BRANCH  16  17
ATOM     17  C   UNL     1      -1.003 -26.393   0.895  1.00  0.00    -0.000 C 
BRANCH  17  18
ATOM     18  C   UNL     1      -2.333 -25.696   0.552  1.00  0.00    -0.000 C 
BRANCH  18  19
ATOM     19  C   UNL     1      -2.339 -24.946  -0.792  1.00  0.00    -0.003 C 
ATOM     20  C   UNL     1      -3.420 -25.445  -1.751  1.00  0.00     0.004 C 
ENDBRANCH  18  19
ENDBRANCH  17  18
ENDBRANCH  16  17
ENDBRANCH  15  16
ENDBRANCH  14  15
ENDBRANCH  13  14
ENDBRANCH  12  13
ENDBRANCH   1  12
TORSDOF 16
ENDMDL
MODEL 9
REMARK VINA RESULT:    -5.183      3.808      8.094
REMARK INTER + INTRA:         -11.263
REMARK INTER:                  -9.756
REMARK INTRA:                  -1.507
REMARK UNBOUND:                -1.232
REMARK SMILES CCCCCCCCCCCCCCCCCC(=O)[O-]
REMARK SMILES IDX 10 1 11 2 12 3 13 4 14 5 15 6 16 7 17 8 18 9 19 10 20 11
REMARK SMILES IDX 9 12 8 13 7 14 6 15 5 16 4 17 3 18 2 19 1 20
REMARK H PARENT
REMARK Flexibility Score: inf
ROOT
ATOM      1  C   UNL     1       1.999 -29.901   3.134  1.00  0.00     0.000 C 
ENDROOT
BRANCH   1   2
ATOM      2  C   UNL     1       2.007 -29.328   4.561  1.00  0.00     0.000 C 
BRANCH   2   3
ATOM      3  C   UNL     1       1.674 -27.825   4.603  1.00  0.00     0.000 C 
BRANCH   3   4
ATOM      4  C   UNL     1       0.487 -27.438   5.510  1.00  0.00     0.000 C 
BRANCH   4   5
ATOM      5  C   UNL     1      -0.275 -28.624   6.128  1.00  0.00     0.000 C 
BRANCH   5   6
ATOM      6  C   UNL     1      -0.572 -28.429   7.622  1.00  0.00     0.000 C 
BRANCH   6   7
ATOM      7  C   UNL     1      -0.565 -26.939   7.994  1.00  0.00     0.006 C 
BRANCH   7   8
ATOM      8  C   UNL     1       0.313 -26.651   9.219  1.00  0.00     0.053 C 
BRANCH   8   9
ATOM      9  C   UNL     1      -0.387 -26.993  10.498  1.00  0.00     0.041 C 
ATOM     10  O   UNL     1      -0.065 -28.029  11.138  1.00  0.00    -0.550 OA
ATOM     11  O   UNL     1      -1.416 -26.187  10.967  1.00  0.00    -0.550 OA
ENDBRANCH   8   9
ENDBRANCH   7   8
ENDBRANCH   6   7
ENDBRANCH   5   6
ENDBRANCH   4   5
ENDBRANCH   3   4
ENDBRANCH   2   3
ENDBRANCH   1   2
BRANCH   1  12
ATOM     12  C   UNL     1       0.580 -30.222   2.636  1.00  0.00     0.000 C 
BRANCH  12  13
ATOM     13  C   UNL     1       0.063 -29.193   1.615  1.00  0.00    -0.000 C 
BRANCH  13  14
ATOM     14  C   UNL     1      -1.148 -28.405   2.138  1.00  0.00    -0.000 C 
BRANCH  14  15
ATOM     15  C   UNL     1      -0.922 -26.883   2.102  1.00  0.00    -0.000 C 
BRANCH  15  16
ATOM     16  C   UNL     1      -2.084 -26.131   1.435  1.00  0.00    -0.000 C 
BRANCH  16  17
ATOM     17  C   UNL     1      -1.896 -25.983  -0.084  1.00  0.00    -0.000 C 
BRANCH  17  18
ATOM     18  C   UNL     1      -2.906 -25.009  -0.718  1.00  0.00    -0.000 C 
BRANCH  18  19
ATOM     19  C   UNL     1      -2.438 -24.364  -2.035  1.00  0.00    -0.003 C 
ATOM     20  C   UNL     1      -1.011 -23.822  -1.962  1.00  0.00     0.004 C 
ENDBRANCH  18  19
ENDBRANCH  17  18
ENDBRANCH  16  17
ENDBRANCH  15  16
ENDBRANCH  14  15
ENDBRANCH  13  14
ENDBRANCH  12  13
ENDBRANCH   1  12
TORSDOF 16
ENDMDL
