MODEL 1
REMARK VINA RESULT:    -4.657      0.000      0.000
REMARK INTER + INTRA:         -10.474
REMARK INTER:                  -9.014
REMARK INTRA:                  -1.460
REMARK UNBOUND:                -1.460
REMARK SMILES CCCCCCCCCCCCCCCCCC(=O)[O-]
REMARK SMILES IDX 10 1 11 2 12 3 13 4 14 5 15 6 16 7 17 8 18 9 19 10 20 11
REMARK SMILES IDX 9 12 8 13 7 14 6 15 5 16 4 17 3 18 2 19 1 20
REMARK H PARENT
REMARK Flexibility Score: inf
ROOT
ATOM      1  C   UNL     1     149.407 285.229 280.832  1.00  0.00     0.000 C 
ENDROOT
BRANCH   1   2
ATOM      2  C   UNL     1     149.102 284.205 281.939  1.00  0.00     0.000 C 
BRANCH   2   3
ATOM      3  C   UNL     1     150.373 283.629 282.591  1.00  0.00     0.000 C 
BRANCH   3   4
ATOM      4  C   UNL     1     151.356 284.672 283.154  1.00  0.00     0.000 C 
BRANCH   4   5
ATOM      5  C   UNL     1     152.571 284.036 283.850  1.00  0.00     0.000 C 
BRANCH   5   6
ATOM      6  C   UNL     1     153.897 284.320 283.121  1.00  0.00     0.000 C 
BRANCH   6   7
ATOM      7  C   UNL     1     154.847 283.113 282.983  1.00  0.00     0.006 C 
BRANCH   7   8
ATOM      8  C   UNL     1     156.250 283.333 283.573  1.00  0.00     0.053 C 
BRANCH   8   9
ATOM      9  C   UNL     1     156.260 283.200 285.064  1.00  0.00     0.041 C 
ATOM     10  O   UNL     1     156.966 283.972 285.764  1.00  0.00    -0.550 OA
ATOM     11  O   UNL     1     155.507 282.207 285.681  1.00  0.00    -0.550 OA
ENDBRANCH   8   9
ENDBRANCH   7   8
ENDBRANCH   6   7
ENDBRANCH   5   6
ENDBRANCH   4   5
ENDBRANCH   3   4
ENDBRANCH   2   3
ENDBRANCH   1   2
BRANCH   1  12
ATOM     12  C   UNL     1     148.308 285.284 279.759  1.00  0.00     0.000 C 
BRANCH  12  13
ATOM     13  C   UNL     1     148.345 286.582 278.938  1.00  0.00    -0.000 C 
BRANCH  13  14
ATOM     14  C   UNL     1     149.265 286.435 277.719  1.00  0.00    -0.000 C 
BRANCH  14  15
ATOM     15  C   UNL     1     150.191 287.651 277.580  1.00  0.00    -0.000 C 
BRANCH  15  16
ATOM     16  C   UNL     1     150.321 288.456 278.884  1.00  0.00    -0.000 C 
BRANCH  16  17
ATOM     17  C   UNL     1     151.638 288.190 279.645  1.00  0.00    -0.000 C 
BRANCH  17  18
ATOM     18  C   UNL     1     151.400 287.937 281.144  1.00  0.00    -0.000 C 
BRANCH  18  19
ATOM     19  C   UNL     1     152.693 288.019 281.970  1.00  0.00    -0.003 C 
ATOM     20  C   UNL     1     153.381 289.379 281.860  1.00  0.00     0.004 C 
ENDBRANCH  18  19
ENDBRANCH  17  18
ENDBRANCH  16  17
ENDBRANCH  15  16
ENDBRANCH  14  15
ENDBRANCH  13  14
ENDBRANCH  12  13
ENDBRANCH   1  12
TORSDOF 16
ENDMDL
MODEL 2
REMARK VINA RESULT:    -4.583      1.520      4.053
REMARK INTER + INTRA:         -10.329
REMARK INTER:                  -8.290
REMARK INTRA:                  -2.040
REMARK UNBOUND:                -1.460
REMARK SMILES CCCCCCCCCCCCCCCCCC(=O)[O-]
REMARK SMILES IDX 10 1 11 2 12 3 13 4 14 5 15 6 16 7 17 8 18 9 19 10 20 11
REMARK SMILES IDX 9 12 8 13 7 14 6 15 5 16 4 17 3 18 2 19 1 20
REMARK H PARENT
REMARK Flexibility Score: inf
ROOT
ATOM      1  C   UNL     1     151.735 287.804 281.139  1.00  0.00     0.000 C 
ENDROOT
BRANCH   1   2
ATOM      2  C   UNL     1     152.528 288.974 281.746  1.00  0.00     0.000 C 
BRANCH   2   3
ATOM      3  C   UNL     1     153.860 289.238 281.018  1.00  0.00     0.000 C 
BRANCH   3   4
ATOM      4  C   UNL     1     154.570 287.987 280.469  1.00  0.00     0.000 C 
BRANCH   4   5
ATOM      5  C   UNL     1     155.593 287.397 281.453  1.00  0.00     0.000 C 
BRANCH   5   6
ATOM      6  C   UNL     1     155.065 286.156 282.196  1.00  0.00     0.000 C 
BRANCH   6   7
ATOM      7  C   UNL     1     154.389 286.436 283.554  1.00  0.00     0.006 C 
BRANCH   7   8
ATOM      8  C   UNL     1     153.616 285.245 284.141  1.00  0.00     0.053 C 
BRANCH   8   9
ATOM      9  C   UNL     1     154.413 283.979 284.095  1.00  0.00     0.041 C 
ATOM     10  O   UNL     1     155.425 283.840 284.832  1.00  0.00    -0.550 OA
ATOM     11  O   UNL     1     154.054 282.960 283.221  1.00  0.00    -0.550 OA
ENDBRANCH   8   9
ENDBRANCH   7   8
ENDBRANCH   6   7
ENDBRANCH   5   6
ENDBRANCH   4   5
ENDBRANCH   3   4
ENDBRANCH   2   3
ENDBRANCH   1   2
BRANCH   1  12
ATOM     12  C   UNL     1     150.879 288.233 279.935  1.00  0.00     0.000 C 
BRANCH  12  13
ATOM     13  C   UNL     1     151.173 287.406 278.674  1.00  0.00    -0.000 C 
BRANCH  13  14
ATOM     14  C   UNL     1     150.077 287.604 277.619  1.00  0.00    -0.000 C 
BRANCH  14  15
ATOM     15  C   UNL     1     149.206 286.347 277.490  1.00  0.00    -0.000 C 
BRANCH  15  16
ATOM     16  C   UNL     1     148.069 286.298 278.524  1.00  0.00    -0.000 C 
BRANCH  16  17
ATOM     17  C   UNL     1     148.124 285.060 279.445  1.00  0.00    -0.000 C 
BRANCH  17  18
ATOM     18  C   UNL     1     148.770 285.377 280.805  1.00  0.00    -0.000 C 
BRANCH  18  19
ATOM     19  C   UNL     1     149.216 284.114 281.557  1.00  0.00    -0.003 C 
ATOM     20  C   UNL     1     150.502 284.323 282.355  1.00  0.00     0.004 C 
ENDBRANCH  18  19
ENDBRANCH  17  18
ENDBRANCH  16  17
ENDBRANCH  15  16
ENDBRANCH  14  15
ENDBRANCH  13  14
ENDBRANCH  12  13
ENDBRANCH   1  12
TORSDOF 16
ENDMDL
MODEL 3
REMARK VINA RESULT:    -4.555      5.078      7.034
REMARK INTER + INTRA:         -10.275
REMARK INTER:                  -8.339
REMARK INTRA:                  -1.936
REMARK UNBOUND:                -1.460
REMARK SMILES CCCCCCCCCCCCCCCCCC(=O)[O-]
REMARK SMILES IDX 10 1 11 2 12 3 13 4 14 5 15 6 16 7 17 8 18 9 19 10 20 11
REMARK SMILES IDX 9 12 8 13 7 14 6 15 5 16 4 17 3 18 2 19 1 20
REMARK H PARENT
REMARK Flexibility Score: inf
ROOT
ATOM      1  C   UNL     1     150.629 288.655 278.790  1.00  0.00     0.000 C 
ENDROOT
BRANCH   1   2
ATOM      2  C   UNL     1     151.468 287.727 279.686  1.00  0.00     0.000 C 
BRANCH   2   3
ATOM      3  C   UNL     1     151.368 288.084 281.181  1.00  0.00     0.000 C 
BRANCH   3   4
ATOM      4  C   UNL     1     152.688 288.511 281.847  1.00  0.00     0.000 C 
BRANCH   4   5
ATOM      5  C   UNL     1     153.635 289.247 280.884  1.00  0.00     0.000 C 
BRANCH   5   6
ATOM      6  C   UNL     1     153.555 290.779 281.018  1.00  0.00     0.000 C 
BRANCH   6   7
ATOM      7  C   UNL     1     154.759 291.556 280.447  1.00  0.00     0.006 C 
BRANCH   7   8
ATOM      8  C   UNL     1     154.385 292.734 279.533  1.00  0.00     0.053 C 
BRANCH   8   9
ATOM      9  C   UNL     1     154.059 292.286 278.143  1.00  0.00     0.041 C 
ATOM     10  O   UNL     1     152.878 292.367 277.712  1.00  0.00    -0.550 OA
ATOM     11  O   UNL     1     155.054 291.758 277.329  1.00  0.00    -0.550 OA
ENDBRANCH   8   9
ENDBRANCH   7   8
ENDBRANCH   6   7
ENDBRANCH   5   6
ENDBRANCH   4   5
ENDBRANCH   3   4
ENDBRANCH   2   3
ENDBRANCH   1   2
BRANCH   1  12
ATOM     12  C   UNL     1     150.199 287.979 277.478  1.00  0.00     0.000 C 
BRANCH  12  13
ATOM     13  C   UNL     1     149.776 286.515 277.676  1.00  0.00    -0.000 C 
BRANCH  13  14
ATOM     14  C   UNL     1     148.300 286.419 278.080  1.00  0.00    -0.000 C 
BRANCH  14  15
ATOM     15  C   UNL     1     148.118 285.476 279.277  1.00  0.00    -0.000 C 
BRANCH  15  16
ATOM     16  C   UNL     1     147.958 286.226 280.611  1.00  0.00    -0.000 C 
BRANCH  16  17
ATOM     17  C   UNL     1     147.743 287.746 280.442  1.00  0.00    -0.000 C 
BRANCH  17  18
ATOM     18  C   UNL     1     146.255 288.132 280.506  1.00  0.00    -0.000 C 
BRANCH  18  19
ATOM     19  C   UNL     1     145.943 289.418 279.727  1.00  0.00    -0.003 C 
ATOM     20  C   UNL     1     147.108 289.878 278.852  1.00  0.00     0.004 C 
ENDBRANCH  18  19
ENDBRANCH  17  18
ENDBRANCH  16  17
ENDBRANCH  15  16
ENDBRANCH  14  15
ENDBRANCH  13  14
ENDBRANCH  12  13
ENDBRANCH   1  12
TORSDOF 16
ENDMDL
MODEL 4
REMARK VINA RESULT:    -4.514      5.344      7.845
REMARK INTER + INTRA:         -10.196
REMARK INTER:                  -8.318
REMARK INTRA:                  -1.877
REMARK UNBOUND:                -1.460
REMARK SMILES CCCCCCCCCCCCCCCCCC(=O)[O-]
REMARK SMILES IDX 10 1 11 2 12 3 13 4 14 5 15 6 16 7 17 8 18 9 19 10 20 11
REMARK SMILES IDX 9 12 8 13 7 14 6 15 5 16 4 17 3 18 2 19 1 20
REMARK H PARENT
REMARK Flexibility Score: inf
ROOT
ATOM      1  C   UNL     1     150.651 287.828 280.683  1.00  0.00     0.000 C 
ENDROOT
BRANCH   1   2
ATOM      2  C   UNL     1     151.004 288.288 279.258  1.00  0.00     0.000 C 
BRANCH   2   3
ATOM      3  C   UNL     1     150.974 287.139 278.232  1.00  0.00     0.000 C 
BRANCH   3   4
ATOM      4  C   UNL     1     149.651 286.977 277.462  1.00  0.00     0.000 C 
BRANCH   4   5
ATOM      5  C   UNL     1     148.686 285.983 278.130  1.00  0.00     0.000 C 
BRANCH   5   6
ATOM      6  C   UNL     1     147.299 286.590 278.411  1.00  0.00     0.000 C 
BRANCH   6   7
ATOM      7  C   UNL     1     147.011 286.920 279.890  1.00  0.00     0.006 C 
BRANCH   7   8
ATOM      8  C   UNL     1     147.176 288.404 280.258  1.00  0.00     0.053 C 
BRANCH   8   9
ATOM      9  C   UNL     1     146.941 289.303 279.084  1.00  0.00     0.041 C 
ATOM     10  O   UNL     1     147.905 289.909 278.547  1.00  0.00    -0.550 OA
ATOM     11  O   UNL     1     145.653 289.492 278.597  1.00  0.00    -0.550 OA
ENDBRANCH   8   9
ENDBRANCH   7   8
ENDBRANCH   6   7
ENDBRANCH   5   6
ENDBRANCH   4   5
ENDBRANCH   3   4
ENDBRANCH   2   3
ENDBRANCH   1   2
BRANCH   1  12
ATOM     12  C   UNL     1     151.866 287.838 281.625  1.00  0.00     0.000 C 
BRANCH  12  13
ATOM     13  C   UNL     1     153.102 288.495 280.992  1.00  0.00    -0.000 C 
BRANCH  13  14
ATOM     14  C   UNL     1     153.448 289.811 281.700  1.00  0.00    -0.000 C 
BRANCH  14  15
ATOM     15  C   UNL     1     153.714 290.929 280.684  1.00  0.00    -0.000 C 
BRANCH  15  16
ATOM     16  C   UNL     1     155.107 291.562 280.841  1.00  0.00    -0.000 C 
BRANCH  16  17
ATOM     17  C   UNL     1     156.077 291.214 279.691  1.00  0.00    -0.000 C 
BRANCH  17  18
ATOM     18  C   UNL     1     155.374 290.459 278.549  1.00  0.00    -0.000 C 
BRANCH  18  19
ATOM     19  C   UNL     1     155.753 288.971 278.504  1.00  0.00    -0.003 C 
ATOM     20  C   UNL     1     156.917 288.627 279.432  1.00  0.00     0.004 C 
ENDBRANCH  18  19
ENDBRANCH  17  18
ENDBRANCH  16  17
ENDBRANCH  15  16
ENDBRANCH  14  15
ENDBRANCH  13  14
ENDBRANCH  12  13
ENDBRANCH   1  12
TORSDOF 16
ENDMDL
MODEL 5
REMARK VINA RESULT:    -4.495      1.642      2.026
REMARK INTER + INTRA:         -10.159
REMARK INTER:                  -8.507
REMARK INTRA:                  -1.652
REMARK UNBOUND:                -1.460
REMARK SMILES CCCCCCCCCCCCCCCCCC(=O)[O-]
REMARK SMILES IDX 10 1 11 2 12 3 13 4 14 5 15 6 16 7 17 8 18 9 19 10 20 11
REMARK SMILES IDX 9 12 8 13 7 14 6 15 5 16 4 17 3 18 2 19 1 20
REMARK H PARENT
REMARK Flexibility Score: inf
ROOT
ATOM      1  C   UNL     1     148.726 284.989 280.483  1.00  0.00     0.000 C 
ENDROOT
BRANCH   1   2
ATOM      2  C   UNL     1     148.628 283.505 280.878  1.00  0.00     0.000 C 
BRANCH   2   3
ATOM      3  C   UNL     1     148.958 283.255 282.362  1.00  0.00     0.000 C 
BRANCH   3   4
ATOM      4  C   UNL     1     150.322 283.791 282.833  1.00  0.00     0.000 C 
BRANCH   4   5
ATOM      5  C   UNL     1     150.447 283.851 284.365  1.00  0.00     0.000 C 
BRANCH   5   6
ATOM      6  C   UNL     1     151.753 284.516 284.835  1.00  0.00     0.000 C 
BRANCH   6   7
ATOM      7  C   UNL     1     152.692 284.997 283.710  1.00  0.00     0.006 C 
BRANCH   7   8
ATOM      8  C   UNL     1     154.179 285.047 284.095  1.00  0.00     0.053 C 
BRANCH   8   9
ATOM      9  C   UNL     1     155.073 284.942 282.899  1.00  0.00     0.041 C 
ATOM     10  O   UNL     1     155.448 285.981 282.295  1.00  0.00    -0.550 OA
ATOM     11  O   UNL     1     155.476 283.694 282.437  1.00  0.00    -0.550 OA
ENDBRANCH   8   9
ENDBRANCH   7   8
ENDBRANCH   6   7
ENDBRANCH   5   6
ENDBRANCH   4   5
ENDBRANCH   3   4
ENDBRANCH   2   3
ENDBRANCH   1   2
BRANCH   1  12
ATOM     12  C   UNL     1     147.423 285.523 279.865  1.00  0.00     0.000 C 
BRANCH  12  13
ATOM     13  C   UNL     1     147.674 286.516 278.720  1.00  0.00    -0.000 C 
BRANCH  13  14
ATOM     14  C   UNL     1     148.791 286.017 277.794  1.00  0.00    -0.000 C 
BRANCH  14  15
ATOM     15  C   UNL     1     149.781 287.143 277.471  1.00  0.00    -0.000 C 
BRANCH  15  16
ATOM     16  C   UNL     1     150.985 287.174 278.428  1.00  0.00    -0.000 C 
BRANCH  16  17
ATOM     17  C   UNL     1     150.872 288.252 279.528  1.00  0.00    -0.000 C 
BRANCH  17  18
ATOM     18  C   UNL     1     150.989 287.653 280.941  1.00  0.00    -0.000 C 
BRANCH  18  19
ATOM     19  C   UNL     1     152.292 288.055 281.647  1.00  0.00    -0.003 C 
ATOM     20  C   UNL     1     152.981 289.248 280.987  1.00  0.00     0.004 C 
ENDBRANCH  18  19
ENDBRANCH  17  18
ENDBRANCH  16  17
ENDBRANCH  15  16
ENDBRANCH  14  15
ENDBRANCH  13  14
ENDBRANCH  12  13
ENDBRANCH   1  12
TORSDOF 16
ENDMDL
MODEL 6
REMARK VINA RESULT:    -4.493      2.462      3.105
REMARK INTER + INTRA:         -10.156
REMARK INTER:                  -8.551
REMARK INTRA:                  -1.605
REMARK UNBOUND:                -1.460
REMARK SMILES CCCCCCCCCCCCCCCCCC(=O)[O-]
REMARK SMILES IDX 10 1 11 2 12 3 13 4 14 5 15 6 16 7 17 8 18 9 19 10 20 11
REMARK SMILES IDX 9 12 8 13 7 14 6 15 5 16 4 17 3 18 2 19 1 20
REMARK H PARENT
REMARK Flexibility Score: inf
ROOT
ATOM      1  C   UNL     1     148.806 285.131 280.567  1.00  0.00     0.000 C 
ENDROOT
BRANCH   1   2
ATOM      2  C   UNL     1     148.679 283.727 281.183  1.00  0.00     0.000 C 
BRANCH   2   3
ATOM      3  C   UNL     1     149.920 283.316 281.998  1.00  0.00     0.000 C 
BRANCH   3   4
ATOM      4  C   UNL     1     150.639 284.464 282.731  1.00  0.00     0.000 C 
BRANCH   4   5
ATOM      5  C   UNL     1     151.972 284.030 283.364  1.00  0.00     0.000 C 
BRANCH   5   6
ATOM      6  C   UNL     1     152.277 284.765 284.682  1.00  0.00     0.000 C 
BRANCH   6   7
ATOM      7  C   UNL     1     151.814 284.042 285.963  1.00  0.00     0.006 C 
BRANCH   7   8
ATOM      8  C   UNL     1     150.756 284.802 286.780  1.00  0.00     0.053 C 
BRANCH   8   9
ATOM      9  C   UNL     1     151.220 285.088 288.174  1.00  0.00     0.041 C 
ATOM     10  O   UNL     1     152.245 284.517 288.630  1.00  0.00    -0.550 OA
ATOM     11  O   UNL     1     150.507 285.969 288.979  1.00  0.00    -0.550 OA
ENDBRANCH   8   9
ENDBRANCH   7   8
ENDBRANCH   6   7
ENDBRANCH   5   6
ENDBRANCH   4   5
ENDBRANCH   3   4
ENDBRANCH   2   3
ENDBRANCH   1   2
BRANCH   1  12
ATOM     12  C   UNL     1     147.841 285.348 279.390  1.00  0.00     0.000 C 
BRANCH  12  13
ATOM     13  C   UNL     1     148.156 286.623 278.592  1.00  0.00    -0.000 C 
BRANCH  13  14
ATOM     14  C   UNL     1     149.376 286.417 277.686  1.00  0.00    -0.000 C 
BRANCH  14  15
ATOM     15  C   UNL     1     150.171 287.720 277.528  1.00  0.00    -0.000 C 
BRANCH  15  16
ATOM     16  C   UNL     1     150.342 288.480 278.855  1.00  0.00    -0.000 C 
BRANCH  16  17
ATOM     17  C   UNL     1     151.607 288.072 279.641  1.00  0.00    -0.000 C 
BRANCH  17  18
ATOM     18  C   UNL     1     151.319 287.874 281.140  1.00  0.00    -0.000 C 
BRANCH  18  19
ATOM     19  C   UNL     1     152.581 287.530 281.944  1.00  0.00    -0.003 C 
ATOM     20  C   UNL     1     153.861 288.048 281.289  1.00  0.00     0.004 C 
ENDBRANCH  18  19
ENDBRANCH  17  18
ENDBRANCH  16  17
ENDBRANCH  15  16
ENDBRANCH  14  15
ENDBRANCH  13  14
ENDBRANCH  12  13
ENDBRANCH   1  12
TORSDOF 16
ENDMDL
MODEL 7
REMARK VINA RESULT:    -4.482      3.185      5.661
REMARK INTER + INTRA:         -10.135
REMARK INTER:                  -8.097
REMARK INTRA:                  -2.038
REMARK UNBOUND:                -1.460
REMARK SMILES CCCCCCCCCCCCCCCCCC(=O)[O-]
REMARK SMILES IDX 10 1 11 2 12 3 13 4 14 5 15 6 16 7 17 8 18 9 19 10 20 11
REMARK SMILES IDX 9 12 8 13 7 14 6 15 5 16 4 17 3 18 2 19 1 20
REMARK H PARENT
REMARK Flexibility Score: inf
ROOT
ATOM      1  C   UNL     1     153.241 284.007 284.587  1.00  0.00     0.000 C 
ENDROOT
BRANCH   1   2
ATOM      2  C   UNL     1     153.770 283.236 283.366  1.00  0.00     0.000 C 
BRANCH   2   3
ATOM      3  C   UNL     1     155.071 283.834 282.796  1.00  0.00     0.000 C 
BRANCH   3   4
ATOM      4  C   UNL     1     155.550 285.133 283.469  1.00  0.00     0.000 C 
BRANCH   4   5
ATOM      5  C   UNL     1     155.467 286.355 282.540  1.00  0.00     0.000 C 
BRANCH   5   6
ATOM      6  C   UNL     1     154.404 287.377 282.986  1.00  0.00     0.000 C 
BRANCH   6   7
ATOM      7  C   UNL     1     153.117 287.404 282.136  1.00  0.00     0.006 C 
BRANCH   7   8
ATOM      8  C   UNL     1     152.662 288.809 281.710  1.00  0.00     0.053 C 
BRANCH   8   9
ATOM      9  C   UNL     1     152.917 289.067 280.257  1.00  0.00     0.041 C 
ATOM     10  O   UNL     1     152.931 290.246 279.816  1.00  0.00    -0.550 OA
ATOM     11  O   UNL     1     153.118 288.003 279.385  1.00  0.00    -0.550 OA
ENDBRANCH   8   9
ENDBRANCH   7   8
ENDBRANCH   6   7
ENDBRANCH   5   6
ENDBRANCH   4   5
ENDBRANCH   3   4
ENDBRANCH   2   3
ENDBRANCH   1   2
BRANCH   1  12
ATOM     12  C   UNL     1     151.744 284.338 284.473  1.00  0.00     0.000 C 
BRANCH  12  13
ATOM     13  C   UNL     1     151.109 283.777 283.191  1.00  0.00    -0.000 C 
BRANCH  13  14
ATOM     14  C   UNL     1     150.562 284.907 282.309  1.00  0.00    -0.000 C 
BRANCH  14  15
ATOM     15  C   UNL     1     149.253 284.487 281.627  1.00  0.00    -0.000 C 
BRANCH  15  16
ATOM     16  C   UNL     1     148.894 285.374 280.423  1.00  0.00    -0.000 C 
BRANCH  16  17
ATOM     17  C   UNL     1     149.900 286.521 280.180  1.00  0.00    -0.000 C 
BRANCH  17  18
ATOM     18  C   UNL     1     149.282 287.903 280.455  1.00  0.00    -0.000 C 
BRANCH  18  19
ATOM     19  C   UNL     1     148.849 288.623 279.169  1.00  0.00    -0.003 C 
ATOM     20  C   UNL     1     147.333 288.781 279.060  1.00  0.00     0.004 C 
ENDBRANCH  18  19
ENDBRANCH  17  18
ENDBRANCH  16  17
ENDBRANCH  15  16
ENDBRANCH  14  15
ENDBRANCH  13  14
ENDBRANCH  12  13
ENDBRANCH   1  12
TORSDOF 16
ENDMDL
MODEL 8
REMARK VINA RESULT:    -4.383     11.883     15.207
REMARK INTER + INTRA:          -9.942
REMARK INTER:                  -7.330
REMARK INTRA:                  -2.612
REMARK UNBOUND:                -1.460
REMARK SMILES CCCCCCCCCCCCCCCCCC(=O)[O-]
REMARK SMILES IDX 10 1 11 2 12 3 13 4 14 5 15 6 16 7 17 8 18 9 19 10 20 11
REMARK SMILES IDX 9 12 8 13 7 14 6 15 5 16 4 17 3 18 2 19 1 20
REMARK H PARENT
REMARK Flexibility Score: inf
ROOT
ATOM      1  C   UNL     1     158.497 297.920 276.073  1.00  0.00     0.000 C 
ENDROOT
BRANCH   1   2
ATOM      2  C   UNL     1     157.679 299.066 276.692  1.00  0.00     0.000 C 
BRANCH   2   3
ATOM      3  C   UNL     1     157.923 300.420 275.997  1.00  0.00     0.000 C 
BRANCH   3   4
ATOM      4  C   UNL     1     158.853 301.389 276.749  1.00  0.00     0.000 C 
BRANCH   4   5
ATOM      5  C   UNL     1     159.045 301.011 278.227  1.00  0.00     0.000 C 
BRANCH   5   6
ATOM      6  C   UNL     1     160.527 300.885 278.627  1.00  0.00     0.000 C 
BRANCH   6   7
ATOM      7  C   UNL     1     161.323 299.798 277.877  1.00  0.00     0.006 C 
BRANCH   7   8
ATOM      8  C   UNL     1     161.345 298.426 278.572  1.00  0.00     0.053 C 
BRANCH   8   9
ATOM      9  C   UNL     1     161.773 297.333 277.644  1.00  0.00     0.041 C 
ATOM     10  O   UNL     1     162.115 297.602 276.463  1.00  0.00    -0.550 OA
ATOM     11  O   UNL     1     161.774 296.012 278.077  1.00  0.00    -0.550 OA
ENDBRANCH   8   9
ENDBRANCH   7   8
ENDBRANCH   6   7
ENDBRANCH   5   6
ENDBRANCH   4   5
ENDBRANCH   3   4
ENDBRANCH   2   3
ENDBRANCH   1   2
BRANCH   1  12
ATOM     12  C   UNL     1     157.610 296.780 275.546  1.00  0.00     0.000 C 
BRANCH  12  13
ATOM     13  C   UNL     1     156.312 297.289 274.900  1.00  0.00    -0.000 C 
BRANCH  13  14
ATOM     14  C   UNL     1     155.099 296.499 275.408  1.00  0.00    -0.000 C 
BRANCH  14  15
ATOM     15  C   UNL     1     155.540 295.311 276.273  1.00  0.00    -0.000 C 
BRANCH  15  16
ATOM     16  C   UNL     1     154.812 295.254 277.627  1.00  0.00    -0.000 C 
BRANCH  16  17
ATOM     17  C   UNL     1     154.563 296.643 278.253  1.00  0.00    -0.000 C 
BRANCH  17  18
ATOM     18  C   UNL     1     155.812 297.190 278.966  1.00  0.00    -0.000 C 
BRANCH  18  19
ATOM     19  C   UNL     1     156.623 296.088 279.666  1.00  0.00    -0.003 C 
ATOM     20  C   UNL     1     158.108 296.127 279.309  1.00  0.00     0.004 C 
ENDBRANCH  18  19
ENDBRANCH  17  18
ENDBRANCH  16  17
ENDBRANCH  15  16
ENDBRANCH  14  15
ENDBRANCH  13  14
ENDBRANCH  12  13
ENDBRANCH   1  12
TORSDOF 16
ENDMDL
MODEL 9
REMARK VINA RESULT:    -4.383      6.370      9.155
REMARK INTER + INTRA:          -9.942
REMARK INTER:                  -7.229
REMARK INTRA:                  -2.713
REMARK UNBOUND:                -1.460
REMARK SMILES CCCCCCCCCCCCCCCCCC(=O)[O-]
REMARK SMILES IDX 10 1 11 2 12 3 13 4 14 5 15 6 16 7 17 8 18 9 19 10 20 11
REMARK SMILES IDX 9 12 8 13 7 14 6 15 5 16 4 17 3 18 2 19 1 20
REMARK H PARENT
REMARK Flexibility Score: inf
ROOT
ATOM      1  C   UNL     1     155.072 286.459 285.853  1.00  0.00     0.000 C 
ENDROOT
BRANCH   1   2
ATOM      2  C   UNL     1     156.349 287.112 286.411  1.00  0.00     0.000 C 
BRANCH   2   3
ATOM      3  C   UNL     1     157.482 286.098 286.660  1.00  0.00     0.000 C 
BRANCH   3   4
ATOM      4  C   UNL     1     157.675 285.672 288.127  1.00  0.00     0.000 C 
BRANCH   4   5
ATOM      5  C   UNL     1     156.942 286.589 289.119  1.00  0.00     0.000 C 
BRANCH   5   6
ATOM      6  C   UNL     1     157.878 287.602 289.804  1.00  0.00     0.000 C 
BRANCH   6   7
ATOM      7  C   UNL     1     157.811 289.041 289.252  1.00  0.00     0.006 C 
BRANCH   7   8
ATOM      8  C   UNL     1     156.511 289.792 289.581  1.00  0.00     0.053 C 
BRANCH   8   9
ATOM      9  C   UNL     1     156.659 290.674 290.782  1.00  0.00     0.041 C 
ATOM     10  O   UNL     1     156.534 290.195 291.940  1.00  0.00    -0.550 OA
ATOM     11  O   UNL     1     156.914 292.031 290.623  1.00  0.00    -0.550 OA
ENDBRANCH   8   9
ENDBRANCH   7   8
ENDBRANCH   6   7
ENDBRANCH   5   6
ENDBRANCH   4   5
ENDBRANCH   3   4
ENDBRANCH   2   3
ENDBRANCH   1   2
BRANCH   1  12
ATOM     12  C   UNL     1     153.962 286.338 286.909  1.00  0.00     0.000 C 
BRANCH  12  13
ATOM     13  C   UNL     1     153.449 284.898 287.069  1.00  0.00    -0.000 C 
BRANCH  13  14
ATOM     14  C   UNL     1     153.949 284.279 288.379  1.00  0.00    -0.000 C 
BRANCH  14  15
ATOM     15  C   UNL     1     155.013 283.206 288.109  1.00  0.00    -0.000 C 
BRANCH  15  16
ATOM     16  C   UNL     1     154.938 282.635 286.683  1.00  0.00    -0.000 C 
BRANCH  16  17
ATOM     17  C   UNL     1     156.309 282.552 285.978  1.00  0.00    -0.000 C 
BRANCH  17  18
ATOM     18  C   UNL     1     156.317 283.304 284.636  1.00  0.00    -0.000 C 
BRANCH  18  19
ATOM     19  C   UNL     1     155.035 283.073 283.821  1.00  0.00    -0.003 C 
ATOM     20  C   UNL     1     155.316 282.690 282.369  1.00  0.00     0.004 C 
ENDBRANCH  18  19
ENDBRANCH  17  18
ENDBRANCH  16  17
ENDBRANCH  15  16
ENDBRANCH  14  15
ENDBRANCH  13  14
ENDBRANCH  12  13
ENDBRANCH   1  12
TORSDOF 16
ENDMDL
