MODEL 1
REMARK VINA RESULT:    -5.018      0.000      0.000
REMARK INTER + INTRA:          -5.270
REMARK INTER:                  -5.898
REMARK INTRA:                   0.628
REMARK UNBOUND:                 0.628
REMARK SMILES O=C([O-])C=Cc1ccc(O)c(O)c1
REMARK SMILES IDX 6 1 13 2 7 3 11 4 8 5 9 6 5 7 4 8 2 9 1 10 3 11 12 12 10 14
REMARK H PARENT 12 13 10 15
REMARK Flexibility Score: inf
ROOT
ATOM      1  C   UNL     1     -22.438 -23.058 -44.219  1.00  0.00    -0.022 A 
ATOM      2  C   UNL     1     -23.085 -24.169 -44.776  1.00  0.00     0.058 A 
ATOM      3  C   UNL     1     -22.256 -22.995 -42.830  1.00  0.00     0.012 A 
ATOM      4  C   UNL     1     -23.502 -25.237 -43.969  1.00  0.00     0.157 A 
ATOM      5  C   UNL     1     -22.666 -24.053 -42.018  1.00  0.00     0.051 A 
ATOM      6  C   UNL     1     -23.284 -25.180 -42.572  1.00  0.00     0.157 A 
ENDROOT
BRANCH   1   7
ATOM      7  C   UNL     1     -22.060 -21.927 -45.093  1.00  0.00     0.010 C 
ATOM      8  C   UNL     1     -20.967 -21.878 -45.871  1.00  0.00     0.025 C 
BRANCH   8   9
ATOM      9  C   UNL     1     -20.044 -22.998 -46.135  1.00  0.00     0.064 C 
ATOM     10  O   UNL     1     -20.351 -24.186 -45.851  1.00  0.00    -0.545 OA
ATOM     11  O   UNL     1     -18.837 -22.745 -46.773  1.00  0.00    -0.545 OA
ENDBRANCH   8   9
ENDBRANCH   1   7
BRANCH   4  12
ATOM     12  O   UNL     1     -24.125 -26.320 -44.593  1.00  0.00    -0.504 OA
ATOM     13  H   UNL     1     -24.667 -27.017 -44.104  1.00  0.00     0.293 HD
ENDBRANCH   4  12
BRANCH   6  14
ATOM     14  O   UNL     1     -23.666 -26.208 -41.707  1.00  0.00    -0.504 OA
ATOM     15  H   UNL     1     -23.563 -27.190 -41.917  1.00  0.00     0.293 HD
ENDBRANCH   6  14
TORSDOF 4
ENDMDL
MODEL 2
REMARK VINA RESULT:    -4.774      0.898      1.885
REMARK INTER + INTRA:          -4.983
REMARK INTER:                  -5.446
REMARK INTRA:                   0.464
REMARK UNBOUND:                 0.628
REMARK SMILES O=C([O-])C=Cc1ccc(O)c(O)c1
REMARK SMILES IDX 6 1 13 2 7 3 11 4 8 5 9 6 5 7 4 8 2 9 1 10 3 11 12 12 10 14
REMARK H PARENT 12 13 10 15
REMARK Flexibility Score: inf
ROOT
ATOM      1  C   UNL     1     -22.761 -23.115 -44.913  1.00  0.00    -0.022 A 
ATOM      2  C   UNL     1     -22.483 -23.141 -43.540  1.00  0.00     0.058 A 
ATOM      3  C   UNL     1     -23.435 -24.198 -45.498  1.00  0.00     0.012 A 
ATOM      4  C   UNL     1     -22.915 -24.207 -42.739  1.00  0.00     0.157 A 
ATOM      5  C   UNL     1     -23.871 -25.264 -44.708  1.00  0.00     0.051 A 
ATOM      6  C   UNL     1     -23.624 -25.280 -43.331  1.00  0.00     0.157 A 
ENDROOT
BRANCH   1   7
ATOM      7  C   UNL     1     -22.243 -22.001 -45.736  1.00  0.00     0.010 C 
ATOM      8  C   UNL     1     -20.997 -21.912 -46.227  1.00  0.00     0.025 C 
BRANCH   8   9
ATOM      9  C   UNL     1     -19.977 -22.977 -46.190  1.00  0.00     0.064 C 
ATOM     10  O   UNL     1     -20.215 -24.100 -45.674  1.00  0.00    -0.545 OA
ATOM     11  O   UNL     1     -18.749 -22.759 -46.801  1.00  0.00    -0.545 OA
ENDBRANCH   8   9
ENDBRANCH   1   7
BRANCH   4  12
ATOM     12  O   UNL     1     -22.619 -24.159 -41.375  1.00  0.00    -0.504 OA
ATOM     13  H   UNL     1     -21.978 -24.789 -40.915  1.00  0.00     0.293 HD
ENDBRANCH   4  12
BRANCH   6  14
ATOM     14  O   UNL     1     -24.092 -26.371 -42.596  1.00  0.00    -0.504 OA
ATOM     15  H   UNL     1     -24.563 -27.166 -43.003  1.00  0.00     0.293 HD
ENDBRANCH   6  14
TORSDOF 4
ENDMDL
MODEL 3
REMARK VINA RESULT:    -4.483      1.551      4.626
REMARK INTER + INTRA:          -4.641
REMARK INTER:                  -5.244
REMARK INTRA:                   0.603
REMARK UNBOUND:                 0.628
REMARK SMILES O=C([O-])C=Cc1ccc(O)c(O)c1
REMARK SMILES IDX 6 1 13 2 7 3 11 4 8 5 9 6 5 7 4 8 2 9 1 10 3 11 12 12 10 14
REMARK H PARENT 12 13 10 15
REMARK Flexibility Score: inf
ROOT
ATOM      1  C   UNL     1     -22.788 -23.270 -42.820  1.00  0.00    -0.022 A 
ATOM      2  C   UNL     1     -23.373 -23.802 -43.977  1.00  0.00     0.058 A 
ATOM      3  C   UNL     1     -21.612 -22.513 -42.930  1.00  0.00     0.012 A 
ATOM      4  C   UNL     1     -22.828 -23.544 -45.241  1.00  0.00     0.157 A 
ATOM      5  C   UNL     1     -21.062 -22.248 -44.186  1.00  0.00     0.051 A 
ATOM      6  C   UNL     1     -21.660 -22.750 -45.347  1.00  0.00     0.157 A 
ENDROOT
BRANCH   1   7
ATOM      7  C   UNL     1     -23.359 -23.609 -41.499  1.00  0.00     0.010 C 
ATOM      8  C   UNL     1     -23.655 -24.847 -41.073  1.00  0.00     0.025 C 
BRANCH   8   9
ATOM      9  C   UNL     1     -23.303 -26.103 -41.764  1.00  0.00     0.064 C 
ATOM     10  O   UNL     1     -22.245 -26.212 -42.437  1.00  0.00    -0.545 OA
ATOM     11  O   UNL     1     -24.125 -27.212 -41.612  1.00  0.00    -0.545 OA
ENDBRANCH   8   9
ENDBRANCH   1   7
BRANCH   4  12
ATOM     12  O   UNL     1     -23.472 -24.091 -46.353  1.00  0.00    -0.504 OA
ATOM     13  H   UNL     1     -23.846 -25.028 -46.384  1.00  0.00     0.293 HD
ENDBRANCH   4  12
BRANCH   6  14
ATOM     14  O   UNL     1     -21.065 -22.444 -46.573  1.00  0.00    -0.504 OA
ATOM     15  H   UNL     1     -21.580 -22.287 -47.427  1.00  0.00     0.293 HD
ENDBRANCH   6  14
TORSDOF 4
ENDMDL
MODEL 4
REMARK VINA RESULT:    -4.457      1.523      4.929
REMARK INTER + INTRA:          -4.610
REMARK INTER:                  -4.424
REMARK INTRA:                  -0.186
REMARK UNBOUND:                 0.628
REMARK SMILES O=C([O-])C=Cc1ccc(O)c(O)c1
REMARK SMILES IDX 6 1 13 2 7 3 11 4 8 5 9 6 5 7 4 8 2 9 1 10 3 11 12 12 10 14
REMARK H PARENT 12 13 10 15
REMARK Flexibility Score: inf
ROOT
ATOM      1  C   UNL     1     -22.751 -24.155 -45.087  1.00  0.00    -0.022 A 
ATOM      2  C   UNL     1     -22.822 -22.767 -45.268  1.00  0.00     0.058 A 
ATOM      3  C   UNL     1     -21.572 -24.832 -45.432  1.00  0.00     0.012 A 
ATOM      4  C   UNL     1     -21.717 -22.046 -45.738  1.00  0.00     0.157 A 
ATOM      5  C   UNL     1     -20.464 -24.123 -45.899  1.00  0.00     0.051 A 
ATOM      6  C   UNL     1     -20.520 -22.733 -46.052  1.00  0.00     0.157 A 
ENDROOT
BRANCH   1   7
ATOM      7  C   UNL     1     -23.954 -24.890 -44.641  1.00  0.00     0.010 C 
ATOM      8  C   UNL     1     -24.125 -25.438 -43.427  1.00  0.00     0.025 C 
BRANCH   8   9
ATOM      9  C   UNL     1     -23.231 -25.259 -42.266  1.00  0.00     0.064 C 
ATOM     10  O   UNL     1     -22.628 -26.232 -41.743  1.00  0.00    -0.545 OA
ATOM     11  O   UNL     1     -22.997 -23.978 -41.784  1.00  0.00    -0.545 OA
ENDBRANCH   8   9
ENDBRANCH   1   7
BRANCH   4  12
ATOM     12  O   UNL     1     -21.852 -20.663 -45.878  1.00  0.00    -0.504 OA
ATOM     13  H   UNL     1     -21.342 -20.112 -46.553  1.00  0.00     0.293 HD
ENDBRANCH   4  12
BRANCH   6  14
ATOM     14  O   UNL     1     -19.375 -22.081 -46.517  1.00  0.00    -0.504 OA
ATOM     15  H   UNL     1     -18.542 -21.942 -45.966  1.00  0.00     0.293 HD
ENDBRANCH   6  14
TORSDOF 4
ENDMDL
MODEL 5
REMARK VINA RESULT:    -3.900      1.375      2.009
REMARK INTER + INTRA:          -3.955
REMARK INTER:                  -4.310
REMARK INTRA:                   0.354
REMARK UNBOUND:                 0.628
REMARK SMILES O=C([O-])C=Cc1ccc(O)c(O)c1
REMARK SMILES IDX 6 1 13 2 7 3 11 4 8 5 9 6 5 7 4 8 2 9 1 10 3 11 12 12 10 14
REMARK H PARENT 12 13 10 15
REMARK Flexibility Score: inf
ROOT
ATOM      1  C   UNL     1     -23.337 -24.446 -44.157  1.00  0.00    -0.022 A 
ATOM      2  C   UNL     1     -23.730 -25.693 -43.652  1.00  0.00     0.058 A 
ATOM      3  C   UNL     1     -23.000 -23.419 -43.264  1.00  0.00     0.012 A 
ATOM      4  C   UNL     1     -23.739 -25.939 -42.273  1.00  0.00     0.157 A 
ATOM      5  C   UNL     1     -23.005 -23.654 -41.887  1.00  0.00     0.051 A 
ATOM      6  C   UNL     1     -23.365 -24.907 -41.379  1.00  0.00     0.157 A 
ENDROOT
BRANCH   1   7
ATOM      7  C   UNL     1     -23.391 -24.206 -45.615  1.00  0.00     0.010 C 
ATOM      8  C   UNL     1     -22.599 -23.360 -46.294  1.00  0.00     0.025 C 
BRANCH   8   9
ATOM      9  C   UNL     1     -21.423 -22.656 -45.749  1.00  0.00     0.064 C 
ATOM     10  O   UNL     1     -21.505 -21.479 -45.309  1.00  0.00    -0.545 OA
ATOM     11  O   UNL     1     -20.213 -23.330 -45.656  1.00  0.00    -0.545 OA
ENDBRANCH   8   9
ENDBRANCH   1   7
BRANCH   4  12
ATOM     12  O   UNL     1     -24.125 -27.209 -41.840  1.00  0.00    -0.504 OA
ATOM     13  H   UNL     1     -25.041 -27.427 -41.476  1.00  0.00     0.293 HD
ENDBRANCH   4  12
BRANCH   6  14
ATOM     14  O   UNL     1     -23.343 -25.081 -39.993  1.00  0.00    -0.504 OA
ATOM     15  H   UNL     1     -22.497 -25.161 -39.448  1.00  0.00     0.293 HD
ENDBRANCH   6  14
TORSDOF 4
ENDMDL
MODEL 6
REMARK VINA RESULT:    -3.818      1.907      5.038
REMARK INTER + INTRA:          -3.859
REMARK INTER:                  -4.623
REMARK INTRA:                   0.764
REMARK UNBOUND:                 0.628
REMARK SMILES O=C([O-])C=Cc1ccc(O)c(O)c1
REMARK SMILES IDX 6 1 13 2 7 3 11 4 8 5 9 6 5 7 4 8 2 9 1 10 3 11 12 12 10 14
REMARK H PARENT 12 13 10 15
REMARK Flexibility Score: inf
ROOT
ATOM      1  C   UNL     1     -23.310 -24.454 -44.531  1.00  0.00    -0.022 A 
ATOM      2  C   UNL     1     -22.923 -23.516 -43.564  1.00  0.00     0.058 A 
ATOM      3  C   UNL     1     -23.008 -24.214 -45.879  1.00  0.00     0.012 A 
ATOM      4  C   UNL     1     -22.194 -22.374 -43.922  1.00  0.00     0.157 A 
ATOM      5  C   UNL     1     -22.281 -23.080 -46.246  1.00  0.00     0.051 A 
ATOM      6  C   UNL     1     -21.864 -22.157 -45.281  1.00  0.00     0.157 A 
ENDROOT
BRANCH   1   7
ATOM      7  C   UNL     1     -24.124 -25.619 -44.124  1.00  0.00     0.010 C 
ATOM      8  C   UNL     1     -24.066 -26.229 -42.930  1.00  0.00     0.025 C 
BRANCH   8   9
ATOM      9  C   UNL     1     -23.319 -25.749 -41.751  1.00  0.00     0.064 C 
ATOM     10  O   UNL     1     -22.060 -25.775 -41.713  1.00  0.00    -0.545 OA
ATOM     11  O   UNL     1     -24.017 -25.192 -40.688  1.00  0.00    -0.545 OA
ENDBRANCH   8   9
ENDBRANCH   1   7
BRANCH   4  12
ATOM     12  O   UNL     1     -21.825 -21.491 -42.905  1.00  0.00    -0.504 OA
ATOM     13  H   UNL     1     -22.469 -20.871 -42.435  1.00  0.00     0.293 HD
ENDBRANCH   4  12
BRANCH   6  14
ATOM     14  O   UNL     1     -21.134 -21.046 -45.712  1.00  0.00    -0.504 OA
ATOM     15  H   UNL     1     -21.420 -20.442 -46.468  1.00  0.00     0.293 HD
ENDBRANCH   6  14
TORSDOF 4
ENDMDL
MODEL 7
REMARK VINA RESULT:    -2.610      1.261      2.468
REMARK INTER + INTRA:          -2.439
REMARK INTER:                  -3.662
REMARK INTRA:                   1.223
REMARK UNBOUND:                 0.628
REMARK SMILES O=C([O-])C=Cc1ccc(O)c(O)c1
REMARK SMILES IDX 6 1 13 2 7 3 11 4 8 5 9 6 5 7 4 8 2 9 1 10 3 11 12 12 10 14
REMARK H PARENT 12 13 10 15
REMARK Flexibility Score: inf
ROOT
ATOM      1  C   UNL     1     -22.555 -23.436 -42.825  1.00  0.00    -0.022 A 
ATOM      2  C   UNL     1     -22.707 -23.921 -41.520  1.00  0.00     0.058 A 
ATOM      3  C   UNL     1     -22.884 -24.266 -43.908  1.00  0.00     0.012 A 
ATOM      4  C   UNL     1     -23.230 -25.200 -41.284  1.00  0.00     0.157 A 
ATOM      5  C   UNL     1     -23.407 -25.541 -43.684  1.00  0.00     0.051 A 
ATOM      6  C   UNL     1     -23.591 -26.018 -42.382  1.00  0.00     0.157 A 
ENDROOT
BRANCH   1   7
ATOM      7  C   UNL     1     -21.950 -22.104 -43.038  1.00  0.00     0.010 C 
ATOM      8  C   UNL     1     -21.327 -21.703 -44.157  1.00  0.00     0.025 C 
BRANCH   8   9
ATOM      9  C   UNL     1     -21.285 -22.442 -45.433  1.00  0.00     0.064 C 
ATOM     10  O   UNL     1     -20.201 -22.863 -45.916  1.00  0.00    -0.545 OA
ATOM     11  O   UNL     1     -22.476 -22.740 -46.082  1.00  0.00    -0.545 OA
ENDBRANCH   8   9
ENDBRANCH   1   7
BRANCH   4  12
ATOM     12  O   UNL     1     -23.371 -25.612 -39.957  1.00  0.00    -0.504 OA
ATOM     13  H   UNL     1     -22.964 -25.128 -39.170  1.00  0.00     0.293 HD
ENDBRANCH   4  12
BRANCH   6  14
ATOM     14  O   UNL     1     -24.125 -27.299 -42.224  1.00  0.00    -0.504 OA
ATOM     15  H   UNL     1     -24.943 -27.505 -41.670  1.00  0.00     0.293 HD
ENDBRANCH   6  14
TORSDOF 4
ENDMDL
MODEL 8
REMARK VINA RESULT:    -2.580      1.240      4.943
REMARK INTER + INTRA:          -2.404
REMARK INTER:                  -2.188
REMARK INTRA:                  -0.216
REMARK UNBOUND:                 0.628
REMARK SMILES O=C([O-])C=Cc1ccc(O)c(O)c1
REMARK SMILES IDX 6 1 13 2 7 3 11 4 8 5 9 6 5 7 4 8 2 9 1 10 3 11 12 12 10 14
REMARK H PARENT 12 13 10 15
REMARK Flexibility Score: inf
ROOT
ATOM      1  C   UNL     1     -21.603 -22.635 -44.113  1.00  0.00    -0.022 A 
ATOM      2  C   UNL     1     -20.249 -22.981 -44.209  1.00  0.00     0.058 A 
ATOM      3  C   UNL     1     -22.290 -22.224 -45.265  1.00  0.00     0.012 A 
ATOM      4  C   UNL     1     -19.591 -22.973 -45.446  1.00  0.00     0.157 A 
ATOM      5  C   UNL     1     -21.645 -22.214 -46.503  1.00  0.00     0.051 A 
ATOM      6  C   UNL     1     -20.301 -22.590 -46.610  1.00  0.00     0.157 A 
ENDROOT
BRANCH   1   7
ATOM      7  C   UNL     1     -22.250 -22.602 -42.784  1.00  0.00     0.010 C 
ATOM      8  C   UNL     1     -22.953 -23.607 -42.237  1.00  0.00     0.025 C 
BRANCH   8   9
ATOM      9  C   UNL     1     -23.060 -24.977 -42.773  1.00  0.00     0.064 C 
ATOM     10  O   UNL     1     -22.586 -25.966 -42.155  1.00  0.00    -0.545 OA
ATOM     11  O   UNL     1     -23.761 -25.189 -43.953  1.00  0.00    -0.545 OA
ENDBRANCH   8   9
ENDBRANCH   1   7
BRANCH   4  12
ATOM     12  O   UNL     1     -18.246 -23.347 -45.472  1.00  0.00    -0.504 OA
ATOM     13  H   UNL     1     -17.683 -23.373 -46.309  1.00  0.00     0.293 HD
ENDBRANCH   4  12
BRANCH   6  14
ATOM     14  O   UNL     1     -19.715 -22.566 -47.877  1.00  0.00    -0.504 OA
ATOM     15  H   UNL     1     -19.516 -21.720 -48.391  1.00  0.00     0.293 HD
ENDBRANCH   6  14
TORSDOF 4
ENDMDL
MODEL 9
REMARK VINA RESULT:    -2.536      1.817      2.550
REMARK INTER + INTRA:          -2.353
REMARK INTER:                  -2.720
REMARK INTRA:                   0.368
REMARK UNBOUND:                 0.628
REMARK SMILES O=C([O-])C=Cc1ccc(O)c(O)c1
REMARK SMILES IDX 6 1 13 2 7 3 11 4 8 5 9 6 5 7 4 8 2 9 1 10 3 11 12 12 10 14
REMARK H PARENT 12 13 10 15
REMARK Flexibility Score: inf
ROOT
ATOM      1  C   UNL     1     -22.950 -24.723 -44.219  1.00  0.00    -0.022 A 
ATOM      2  C   UNL     1     -23.048 -23.518 -43.512  1.00  0.00     0.058 A 
ATOM      3  C   UNL     1     -23.029 -25.937 -43.521  1.00  0.00     0.012 A 
ATOM      4  C   UNL     1     -23.276 -23.512 -42.129  1.00  0.00     0.157 A 
ATOM      5  C   UNL     1     -23.257 -25.943 -42.143  1.00  0.00     0.051 A 
ATOM      6  C   UNL     1     -23.388 -24.742 -41.437  1.00  0.00     0.157 A 
ENDROOT
BRANCH   1   7
ATOM      7  C   UNL     1     -22.655 -24.691 -45.667  1.00  0.00     0.010 C 
ATOM      8  C   UNL     1     -21.891 -23.777 -46.285  1.00  0.00     0.025 C 
BRANCH   8   9
ATOM      9  C   UNL     1     -21.065 -22.750 -45.619  1.00  0.00     0.064 C 
ATOM     10  O   UNL     1     -19.928 -23.021 -45.151  1.00  0.00    -0.545 OA
ATOM     11  O   UNL     1     -21.524 -21.441 -45.569  1.00  0.00    -0.545 OA
ENDBRANCH   8   9
ENDBRANCH   1   7
BRANCH   4  12
ATOM     12  O   UNL     1     -23.381 -22.275 -41.491  1.00  0.00    -0.504 OA
ATOM     13  H   UNL     1     -23.432 -21.391 -41.977  1.00  0.00     0.293 HD
ENDBRANCH   4  12
BRANCH   6  14
ATOM     14  O   UNL     1     -23.623 -24.815 -40.062  1.00  0.00    -0.504 OA
ATOM     15  H   UNL     1     -23.722 -24.009 -39.463  1.00  0.00     0.293 HD
ENDBRANCH   6  14
TORSDOF 4
ENDMDL
