MODEL 1
REMARK VINA RESULT:    -1.629      0.000      0.000
REMARK INTER + INTRA:          -1.798
REMARK INTER:                  -1.772
REMARK INTRA:                  -0.026
REMARK UNBOUND:                -0.026
REMARK SMILES C[C@@H]1[C@H](C)CC[C@]2(C(=O)[O-])CC[C@]3(C)C(=CC[C@H]4[C@]5(C)CC[C@@H](O)C(C)(C)[C@@H]5CC[C@]43C)[C@H]12
REMARK SMILES IDX 7 1 6 2 11 3 33 4 5 5 12 6 15 7 2 8 3 9 13 10 16 11 1 12
REMARK SMILES IDX 4 13 14 14 31 15 17 16 18 17 30 18 32 19 19 20 29 21 28 22
REMARK SMILES IDX 21 23 20 24 25 25 22 26 23 27 26 28 27 29 8 30 9 31 10 32
REMARK SMILES IDX 24 33
REMARK H PARENT 24 34
REMARK Flexibility Score: inf
ROOT
ATOM      1  C   UNL     1      75.085  40.949  19.973  1.00  0.00     0.017 C 
ATOM      2  C   UNL     1      76.548  41.427  19.923  1.00  0.00     0.014 C 
ATOM      3  C   UNL     1      74.077  42.082  19.743  1.00  0.00     0.014 C 
ATOM      4  C   UNL     1      74.756  40.206  21.300  1.00  0.00     0.030 C 
ATOM      5  C   UNL     1      77.021  42.125  21.214  1.00  0.00     0.004 C 
ATOM      6  C   UNL     1      72.595  41.692  19.808  1.00  0.00     0.013 C 
ATOM      7  C   UNL     1      73.272  39.694  21.236  1.00  0.00    -0.063 C 
ATOM      8  C   UNL     1      75.380  40.836  22.627  1.00  0.00    -0.003 C 
ATOM      9  C   UNL     1      76.890  41.108  22.369  1.00  0.00    -0.011 C 
ATOM     10  C   UNL     1      72.128  40.678  20.943  1.00  0.00    -0.006 C 
ATOM     11  C   UNL     1      73.105  38.390  20.899  1.00  0.00    -0.027 C 
ATOM     12  C   UNL     1      74.703  42.109  23.243  1.00  0.00     0.008 C 
ATOM     13  C   UNL     1      77.659  41.566  23.637  1.00  0.00     0.008 C 
ATOM     14  C   UNL     1      71.876  41.477  22.233  1.00  0.00     0.017 C 
ATOM     15  C   UNL     1      70.767  39.968  20.506  1.00  0.00    -0.020 C 
ATOM     16  C   UNL     1      72.178  37.928  19.798  1.00  0.00     0.032 C 
ATOM     17  C   UNL     1      71.020  38.889  19.373  1.00  0.00     0.006 C 
ATOM     18  C   UNL     1      70.104  39.210  21.709  1.00  0.00     0.008 C 
ATOM     19  C   UNL     1      69.834  41.156  20.020  1.00  0.00     0.012 C 
ATOM     20  C   UNL     1      69.731  38.029  18.925  1.00  0.00    -0.025 C 
ATOM     21  C   UNL     1      68.827  38.479  21.285  1.00  0.00     0.005 C 
ATOM     22  C   UNL     1      69.007  37.391  20.191  1.00  0.00     0.003 C 
ATOM     23  C   UNL     1      68.709  38.889  18.091  1.00  0.00     0.010 C 
ATOM     24  C   UNL     1      70.306  36.941  17.961  1.00  0.00     0.012 C 
ATOM     25  C   UNL     1      67.637  36.660  19.850  1.00  0.00    -0.006 C 
ATOM     26  C   UNL     1      67.326  38.280  17.877  1.00  0.00     0.033 C 
ATOM     27  C   UNL     1      66.667  37.688  19.132  1.00  0.00     0.120 C 
ATOM     28  C   UNL     1      66.926  36.161  21.146  1.00  0.00     0.014 C 
ATOM     29  C   UNL     1      67.786  35.424  18.950  1.00  0.00     0.014 C 
ENDROOT
BRANCH   1  30
ATOM     30  C   UNL     1      74.960  39.939  18.817  1.00  0.00     0.048 C 
ATOM     31  O   UNL     1      74.100  40.059  17.875  1.00  0.00    -0.550 OA
ATOM     32  O   UNL     1      75.877  38.877  18.707  1.00  0.00    -0.550 OA
ENDBRANCH   1  30
BRANCH  27  33
ATOM     33  O   UNL     1      65.452  37.086  18.766  1.00  0.00    -0.393 OA
ATOM     34  H   UNL     1      64.961  37.789  18.255  1.00  0.00     0.210 HD
ENDBRANCH  27  33
TORSDOF 2
ENDMDL
MODEL 2
REMARK VINA RESULT:     0.453      1.810      3.571
REMARK INTER + INTRA:           0.467
REMARK INTER:                  -2.356
REMARK INTRA:                   2.823
REMARK UNBOUND:                -0.026
REMARK SMILES C[C@@H]1[C@H](C)CC[C@]2(C(=O)[O-])CC[C@]3(C)C(=CC[C@H]4[C@]5(C)CC[C@@H](O)C(C)(C)[C@@H]5CC[C@]43C)[C@H]12
REMARK SMILES IDX 7 1 6 2 11 3 33 4 5 5 12 6 15 7 2 8 3 9 13 10 16 11 1 12
REMARK SMILES IDX 4 13 14 14 31 15 17 16 18 17 30 18 32 19 19 20 29 21 28 22
REMARK SMILES IDX 21 23 20 24 25 25 22 26 23 27 26 28 27 29 8 30 9 31 10 32
REMARK SMILES IDX 24 33
REMARK H PARENT 24 34
REMARK Flexibility Score: inf
ROOT
ATOM      1  C   UNL     1      74.947  41.028  21.087  1.00  0.00     0.017 C 
ATOM      2  C   UNL     1      76.297  41.685  21.425  1.00  0.00     0.014 C 
ATOM      3  C   UNL     1      74.908  39.533  21.427  1.00  0.00     0.014 C 
ATOM      4  C   UNL     1      74.545  41.245  19.600  1.00  0.00     0.030 C 
ATOM      5  C   UNL     1      77.403  41.409  20.387  1.00  0.00     0.004 C 
ATOM      6  C   UNL     1      73.605  38.796  21.091  1.00  0.00     0.013 C 
ATOM      7  C   UNL     1      73.129  40.606  19.361  1.00  0.00    -0.063 C 
ATOM      8  C   UNL     1      75.723  41.118  18.531  1.00  0.00    -0.003 C 
ATOM      9  C   UNL     1      76.924  41.973  19.032  1.00  0.00    -0.011 C 
ATOM     10  C   UNL     1      72.880  39.130  19.713  1.00  0.00    -0.006 C 
ATOM     11  C   UNL     1      72.077  41.462  19.384  1.00  0.00    -0.027 C 
ATOM     12  C   UNL     1      76.217  39.686  18.125  1.00  0.00     0.008 C 
ATOM     13  C   UNL     1      78.080  42.075  18.002  1.00  0.00     0.008 C 
ATOM     14  C   UNL     1      73.532  38.284  18.606  1.00  0.00     0.017 C 
ATOM     15  C   UNL     1      71.334  38.746  19.809  1.00  0.00    -0.020 C 
ATOM     16  C   UNL     1      70.844  41.242  20.231  1.00  0.00     0.032 C 
ATOM     17  C   UNL     1      70.538  39.784  20.704  1.00  0.00     0.006 C 
ATOM     18  C   UNL     1      70.653  38.754  18.396  1.00  0.00     0.008 C 
ATOM     19  C   UNL     1      71.323  37.281  20.419  1.00  0.00     0.012 C 
ATOM     20  C   UNL     1      68.944  39.559  20.786  1.00  0.00    -0.025 C 
ATOM     21  C   UNL     1      69.156  38.442  18.486  1.00  0.00     0.005 C 
ATOM     22  C   UNL     1      68.311  39.434  19.331  1.00  0.00     0.003 C 
ATOM     23  C   UNL     1      68.570  38.296  21.651  1.00  0.00     0.010 C 
ATOM     24  C   UNL     1      68.414  40.811  21.557  1.00  0.00     0.012 C 
ATOM     25  C   UNL     1      66.768  39.051  19.328  1.00  0.00    -0.006 C 
ATOM     26  C   UNL     1      67.128  37.807  21.550  1.00  0.00     0.033 C 
ATOM     27  C   UNL     1      66.571  37.693  20.123  1.00  0.00     0.120 C 
ATOM     28  C   UNL     1      66.244  38.832  17.875  1.00  0.00     0.014 C 
ATOM     29  C   UNL     1      65.852  40.116  19.950  1.00  0.00     0.014 C 
ENDROOT
BRANCH   1  30
ATOM     30  C   UNL     1      73.920  41.759  21.971  1.00  0.00     0.048 C 
ATOM     31  O   UNL     1      72.768  42.125  21.545  1.00  0.00    -0.550 OA
ATOM     32  O   UNL     1      74.187  41.967  23.337  1.00  0.00    -0.550 OA
ENDBRANCH   1  30
BRANCH  27  33
ATOM     33  O   UNL     1      65.217  37.326  20.192  1.00  0.00    -0.393 OA
ATOM     34  H   UNL     1      65.077  37.042  21.138  1.00  0.00     0.210 HD
ENDBRANCH  27  33
TORSDOF 2
ENDMDL
