MODEL 1
REMARK VINA RESULT:    62.678      0.000      0.000
REMARK INTER + INTRA:          89.293
REMARK INTER:                  90.159
REMARK INTRA:                  -0.865
REMARK UNBOUND:                -0.865
REMARK SMILES O=c1cc(-c2ccc(O)c(O)c2)oc2cc(O[C@@H]3O[C@H](CO)[C@H](O)[C@H](O)[C@H]3O)cc(O)c12
REMARK SMILES IDX 17 1 16 2 4 3 3 4 13 5 2 6 14 7 1 8 32 9 15 10 30 11 29 12
REMARK SMILES IDX 5 13 6 14 7 15 8 16 12 17 10 18 9 19 11 21 31 23 18 25 27 26
REMARK SMILES IDX 19 27 25 28 20 29 23 30 28 31 26 33 21 35 22 36 24 38
REMARK H PARENT 9 20 11 22 31 24 28 32 26 34 22 37 24 39
REMARK Flexibility Score: inf
ROOT
ATOM      1  O   UNL     1      10.538  96.363  -1.274  1.00  0.00    -0.462 OA
ENDROOT
BRANCH   1   2
ATOM      2  C   UNL     1       9.595  95.878  -0.352  1.00  0.00     0.130 A 
ATOM      3  C   UNL     1       8.315  92.340   2.583  1.00  0.00     0.138 A 
ATOM      4  C   UNL     1       7.322  93.126   3.187  1.00  0.00     0.100 A 
ATOM      5  O   UNL     1       9.047  92.871   1.614  1.00  0.00    -0.456 OA
ATOM      6  C   UNL     1       7.090  94.431   2.737  1.00  0.00     0.197 A 
ATOM      7  C   UNL     1       8.886  94.118   1.171  1.00  0.00     0.146 A 
ATOM      8  O   UNL     1       6.170  95.088   3.276  1.00  0.00    -0.289 OA
ATOM      9  C   UNL     1       7.868  94.962   1.695  1.00  0.00     0.107 A 
ATOM     10  C   UNL     1       9.744  94.595   0.170  1.00  0.00     0.094 A 
ATOM     11  C   UNL     1       7.719  96.274   1.156  1.00  0.00     0.134 A 
ATOM     12  C   UNL     1       8.550  96.692   0.105  1.00  0.00     0.093 A 
BRANCH   3  13
ATOM     13  C   UNL     1       8.549  90.910   2.957  1.00  0.00     0.021 A 
ATOM     14  C   UNL     1       9.845  90.346   3.032  1.00  0.00     0.016 A 
ATOM     15  C   UNL     1      10.032  89.038   3.481  1.00  0.00     0.051 A 
ATOM     16  C   UNL     1       8.934  88.259   3.866  1.00  0.00     0.157 A 
ATOM     17  C   UNL     1       7.450  90.098   3.296  1.00  0.00     0.062 A 
ATOM     18  C   UNL     1       7.633  88.784   3.758  1.00  0.00     0.158 A 
BRANCH  16  19
ATOM     19  O   UNL     1       9.130  86.962   4.345  1.00  0.00    -0.504 OA
ATOM     20  H   UNL     1       9.145  86.762   5.339  1.00  0.00     0.293 HD
ENDBRANCH  16  19
BRANCH  18  21
ATOM     21  O   UNL     1       6.520  88.027   4.123  1.00  0.00    -0.504 OA
ATOM     22  H   UNL     1       6.067  87.387   3.478  1.00  0.00     0.293 HD
ENDBRANCH  18  21
ENDBRANCH   3  13
BRANCH  11  23
ATOM     23  O   UNL     1       6.811  97.222   1.641  1.00  0.00    -0.507 OA
ATOM     24  H   UNL     1       6.712  97.451   2.616  1.00  0.00     0.293 HD
ENDBRANCH  11  23
ENDBRANCH   1   2
BRANCH   1  25
ATOM     25  C   UNL     1      11.804  96.941  -0.954  1.00  0.00     0.339 C 
ATOM     26  C   UNL     1      12.868  96.341  -1.926  1.00  0.00     0.214 C 
ATOM     27  O   UNL     1      11.640  98.351  -1.079  1.00  0.00    -0.332 OA
ATOM     28  C   UNL     1      14.039  97.324  -2.324  1.00  0.00     0.180 C 
ATOM     29  C   UNL     1      12.869  99.027  -0.989  1.00  0.00     0.179 C 
ATOM     30  C   UNL     1      13.607  98.808  -2.334  1.00  0.00     0.177 C 
BRANCH  26  31
ATOM     31  O   UNL     1      13.405  95.171  -1.335  1.00  0.00    -0.384 OA
ATOM     32  H   UNL     1      14.121  95.469  -0.702  1.00  0.00     0.211 HD
ENDBRANCH  26  31
BRANCH  28  33
ATOM     33  O   UNL     1      14.620  96.978  -3.566  1.00  0.00    -0.387 OA
ATOM     34  H   UNL     1      14.353  96.046  -3.786  1.00  0.00     0.211 HD
ENDBRANCH  28  33
BRANCH  29  35
ATOM     35  C   UNL     1      12.580 100.509  -0.676  1.00  0.00     0.191 C 
BRANCH  35  36
ATOM     36  O   UNL     1      13.526 101.361  -1.282  1.00  0.00    -0.394 OA
ATOM     37  H   UNL     1      13.008 101.935  -1.903  1.00  0.00     0.210 HD
ENDBRANCH  35  36
ENDBRANCH  29  35
BRANCH  30  38
ATOM     38  O   UNL     1      12.733  99.026  -3.421  1.00  0.00    -0.387 OA
ATOM     39  H   UNL     1      12.897  98.291  -4.061  1.00  0.00     0.211 HD
ENDBRANCH  30  38
ENDBRANCH   1  25
TORSDOF 11
ENDMDL
MODEL 2
REMARK VINA RESULT:    65.032      1.260      1.939
REMARK INTER + INTRA:          92.680
REMARK INTER:                  93.422
REMARK INTRA:                  -0.742
REMARK UNBOUND:                -0.865
REMARK SMILES O=c1cc(-c2ccc(O)c(O)c2)oc2cc(O[C@@H]3O[C@H](CO)[C@H](O)[C@H](O)[C@H]3O)cc(O)c12
REMARK SMILES IDX 17 1 16 2 4 3 3 4 13 5 2 6 14 7 1 8 32 9 15 10 30 11 29 12
REMARK SMILES IDX 5 13 6 14 7 15 8 16 12 17 10 18 9 19 11 21 31 23 18 25 27 26
REMARK SMILES IDX 19 27 25 28 20 29 23 30 28 31 26 33 21 35 22 36 24 38
REMARK H PARENT 9 20 11 22 31 24 28 32 26 34 22 37 24 39
REMARK Flexibility Score: inf
ROOT
ATOM      1  O   UNL     1      11.144  96.108  -1.791  1.00  0.00    -0.462 OA
ENDROOT
BRANCH   1   2
ATOM      2  C   UNL     1      10.138  95.745  -0.880  1.00  0.00     0.130 A 
ATOM      3  C   UNL     1       8.534  92.504   2.234  1.00  0.00     0.138 A 
ATOM      4  C   UNL     1       7.567  93.387   2.739  1.00  0.00     0.100 A 
ATOM      5  O   UNL     1       9.335  92.923   1.263  1.00  0.00    -0.456 OA
ATOM      6  C   UNL     1       7.431  94.667   2.190  1.00  0.00     0.197 A 
ATOM      7  C   UNL     1       9.266  94.141   0.728  1.00  0.00     0.146 A 
ATOM      8  O   UNL     1       6.532  95.412   2.641  1.00  0.00    -0.289 OA
ATOM      9  C   UNL     1       8.280  95.077   1.148  1.00  0.00     0.107 A 
ATOM     10  C   UNL     1      10.189  94.497  -0.265  1.00  0.00     0.094 A 
ATOM     11  C   UNL     1       8.232  96.354   0.514  1.00  0.00     0.134 A 
ATOM     12  C   UNL     1       9.126  96.648  -0.526  1.00  0.00     0.093 A 
BRANCH   3  13
ATOM     13  C   UNL     1       8.668  91.094   2.716  1.00  0.00     0.021 A 
ATOM     14  C   UNL     1       9.924  90.463   2.881  1.00  0.00     0.016 A 
ATOM     15  C   UNL     1      10.015  89.182   3.428  1.00  0.00     0.051 A 
ATOM     16  C   UNL     1       8.858  88.497   3.821  1.00  0.00     0.157 A 
ATOM     17  C   UNL     1       7.510  90.373   3.066  1.00  0.00     0.062 A 
ATOM     18  C   UNL     1       7.597  89.088   3.625  1.00  0.00     0.158 A 
BRANCH  16  19
ATOM     19  O   UNL     1       8.959  87.229   4.397  1.00  0.00    -0.504 OA
ATOM     20  H   UNL     1       9.503  86.492   3.961  1.00  0.00     0.293 HD
ENDBRANCH  16  19
BRANCH  18  21
ATOM     21  O   UNL     1       6.427  88.424   3.998  1.00  0.00    -0.504 OA
ATOM     22  H   UNL     1       5.547  88.914   4.125  1.00  0.00     0.293 HD
ENDBRANCH  18  21
ENDBRANCH   3  13
BRANCH  11  23
ATOM     23  O   UNL     1       7.363  97.384   0.892  1.00  0.00    -0.507 OA
ATOM     24  H   UNL     1       7.399  97.843   1.786  1.00  0.00     0.293 HD
ENDBRANCH  11  23
ENDBRANCH   1   2
BRANCH   1  25
ATOM     25  C   UNL     1      12.369  96.768  -1.470  1.00  0.00     0.339 C 
ATOM     26  C   UNL     1      12.489  98.033  -2.377  1.00  0.00     0.214 C 
ATOM     27  O   UNL     1      12.310  97.062  -0.077  1.00  0.00    -0.332 OA
ATOM     28  C   UNL     1      13.221  99.265  -1.712  1.00  0.00     0.180 C 
ATOM     29  C   UNL     1      13.369  97.894   0.325  1.00  0.00     0.179 C 
ATOM     30  C   UNL     1      13.040  99.322  -0.178  1.00  0.00     0.177 C 
BRANCH  26  31
ATOM     31  O   UNL     1      13.156  97.666  -3.571  1.00  0.00    -0.384 OA
ATOM     32  H   UNL     1      12.597  98.002  -4.331  1.00  0.00     0.211 HD
ENDBRANCH  26  31
BRANCH  28  33
ATOM     33  O   UNL     1      12.826 100.491  -2.295  1.00  0.00    -0.387 OA
ATOM     34  H   UNL     1      12.338 101.020  -1.609  1.00  0.00     0.211 HD
ENDBRANCH  28  33
BRANCH  29  35
ATOM     35  C   UNL     1      13.503  97.794   1.858  1.00  0.00     0.191 C 
BRANCH  35  36
ATOM     36  O   UNL     1      12.756  96.717   2.375  1.00  0.00    -0.394 OA
ATOM     37  H   UNL     1      11.917  97.117   2.722  1.00  0.00     0.210 HD
ENDBRANCH  35  36
ENDBRANCH  29  35
BRANCH  30  38
ATOM     38  O   UNL     1      11.699  99.655   0.114  1.00  0.00    -0.387 OA
ATOM     39  H   UNL     1      11.729 100.284   0.876  1.00  0.00     0.211 HD
ENDBRANCH  30  38
ENDBRANCH   1  25
TORSDOF 11
ENDMDL
