MODEL 1
REMARK VINA RESULT:    -3.008      0.000      0.000
REMARK INTER + INTRA:          -7.697
REMARK INTER:                  -6.525
REMARK INTRA:                  -1.172
REMARK UNBOUND:                -1.172
REMARK SMILES CCCCCCCCCCCCCCCCCCCCCC(=O)[O-]
REMARK SMILES IDX 12 1 11 2 10 3 9 4 8 5 7 6 6 7 5 8 4 9 3 10 2 11 1 12 13 13
REMARK SMILES IDX 14 14 15 15 16 16 17 17 18 18 19 19 20 20 21 21 22 22 23 23
REMARK SMILES IDX 24 24
REMARK H PARENT
REMARK Flexibility Score: inf
ROOT
ATOM      1  C   UNL     1      26.756  38.646  30.647  1.00  0.00     0.000 C 
ENDROOT
BRANCH   1   2
ATOM      2  C   UNL     1      26.555  37.488  31.649  1.00  0.00     0.000 C 
BRANCH   2   3
ATOM      3  C   UNL     1      25.527  37.824  32.745  1.00  0.00     0.000 C 
BRANCH   3   4
ATOM      4  C   UNL     1      25.707  36.944  33.999  1.00  0.00    -0.000 C 
BRANCH   4   5
ATOM      5  C   UNL     1      25.675  37.734  35.319  1.00  0.00    -0.000 C 
BRANCH   5   6
ATOM      6  C   UNL     1      26.283  36.955  36.497  1.00  0.00    -0.000 C 
BRANCH   6   7
ATOM      7  C   UNL     1      26.589  37.858  37.711  1.00  0.00    -0.000 C 
BRANCH   7   8
ATOM      8  C   UNL     1      27.823  37.418  38.523  1.00  0.00    -0.000 C 
BRANCH   8   9
ATOM      9  C   UNL     1      29.164  37.485  37.768  1.00  0.00    -0.000 C 
BRANCH   9  10
ATOM     10  C   UNL     1      29.800  38.887  37.696  1.00  0.00    -0.000 C 
BRANCH  10  11
ATOM     11  C   UNL     1      31.282  38.876  37.266  1.00  0.00    -0.003 C 
ATOM     12  C   UNL     1      31.492  38.244  35.889  1.00  0.00     0.004 C 
ENDBRANCH  10  11
ENDBRANCH   9  10
ENDBRANCH   8   9
ENDBRANCH   7   8
ENDBRANCH   6   7
ENDBRANCH   5   6
ENDBRANCH   4   5
ENDBRANCH   3   4
ENDBRANCH   2   3
ENDBRANCH   1   2
BRANCH   1  13
ATOM     13  C   UNL     1      25.534  38.897  29.742  1.00  0.00     0.000 C 
BRANCH  13  14
ATOM     14  C   UNL     1      25.139  37.708  28.847  1.00  0.00     0.000 C 
BRANCH  14  15
ATOM     15  C   UNL     1      25.090  38.011  27.335  1.00  0.00     0.000 C 
BRANCH  15  16
ATOM     16  C   UNL     1      26.313  37.536  26.530  1.00  0.00     0.000 C 
BRANCH  16  17
ATOM     17  C   UNL     1      27.095  38.699  25.895  1.00  0.00     0.000 C 
BRANCH  17  18
ATOM     18  C   UNL     1      26.240  39.966  25.712  1.00  0.00     0.000 C 
BRANCH  18  19
ATOM     19  C   UNL     1      26.628  41.161  26.607  1.00  0.00     0.000 C 
BRANCH  19  20
ATOM     20  C   UNL     1      27.139  42.404  25.854  1.00  0.00     0.006 C 
BRANCH  20  21
ATOM     21  C   UNL     1      28.163  43.210  26.664  1.00  0.00     0.053 C 
BRANCH  21  22
ATOM     22  C   UNL     1      29.544  42.959  26.149  1.00  0.00     0.041 C 
ATOM     23  O   UNL     1      30.084  41.832  26.309  1.00  0.00    -0.550 OA
ATOM     24  O   UNL     1      30.256  43.985  25.540  1.00  0.00    -0.550 OA
ENDBRANCH  21  22
ENDBRANCH  20  21
ENDBRANCH  19  20
ENDBRANCH  18  19
ENDBRANCH  17  18
ENDBRANCH  16  17
ENDBRANCH  15  16
ENDBRANCH  14  15
ENDBRANCH  13  14
ENDBRANCH   1  13
TORSDOF 20
ENDMDL
MODEL 2
REMARK VINA RESULT:    -2.743     10.858     15.115
REMARK INTER + INTRA:          -7.122
REMARK INTER:                  -5.449
REMARK INTRA:                  -1.673
REMARK UNBOUND:                -1.172
REMARK SMILES CCCCCCCCCCCCCCCCCCCCCC(=O)[O-]
REMARK SMILES IDX 12 1 11 2 10 3 9 4 8 5 7 6 6 7 5 8 4 9 3 10 2 11 1 12 13 13
REMARK SMILES IDX 14 14 15 15 16 16 17 17 18 18 19 19 20 20 21 21 22 22 23 23
REMARK SMILES IDX 24 24
REMARK H PARENT
REMARK Flexibility Score: inf
ROOT
ATOM      1  C   UNL     1      29.495  47.366  41.500  1.00  0.00     0.000 C 
ENDROOT
BRANCH   1   2
ATOM      2  C   UNL     1      29.425  48.017  40.101  1.00  0.00     0.000 C 
BRANCH   2   3
ATOM      3  C   UNL     1      29.766  49.518  40.127  1.00  0.00     0.000 C 
BRANCH   3   4
ATOM      4  C   UNL     1      29.356  50.183  41.458  1.00  0.00    -0.000 C 
BRANCH   4   5
ATOM      5  C   UNL     1      28.077  51.030  41.357  1.00  0.00    -0.000 C 
BRANCH   5   6
ATOM      6  C   UNL     1      28.178  52.360  42.124  1.00  0.00    -0.000 C 
BRANCH   6   7
ATOM      7  C   UNL     1      29.309  53.267  41.593  1.00  0.00    -0.000 C 
BRANCH   7   8
ATOM      8  C   UNL     1      28.810  54.565  40.928  1.00  0.00    -0.000 C 
BRANCH   8   9
ATOM      9  C   UNL     1      28.718  54.522  39.392  1.00  0.00    -0.000 C 
BRANCH   9  10
ATOM     10  C   UNL     1      29.459  53.346  38.728  1.00  0.00    -0.000 C 
BRANCH  10  11
ATOM     11  C   UNL     1      28.535  52.392  37.942  1.00  0.00    -0.003 C 
ATOM     12  C   UNL     1      27.052  52.653  38.210  1.00  0.00     0.004 C 
ENDBRANCH  10  11
ENDBRANCH   9  10
ENDBRANCH   8   9
ENDBRANCH   7   8
ENDBRANCH   6   7
ENDBRANCH   5   6
ENDBRANCH   4   5
ENDBRANCH   3   4
ENDBRANCH   2   3
ENDBRANCH   1   2
BRANCH   1  13
ATOM     13  C   UNL     1      29.285  45.840  41.480  1.00  0.00     0.000 C 
BRANCH  13  14
ATOM     14  C   UNL     1      27.949  45.364  42.078  1.00  0.00     0.000 C 
BRANCH  14  15
ATOM     15  C   UNL     1      27.707  43.841  42.019  1.00  0.00     0.000 C 
BRANCH  15  16
ATOM     16  C   UNL     1      26.230  43.413  41.947  1.00  0.00     0.000 C 
BRANCH  16  17
ATOM     17  C   UNL     1      25.982  42.309  40.904  1.00  0.00     0.000 C 
BRANCH  17  18
ATOM     18  C   UNL     1      26.296  40.900  41.437  1.00  0.00     0.000 C 
BRANCH  18  19
ATOM     19  C   UNL     1      25.508  39.750  40.776  1.00  0.00     0.000 C 
BRANCH  19  20
ATOM     20  C   UNL     1      25.531  39.742  39.237  1.00  0.00     0.006 C 
BRANCH  20  21
ATOM     21  C   UNL     1      26.931  39.487  38.664  1.00  0.00     0.053 C 
BRANCH  21  22
ATOM     22  C   UNL     1      27.584  38.349  39.382  1.00  0.00     0.041 C 
ATOM     23  O   UNL     1      28.679  38.523  39.980  1.00  0.00    -0.550 OA
ATOM     24  O   UNL     1      27.011  37.084  39.344  1.00  0.00    -0.550 OA
ENDBRANCH  21  22
ENDBRANCH  20  21
ENDBRANCH  19  20
ENDBRANCH  18  19
ENDBRANCH  17  18
ENDBRANCH  16  17
ENDBRANCH  15  16
ENDBRANCH  14  15
ENDBRANCH  13  14
ENDBRANCH   1  13
TORSDOF 20
ENDMDL
MODEL 3
REMARK VINA RESULT:    -2.713     11.308     14.583
REMARK INTER + INTRA:          -7.057
REMARK INTER:                  -6.513
REMARK INTRA:                  -0.544
REMARK UNBOUND:                -1.172
REMARK SMILES CCCCCCCCCCCCCCCCCCCCCC(=O)[O-]
REMARK SMILES IDX 12 1 11 2 10 3 9 4 8 5 7 6 6 7 5 8 4 9 3 10 2 11 1 12 13 13
REMARK SMILES IDX 14 14 15 15 16 16 17 17 18 18 19 19 20 20 21 21 22 22 23 23
REMARK SMILES IDX 24 24
REMARK H PARENT
REMARK Flexibility Score: inf
ROOT
ATOM      1  C   UNL     1      29.209  48.064  40.258  1.00  0.00     0.000 C 
ENDROOT
BRANCH   1   2
ATOM      2  C   UNL     1      30.400  47.475  41.047  1.00  0.00     0.000 C 
BRANCH   2   3
ATOM      3  C   UNL     1      30.188  45.998  41.426  1.00  0.00     0.000 C 
BRANCH   3   4
ATOM      4  C   UNL     1      28.713  45.688  41.754  1.00  0.00    -0.000 C 
BRANCH   4   5
ATOM      5  C   UNL     1      28.456  44.215  42.113  1.00  0.00    -0.000 C 
BRANCH   5   6
ATOM      6  C   UNL     1      27.008  43.775  41.833  1.00  0.00    -0.000 C 
BRANCH   6   7
ATOM      7  C   UNL     1      26.929  42.390  41.158  1.00  0.00    -0.000 C 
BRANCH   7   8
ATOM      8  C   UNL     1      26.544  42.442  39.666  1.00  0.00    -0.000 C 
BRANCH   8   9
ATOM      9  C   UNL     1      25.206  41.769  39.309  1.00  0.00    -0.000 C 
BRANCH   9  10
ATOM     10  C   UNL     1      25.313  40.291  38.888  1.00  0.00    -0.000 C 
BRANCH  10  11
ATOM     11  C   UNL     1      26.721  39.690  39.077  1.00  0.00    -0.003 C 
ATOM     12  C   UNL     1      26.901  39.025  40.443  1.00  0.00     0.004 C 
ENDBRANCH  10  11
ENDBRANCH   9  10
ENDBRANCH   8   9
ENDBRANCH   7   8
ENDBRANCH   6   7
ENDBRANCH   5   6
ENDBRANCH   4   5
ENDBRANCH   3   4
ENDBRANCH   2   3
ENDBRANCH   1   2
BRANCH   1  13
ATOM     13  C   UNL     1      28.959  49.557  40.544  1.00  0.00     0.000 C 
BRANCH  13  14
ATOM     14  C   UNL     1      30.204  50.455  40.420  1.00  0.00     0.000 C 
BRANCH  14  15
ATOM     15  C   UNL     1      30.969  50.336  39.086  1.00  0.00     0.000 C 
BRANCH  15  16
ATOM     16  C   UNL     1      30.781  51.514  38.113  1.00  0.00     0.000 C 
BRANCH  16  17
ATOM     17  C   UNL     1      30.018  52.691  38.744  1.00  0.00     0.000 C 
BRANCH  17  18
ATOM     18  C   UNL     1      28.496  52.601  38.530  1.00  0.00     0.000 C 
BRANCH  18  19
ATOM     19  C   UNL     1      27.636  53.388  39.540  1.00  0.00     0.000 C 
BRANCH  19  20
ATOM     20  C   UNL     1      27.016  52.544  40.669  1.00  0.00     0.006 C 
BRANCH  20  21
ATOM     21  C   UNL     1      27.693  52.776  42.026  1.00  0.00     0.053 C 
BRANCH  21  22
ATOM     22  C   UNL     1      28.753  53.824  41.903  1.00  0.00     0.041 C 
ATOM     23  O   UNL     1      28.447  54.997  41.560  1.00  0.00    -0.550 OA
ATOM     24  O   UNL     1      30.086  53.493  42.114  1.00  0.00    -0.550 OA
ENDBRANCH  21  22
ENDBRANCH  20  21
ENDBRANCH  19  20
ENDBRANCH  18  19
ENDBRANCH  17  18
ENDBRANCH  16  17
ENDBRANCH  15  16
ENDBRANCH  14  15
ENDBRANCH  13  14
ENDBRANCH   1  13
TORSDOF 20
ENDMDL
MODEL 4
REMARK VINA RESULT:    -2.706      3.757     10.674
REMARK INTER + INTRA:          -7.042
REMARK INTER:                  -5.970
REMARK INTRA:                  -1.072
REMARK UNBOUND:                -1.172
REMARK SMILES CCCCCCCCCCCCCCCCCCCCCC(=O)[O-]
REMARK SMILES IDX 12 1 11 2 10 3 9 4 8 5 7 6 6 7 5 8 4 9 3 10 2 11 1 12 13 13
REMARK SMILES IDX 14 14 15 15 16 16 17 17 18 18 19 19 20 20 21 21 22 22 23 23
REMARK SMILES IDX 24 24
REMARK H PARENT
REMARK Flexibility Score: inf
ROOT
ATOM      1  C   UNL     1      26.806  37.827  31.186  1.00  0.00     0.000 C 
ENDROOT
BRANCH   1   2
ATOM      2  C   UNL     1      25.977  38.718  30.235  1.00  0.00     0.000 C 
BRANCH   2   3
ATOM      3  C   UNL     1      25.440  37.944  29.017  1.00  0.00     0.000 C 
BRANCH   3   4
ATOM      4  C   UNL     1      25.315  38.841  27.768  1.00  0.00    -0.000 C 
BRANCH   4   5
ATOM      5  C   UNL     1      26.340  38.515  26.668  1.00  0.00    -0.000 C 
BRANCH   5   6
ATOM      6  C   UNL     1      25.970  39.128  25.306  1.00  0.00    -0.000 C 
BRANCH   6   7
ATOM      7  C   UNL     1      25.315  40.519  25.439  1.00  0.00    -0.000 C 
BRANCH   7   8
ATOM      8  C   UNL     1      25.898  41.579  24.484  1.00  0.00    -0.000 C 
BRANCH   8   9
ATOM      9  C   UNL     1      26.694  42.708  25.164  1.00  0.00    -0.000 C 
BRANCH   9  10
ATOM     10  C   UNL     1      27.511  42.277  26.398  1.00  0.00    -0.000 C 
BRANCH  10  11
ATOM     11  C   UNL     1      28.694  43.213  26.719  1.00  0.00    -0.003 C 
ATOM     12  C   UNL     1      29.820  43.117  25.688  1.00  0.00     0.004 C 
ENDBRANCH  10  11
ENDBRANCH   9  10
ENDBRANCH   8   9
ENDBRANCH   7   8
ENDBRANCH   6   7
ENDBRANCH   5   6
ENDBRANCH   4   5
ENDBRANCH   3   4
ENDBRANCH   2   3
ENDBRANCH   1   2
BRANCH   1  13
ATOM     13  C   UNL     1      25.955  37.087  32.235  1.00  0.00     0.000 C 
BRANCH  13  14
ATOM     14  C   UNL     1      25.632  37.906  33.499  1.00  0.00     0.000 C 
BRANCH  14  15
ATOM     15  C   UNL     1      24.895  37.133  34.612  1.00  0.00     0.000 C 
BRANCH  15  16
ATOM     16  C   UNL     1      25.593  37.131  35.984  1.00  0.00     0.000 C 
BRANCH  16  17
ATOM     17  C   UNL     1      25.425  38.461  36.739  1.00  0.00     0.000 C 
BRANCH  17  18
ATOM     18  C   UNL     1      25.312  38.274  38.263  1.00  0.00     0.000 C 
BRANCH  18  19
ATOM     19  C   UNL     1      26.268  39.138  39.110  1.00  0.00     0.000 C 
BRANCH  19  20
ATOM     20  C   UNL     1      27.700  39.261  38.558  1.00  0.00     0.006 C 
BRANCH  20  21
ATOM     21  C   UNL     1      28.580  38.056  38.915  1.00  0.00     0.053 C 
BRANCH  21  22
ATOM     22  C   UNL     1      29.989  38.295  38.474  1.00  0.00     0.041 C 
ATOM     23  O   UNL     1      30.941  38.142  39.284  1.00  0.00    -0.550 OA
ATOM     24  O   UNL     1      30.246  38.738  37.182  1.00  0.00    -0.550 OA
ENDBRANCH  21  22
ENDBRANCH  20  21
ENDBRANCH  19  20
ENDBRANCH  18  19
ENDBRANCH  17  18
ENDBRANCH  16  17
ENDBRANCH  15  16
ENDBRANCH  14  15
ENDBRANCH  13  14
ENDBRANCH   1  13
TORSDOF 20
ENDMDL
MODEL 5
REMARK VINA RESULT:    -2.694      2.267      2.930
REMARK INTER + INTRA:          -7.016
REMARK INTER:                  -6.201
REMARK INTRA:                  -0.816
REMARK UNBOUND:                -1.172
REMARK SMILES CCCCCCCCCCCCCCCCCCCCCC(=O)[O-]
REMARK SMILES IDX 12 1 11 2 10 3 9 4 8 5 7 6 6 7 5 8 4 9 3 10 2 11 1 12 13 13
REMARK SMILES IDX 14 14 15 15 16 16 17 17 18 18 19 19 20 20 21 21 22 22 23 23
REMARK SMILES IDX 24 24
REMARK H PARENT
REMARK Flexibility Score: inf
ROOT
ATOM      1  C   UNL     1      26.719  38.353  30.979  1.00  0.00     0.000 C 
ENDROOT
BRANCH   1   2
ATOM      2  C   UNL     1      26.262  37.083  31.731  1.00  0.00     0.000 C 
BRANCH   2   3
ATOM      3  C   UNL     1      25.259  37.390  32.858  1.00  0.00     0.000 C 
BRANCH   3   4
ATOM      4  C   UNL     1      25.813  37.014  34.248  1.00  0.00    -0.000 C 
BRANCH   4   5
ATOM      5  C   UNL     1      25.002  37.598  35.416  1.00  0.00    -0.000 C 
BRANCH   5   6
ATOM      6  C   UNL     1      25.862  37.880  36.660  1.00  0.00    -0.000 C 
BRANCH   6   7
ATOM      7  C   UNL     1      25.304  39.034  37.519  1.00  0.00    -0.000 C 
BRANCH   7   8
ATOM      8  C   UNL     1      25.741  38.983  38.996  1.00  0.00    -0.000 C 
BRANCH   8   9
ATOM      9  C   UNL     1      24.892  39.832  39.961  1.00  0.00    -0.000 C 
BRANCH   9  10
ATOM     10  C   UNL     1      24.924  41.349  39.693  1.00  0.00    -0.000 C 
BRANCH  10  11
ATOM     11  C   UNL     1      26.348  41.927  39.557  1.00  0.00    -0.003 C 
ATOM     12  C   UNL     1      26.702  42.898  40.684  1.00  0.00     0.004 C 
ENDBRANCH  10  11
ENDBRANCH   9  10
ENDBRANCH   8   9
ENDBRANCH   7   8
ENDBRANCH   6   7
ENDBRANCH   5   6
ENDBRANCH   4   5
ENDBRANCH   3   4
ENDBRANCH   2   3
ENDBRANCH   1   2
BRANCH   1  13
ATOM     13  C   UNL     1      25.574  39.082  30.249  1.00  0.00     0.000 C 
BRANCH  13  14
ATOM     14  C   UNL     1      25.176  38.465  28.896  1.00  0.00     0.000 C 
BRANCH  14  15
ATOM     15  C   UNL     1      24.924  39.480  27.761  1.00  0.00     0.000 C 
BRANCH  15  16
ATOM     16  C   UNL     1      24.973  38.898  26.336  1.00  0.00     0.000 C 
BRANCH  16  17
ATOM     17  C   UNL     1      25.329  39.952  25.274  1.00  0.00     0.000 C 
BRANCH  17  18
ATOM     18  C   UNL     1      25.841  41.269  25.887  1.00  0.00     0.000 C 
BRANCH  18  19
ATOM     19  C   UNL     1      27.355  41.320  26.176  1.00  0.00     0.000 C 
BRANCH  19  20
ATOM     20  C   UNL     1      27.798  42.423  27.155  1.00  0.00     0.006 C 
BRANCH  20  21
ATOM     21  C   UNL     1      29.321  42.484  27.333  1.00  0.00     0.053 C 
BRANCH  21  22
ATOM     22  C   UNL     1      29.911  43.492  26.399  1.00  0.00     0.041 C 
ATOM     23  O   UNL     1      30.276  43.148  25.243  1.00  0.00    -0.550 OA
ATOM     24  O   UNL     1      30.107  44.801  26.823  1.00  0.00    -0.550 OA
ENDBRANCH  21  22
ENDBRANCH  20  21
ENDBRANCH  19  20
ENDBRANCH  18  19
ENDBRANCH  17  18
ENDBRANCH  16  17
ENDBRANCH  15  16
ENDBRANCH  14  15
ENDBRANCH  13  14
ENDBRANCH   1  13
TORSDOF 20
ENDMDL
MODEL 6
REMARK VINA RESULT:    -2.513      4.553     10.854
REMARK INTER + INTRA:          -6.623
REMARK INTER:                  -5.915
REMARK INTRA:                  -0.708
REMARK UNBOUND:                -1.172
REMARK SMILES CCCCCCCCCCCCCCCCCCCCCC(=O)[O-]
REMARK SMILES IDX 12 1 11 2 10 3 9 4 8 5 7 6 6 7 5 8 4 9 3 10 2 11 1 12 13 13
REMARK SMILES IDX 14 14 15 15 16 16 17 17 18 18 19 19 20 20 21 21 22 22 23 23
REMARK SMILES IDX 24 24
REMARK H PARENT
REMARK Flexibility Score: inf
ROOT
ATOM      1  C   UNL     1      26.629  38.444  30.993  1.00  0.00     0.000 C 
ENDROOT
BRANCH   1   2
ATOM      2  C   UNL     1      25.524  38.824  29.983  1.00  0.00     0.000 C 
BRANCH   2   3
ATOM      3  C   UNL     1      25.521  37.918  28.738  1.00  0.00     0.000 C 
BRANCH   3   4
ATOM      4  C   UNL     1      25.017  38.659  27.482  1.00  0.00    -0.000 C 
BRANCH   4   5
ATOM      5  C   UNL     1      25.209  37.866  26.178  1.00  0.00    -0.000 C 
BRANCH   5   6
ATOM      6  C   UNL     1      24.875  38.690  24.923  1.00  0.00    -0.000 C 
BRANCH   6   7
ATOM      7  C   UNL     1      24.910  40.211  25.184  1.00  0.00    -0.000 C 
BRANCH   7   8
ATOM      8  C   UNL     1      26.330  40.810  25.197  1.00  0.00    -0.000 C 
BRANCH   8   9
ATOM      9  C   UNL     1      26.398  42.333  25.415  1.00  0.00    -0.000 C 
BRANCH   9  10
ATOM     10  C   UNL     1      27.814  42.897  25.638  1.00  0.00    -0.000 C 
BRANCH  10  11
ATOM     11  C   UNL     1      28.354  42.677  27.066  1.00  0.00    -0.003 C 
ATOM     12  C   UNL     1      29.873  42.497  27.102  1.00  0.00     0.004 C 
ENDBRANCH  10  11
ENDBRANCH   9  10
ENDBRANCH   8   9
ENDBRANCH   7   8
ENDBRANCH   6   7
ENDBRANCH   5   6
ENDBRANCH   4   5
ENDBRANCH   3   4
ENDBRANCH   2   3
ENDBRANCH   1   2
BRANCH   1  13
ATOM     13  C   UNL     1      26.205  37.343  31.984  1.00  0.00     0.000 C 
BRANCH  13  14
ATOM     14  C   UNL     1      25.018  37.714  32.891  1.00  0.00     0.000 C 
BRANCH  14  15
ATOM     15  C   UNL     1      24.929  36.923  34.213  1.00  0.00     0.000 C 
BRANCH  15  16
ATOM     16  C   UNL     1      25.810  37.454  35.358  1.00  0.00     0.000 C 
BRANCH  16  17
ATOM     17  C   UNL     1      24.988  38.022  36.527  1.00  0.00     0.000 C 
BRANCH  17  18
ATOM     18  C   UNL     1      25.674  37.826  37.892  1.00  0.00     0.000 C 
BRANCH  18  19
ATOM     19  C   UNL     1      26.074  39.123  38.625  1.00  0.00     0.000 C 
BRANCH  19  20
ATOM     20  C   UNL     1      24.898  39.961  39.161  1.00  0.00     0.006 C 
BRANCH  20  21
ATOM     21  C   UNL     1      25.286  40.824  40.369  1.00  0.00     0.053 C 
BRANCH  21  22
ATOM     22  C   UNL     1      25.384  42.262  39.966  1.00  0.00     0.041 C 
ATOM     23  O   UNL     1      25.061  42.617  38.802  1.00  0.00    -0.550 OA
ATOM     24  O   UNL     1      25.883  43.200  40.861  1.00  0.00    -0.550 OA
ENDBRANCH  21  22
ENDBRANCH  20  21
ENDBRANCH  19  20
ENDBRANCH  18  19
ENDBRANCH  17  18
ENDBRANCH  16  17
ENDBRANCH  15  16
ENDBRANCH  14  15
ENDBRANCH  13  14
ENDBRANCH   1  13
TORSDOF 20
ENDMDL
MODEL 7
REMARK VINA RESULT:    -2.365      9.710     13.246
REMARK INTER + INTRA:          -6.302
REMARK INTER:                  -5.659
REMARK INTRA:                  -0.642
REMARK UNBOUND:                -1.172
REMARK SMILES CCCCCCCCCCCCCCCCCCCCCC(=O)[O-]
REMARK SMILES IDX 12 1 11 2 10 3 9 4 8 5 7 6 6 7 5 8 4 9 3 10 2 11 1 12 13 13
REMARK SMILES IDX 14 14 15 15 16 16 17 17 18 18 19 19 20 20 21 21 22 22 23 23
REMARK SMILES IDX 24 24
REMARK H PARENT
REMARK Flexibility Score: inf
ROOT
ATOM      1  C   UNL     1      28.121  43.529  42.110  1.00  0.00     0.000 C 
ENDROOT
BRANCH   1   2
ATOM      2  C   UNL     1      27.118  42.924  41.103  1.00  0.00     0.000 C 
BRANCH   2   3
ATOM      3  C   UNL     1      26.215  41.852  41.738  1.00  0.00     0.000 C 
BRANCH   3   4
ATOM      4  C   UNL     1      25.597  40.912  40.681  1.00  0.00    -0.000 C 
BRANCH   4   5
ATOM      5  C   UNL     1      26.193  39.495  40.690  1.00  0.00    -0.000 C 
BRANCH   5   6
ATOM      6  C   UNL     1      27.726  39.490  40.565  1.00  0.00    -0.000 C 
BRANCH   6   7
ATOM      7  C   UNL     1      28.223  38.629  39.385  1.00  0.00    -0.000 C 
BRANCH   7   8
ATOM      8  C   UNL     1      29.722  38.276  39.454  1.00  0.00    -0.000 C 
BRANCH   8   9
ATOM      9  C   UNL     1      30.474  38.341  38.113  1.00  0.00    -0.000 C 
BRANCH   9  10
ATOM     10  C   UNL     1      31.983  38.039  38.197  1.00  0.00    -0.000 C 
BRANCH  10  11
ATOM     11  C   UNL     1      32.780  38.498  36.959  1.00  0.00    -0.003 C 
ATOM     12  C   UNL     1      31.991  39.463  36.073  1.00  0.00     0.004 C 
ENDBRANCH  10  11
ENDBRANCH   9  10
ENDBRANCH   8   9
ENDBRANCH   7   8
ENDBRANCH   6   7
ENDBRANCH   5   6
ENDBRANCH   4   5
ENDBRANCH   3   4
ENDBRANCH   2   3
ENDBRANCH   1   2
BRANCH   1  13
ATOM     13  C   UNL     1      28.129  45.070  42.121  1.00  0.00     0.000 C 
BRANCH  13  14
ATOM     14  C   UNL     1      29.527  45.708  42.024  1.00  0.00     0.000 C 
BRANCH  14  15
ATOM     15  C   UNL     1      29.728  46.671  40.835  1.00  0.00     0.000 C 
BRANCH  15  16
ATOM     16  C   UNL     1      29.430  48.152  41.131  1.00  0.00     0.000 C 
BRANCH  16  17
ATOM     17  C   UNL     1      30.028  49.102  40.079  1.00  0.00     0.000 C 
BRANCH  17  18
ATOM     18  C   UNL     1      29.069  50.240  39.685  1.00  0.00     0.000 C 
BRANCH  18  19
ATOM     19  C   UNL     1      29.721  51.628  39.520  1.00  0.00     0.000 C 
BRANCH  19  20
ATOM     20  C   UNL     1      29.483  52.605  40.687  1.00  0.00     0.006 C 
BRANCH  20  21
ATOM     21  C   UNL     1      28.228  53.465  40.495  1.00  0.00     0.053 C 
BRANCH  21  22
ATOM     22  C   UNL     1      28.601  54.910  40.391  1.00  0.00     0.041 C 
ATOM     23  O   UNL     1      28.917  55.558  41.424  1.00  0.00    -0.550 OA
ATOM     24  O   UNL     1      28.547  55.554  39.161  1.00  0.00    -0.550 OA
ENDBRANCH  21  22
ENDBRANCH  20  21
ENDBRANCH  19  20
ENDBRANCH  18  19
ENDBRANCH  17  18
ENDBRANCH  16  17
ENDBRANCH  15  16
ENDBRANCH  14  15
ENDBRANCH  13  14
ENDBRANCH   1  13
TORSDOF 20
ENDMDL
MODEL 8
REMARK VINA RESULT:    -2.260      4.808     10.896
REMARK INTER + INTRA:          -6.074
REMARK INTER:                  -5.129
REMARK INTRA:                  -0.945
REMARK UNBOUND:                -1.172
REMARK SMILES CCCCCCCCCCCCCCCCCCCCCC(=O)[O-]
REMARK SMILES IDX 12 1 11 2 10 3 9 4 8 5 7 6 6 7 5 8 4 9 3 10 2 11 1 12 13 13
REMARK SMILES IDX 14 14 15 15 16 16 17 17 18 18 19 19 20 20 21 21 22 22 23 23
REMARK SMILES IDX 24 24
REMARK H PARENT
REMARK Flexibility Score: inf
ROOT
ATOM      1  C   UNL     1      32.279  39.348  35.226  1.00  0.00     0.000 C 
ENDROOT
BRANCH   1   2
ATOM      2  C   UNL     1      31.998  37.947  34.640  1.00  0.00     0.000 C 
BRANCH   2   3
ATOM      3  C   UNL     1      31.758  37.978  33.120  1.00  0.00     0.000 C 
BRANCH   3   4
ATOM      4  C   UNL     1      30.774  36.880  32.665  1.00  0.00    -0.000 C 
BRANCH   4   5
ATOM      5  C   UNL     1      29.325  37.121  33.118  1.00  0.00    -0.000 C 
BRANCH   5   6
ATOM      6  C   UNL     1      28.299  36.875  31.998  1.00  0.00    -0.000 C 
BRANCH   6   7
ATOM      7  C   UNL     1      26.846  37.114  32.461  1.00  0.00    -0.000 C 
BRANCH   7   8
ATOM      8  C   UNL     1      25.838  37.265  31.305  1.00  0.00    -0.000 C 
BRANCH   8   9
ATOM      9  C   UNL     1      26.229  38.287  30.222  1.00  0.00    -0.000 C 
BRANCH   9  10
ATOM     10  C   UNL     1      25.055  39.098  29.639  1.00  0.00    -0.000 C 
BRANCH  10  11
ATOM     11  C   UNL     1      25.235  39.472  28.153  1.00  0.00    -0.003 C 
ATOM     12  C   UNL     1      25.508  38.255  27.267  1.00  0.00     0.004 C 
ENDBRANCH  10  11
ENDBRANCH   9  10
ENDBRANCH   8   9
ENDBRANCH   7   8
ENDBRANCH   6   7
ENDBRANCH   5   6
ENDBRANCH   4   5
ENDBRANCH   3   4
ENDBRANCH   2   3
ENDBRANCH   1   2
BRANCH   1  13
ATOM     13  C   UNL     1      33.136  39.320  36.506  1.00  0.00     0.000 C 
BRANCH  13  14
ATOM     14  C   UNL     1      34.175  38.185  36.562  1.00  0.00     0.000 C 
BRANCH  14  15
ATOM     15  C   UNL     1      33.908  37.101  37.627  1.00  0.00     0.000 C 
BRANCH  15  16
ATOM     16  C   UNL     1      32.430  36.908  38.012  1.00  0.00     0.000 C 
BRANCH  16  17
ATOM     17  C   UNL     1      31.905  38.018  38.938  1.00  0.00     0.000 C 
BRANCH  17  18
ATOM     18  C   UNL     1      30.374  37.991  39.099  1.00  0.00     0.000 C 
BRANCH  18  19
ATOM     19  C   UNL     1      29.580  38.730  38.003  1.00  0.00     0.000 C 
BRANCH  19  20
ATOM     20  C   UNL     1      28.379  39.552  38.506  1.00  0.00     0.006 C 
BRANCH  20  21
ATOM     21  C   UNL     1      28.337  39.667  40.036  1.00  0.00     0.053 C 
BRANCH  21  22
ATOM     22  C   UNL     1      27.392  40.751  40.447  1.00  0.00     0.041 C 
ATOM     23  O   UNL     1      26.724  41.373  39.578  1.00  0.00    -0.550 OA
ATOM     24  O   UNL     1      27.288  41.111  41.785  1.00  0.00    -0.550 OA
ENDBRANCH  21  22
ENDBRANCH  20  21
ENDBRANCH  19  20
ENDBRANCH  18  19
ENDBRANCH  17  18
ENDBRANCH  16  17
ENDBRANCH  15  16
ENDBRANCH  14  15
ENDBRANCH  13  14
ENDBRANCH   1  13
TORSDOF 20
ENDMDL
MODEL 9
REMARK VINA RESULT:    -2.248      2.249      5.071
REMARK INTER + INTRA:          -6.048
REMARK INTER:                  -5.140
REMARK INTRA:                  -0.908
REMARK UNBOUND:                -1.172
REMARK SMILES CCCCCCCCCCCCCCCCCCCCCC(=O)[O-]
REMARK SMILES IDX 12 1 11 2 10 3 9 4 8 5 7 6 6 7 5 8 4 9 3 10 2 11 1 12 13 13
REMARK SMILES IDX 14 14 15 15 16 16 17 17 18 18 19 19 20 20 21 21 22 22 23 23
REMARK SMILES IDX 24 24
REMARK H PARENT
REMARK Flexibility Score: inf
ROOT
ATOM      1  C   UNL     1      31.710  37.961  33.158  1.00  0.00     0.000 C 
ENDROOT
BRANCH   1   2
ATOM      2  C   UNL     1      32.991  37.387  33.803  1.00  0.00     0.000 C 
BRANCH   2   3
ATOM      3  C   UNL     1      32.822  37.104  35.306  1.00  0.00     0.000 C 
BRANCH   3   4
ATOM      4  C   UNL     1      31.400  37.438  35.805  1.00  0.00    -0.000 C 
BRANCH   4   5
ATOM      5  C   UNL     1      31.321  38.735  36.627  1.00  0.00    -0.000 C 
BRANCH   5   6
ATOM      6  C   UNL     1      30.820  38.502  38.063  1.00  0.00    -0.000 C 
BRANCH   6   7
ATOM      7  C   UNL     1      29.747  37.396  38.146  1.00  0.00    -0.000 C 
BRANCH   7   8
ATOM      8  C   UNL     1      28.431  37.850  38.807  1.00  0.00    -0.000 C 
BRANCH   8   9
ATOM      9  C   UNL     1      28.220  39.374  38.872  1.00  0.00    -0.000 C 
BRANCH   9  10
ATOM     10  C   UNL     1      26.754  39.822  39.024  1.00  0.00    -0.000 C 
BRANCH  10  11
ATOM     11  C   UNL     1      26.568  41.354  39.029  1.00  0.00    -0.003 C 
ATOM     12  C   UNL     1      25.562  41.829  37.980  1.00  0.00     0.004 C 
ENDBRANCH  10  11
ENDBRANCH   9  10
ENDBRANCH   8   9
ENDBRANCH   7   8
ENDBRANCH   6   7
ENDBRANCH   5   6
ENDBRANCH   4   5
ENDBRANCH   3   4
ENDBRANCH   2   3
ENDBRANCH   1   2
BRANCH   1  13
ATOM     13  C   UNL     1      30.813  36.888  32.509  1.00  0.00     0.000 C 
BRANCH  13  14
ATOM     14  C   UNL     1      29.348  36.902  32.980  1.00  0.00     0.000 C 
BRANCH  14  15
ATOM     15  C   UNL     1      28.297  37.004  31.855  1.00  0.00     0.000 C 
BRANCH  15  16
ATOM     16  C   UNL     1      26.857  37.279  32.323  1.00  0.00     0.000 C 
BRANCH  16  17
ATOM     17  C   UNL     1      25.917  37.658  31.166  1.00  0.00     0.000 C 
BRANCH  17  18
ATOM     18  C   UNL     1      26.651  37.798  29.820  1.00  0.00     0.000 C 
BRANCH  18  19
ATOM     19  C   UNL     1      25.846  38.478  28.694  1.00  0.00     0.000 C 
BRANCH  19  20
ATOM     20  C   UNL     1      26.252  39.930  28.384  1.00  0.00     0.006 C 
BRANCH  20  21
ATOM     21  C   UNL     1      26.096  40.289  26.901  1.00  0.00     0.053 C 
BRANCH  21  22
ATOM     22  C   UNL     1      26.614  41.668  26.644  1.00  0.00     0.041 C 
ATOM     23  O   UNL     1      26.684  42.110  25.466  1.00  0.00    -0.550 OA
ATOM     24  O   UNL     1      27.071  42.446  27.701  1.00  0.00    -0.550 OA
ENDBRANCH  21  22
ENDBRANCH  20  21
ENDBRANCH  19  20
ENDBRANCH  18  19
ENDBRANCH  17  18
ENDBRANCH  16  17
ENDBRANCH  15  16
ENDBRANCH  14  15
ENDBRANCH  13  14
ENDBRANCH   1  13
TORSDOF 20
ENDMDL
