MODEL 1
REMARK VINA RESULT:    -4.360      0.000      0.000
REMARK INTER + INTRA:          -5.108
REMARK INTER:                  -5.125
REMARK INTRA:                   0.017
REMARK UNBOUND:                 0.017
REMARK SMILES O=c1c(O)c(-c2ccc(O)cc2)oc2cc(O)cc(O)c12
REMARK SMILES IDX 5 1 3 2 2 3 1 4 21 5 19 6 18 7 16 8 15 9 14 10 13 11 6 12
REMARK SMILES IDX 7 13 8 14 9 15 12 16 11 17 10 18 4 20 20 22 17 24
REMARK H PARENT 10 19 4 21 20 23 17 25
REMARK Flexibility Score: inf
ROOT
ATOM      1  C   UNL     1       1.942 -20.353  -8.750  1.00  0.00     0.180 A 
ATOM      2  C   UNL     1       3.295 -20.185  -8.409  1.00  0.00     0.208 A 
ATOM      3  C   UNL     1       4.263 -20.225  -9.424  1.00  0.00     0.238 A 
ATOM      4  O   UNL     1       5.477 -20.149  -9.104  1.00  0.00    -0.285 OA
ATOM      5  C   UNL     1       3.863 -20.377 -10.775  1.00  0.00     0.111 A 
ATOM      6  C   UNL     1       4.754 -20.387 -11.890  1.00  0.00     0.134 A 
ATOM      7  C   UNL     1       4.254 -20.651 -13.171  1.00  0.00     0.093 A 
ATOM      8  C   UNL     1       2.887 -20.842 -13.386  1.00  0.00     0.123 A 
ATOM      9  C   UNL     1       2.003 -20.779 -12.313  1.00  0.00     0.094 A 
ATOM     10  C   UNL     1       2.475 -20.556 -11.017  1.00  0.00     0.146 A 
ATOM     11  O   UNL     1       1.600 -20.526 -10.020  1.00  0.00    -0.452 OA
ENDROOT
BRANCH   1  12
ATOM     12  C   UNL     1       0.865 -20.337  -7.732  1.00  0.00     0.021 A 
ATOM     13  C   UNL     1       0.941 -21.125  -6.570  1.00  0.00     0.016 A 
ATOM     14  C   UNL     1      -0.100 -21.111  -5.637  1.00  0.00     0.047 A 
ATOM     15  C   UNL     1      -1.235 -20.322  -5.860  1.00  0.00     0.115 A 
ATOM     16  C   UNL     1      -0.286 -19.565  -7.959  1.00  0.00     0.016 A 
ATOM     17  C   UNL     1      -1.326 -19.552  -7.024  1.00  0.00     0.047 A 
BRANCH  15  18
ATOM     18  O   UNL     1      -2.278 -20.299  -4.937  1.00  0.00    -0.508 OA
ATOM     19  H   UNL     1      -2.815 -21.132  -4.724  1.00  0.00     0.293 HD
ENDBRANCH  15  18
ENDBRANCH   1  12
BRANCH   2  20
ATOM     20  O   UNL     1       3.663 -19.960  -7.079  1.00  0.00    -0.502 OA
ATOM     21  H   UNL     1       3.948 -20.709  -6.460  1.00  0.00     0.293 HD
ENDBRANCH   2  20
BRANCH   6  22
ATOM     22  O   UNL     1       6.123 -20.121 -11.800  1.00  0.00    -0.507 OA
ATOM     23  H   UNL     1       6.811 -20.750 -11.417  1.00  0.00     0.293 HD
ENDBRANCH   6  22
BRANCH   8  24
ATOM     24  O   UNL     1       2.396 -21.086 -14.667  1.00  0.00    -0.508 OA
ATOM     25  H   UNL     1       1.546 -20.647 -15.002  1.00  0.00     0.293 HD
ENDBRANCH   8  24
TORSDOF 5
ENDMDL
MODEL 2
REMARK VINA RESULT:    -4.177      0.149      1.067
REMARK INTER + INTRA:          -4.892
REMARK INTER:                  -4.989
REMARK INTRA:                   0.097
REMARK UNBOUND:                 0.017
REMARK SMILES O=c1c(O)c(-c2ccc(O)cc2)oc2cc(O)cc(O)c12
REMARK SMILES IDX 5 1 3 2 2 3 1 4 21 5 19 6 18 7 16 8 15 9 14 10 13 11 6 12
REMARK SMILES IDX 7 13 8 14 9 15 12 16 11 17 10 18 4 20 20 22 17 24
REMARK H PARENT 10 19 4 21 20 23 17 25
REMARK Flexibility Score: inf
ROOT
ATOM      1  C   UNL     1       1.794 -20.360  -8.738  1.00  0.00     0.180 A 
ATOM      2  C   UNL     1       3.130 -20.148  -8.354  1.00  0.00     0.208 A 
ATOM      3  C   UNL     1       4.132 -20.165  -9.337  1.00  0.00     0.238 A 
ATOM      4  O   UNL     1       5.332 -20.049  -8.977  1.00  0.00    -0.285 OA
ATOM      5  C   UNL     1       3.781 -20.340 -10.698  1.00  0.00     0.111 A 
ATOM      6  C   UNL     1       4.709 -20.330 -11.783  1.00  0.00     0.134 A 
ATOM      7  C   UNL     1       4.260 -20.620 -13.078  1.00  0.00     0.093 A 
ATOM      8  C   UNL     1       2.907 -20.855 -13.336  1.00  0.00     0.123 A 
ATOM      9  C   UNL     1       1.987 -20.812 -12.293  1.00  0.00     0.094 A 
ATOM     10  C   UNL     1       2.409 -20.564 -10.984  1.00  0.00     0.146 A 
ATOM     11  O   UNL     1       1.500 -20.553 -10.017  1.00  0.00    -0.452 OA
ENDROOT
BRANCH   1  12
ATOM     12  C   UNL     1       0.685 -20.369  -7.756  1.00  0.00     0.021 A 
ATOM     13  C   UNL     1      -0.478 -19.604  -7.955  1.00  0.00     0.016 A 
ATOM     14  C   UNL     1      -1.501 -19.610  -7.001  1.00  0.00     0.047 A 
ATOM     15  C   UNL     1      -1.368 -20.369  -5.831  1.00  0.00     0.115 A 
ATOM     16  C   UNL     1       0.819 -21.110  -6.570  1.00  0.00     0.016 A 
ATOM     17  C   UNL     1      -0.204 -21.116  -5.618  1.00  0.00     0.047 A 
BRANCH  15  18
ATOM     18  O   UNL     1      -2.380 -20.384  -4.875  1.00  0.00    -0.508 OA
ATOM     19  H   UNL     1      -2.253 -20.834  -3.976  1.00  0.00     0.293 HD
ENDBRANCH  15  18
ENDBRANCH   1  12
BRANCH   2  20
ATOM     20  O   UNL     1       3.446 -19.900  -7.015  1.00  0.00    -0.502 OA
ATOM     21  H   UNL     1       2.961 -20.353  -6.249  1.00  0.00     0.293 HD
ENDBRANCH   2  20
BRANCH   6  22
ATOM     22  O   UNL     1       6.066 -20.021 -11.651  1.00  0.00    -0.507 OA
ATOM     23  H   UNL     1       6.735 -20.567 -11.131  1.00  0.00     0.293 HD
ENDBRANCH   6  22
BRANCH   8  24
ATOM     24  O   UNL     1       2.467 -21.125 -14.630  1.00  0.00    -0.508 OA
ATOM     25  H   UNL     1       1.629 -21.669 -14.802  1.00  0.00     0.293 HD
ENDBRANCH   8  24
TORSDOF 5
ENDMDL
MODEL 3
REMARK VINA RESULT:    -3.323      1.985      7.009
REMARK INTER + INTRA:          -3.889
REMARK INTER:                  -4.319
REMARK INTRA:                   0.431
REMARK UNBOUND:                 0.017
REMARK SMILES O=c1c(O)c(-c2ccc(O)cc2)oc2cc(O)cc(O)c12
REMARK SMILES IDX 5 1 3 2 2 3 1 4 21 5 19 6 18 7 16 8 15 9 14 10 13 11 6 12
REMARK SMILES IDX 7 13 8 14 9 15 12 16 11 17 10 18 4 20 20 22 17 24
REMARK H PARENT 10 19 4 21 20 23 17 25
REMARK Flexibility Score: inf
ROOT
ATOM      1  C   UNL     1       3.150 -20.617 -10.459  1.00  0.00     0.180 A 
ATOM      2  C   UNL     1       1.774 -20.641 -10.171  1.00  0.00     0.208 A 
ATOM      3  C   UNL     1       1.358 -20.605  -8.831  1.00  0.00     0.238 A 
ATOM      4  O   UNL     1       0.129 -20.702  -8.578  1.00  0.00    -0.285 OA
ATOM      5  C   UNL     1       2.319 -20.492  -7.797  1.00  0.00     0.111 A 
ATOM      6  C   UNL     1       2.008 -20.402  -6.406  1.00  0.00     0.134 A 
ATOM      7  C   UNL     1       3.046 -20.400  -5.466  1.00  0.00     0.093 A 
ATOM      8  C   UNL     1       4.384 -20.419  -5.869  1.00  0.00     0.123 A 
ATOM      9  C   UNL     1       4.697 -20.450  -7.225  1.00  0.00     0.094 A 
ATOM     10  C   UNL     1       3.684 -20.492  -8.186  1.00  0.00     0.146 A 
ATOM     11  O   UNL     1       4.028 -20.543  -9.466  1.00  0.00    -0.452 OA
ENDROOT
BRANCH   1  12
ATOM     12  C   UNL     1       3.666 -20.666 -11.846  1.00  0.00     0.021 A 
ATOM     13  C   UNL     1       2.845 -21.049 -12.921  1.00  0.00     0.016 A 
ATOM     14  C   UNL     1       3.362 -21.111 -14.219  1.00  0.00     0.047 A 
ATOM     15  C   UNL     1       4.709 -20.806 -14.456  1.00  0.00     0.115 A 
ATOM     16  C   UNL     1       5.020 -20.382 -12.089  1.00  0.00     0.016 A 
ATOM     17  C   UNL     1       5.535 -20.444 -13.387  1.00  0.00     0.047 A 
BRANCH  15  18
ATOM     18  O   UNL     1       5.235 -20.863 -15.744  1.00  0.00    -0.508 OA
ATOM     19  H   UNL     1       4.773 -20.411 -16.525  1.00  0.00     0.293 HD
ENDBRANCH  15  18
ENDBRANCH   1  12
BRANCH   2  20
ATOM     20  O   UNL     1       0.839 -20.676 -11.209  1.00  0.00    -0.502 OA
ATOM     21  H   UNL     1       0.046 -20.046 -11.248  1.00  0.00     0.293 HD
ENDBRANCH   2  20
BRANCH   6  22
ATOM     22  O   UNL     1       0.711 -20.289  -5.899  1.00  0.00    -0.507 OA
ATOM     23  H   UNL     1       0.262 -20.966  -5.303  1.00  0.00     0.293 HD
ENDBRANCH   6  22
BRANCH   8  24
ATOM     24  O   UNL     1       5.410 -20.399  -4.927  1.00  0.00    -0.508 OA
ATOM     25  H   UNL     1       5.246 -20.107  -3.970  1.00  0.00     0.293 HD
ENDBRANCH   8  24
TORSDOF 5
ENDMDL
MODEL 4
REMARK VINA RESULT:    -3.303      1.370      6.495
REMARK INTER + INTRA:          -3.865
REMARK INTER:                  -4.151
REMARK INTRA:                   0.286
REMARK UNBOUND:                 0.017
REMARK SMILES O=c1c(O)c(-c2ccc(O)cc2)oc2cc(O)cc(O)c12
REMARK SMILES IDX 5 1 3 2 2 3 1 4 21 5 19 6 18 7 16 8 15 9 14 10 13 11 6 12
REMARK SMILES IDX 7 13 8 14 9 15 12 16 11 17 10 18 4 20 20 22 17 24
REMARK H PARENT 10 19 4 21 20 23 17 25
REMARK Flexibility Score: inf
ROOT
ATOM      1  C   UNL     1       3.470 -20.582 -10.020  1.00  0.00     0.180 A 
ATOM      2  C   UNL     1       4.418 -20.778  -9.001  1.00  0.00     0.208 A 
ATOM      3  C   UNL     1       4.015 -20.651  -7.663  1.00  0.00     0.238 A 
ATOM      4  O   UNL     1       4.884 -20.754  -6.759  1.00  0.00    -0.285 OA
ATOM      5  C   UNL     1       2.658 -20.382  -7.357  1.00  0.00     0.111 A 
ATOM      6  C   UNL     1       2.129 -20.277  -6.035  1.00  0.00     0.134 A 
ATOM      7  C   UNL     1       0.791 -19.903  -5.855  1.00  0.00     0.093 A 
ATOM      8  C   UNL     1      -0.052 -19.694  -6.949  1.00  0.00     0.123 A 
ATOM      9  C   UNL     1       0.440 -19.849  -8.242  1.00  0.00     0.094 A 
ATOM     10  C   UNL     1       1.780 -20.183  -8.455  1.00  0.00     0.146 A 
ATOM     11  O   UNL     1       2.212 -20.300  -9.704  1.00  0.00    -0.452 OA
ENDROOT
BRANCH   1  12
ATOM     12  C   UNL     1       3.823 -20.686 -11.455  1.00  0.00     0.021 A 
ATOM     13  C   UNL     1       5.114 -20.377 -11.918  1.00  0.00     0.016 A 
ATOM     14  C   UNL     1       5.415 -20.459 -13.281  1.00  0.00     0.047 A 
ATOM     15  C   UNL     1       4.427 -20.836 -14.199  1.00  0.00     0.115 A 
ATOM     16  C   UNL     1       2.832 -21.042 -12.385  1.00  0.00     0.016 A 
ATOM     17  C   UNL     1       3.135 -21.124 -13.747  1.00  0.00     0.047 A 
BRANCH  15  18
ATOM     18  O   UNL     1       4.716 -20.923 -15.559  1.00  0.00    -0.508 OA
ATOM     19  H   UNL     1       5.421 -21.560 -15.911  1.00  0.00     0.293 HD
ENDBRANCH  15  18
ENDBRANCH   1  12
BRANCH   2  20
ATOM     20  O   UNL     1       5.735 -21.118  -9.322  1.00  0.00    -0.502 OA
ATOM     21  H   UNL     1       6.502 -20.460  -9.239  1.00  0.00     0.293 HD
ENDBRANCH   2  20
BRANCH   6  22
ATOM     22  O   UNL     1       2.859 -20.549  -4.875  1.00  0.00    -0.507 OA
ATOM     23  H   UNL     1       2.832 -19.998  -4.032  1.00  0.00     0.293 HD
ENDBRANCH   6  22
BRANCH   8  24
ATOM     24  O   UNL     1      -1.386 -19.339  -6.760  1.00  0.00    -0.508 OA
ATOM     25  H   UNL     1      -1.900 -18.815  -7.460  1.00  0.00     0.293 HD
ENDBRANCH   8  24
TORSDOF 5
ENDMDL
MODEL 5
REMARK VINA RESULT:    -2.206     22.023     23.144
REMARK INTER + INTRA:          -2.575
REMARK INTER:                  -3.159
REMARK INTRA:                   0.583
REMARK UNBOUND:                 0.017
REMARK SMILES O=c1c(O)c(-c2ccc(O)cc2)oc2cc(O)cc(O)c12
REMARK SMILES IDX 5 1 3 2 2 3 1 4 21 5 19 6 18 7 16 8 15 9 14 10 13 11 6 12
REMARK SMILES IDX 7 13 8 14 9 15 12 16 11 17 10 18 4 20 20 22 17 24
REMARK H PARENT 10 19 4 21 20 23 17 25
REMARK Flexibility Score: inf
ROOT
ATOM      1  C   UNL     1       0.869  -0.958 -21.578  1.00  0.00     0.180 A 
ATOM      2  C   UNL     1       1.399  -0.946 -22.879  1.00  0.00     0.208 A 
ATOM      3  C   UNL     1       2.793  -0.977 -23.047  1.00  0.00     0.238 A 
ATOM      4  O   UNL     1       3.263  -0.890 -24.211  1.00  0.00    -0.285 OA
ATOM      5  C   UNL     1       3.638  -1.075 -21.914  1.00  0.00     0.111 A 
ATOM      6  C   UNL     1       5.062  -1.159 -21.968  1.00  0.00     0.134 A 
ATOM      7  C   UNL     1       5.799  -1.146 -20.777  1.00  0.00     0.093 A 
ATOM      8  C   UNL     1       5.162  -1.116 -19.535  1.00  0.00     0.123 A 
ATOM      9  C   UNL     1       3.771  -1.091 -19.471  1.00  0.00     0.094 A 
ATOM     10  C   UNL     1       3.008  -1.064 -20.642  1.00  0.00     0.146 A 
ATOM     11  O   UNL     1       1.687  -1.018 -20.534  1.00  0.00    -0.452 OA
ENDROOT
BRANCH   1  12
ATOM     12  C   UNL     1      -0.589  -0.913 -21.321  1.00  0.00     0.021 A 
ATOM     13  C   UNL     1      -1.105  -0.904 -20.013  1.00  0.00     0.016 A 
ATOM     14  C   UNL     1      -2.486  -0.888 -19.797  1.00  0.00     0.047 A 
ATOM     15  C   UNL     1      -3.369  -0.894 -20.885  1.00  0.00     0.115 A 
ATOM     16  C   UNL     1      -1.482  -0.942 -22.406  1.00  0.00     0.016 A 
ATOM     17  C   UNL     1      -2.863  -0.925 -22.189  1.00  0.00     0.047 A 
BRANCH  15  18
ATOM     18  O   UNL     1      -4.747  -0.876 -20.682  1.00  0.00    -0.508 OA
ATOM     19  H   UNL     1      -5.255  -1.714 -20.421  1.00  0.00     0.293 HD
ENDBRANCH  15  18
ENDBRANCH   1  12
BRANCH   2  20
ATOM     20  O   UNL     1       0.547  -0.926 -23.987  1.00  0.00    -0.502 OA
ATOM     21  H   UNL     1       0.549  -1.657 -24.688  1.00  0.00     0.293 HD
ENDBRANCH   2  20
BRANCH   6  22
ATOM     22  O   UNL     1       5.795  -1.281 -23.152  1.00  0.00    -0.507 OA
ATOM     23  H   UNL     1       6.725  -1.663 -23.219  1.00  0.00     0.293 HD
ENDBRANCH   6  22
BRANCH   8  24
ATOM     24  O   UNL     1       5.903  -1.121 -18.355  1.00  0.00    -0.508 OA
ATOM     25  H   UNL     1       5.546  -0.704 -17.503  1.00  0.00     0.293 HD
ENDBRANCH   8  24
TORSDOF 5
ENDMDL
MODEL 6
REMARK VINA RESULT:    -1.911      1.182      6.451
REMARK INTER + INTRA:          -2.229
REMARK INTER:                  -2.530
REMARK INTRA:                   0.301
REMARK UNBOUND:                 0.017
REMARK SMILES O=c1c(O)c(-c2ccc(O)cc2)oc2cc(O)cc(O)c12
REMARK SMILES IDX 5 1 3 2 2 3 1 4 21 5 19 6 18 7 16 8 15 9 14 10 13 11 6 12
REMARK SMILES IDX 7 13 8 14 9 15 12 16 11 17 10 18 4 20 20 22 17 24
REMARK H PARENT 10 19 4 21 20 23 17 25
REMARK Flexibility Score: inf
ROOT
ATOM      1  C   UNL     1       2.468 -20.659 -10.006  1.00  0.00     0.180 A 
ATOM      2  C   UNL     1       3.400 -20.839  -8.969  1.00  0.00     0.208 A 
ATOM      3  C   UNL     1       2.963 -20.751  -7.638  1.00  0.00     0.238 A 
ATOM      4  O   UNL     1       3.815 -20.838  -6.716  1.00  0.00    -0.285 OA
ATOM      5  C   UNL     1       1.591 -20.538  -7.359  1.00  0.00     0.111 A 
ATOM      6  C   UNL     1       1.029 -20.475  -6.048  1.00  0.00     0.134 A 
ATOM      7  C   UNL     1      -0.325 -20.154  -5.892  1.00  0.00     0.093 A 
ATOM      8  C   UNL     1      -1.151 -19.956  -7.000  1.00  0.00     0.123 A 
ATOM      9  C   UNL     1      -0.625 -20.070  -8.284  1.00  0.00     0.094 A 
ATOM     10  C   UNL     1       0.731 -20.351  -8.473  1.00  0.00     0.146 A 
ATOM     11  O   UNL     1       1.194 -20.429  -9.713  1.00  0.00    -0.452 OA
ENDROOT
BRANCH   1  12
ATOM     12  C   UNL     1       2.856 -20.725 -11.434  1.00  0.00     0.021 A 
ATOM     13  C   UNL     1       4.152 -20.381 -11.859  1.00  0.00     0.016 A 
ATOM     14  C   UNL     1       4.486 -20.427 -13.216  1.00  0.00     0.047 A 
ATOM     15  C   UNL     1       3.527 -20.802 -14.165  1.00  0.00     0.115 A 
ATOM     16  C   UNL     1       1.895 -21.079 -12.395  1.00  0.00     0.016 A 
ATOM     17  C   UNL     1       2.231 -21.125 -13.751  1.00  0.00     0.047 A 
BRANCH  15  18
ATOM     18  O   UNL     1       3.849 -20.853 -15.520  1.00  0.00    -0.508 OA
ATOM     19  H   UNL     1       4.783 -21.092 -15.833  1.00  0.00     0.293 HD
ENDBRANCH  15  18
ENDBRANCH   1  12
BRANCH   2  20
ATOM     20  O   UNL     1       4.736 -21.125  -9.265  1.00  0.00    -0.502 OA
ATOM     21  H   UNL     1       5.134 -22.048  -9.143  1.00  0.00     0.293 HD
ENDBRANCH   2  20
BRANCH   6  22
ATOM     22  O   UNL     1       1.743 -20.742  -4.876  1.00  0.00    -0.507 OA
ATOM     23  H   UNL     1       1.427 -21.341  -4.130  1.00  0.00     0.293 HD
ENDBRANCH   6  22
BRANCH   8  24
ATOM     24  O   UNL     1      -2.502 -19.654  -6.836  1.00  0.00    -0.508 OA
ATOM     25  H   UNL     1      -3.025 -19.985  -6.033  1.00  0.00     0.293 HD
ENDBRANCH   8  24
TORSDOF 5
ENDMDL
