MODEL 1
REMARK VINA RESULT:    -6.117      0.000      0.000
REMARK INTER + INTRA:          -7.703
REMARK INTER:                  -7.368
REMARK INTRA:                  -0.334
REMARK UNBOUND:                -0.334
REMARK SMILES O=c1c(O)c(-c2ccc(O)c(O)c2)oc2cc(O)cc(O)c12
REMARK SMILES IDX 5 1 3 2 2 3 1 4 22 5 20 6 19 7 17 8 16 9 15 10 14 11 6 12
REMARK SMILES IDX 7 13 8 14 9 15 13 16 11 17 10 18 12 20 4 22 21 24 18 26
REMARK H PARENT 10 19 12 21 4 23 21 25 18 27
REMARK Flexibility Score: inf
ROOT
ATOM      1  C   UNL     1      -3.741 -30.092  -3.210  1.00  0.00     0.180 A 
ATOM      2  C   UNL     1      -3.344 -30.493  -4.497  1.00  0.00     0.208 A 
ATOM      3  C   UNL     1      -4.330 -30.747  -5.465  1.00  0.00     0.238 A 
ATOM      4  O   UNL     1      -3.971 -31.159  -6.600  1.00  0.00    -0.285 OA
ATOM      5  C   UNL     1      -5.697 -30.583  -5.137  1.00  0.00     0.111 A 
ATOM      6  C   UNL     1      -6.778 -30.774  -6.051  1.00  0.00     0.134 A 
ATOM      7  C   UNL     1      -8.096 -30.709  -5.583  1.00  0.00     0.093 A 
ATOM      8  C   UNL     1      -8.374 -30.398  -4.253  1.00  0.00     0.123 A 
ATOM      9  C   UNL     1      -7.327 -30.150  -3.365  1.00  0.00     0.094 A 
ATOM     10  C   UNL     1      -6.000 -30.242  -3.793  1.00  0.00     0.146 A 
ATOM     11  O   UNL     1      -5.032 -30.009  -2.915  1.00  0.00    -0.452 OA
ENDROOT
BRANCH   1  12
ATOM     12  C   UNL     1      -2.759 -29.781  -2.145  1.00  0.00     0.025 A 
ATOM     13  C   UNL     1      -2.387 -30.783  -1.236  1.00  0.00     0.016 A 
ATOM     14  C   UNL     1      -1.479 -30.507  -0.210  1.00  0.00     0.051 A 
ATOM     15  C   UNL     1      -0.941 -29.222  -0.069  1.00  0.00     0.157 A 
ATOM     16  C   UNL     1      -2.233 -28.486  -1.988  1.00  0.00     0.062 A 
ATOM     17  C   UNL     1      -1.324 -28.205  -0.961  1.00  0.00     0.158 A 
BRANCH  15  18
ATOM     18  O   UNL     1      -0.034 -28.949   0.953  1.00  0.00    -0.504 OA
ATOM     19  H   UNL     1       0.870 -29.404   0.996  1.00  0.00     0.293 HD
ENDBRANCH  15  18
BRANCH  17  20
ATOM     20  O   UNL     1      -0.819 -26.911  -0.839  1.00  0.00    -0.504 OA
ATOM     21  H   UNL     1      -0.410 -26.573   0.023  1.00  0.00     0.293 HD
ENDBRANCH  17  20
ENDBRANCH   1  12
BRANCH   2  22
ATOM     22  O   UNL     1      -1.989 -30.671  -4.793  1.00  0.00    -0.502 OA
ATOM     23  H   UNL     1      -1.673 -31.199  -5.596  1.00  0.00     0.293 HD
ENDBRANCH   2  22
BRANCH   6  24
ATOM     24  O   UNL     1      -6.611 -31.000  -7.420  1.00  0.00    -0.507 OA
ATOM     25  H   UNL     1      -7.030 -30.444  -8.149  1.00  0.00     0.293 HD
ENDBRANCH   6  24
BRANCH   8  26
ATOM     26  O   UNL     1      -9.699 -30.327  -3.826  1.00  0.00    -0.508 OA
ATOM     27  H   UNL     1      -9.938 -30.303  -2.841  1.00  0.00     0.293 HD
ENDBRANCH   8  26
TORSDOF 6
ENDMDL
MODEL 2
REMARK VINA RESULT:    -6.055      3.221      5.983
REMARK INTER + INTRA:          -7.629
REMARK INTER:                  -7.328
REMARK INTRA:                  -0.301
REMARK UNBOUND:                -0.334
REMARK SMILES O=c1c(O)c(-c2ccc(O)c(O)c2)oc2cc(O)cc(O)c12
REMARK SMILES IDX 5 1 3 2 2 3 1 4 22 5 20 6 19 7 17 8 16 9 15 10 14 11 6 12
REMARK SMILES IDX 7 13 8 14 9 15 13 16 11 17 10 18 12 20 4 22 21 24 18 26
REMARK H PARENT 10 19 12 21 4 23 21 25 18 27
REMARK Flexibility Score: inf
ROOT
ATOM      1  C   UNL     1      -0.937 -27.090  -0.039  1.00  0.00     0.180 A 
ATOM      2  C   UNL     1      -1.834 -27.242   1.032  1.00  0.00     0.208 A 
ATOM      3  C   UNL     1      -2.995 -28.009   0.844  1.00  0.00     0.238 A 
ATOM      4  O   UNL     1      -3.822 -28.097   1.790  1.00  0.00    -0.285 OA
ATOM      5  C   UNL     1      -3.237 -28.624  -0.407  1.00  0.00     0.111 A 
ATOM      6  C   UNL     1      -4.361 -29.456  -0.698  1.00  0.00     0.134 A 
ATOM      7  C   UNL     1      -4.566 -29.907  -2.008  1.00  0.00     0.093 A 
ATOM      8  C   UNL     1      -3.656 -29.611  -3.022  1.00  0.00     0.123 A 
ATOM      9  C   UNL     1      -2.522 -28.850  -2.736  1.00  0.00     0.094 A 
ATOM     10  C   UNL     1      -2.309 -28.355  -1.447  1.00  0.00     0.146 A 
ATOM     11  O   UNL     1      -1.223 -27.626  -1.219  1.00  0.00    -0.452 OA
ENDROOT
BRANCH   1  12
ATOM     12  C   UNL     1       0.321 -26.318   0.091  1.00  0.00     0.025 A 
ATOM     13  C   UNL     1       1.438 -26.916   0.695  1.00  0.00     0.016 A 
ATOM     14  C   UNL     1       2.628 -26.200   0.848  1.00  0.00     0.051 A 
ATOM     15  C   UNL     1       2.715 -24.872   0.414  1.00  0.00     0.157 A 
ATOM     16  C   UNL     1       0.405 -24.977  -0.324  1.00  0.00     0.062 A 
ATOM     17  C   UNL     1       1.595 -24.256  -0.171  1.00  0.00     0.158 A 
BRANCH  15  18
ATOM     18  O   UNL     1       3.904 -24.160   0.566  1.00  0.00    -0.504 OA
ATOM     19  H   UNL     1       4.594 -24.422   1.261  1.00  0.00     0.293 HD
ENDBRANCH  15  18
BRANCH  17  20
ATOM     20  O   UNL     1       1.643 -22.930  -0.600  1.00  0.00    -0.504 OA
ATOM     21  H   UNL     1       2.361 -22.289  -0.285  1.00  0.00     0.293 HD
ENDBRANCH  17  20
ENDBRANCH   1  12
BRANCH   2  22
ATOM     22  O   UNL     1      -1.587 -26.607   2.253  1.00  0.00    -0.502 OA
ATOM     23  H   UNL     1      -2.192 -26.720   3.057  1.00  0.00     0.293 HD
ENDBRANCH   2  22
BRANCH   6  24
ATOM     24  O   UNL     1      -5.281 -29.886   0.262  1.00  0.00    -0.507 OA
ATOM     25  H   UNL     1      -5.760 -29.281   0.911  1.00  0.00     0.293 HD
ENDBRANCH   6  24
BRANCH   8  26
ATOM     26  O   UNL     1      -3.884 -30.090  -4.311  1.00  0.00    -0.508 OA
ATOM     27  H   UNL     1      -4.265 -31.015  -4.472  1.00  0.00     0.293 HD
ENDBRANCH   8  26
TORSDOF 6
ENDMDL
MODEL 3
REMARK VINA RESULT:    -5.739      1.867      3.647
REMARK INTER + INTRA:          -7.247
REMARK INTER:                  -6.999
REMARK INTRA:                  -0.248
REMARK UNBOUND:                -0.334
REMARK SMILES O=c1c(O)c(-c2ccc(O)c(O)c2)oc2cc(O)cc(O)c12
REMARK SMILES IDX 5 1 3 2 2 3 1 4 22 5 20 6 19 7 17 8 16 9 15 10 14 11 6 12
REMARK SMILES IDX 7 13 8 14 9 15 13 16 11 17 10 18 12 20 4 22 21 24 18 26
REMARK H PARENT 10 19 12 21 4 23 21 25 18 27
REMARK Flexibility Score: inf
ROOT
ATOM      1  C   UNL     1      -2.562 -29.068  -1.479  1.00  0.00     0.180 A 
ATOM      2  C   UNL     1      -3.863 -29.271  -0.988  1.00  0.00     0.208 A 
ATOM      3  C   UNL     1      -4.855 -29.740  -1.864  1.00  0.00     0.238 A 
ATOM      4  O   UNL     1      -6.031 -29.868  -1.432  1.00  0.00    -0.285 OA
ATOM      5  C   UNL     1      -4.531 -30.014  -3.214  1.00  0.00     0.111 A 
ATOM      6  C   UNL     1      -5.448 -30.531  -4.179  1.00  0.00     0.134 A 
ATOM      7  C   UNL     1      -5.051 -30.642  -5.518  1.00  0.00     0.093 A 
ATOM      8  C   UNL     1      -3.755 -30.316  -5.914  1.00  0.00     0.123 A 
ATOM      9  C   UNL     1      -2.832 -29.867  -4.968  1.00  0.00     0.094 A 
ATOM     10  C   UNL     1      -3.208 -29.712  -3.632  1.00  0.00     0.146 A 
ATOM     11  O   UNL     1      -2.304 -29.272  -2.765  1.00  0.00    -0.452 OA
ENDROOT
BRANCH   1  12
ATOM     12  C   UNL     1      -1.457 -28.600  -0.611  1.00  0.00     0.025 A 
ATOM     13  C   UNL     1      -0.907 -29.476   0.338  1.00  0.00     0.016 A 
ATOM     14  C   UNL     1       0.122 -29.049   1.183  1.00  0.00     0.051 A 
ATOM     15  C   UNL     1       0.605 -27.737   1.102  1.00  0.00     0.157 A 
ATOM     16  C   UNL     1      -0.983 -27.277  -0.675  1.00  0.00     0.062 A 
ATOM     17  C   UNL     1       0.045 -26.846   0.170  1.00  0.00     0.158 A 
BRANCH  15  18
ATOM     18  O   UNL     1       1.632 -27.315   1.944  1.00  0.00    -0.504 OA
ATOM     19  H   UNL     1       2.201 -27.976   2.459  1.00  0.00     0.293 HD
ENDBRANCH  15  18
BRANCH  17  20
ATOM     20  O   UNL     1       0.493 -25.528   0.075  1.00  0.00    -0.504 OA
ATOM     21  H   UNL     1       1.443 -25.265   0.306  1.00  0.00     0.293 HD
ENDBRANCH  17  20
ENDBRANCH   1  12
BRANCH   2  22
ATOM     22  O   UNL     1      -4.167 -28.973   0.344  1.00  0.00    -0.502 OA
ATOM     23  H   UNL     1      -5.006 -28.473   0.611  1.00  0.00     0.293 HD
ENDBRANCH   2  22
BRANCH   6  24
ATOM     24  O   UNL     1      -6.737 -30.972  -3.871  1.00  0.00    -0.507 OA
ATOM     25  H   UNL     1      -7.042 -31.265  -2.956  1.00  0.00     0.293 HD
ENDBRANCH   6  24
BRANCH   8  26
ATOM     26  O   UNL     1      -3.390 -30.454  -7.252  1.00  0.00    -0.508 OA
ATOM     27  H   UNL     1      -2.794 -31.212  -7.563  1.00  0.00     0.293 HD
ENDBRANCH   8  26
TORSDOF 6
ENDMDL
MODEL 4
REMARK VINA RESULT:    -5.664      2.105      7.474
REMARK INTER + INTRA:          -7.158
REMARK INTER:                  -6.873
REMARK INTRA:                  -0.285
REMARK UNBOUND:                -0.334
REMARK SMILES O=c1c(O)c(-c2ccc(O)c(O)c2)oc2cc(O)cc(O)c12
REMARK SMILES IDX 5 1 3 2 2 3 1 4 22 5 20 6 19 7 17 8 16 9 15 10 14 11 6 12
REMARK SMILES IDX 7 13 8 14 9 15 13 16 11 17 10 18 12 20 4 22 21 24 18 26
REMARK H PARENT 10 19 12 21 4 23 21 25 18 27
REMARK Flexibility Score: inf
ROOT
ATOM      1  C   UNL     1      -2.385 -29.713  -1.945  1.00  0.00     0.180 A 
ATOM      2  C   UNL     1      -2.357 -30.597  -0.853  1.00  0.00     0.208 A 
ATOM      3  C   UNL     1      -1.719 -30.196   0.332  1.00  0.00     0.238 A 
ATOM      4  O   UNL     1      -1.651 -31.013   1.288  1.00  0.00    -0.285 OA
ATOM      5  C   UNL     1      -1.130 -28.912   0.414  1.00  0.00     0.111 A 
ATOM      6  C   UNL     1      -0.492 -28.386   1.579  1.00  0.00     0.134 A 
ATOM      7  C   UNL     1       0.170 -27.154   1.506  1.00  0.00     0.093 A 
ATOM      8  C   UNL     1       0.163 -26.401   0.333  1.00  0.00     0.123 A 
ATOM      9  C   UNL     1      -0.509 -26.877  -0.793  1.00  0.00     0.094 A 
ATOM     10  C   UNL     1      -1.148 -28.119  -0.763  1.00  0.00     0.146 A 
ATOM     11  O   UNL     1      -1.767 -28.541  -1.859  1.00  0.00    -0.452 OA
ENDROOT
BRANCH   1  12
ATOM     12  C   UNL     1      -3.061 -30.055  -3.218  1.00  0.00     0.025 A 
ATOM     13  C   UNL     1      -4.460 -29.975  -3.299  1.00  0.00     0.016 A 
ATOM     14  C   UNL     1      -5.121 -30.313  -4.483  1.00  0.00     0.051 A 
ATOM     15  C   UNL     1      -4.395 -30.751  -5.597  1.00  0.00     0.157 A 
ATOM     16  C   UNL     1      -2.337 -30.514  -4.333  1.00  0.00     0.062 A 
ATOM     17  C   UNL     1      -2.995 -30.856  -5.519  1.00  0.00     0.158 A 
BRANCH  15  18
ATOM     18  O   UNL     1      -5.056 -31.086  -6.778  1.00  0.00    -0.504 OA
ATOM     19  H   UNL     1      -4.766 -31.876  -7.342  1.00  0.00     0.293 HD
ENDBRANCH  15  18
BRANCH  17  20
ATOM     20  O   UNL     1      -2.245 -31.302  -6.606  1.00  0.00    -0.504 OA
ATOM     21  H   UNL     1      -1.956 -32.268  -6.700  1.00  0.00     0.293 HD
ENDBRANCH  17  20
ENDBRANCH   1  12
BRANCH   2  22
ATOM     22  O   UNL     1      -2.927 -31.870  -0.963  1.00  0.00    -0.502 OA
ATOM     23  H   UNL     1      -3.899 -32.010  -1.206  1.00  0.00     0.293 HD
ENDBRANCH   2  22
BRANCH   6  24
ATOM     24  O   UNL     1      -0.504 -29.016   2.826  1.00  0.00    -0.507 OA
ATOM     25  H   UNL     1      -1.310 -29.084   3.428  1.00  0.00     0.293 HD
ENDBRANCH   6  24
BRANCH   8  26
ATOM     26  O   UNL     1       0.819 -25.171   0.302  1.00  0.00    -0.508 OA
ATOM     27  H   UNL     1       1.714 -25.061  -0.161  1.00  0.00     0.293 HD
ENDBRANCH   8  26
TORSDOF 6
ENDMDL
MODEL 5
REMARK VINA RESULT:    -5.662      2.488      7.951
REMARK INTER + INTRA:          -7.155
REMARK INTER:                  -6.822
REMARK INTRA:                  -0.333
REMARK UNBOUND:                -0.334
REMARK SMILES O=c1c(O)c(-c2ccc(O)c(O)c2)oc2cc(O)cc(O)c12
REMARK SMILES IDX 5 1 3 2 2 3 1 4 22 5 20 6 19 7 17 8 16 9 15 10 14 11 6 12
REMARK SMILES IDX 7 13 8 14 9 15 13 16 11 17 10 18 12 20 4 22 21 24 18 26
REMARK H PARENT 10 19 12 21 4 23 21 25 18 27
REMARK Flexibility Score: inf
ROOT
ATOM      1  C   UNL     1      -6.983 -31.128  -5.757  1.00  0.00     0.180 A 
ATOM      2  C   UNL     1      -7.028 -30.657  -4.433  1.00  0.00     0.208 A 
ATOM      3  C   UNL     1      -5.829 -30.284  -3.803  1.00  0.00     0.238 A 
ATOM      4  O   UNL     1      -5.869 -29.915  -2.600  1.00  0.00    -0.285 OA
ATOM      5  C   UNL     1      -4.606 -30.372  -4.508  1.00  0.00     0.111 A 
ATOM      6  C   UNL     1      -3.337 -29.983  -3.982  1.00  0.00     0.134 A 
ATOM      7  C   UNL     1      -2.175 -30.235  -4.722  1.00  0.00     0.093 A 
ATOM      8  C   UNL     1      -2.241 -30.802  -5.995  1.00  0.00     0.123 A 
ATOM      9  C   UNL     1      -3.481 -31.130  -6.544  1.00  0.00     0.094 A 
ATOM     10  C   UNL     1      -4.654 -30.925  -5.815  1.00  0.00     0.146 A 
ATOM     11  O   UNL     1      -5.813 -31.260  -6.370  1.00  0.00    -0.452 OA
ENDROOT
BRANCH   1  12
ATOM     12  C   UNL     1      -8.207 -31.516  -6.496  1.00  0.00     0.025 A 
ATOM     13  C   UNL     1      -8.596 -32.864  -6.527  1.00  0.00     0.016 A 
ATOM     14  C   UNL     1      -9.735 -33.256  -7.235  1.00  0.00     0.051 A 
ATOM     15  C   UNL     1     -10.493 -32.309  -7.935  1.00  0.00     0.157 A 
ATOM     16  C   UNL     1      -8.959 -30.571  -7.217  1.00  0.00     0.062 A 
ATOM     17  C   UNL     1     -10.099 -30.960  -7.929  1.00  0.00     0.158 A 
BRANCH  15  18
ATOM     18  O   UNL     1     -11.629 -32.702  -8.640  1.00  0.00    -0.504 OA
ATOM     19  H   UNL     1     -12.546 -32.330  -8.419  1.00  0.00     0.293 HD
ENDBRANCH  15  18
BRANCH  17  20
ATOM     20  O   UNL     1     -10.823 -29.995  -8.629  1.00  0.00    -0.504 OA
ATOM     21  H   UNL     1     -11.431 -29.335  -8.161  1.00  0.00     0.293 HD
ENDBRANCH  17  20
ENDBRANCH   1  12
BRANCH   2  22
ATOM     22  O   UNL     1      -8.245 -30.599  -3.748  1.00  0.00    -0.502 OA
ATOM     23  H   UNL     1      -9.119 -30.892  -4.167  1.00  0.00     0.293 HD
ENDBRANCH   2  22
BRANCH   6  24
ATOM     24  O   UNL     1      -3.168 -29.327  -2.760  1.00  0.00    -0.507 OA
ATOM     25  H   UNL     1      -3.676 -28.503  -2.474  1.00  0.00     0.293 HD
ENDBRANCH   6  24
BRANCH   8  26
ATOM     26  O   UNL     1      -1.065 -31.024  -6.710  1.00  0.00    -0.508 OA
ATOM     27  H   UNL     1      -0.163 -30.739  -6.346  1.00  0.00     0.293 HD
ENDBRANCH   8  26
TORSDOF 6
ENDMDL
MODEL 6
REMARK VINA RESULT:    -5.646      2.204      7.026
REMARK INTER + INTRA:          -7.135
REMARK INTER:                  -6.821
REMARK INTRA:                  -0.315
REMARK UNBOUND:                -0.334
REMARK SMILES O=c1c(O)c(-c2ccc(O)c(O)c2)oc2cc(O)cc(O)c12
REMARK SMILES IDX 5 1 3 2 2 3 1 4 22 5 20 6 19 7 17 8 16 9 15 10 14 11 6 12
REMARK SMILES IDX 7 13 8 14 9 15 13 16 11 17 10 18 12 20 4 22 21 24 18 26
REMARK H PARENT 10 19 12 21 4 23 21 25 18 27
REMARK Flexibility Score: inf
ROOT
ATOM      1  C   UNL     1      -5.817 -31.178  -5.501  1.00  0.00     0.180 A 
ATOM      2  C   UNL     1      -4.504 -30.848  -5.879  1.00  0.00     0.208 A 
ATOM      3  C   UNL     1      -3.642 -30.285  -4.923  1.00  0.00     0.238 A 
ATOM      4  O   UNL     1      -2.485 -29.942  -5.281  1.00  0.00    -0.285 OA
ATOM      5  C   UNL     1      -4.099 -30.074  -3.601  1.00  0.00     0.111 A 
ATOM      6  C   UNL     1      -3.299 -29.547  -2.542  1.00  0.00     0.134 A 
ATOM      7  C   UNL     1      -3.893 -29.259  -1.306  1.00  0.00     0.093 A 
ATOM      8  C   UNL     1      -5.239 -29.538  -1.072  1.00  0.00     0.123 A 
ATOM      9  C   UNL     1      -6.015 -30.110  -2.080  1.00  0.00     0.094 A 
ATOM     10  C   UNL     1      -5.461 -30.374  -3.335  1.00  0.00     0.146 A 
ATOM     11  O   UNL     1      -6.236 -30.908  -4.271  1.00  0.00    -0.452 OA
ENDROOT
BRANCH   1  12
ATOM     12  C   UNL     1      -6.775 -31.799  -6.446  1.00  0.00     0.025 A 
ATOM     13  C   UNL     1      -6.879 -33.197  -6.503  1.00  0.00     0.016 A 
ATOM     14  C   UNL     1      -7.760 -33.805  -7.401  1.00  0.00     0.051 A 
ATOM     15  C   UNL     1      -8.539 -33.025  -8.265  1.00  0.00     0.157 A 
ATOM     16  C   UNL     1      -7.544 -31.020  -7.329  1.00  0.00     0.062 A 
ATOM     17  C   UNL     1      -8.426 -31.625  -8.231  1.00  0.00     0.158 A 
BRANCH  15  18
ATOM     18  O   UNL     1      -9.419 -33.634  -9.159  1.00  0.00    -0.504 OA
ATOM     19  H   UNL     1      -9.530 -33.295 -10.108  1.00  0.00     0.293 HD
ENDBRANCH  15  18
BRANCH  17  20
ATOM     20  O   UNL     1      -9.176 -30.820  -9.088  1.00  0.00    -0.504 OA
ATOM     21  H   UNL     1      -9.952 -31.185  -9.626  1.00  0.00     0.293 HD
ENDBRANCH  17  20
ENDBRANCH   1  12
BRANCH   2  22
ATOM     22  O   UNL     1      -4.080 -31.045  -7.196  1.00  0.00    -0.502 OA
ATOM     23  H   UNL     1      -3.315 -30.523  -7.605  1.00  0.00     0.293 HD
ENDBRANCH   2  22
BRANCH   6  24
ATOM     24  O   UNL     1      -1.925 -29.317  -2.643  1.00  0.00    -0.507 OA
ATOM     25  H   UNL     1      -1.456 -28.484  -2.320  1.00  0.00     0.293 HD
ENDBRANCH   6  24
BRANCH   8  26
ATOM     26  O   UNL     1      -5.792 -29.253   0.176  1.00  0.00    -0.508 OA
ATOM     27  H   UNL     1      -5.280 -28.728   0.875  1.00  0.00     0.293 HD
ENDBRANCH   8  26
TORSDOF 6
ENDMDL
MODEL 7
REMARK VINA RESULT:    -5.541      2.394      8.196
REMARK INTER + INTRA:          -7.009
REMARK INTER:                  -6.872
REMARK INTRA:                  -0.137
REMARK UNBOUND:                -0.334
REMARK SMILES O=c1c(O)c(-c2ccc(O)c(O)c2)oc2cc(O)cc(O)c12
REMARK SMILES IDX 5 1 3 2 2 3 1 4 22 5 20 6 19 7 17 8 16 9 15 10 14 11 6 12
REMARK SMILES IDX 7 13 8 14 9 15 13 16 11 17 10 18 12 20 4 22 21 24 18 26
REMARK H PARENT 10 19 12 21 4 23 21 25 18 27
REMARK Flexibility Score: inf
ROOT
ATOM      1  C   UNL     1      -1.676 -28.574  -0.724  1.00  0.00     0.180 A 
ATOM      2  C   UNL     1      -1.158 -29.422   0.270  1.00  0.00     0.208 A 
ATOM      3  C   UNL     1      -0.164 -28.932   1.133  1.00  0.00     0.238 A 
ATOM      4  O   UNL     1       0.335 -29.712   1.986  1.00  0.00    -0.285 OA
ATOM      5  C   UNL     1       0.287 -27.597   1.001  1.00  0.00     0.111 A 
ATOM      6  C   UNL     1       1.260 -26.983   1.847  1.00  0.00     0.134 A 
ATOM      7  C   UNL     1       1.726 -25.697   1.543  1.00  0.00     0.093 A 
ATOM      8  C   UNL     1       1.208 -24.980   0.465  1.00  0.00     0.123 A 
ATOM      9  C   UNL     1       0.212 -25.547  -0.332  1.00  0.00     0.094 A 
ATOM     10  C   UNL     1      -0.246 -26.841  -0.076  1.00  0.00     0.146 A 
ATOM     11  O   UNL     1      -1.187 -27.348  -0.864  1.00  0.00    -0.452 OA
ENDROOT
BRANCH   1  12
ATOM     12  C   UNL     1      -2.743 -29.011  -1.654  1.00  0.00     0.025 A 
ATOM     13  C   UNL     1      -3.994 -29.386  -1.140  1.00  0.00     0.016 A 
ATOM     14  C   UNL     1      -5.009 -29.822  -1.996  1.00  0.00     0.051 A 
ATOM     15  C   UNL     1      -4.782 -29.905  -3.376  1.00  0.00     0.157 A 
ATOM     16  C   UNL     1      -2.513 -29.115  -3.037  1.00  0.00     0.062 A 
ATOM     17  C   UNL     1      -3.526 -29.553  -3.898  1.00  0.00     0.158 A 
BRANCH  15  18
ATOM     18  O   UNL     1      -5.797 -30.339  -4.228  1.00  0.00    -0.504 OA
ATOM     19  H   UNL     1      -6.582 -29.743  -4.465  1.00  0.00     0.293 HD
ENDBRANCH  15  18
BRANCH  17  20
ATOM     20  O   UNL     1      -3.263 -29.639  -5.265  1.00  0.00    -0.504 OA
ATOM     21  H   UNL     1      -2.642 -28.992  -5.734  1.00  0.00     0.293 HD
ENDBRANCH  17  20
ENDBRANCH   1  12
BRANCH   2  22
ATOM     22  O   UNL     1      -1.602 -30.744   0.369  1.00  0.00    -0.502 OA
ATOM     23  H   UNL     1      -1.512 -31.286   1.220  1.00  0.00     0.293 HD
ENDBRANCH   2  22
BRANCH   6  24
ATOM     24  O   UNL     1       1.776 -27.577   3.001  1.00  0.00    -0.507 OA
ATOM     25  H   UNL     1       1.754 -27.163   3.920  1.00  0.00     0.293 HD
ENDBRANCH   6  24
BRANCH   8  26
ATOM     26  O   UNL     1       1.684 -23.696   0.202  1.00  0.00    -0.508 OA
ATOM     27  H   UNL     1       1.125 -23.018  -0.302  1.00  0.00     0.293 HD
ENDBRANCH   8  26
TORSDOF 6
ENDMDL
MODEL 8
REMARK VINA RESULT:    -5.516      3.918      9.660
REMARK INTER + INTRA:          -6.979
REMARK INTER:                  -6.724
REMARK INTRA:                  -0.255
REMARK UNBOUND:                -0.334
REMARK SMILES O=c1c(O)c(-c2ccc(O)c(O)c2)oc2cc(O)cc(O)c12
REMARK SMILES IDX 5 1 3 2 2 3 1 4 22 5 20 6 19 7 17 8 16 9 15 10 14 11 6 12
REMARK SMILES IDX 7 13 8 14 9 15 13 16 11 17 10 18 12 20 4 22 21 24 18 26
REMARK H PARENT 10 19 12 21 4 23 21 25 18 27
REMARK Flexibility Score: inf
ROOT
ATOM      1  C   UNL     1       0.084 -26.887   0.180  1.00  0.00     0.180 A 
ATOM      2  C   UNL     1       0.343 -25.554  -0.185  1.00  0.00     0.208 A 
ATOM      3  C   UNL     1       1.549 -24.960   0.220  1.00  0.00     0.238 A 
ATOM      4  O   UNL     1       1.751 -23.750  -0.063  1.00  0.00    -0.285 OA
ATOM      5  C   UNL     1       2.486 -25.709   0.969  1.00  0.00     0.111 A 
ATOM      6  C   UNL     1       3.758 -25.220   1.398  1.00  0.00     0.134 A 
ATOM      7  C   UNL     1       4.550 -26.006   2.245  1.00  0.00     0.093 A 
ATOM      8  C   UNL     1       4.147 -27.285   2.626  1.00  0.00     0.123 A 
ATOM      9  C   UNL     1       2.933 -27.797   2.164  1.00  0.00     0.094 A 
ATOM     10  C   UNL     1       2.105 -27.023   1.348  1.00  0.00     0.146 A 
ATOM     11  O   UNL     1       0.954 -27.543   0.938  1.00  0.00    -0.452 OA
ENDROOT
BRANCH   1  12
ATOM     12  C   UNL     1      -1.154 -27.589  -0.231  1.00  0.00     0.025 A 
ATOM     13  C   UNL     1      -2.115 -27.918   0.738  1.00  0.00     0.016 A 
ATOM     14  C   UNL     1      -3.280 -28.599   0.376  1.00  0.00     0.051 A 
ATOM     15  C   UNL     1      -3.494 -28.975  -0.956  1.00  0.00     0.157 A 
ATOM     16  C   UNL     1      -1.363 -27.987  -1.564  1.00  0.00     0.062 A 
ATOM     17  C   UNL     1      -2.528 -28.671  -1.929  1.00  0.00     0.158 A 
BRANCH  15  18
ATOM     18  O   UNL     1      -4.659 -29.654  -1.314  1.00  0.00    -0.504 OA
ATOM     19  H   UNL     1      -4.845 -30.595  -0.989  1.00  0.00     0.293 HD
ENDBRANCH  15  18
BRANCH  17  20
ATOM     20  O   UNL     1      -2.704 -29.045  -3.261  1.00  0.00    -0.504 OA
ATOM     21  H   UNL     1      -2.717 -30.016  -3.550  1.00  0.00     0.293 HD
ENDBRANCH  17  20
ENDBRANCH   1  12
BRANCH   2  22
ATOM     22  O   UNL     1      -0.607 -24.825  -0.907  1.00  0.00    -0.502 OA
ATOM     23  H   UNL     1      -0.405 -24.414  -1.810  1.00  0.00     0.293 HD
ENDBRANCH   2  22
BRANCH   6  24
ATOM     24  O   UNL     1       4.296 -23.994   1.001  1.00  0.00    -0.507 OA
ATOM     25  H   UNL     1       4.347 -23.670   0.047  1.00  0.00     0.293 HD
ENDBRANCH   6  24
BRANCH   8  26
ATOM     26  O   UNL     1       4.968 -28.045   3.458  1.00  0.00    -0.508 OA
ATOM     27  H   UNL     1       5.882 -28.360   3.154  1.00  0.00     0.293 HD
ENDBRANCH   8  26
TORSDOF 6
ENDMDL
MODEL 9
REMARK VINA RESULT:    -5.445      3.471      5.452
REMARK INTER + INTRA:          -6.894
REMARK INTER:                  -6.603
REMARK INTRA:                  -0.291
REMARK UNBOUND:                -0.334
REMARK SMILES O=c1c(O)c(-c2ccc(O)c(O)c2)oc2cc(O)cc(O)c12
REMARK SMILES IDX 5 1 3 2 2 3 1 4 22 5 20 6 19 7 17 8 16 9 15 10 14 11 6 12
REMARK SMILES IDX 7 13 8 14 9 15 13 16 11 17 10 18 12 20 4 22 21 24 18 26
REMARK H PARENT 10 19 12 21 4 23 21 25 18 27
REMARK Flexibility Score: inf
ROOT
ATOM      1  C   UNL     1      -6.346 -30.466  -3.122  1.00  0.00     0.180 A 
ATOM      2  C   UNL     1      -6.764 -31.714  -3.616  1.00  0.00     0.208 A 
ATOM      3  C   UNL     1      -6.033 -32.315  -4.653  1.00  0.00     0.238 A 
ATOM      4  O   UNL     1      -6.443 -33.407  -5.128  1.00  0.00    -0.285 OA
ATOM      5  C   UNL     1      -4.887 -31.669  -5.173  1.00  0.00     0.111 A 
ATOM      6  C   UNL     1      -4.048 -32.205  -6.197  1.00  0.00     0.134 A 
ATOM      7  C   UNL     1      -3.015 -31.420  -6.725  1.00  0.00     0.093 A 
ATOM      8  C   UNL     1      -2.750 -30.147  -6.223  1.00  0.00     0.123 A 
ATOM      9  C   UNL     1      -3.525 -29.636  -5.181  1.00  0.00     0.094 A 
ATOM     10  C   UNL     1      -4.585 -30.380  -4.658  1.00  0.00     0.146 A 
ATOM     11  O   UNL     1      -5.305 -29.855  -3.674  1.00  0.00    -0.452 OA
ENDROOT
BRANCH   1  12
ATOM     12  C   UNL     1      -7.051 -29.783  -2.013  1.00  0.00     0.025 A 
ATOM     13  C   UNL     1      -6.552 -29.895  -0.706  1.00  0.00     0.016 A 
ATOM     14  C   UNL     1      -7.212 -29.277   0.360  1.00  0.00     0.051 A 
ATOM     15  C   UNL     1      -8.388 -28.550   0.136  1.00  0.00     0.157 A 
ATOM     16  C   UNL     1      -8.243 -29.069  -2.230  1.00  0.00     0.062 A 
ATOM     17  C   UNL     1      -8.908 -28.450  -1.166  1.00  0.00     0.158 A 
BRANCH  15  18
ATOM     18  O   UNL     1      -9.043 -27.932   1.200  1.00  0.00    -0.504 OA
ATOM     19  H   UNL     1      -9.280 -26.947   1.178  1.00  0.00     0.293 HD
ENDBRANCH  15  18
BRANCH  17  20
ATOM     20  O   UNL     1     -10.085 -27.746  -1.419  1.00  0.00    -0.504 OA
ATOM     21  H   UNL     1     -10.326 -26.902  -0.915  1.00  0.00     0.293 HD
ENDBRANCH  17  20
ENDBRANCH   1  12
BRANCH   2  22
ATOM     22  O   UNL     1      -7.913 -32.325  -3.103  1.00  0.00    -0.502 OA
ATOM     23  H   UNL     1      -8.305 -33.168  -3.503  1.00  0.00     0.293 HD
ENDBRANCH   2  22
BRANCH   6  24
ATOM     24  O   UNL     1      -4.170 -33.501  -6.705  1.00  0.00    -0.507 OA
ATOM     25  H   UNL     1      -3.877 -33.787  -7.627  1.00  0.00     0.293 HD
ENDBRANCH   6  24
BRANCH   8  26
ATOM     26  O   UNL     1      -1.703 -29.400  -6.761  1.00  0.00    -0.508 OA
ATOM     27  H   UNL     1      -0.852 -29.842  -7.090  1.00  0.00     0.293 HD
ENDBRANCH   8  26
TORSDOF 6
ENDMDL
