MODEL 1
REMARK VINA RESULT:    -6.535      0.000      0.000
REMARK INTER + INTRA:          -7.977
REMARK INTER:                  -7.681
REMARK INTRA:                  -0.296
REMARK UNBOUND:                -0.296
REMARK SMILES O=c1c(O)c(-c2ccc(O)cc2)oc2cc(O)cc(O)c12
REMARK SMILES IDX 5 1 3 2 2 3 1 4 21 5 19 6 18 7 16 8 15 9 14 10 13 11 6 12
REMARK SMILES IDX 7 13 8 14 9 15 12 16 11 17 10 18 4 20 20 22 17 24
REMARK H PARENT 10 19 4 21 20 23 17 25
REMARK Flexibility Score: inf
ROOT
ATOM      1  C   UNL     1       8.790  16.352 -19.280  1.00  0.00     0.180 A 
ATOM      2  C   UNL     1       8.663  15.882 -20.601  1.00  0.00     0.208 A 
ATOM      3  C   UNL     1       8.846  14.514 -20.855  1.00  0.00     0.238 A 
ATOM      4  O   UNL     1       8.724  14.080 -22.033  1.00  0.00    -0.285 OA
ATOM      5  C   UNL     1       9.173  13.645 -19.794  1.00  0.00     0.111 A 
ATOM      6  C   UNL     1       9.378  12.255 -19.966  1.00  0.00     0.134 A 
ATOM      7  C   UNL     1       9.709  11.459 -18.859  1.00  0.00     0.093 A 
ATOM      8  C   UNL     1       9.840  12.026 -17.586  1.00  0.00     0.123 A 
ATOM      9  C   UNL     1       9.637  13.396 -17.412  1.00  0.00     0.094 A 
ATOM     10  C   UNL     1       9.305  14.207 -18.501  1.00  0.00     0.146 A 
ATOM     11  O   UNL     1       9.113  15.506 -18.306  1.00  0.00    -0.452 OA
ENDROOT
BRANCH   1  12
ATOM     12  C   UNL     1       8.592  17.777 -18.930  1.00  0.00     0.021 A 
ATOM     13  C   UNL     1       9.694  18.650 -18.936  1.00  0.00     0.016 A 
ATOM     14  C   UNL     1       9.535  19.994 -18.587  1.00  0.00     0.047 A 
ATOM     15  C   UNL     1       8.276  20.479 -18.212  1.00  0.00     0.115 A 
ATOM     16  C   UNL     1       7.336  18.267 -18.531  1.00  0.00     0.016 A 
ATOM     17  C   UNL     1       7.180  19.613 -18.181  1.00  0.00     0.047 A 
BRANCH  15  18
ATOM     18  O   UNL     1       8.106  21.817 -17.862  1.00  0.00    -0.508 OA
ATOM     19  H   UNL     1       8.772  22.526 -18.143  1.00  0.00     0.293 HD
ENDBRANCH  15  18
ENDBRANCH   1  12
BRANCH   2  20
ATOM     20  O   UNL     1       8.387  16.771 -21.643  1.00  0.00    -0.502 OA
ATOM     21  H   UNL     1       7.537  17.320 -21.678  1.00  0.00     0.293 HD
ENDBRANCH   2  20
BRANCH   6  22
ATOM     22  O   UNL     1       9.256  11.661 -21.222  1.00  0.00    -0.507 OA
ATOM     23  H   UNL     1       8.717  12.090 -21.966  1.00  0.00     0.293 HD
ENDBRANCH   6  22
BRANCH   8  24
ATOM     24  O   UNL     1      10.169  11.235 -16.487  1.00  0.00    -0.508 OA
ATOM     25  H   UNL     1      11.127  11.143 -16.169  1.00  0.00     0.293 HD
ENDBRANCH   8  24
TORSDOF 5
ENDMDL
MODEL 2
REMARK VINA RESULT:    -6.476      2.883      7.521
REMARK INTER + INTRA:          -7.908
REMARK INTER:                  -7.619
REMARK INTRA:                  -0.289
REMARK UNBOUND:                -0.296
REMARK SMILES O=c1c(O)c(-c2ccc(O)cc2)oc2cc(O)cc(O)c12
REMARK SMILES IDX 5 1 3 2 2 3 1 4 21 5 19 6 18 7 16 8 15 9 14 10 13 11 6 12
REMARK SMILES IDX 7 13 8 14 9 15 12 16 11 17 10 18 4 20 20 22 17 24
REMARK H PARENT 10 19 4 21 20 23 17 25
REMARK Flexibility Score: inf
ROOT
ATOM      1  C   UNL     1       9.884  12.079 -17.197  1.00  0.00     0.180 A 
ATOM      2  C   UNL     1      10.681  13.152 -16.755  1.00  0.00     0.208 A 
ATOM      3  C   UNL     1      10.690  14.342 -17.499  1.00  0.00     0.238 A 
ATOM      4  O   UNL     1      11.391  15.314 -17.107  1.00  0.00    -0.285 OA
ATOM      5  C   UNL     1       9.923  14.433 -18.679  1.00  0.00     0.111 A 
ATOM      6  C   UNL     1       9.881  15.593 -19.488  1.00  0.00     0.134 A 
ATOM      7  C   UNL     1       9.099  15.601 -20.653  1.00  0.00     0.093 A 
ATOM      8  C   UNL     1       8.361  14.471 -21.023  1.00  0.00     0.123 A 
ATOM      9  C   UNL     1       8.400  13.325 -20.228  1.00  0.00     0.094 A 
ATOM     10  C   UNL     1       9.171  13.297 -19.063  1.00  0.00     0.146 A 
ATOM     11  O   UNL     1       9.184  12.195 -18.322  1.00  0.00    -0.452 OA
ENDROOT
BRANCH   1  12
ATOM     12  C   UNL     1       9.807  10.800 -16.456  1.00  0.00     0.021 A 
ATOM     13  C   UNL     1       8.884  10.665 -15.404  1.00  0.00     0.016 A 
ATOM     14  C   UNL     1       8.810   9.474 -14.676  1.00  0.00     0.047 A 
ATOM     15  C   UNL     1       9.667   8.409 -14.978  1.00  0.00     0.115 A 
ATOM     16  C   UNL     1      10.679   9.733 -16.740  1.00  0.00     0.016 A 
ATOM     17  C   UNL     1      10.603   8.543 -16.008  1.00  0.00     0.047 A 
BRANCH  15  18
ATOM     18  O   UNL     1       9.602   7.217 -14.259  1.00  0.00    -0.508 OA
ATOM     19  H   UNL     1       9.350   7.204 -13.278  1.00  0.00     0.293 HD
ENDBRANCH  15  18
ENDBRANCH   1  12
BRANCH   2  20
ATOM     20  O   UNL     1      11.470  13.021 -15.609  1.00  0.00    -0.502 OA
ATOM     21  H   UNL     1      11.291  13.548 -14.763  1.00  0.00     0.293 HD
ENDBRANCH   2  20
BRANCH   6  22
ATOM     22  O   UNL     1      10.606  16.735 -19.145  1.00  0.00    -0.507 OA
ATOM     23  H   UNL     1      11.181  16.772 -18.312  1.00  0.00     0.293 HD
ENDBRANCH   6  22
BRANCH   8  24
ATOM     24  O   UNL     1       7.585  14.478 -22.181  1.00  0.00    -0.508 OA
ATOM     25  H   UNL     1       7.134  15.323 -22.511  1.00  0.00     0.293 HD
ENDBRANCH   8  24
TORSDOF 5
ENDMDL
MODEL 3
REMARK VINA RESULT:    -6.310      2.449      7.026
REMARK INTER + INTRA:          -7.713
REMARK INTER:                  -7.423
REMARK INTRA:                  -0.290
REMARK UNBOUND:                -0.296
REMARK SMILES O=c1c(O)c(-c2ccc(O)cc2)oc2cc(O)cc(O)c12
REMARK SMILES IDX 5 1 3 2 2 3 1 4 21 5 19 6 18 7 16 8 15 9 14 10 13 11 6 12
REMARK SMILES IDX 7 13 8 14 9 15 12 16 11 17 10 18 4 20 20 22 17 24
REMARK H PARENT 10 19 4 21 20 23 17 25
REMARK Flexibility Score: inf
ROOT
ATOM      1  C   UNL     1       9.193  11.792 -18.003  1.00  0.00     0.180 A 
ATOM      2  C   UNL     1       8.438  11.488 -19.152  1.00  0.00     0.208 A 
ATOM      3  C   UNL     1       8.220  12.494 -20.107  1.00  0.00     0.238 A 
ATOM      4  O   UNL     1       7.555  12.231 -21.145  1.00  0.00    -0.285 OA
ATOM      5  C   UNL     1       8.740  13.786 -19.888  1.00  0.00     0.111 A 
ATOM      6  C   UNL     1       8.562  14.856 -20.797  1.00  0.00     0.134 A 
ATOM      7  C   UNL     1       9.103  16.117 -20.502  1.00  0.00     0.093 A 
ATOM      8  C   UNL     1       9.817  16.326 -19.317  1.00  0.00     0.123 A 
ATOM      9  C   UNL     1       9.996  15.274 -18.419  1.00  0.00     0.094 A 
ATOM     10  C   UNL     1       9.466  14.010 -18.694  1.00  0.00     0.146 A 
ATOM     11  O   UNL     1       9.655  13.025 -17.824  1.00  0.00    -0.452 OA
ENDROOT
BRANCH   1  12
ATOM     12  C   UNL     1       9.482  10.779 -16.962  1.00  0.00     0.021 A 
ATOM     13  C   UNL     1      10.604   9.944 -17.102  1.00  0.00     0.016 A 
ATOM     14  C   UNL     1      10.883   8.966 -16.143  1.00  0.00     0.047 A 
ATOM     15  C   UNL     1      10.035   8.799 -15.041  1.00  0.00     0.115 A 
ATOM     16  C   UNL     1       8.624  10.591 -15.863  1.00  0.00     0.016 A 
ATOM     17  C   UNL     1       8.905   9.611 -14.906  1.00  0.00     0.047 A 
BRANCH  15  18
ATOM     18  O   UNL     1      10.304   7.828 -14.079  1.00  0.00    -0.508 OA
ATOM     19  H   UNL     1      11.233   7.705 -13.696  1.00  0.00     0.293 HD
ENDBRANCH  15  18
ENDBRANCH   1  12
BRANCH   2  20
ATOM     20  O   UNL     1       7.892  10.213 -19.322  1.00  0.00    -0.502 OA
ATOM     21  H   UNL     1       8.357   9.491 -19.860  1.00  0.00     0.293 HD
ENDBRANCH   2  20
BRANCH   6  22
ATOM     22  O   UNL     1       7.854  14.679 -21.987  1.00  0.00    -0.507 OA
ATOM     23  H   UNL     1       8.006  13.873 -22.583  1.00  0.00     0.293 HD
ENDBRANCH   6  22
BRANCH   8  24
ATOM     24  O   UNL     1      10.354  17.578 -19.024  1.00  0.00    -0.508 OA
ATOM     25  H   UNL     1       9.966  18.427 -19.418  1.00  0.00     0.293 HD
ENDBRANCH   8  24
TORSDOF 5
ENDMDL
MODEL 4
REMARK VINA RESULT:    -6.274      2.550      7.459
REMARK INTER + INTRA:          -7.670
REMARK INTER:                  -7.446
REMARK INTRA:                  -0.224
REMARK UNBOUND:                -0.296
REMARK SMILES O=c1c(O)c(-c2ccc(O)cc2)oc2cc(O)cc(O)c12
REMARK SMILES IDX 5 1 3 2 2 3 1 4 21 5 19 6 18 7 16 8 15 9 14 10 13 11 6 12
REMARK SMILES IDX 7 13 8 14 9 15 12 16 11 17 10 18 4 20 20 22 17 24
REMARK H PARENT 10 19 4 21 20 23 17 25
REMARK Flexibility Score: inf
ROOT
ATOM      1  C   UNL     1       9.199  12.255 -18.724  1.00  0.00     0.180 A 
ATOM      2  C   UNL     1       9.767  13.187 -17.834  1.00  0.00     0.208 A 
ATOM      3  C   UNL     1       9.908  14.521 -18.248  1.00  0.00     0.238 A 
ATOM      4  O   UNL     1      10.405  15.367 -17.456  1.00  0.00    -0.285 OA
ATOM      5  C   UNL     1       9.503  14.895 -19.546  1.00  0.00     0.111 A 
ATOM      6  C   UNL     1       9.615  16.215 -20.042  1.00  0.00     0.134 A 
ATOM      7  C   UNL     1       9.196  16.505 -21.350  1.00  0.00     0.093 A 
ATOM      8  C   UNL     1       8.669  15.500 -22.168  1.00  0.00     0.123 A 
ATOM      9  C   UNL     1       8.556  14.197 -21.682  1.00  0.00     0.094 A 
ATOM     10  C   UNL     1       8.966  13.887 -20.382  1.00  0.00     0.146 A 
ATOM     11  O   UNL     1       8.841  12.640 -19.944  1.00  0.00    -0.452 OA
ENDROOT
BRANCH   1  12
ATOM     12  C   UNL     1       8.999  10.835 -18.352  1.00  0.00     0.021 A 
ATOM     13  C   UNL     1       7.713  10.386 -18.007  1.00  0.00     0.016 A 
ATOM     14  C   UNL     1       7.505   9.055 -17.631  1.00  0.00     0.047 A 
ATOM     15  C   UNL     1       8.582   8.162 -17.580  1.00  0.00     0.115 A 
ATOM     16  C   UNL     1      10.079   9.937 -18.278  1.00  0.00     0.016 A 
ATOM     17  C   UNL     1       9.868   8.607 -17.901  1.00  0.00     0.047 A 
BRANCH  15  18
ATOM     18  O   UNL     1       8.386   6.834 -17.207  1.00  0.00    -0.508 OA
ATOM     19  H   UNL     1       9.133   6.281 -16.805  1.00  0.00     0.293 HD
ENDBRANCH  15  18
ENDBRANCH   1  12
BRANCH   2  20
ATOM     20  O   UNL     1      10.206  12.781 -16.571  1.00  0.00    -0.502 OA
ATOM     21  H   UNL     1      10.521  11.837 -16.383  1.00  0.00     0.293 HD
ENDBRANCH   2  20
BRANCH   6  22
ATOM     22  O   UNL     1      10.137  17.239 -19.250  1.00  0.00    -0.507 OA
ATOM     23  H   UNL     1      10.649  17.045 -18.396  1.00  0.00     0.293 HD
ENDBRANCH   6  22
BRANCH   8  24
ATOM     24  O   UNL     1       8.254  15.788 -23.467  1.00  0.00    -0.508 OA
ATOM     25  H   UNL     1       8.730  16.479 -24.035  1.00  0.00     0.293 HD
ENDBRANCH   8  24
TORSDOF 5
ENDMDL
MODEL 5
REMARK VINA RESULT:    -6.235      3.663      6.566
REMARK INTER + INTRA:          -7.625
REMARK INTER:                  -7.400
REMARK INTRA:                  -0.225
REMARK UNBOUND:                -0.296
REMARK SMILES O=c1c(O)c(-c2ccc(O)cc2)oc2cc(O)cc(O)c12
REMARK SMILES IDX 5 1 3 2 2 3 1 4 21 5 19 6 18 7 16 8 15 9 14 10 13 11 6 12
REMARK SMILES IDX 7 13 8 14 9 15 12 16 11 17 10 18 4 20 20 22 17 24
REMARK H PARENT 10 19 4 21 20 23 17 25
REMARK Flexibility Score: inf
ROOT
ATOM      1  C   UNL     1       9.720  11.388 -16.259  1.00  0.00     0.180 A 
ATOM      2  C   UNL     1      10.187  10.171 -16.792  1.00  0.00     0.208 A 
ATOM      3  C   UNL     1       9.872   8.974 -16.128  1.00  0.00     0.238 A 
ATOM      4  O   UNL     1      10.276   7.878 -16.601  1.00  0.00    -0.285 OA
ATOM      5  C   UNL     1       9.118   9.015 -14.938  1.00  0.00     0.111 A 
ATOM      6  C   UNL     1       8.761   7.858 -14.206  1.00  0.00     0.134 A 
ATOM      7  C   UNL     1       8.015   7.983 -13.024  1.00  0.00     0.093 A 
ATOM      8  C   UNL     1       7.620   9.243 -12.562  1.00  0.00     0.123 A 
ATOM      9  C   UNL     1       7.968  10.387 -13.281  1.00  0.00     0.094 A 
ATOM     10  C   UNL     1       8.710  10.285 -14.461  1.00  0.00     0.146 A 
ATOM     11  O   UNL     1       9.022  11.389 -15.128  1.00  0.00    -0.452 OA
ENDROOT
BRANCH   1  12
ATOM     12  C   UNL     1       9.994  12.688 -16.913  1.00  0.00     0.021 A 
ATOM     13  C   UNL     1       9.303  13.030 -18.089  1.00  0.00     0.016 A 
ATOM     14  C   UNL     1       9.562  14.242 -18.735  1.00  0.00     0.047 A 
ATOM     15  C   UNL     1      10.526  15.120 -18.224  1.00  0.00     0.115 A 
ATOM     16  C   UNL     1      10.975  13.566 -16.418  1.00  0.00     0.016 A 
ATOM     17  C   UNL     1      11.233  14.777 -17.067  1.00  0.00     0.047 A 
BRANCH  15  18
ATOM     18  O   UNL     1      10.792  16.331 -18.859  1.00  0.00    -0.508 OA
ATOM     19  H   UNL     1      11.706  16.537 -19.245  1.00  0.00     0.293 HD
ENDBRANCH  15  18
ENDBRANCH   1  12
BRANCH   2  20
ATOM     20  O   UNL     1      10.975  10.160 -17.946  1.00  0.00    -0.502 OA
ATOM     21  H   UNL     1      11.803  10.736 -18.043  1.00  0.00     0.293 HD
ENDBRANCH   2  20
BRANCH   6  22
ATOM     22  O   UNL     1       9.142   6.587 -14.641  1.00  0.00    -0.507 OA
ATOM     23  H   UNL     1       8.987   6.282 -15.596  1.00  0.00     0.293 HD
ENDBRANCH   6  22
BRANCH   8  24
ATOM     24  O   UNL     1       6.879   9.368 -11.388  1.00  0.00    -0.508 OA
ATOM     25  H   UNL     1       6.906   8.658 -10.666  1.00  0.00     0.293 HD
ENDBRANCH   8  24
TORSDOF 5
ENDMDL
MODEL 6
REMARK VINA RESULT:    -6.215      2.873      4.755
REMARK INTER + INTRA:          -7.601
REMARK INTER:                  -7.655
REMARK INTRA:                   0.054
REMARK UNBOUND:                -0.296
REMARK SMILES O=c1c(O)c(-c2ccc(O)cc2)oc2cc(O)cc(O)c12
REMARK SMILES IDX 5 1 3 2 2 3 1 4 21 5 19 6 18 7 16 8 15 9 14 10 13 11 6 12
REMARK SMILES IDX 7 13 8 14 9 15 12 16 11 17 10 18 4 20 20 22 17 24
REMARK H PARENT 10 19 4 21 20 23 17 25
REMARK Flexibility Score: inf
ROOT
ATOM      1  C   UNL     1       9.091  12.927 -18.754  1.00  0.00     0.180 A 
ATOM      2  C   UNL     1       9.474  11.601 -19.035  1.00  0.00     0.208 A 
ATOM      3  C   UNL     1       9.480  10.661 -17.993  1.00  0.00     0.238 A 
ATOM      4  O   UNL     1       9.810   9.469 -18.234  1.00  0.00    -0.285 OA
ATOM      5  C   UNL     1       9.125  11.064 -16.689  1.00  0.00     0.111 A 
ATOM      6  C   UNL     1       9.108  10.181 -15.583  1.00  0.00     0.134 A 
ATOM      7  C   UNL     1       8.751  10.662 -14.314  1.00  0.00     0.093 A 
ATOM      8  C   UNL     1       8.412  12.007 -14.131  1.00  0.00     0.123 A 
ATOM      9  C   UNL     1       8.426  12.880 -15.219  1.00  0.00     0.094 A 
ATOM     10  C   UNL     1       8.777  12.422 -16.492  1.00  0.00     0.146 A 
ATOM     11  O   UNL     1       8.776  13.274 -17.510  1.00  0.00    -0.452 OA
ENDROOT
BRANCH   1  12
ATOM     12  C   UNL     1       9.042  13.970 -19.804  1.00  0.00     0.021 A 
ATOM     13  C   UNL     1       9.563  15.248 -19.534  1.00  0.00     0.016 A 
ATOM     14  C   UNL     1       9.507  16.254 -20.502  1.00  0.00     0.047 A 
ATOM     15  C   UNL     1       8.915  16.002 -21.746  1.00  0.00     0.115 A 
ATOM     16  C   UNL     1       8.431  13.731 -21.048  1.00  0.00     0.016 A 
ATOM     17  C   UNL     1       8.375  14.741 -22.014  1.00  0.00     0.047 A 
BRANCH  15  18
ATOM     18  O   UNL     1       8.854  16.998 -22.719  1.00  0.00    -0.508 OA
ATOM     19  H   UNL     1       8.400  16.840 -23.610  1.00  0.00     0.293 HD
ENDBRANCH  15  18
ENDBRANCH   1  12
BRANCH   2  20
ATOM     20  O   UNL     1       9.870  11.239 -20.325  1.00  0.00    -0.502 OA
ATOM     21  H   UNL     1      10.191  11.917 -21.006  1.00  0.00     0.293 HD
ENDBRANCH   2  20
BRANCH   6  22
ATOM     22  O   UNL     1       9.443   8.834 -15.734  1.00  0.00    -0.507 OA
ATOM     23  H   UNL     1       8.896   8.211 -16.317  1.00  0.00     0.293 HD
ENDBRANCH   6  22
BRANCH   8  24
ATOM     24  O   UNL     1       8.058  12.484 -12.871  1.00  0.00    -0.508 OA
ATOM     25  H   UNL     1       8.013  11.871 -12.065  1.00  0.00     0.293 HD
ENDBRANCH   8  24
TORSDOF 5
ENDMDL
MODEL 7
REMARK VINA RESULT:    -6.056      3.723      8.066
REMARK INTER + INTRA:          -7.414
REMARK INTER:                  -7.396
REMARK INTRA:                  -0.018
REMARK UNBOUND:                -0.296
REMARK SMILES O=c1c(O)c(-c2ccc(O)cc2)oc2cc(O)cc(O)c12
REMARK SMILES IDX 5 1 3 2 2 3 1 4 21 5 19 6 18 7 16 8 15 9 14 10 13 11 6 12
REMARK SMILES IDX 7 13 8 14 9 15 12 16 11 17 10 18 4 20 20 22 17 24
REMARK H PARENT 10 19 4 21 20 23 17 25
REMARK Flexibility Score: inf
ROOT
ATOM      1  C   UNL     1       8.588  11.352 -15.164  1.00  0.00     0.180 A 
ATOM      2  C   UNL     1       9.017  12.645 -14.806  1.00  0.00     0.208 A 
ATOM      3  C   UNL     1       9.356  13.552 -15.822  1.00  0.00     0.238 A 
ATOM      4  O   UNL     1       9.732  14.716 -15.514  1.00  0.00    -0.285 OA
ATOM      5  C   UNL     1       9.281  13.149 -17.171  1.00  0.00     0.111 A 
ATOM      6  C   UNL     1       9.608  14.000 -18.253  1.00  0.00     0.134 A 
ATOM      7  C   UNL     1       9.516  13.520 -19.569  1.00  0.00     0.093 A 
ATOM      8  C   UNL     1       9.104  12.207 -19.820  1.00  0.00     0.123 A 
ATOM      9  C   UNL     1       8.779  11.365 -18.756  1.00  0.00     0.094 A 
ATOM     10  C   UNL     1       8.863  11.823 -17.438  1.00  0.00     0.146 A 
ATOM     11  O   UNL     1       8.543  11.002 -16.446  1.00  0.00    -0.452 OA
ENDROOT
BRANCH   1  12
ATOM     12  C   UNL     1       8.195  10.346 -14.151  1.00  0.00     0.021 A 
ATOM     13  C   UNL     1       8.731   9.048 -14.221  1.00  0.00     0.016 A 
ATOM     14  C   UNL     1       8.357   8.076 -13.289  1.00  0.00     0.047 A 
ATOM     15  C   UNL     1       7.430   8.383 -12.285  1.00  0.00     0.115 A 
ATOM     16  C   UNL     1       7.249  10.640 -13.153  1.00  0.00     0.016 A 
ATOM     17  C   UNL     1       6.875   9.665 -12.222  1.00  0.00     0.047 A 
BRANCH  15  18
ATOM     18  O   UNL     1       7.051   7.422 -11.351  1.00  0.00    -0.508 OA
ATOM     19  H   UNL     1       6.471   6.633 -11.609  1.00  0.00     0.293 HD
ENDBRANCH  15  18
ENDBRANCH   1  12
BRANCH   2  20
ATOM     20  O   UNL     1       9.130  13.004 -13.461  1.00  0.00    -0.502 OA
ATOM     21  H   UNL     1       9.934  13.503 -13.098  1.00  0.00     0.293 HD
ENDBRANCH   2  20
BRANCH   6  22
ATOM     22  O   UNL     1      10.023  15.314 -18.034  1.00  0.00    -0.507 OA
ATOM     23  H   UNL     1       9.448  15.978 -17.527  1.00  0.00     0.293 HD
ENDBRANCH   6  22
BRANCH   8  24
ATOM     24  O   UNL     1       9.013  11.730 -21.126  1.00  0.00    -0.508 OA
ATOM     25  H   UNL     1       9.020  12.357 -21.922  1.00  0.00     0.293 HD
ENDBRANCH   8  24
TORSDOF 5
ENDMDL
MODEL 8
REMARK VINA RESULT:    -5.924      2.932      4.899
REMARK INTER + INTRA:          -7.260
REMARK INTER:                  -7.012
REMARK INTRA:                  -0.248
REMARK UNBOUND:                -0.296
REMARK SMILES O=c1c(O)c(-c2ccc(O)cc2)oc2cc(O)cc(O)c12
REMARK SMILES IDX 5 1 3 2 2 3 1 4 21 5 19 6 18 7 16 8 15 9 14 10 13 11 6 12
REMARK SMILES IDX 7 13 8 14 9 15 12 16 11 17 10 18 4 20 20 22 17 24
REMARK H PARENT 10 19 4 21 20 23 17 25
REMARK Flexibility Score: inf
ROOT
ATOM      1  C   UNL     1       8.926  13.167 -18.356  1.00  0.00     0.180 A 
ATOM      2  C   UNL     1       8.056  13.314 -17.258  1.00  0.00     0.208 A 
ATOM      3  C   UNL     1       8.112  12.373 -16.218  1.00  0.00     0.238 A 
ATOM      4  O   UNL     1       7.346  12.500 -15.225  1.00  0.00    -0.285 OA
ATOM      5  C   UNL     1       9.017  11.295 -16.301  1.00  0.00     0.111 A 
ATOM      6  C   UNL     1       9.133  10.303 -15.299  1.00  0.00     0.134 A 
ATOM      7  C   UNL     1      10.053   9.255 -15.460  1.00  0.00     0.093 A 
ATOM      8  C   UNL     1      10.856   9.182 -16.604  1.00  0.00     0.123 A 
ATOM      9  C   UNL     1      10.745  10.159 -17.594  1.00  0.00     0.094 A 
ATOM     10  C   UNL     1       9.837  11.212 -17.452  1.00  0.00     0.146 A 
ATOM     11  O   UNL     1       9.756  12.130 -18.407  1.00  0.00    -0.452 OA
ENDROOT
BRANCH   1  12
ATOM     12  C   UNL     1       8.940  14.129 -19.482  1.00  0.00     0.021 A 
ATOM     13  C   UNL     1       8.406  13.746 -20.725  1.00  0.00     0.016 A 
ATOM     14  C   UNL     1       8.429  14.630 -21.807  1.00  0.00     0.047 A 
ATOM     15  C   UNL     1       8.999  15.901 -21.667  1.00  0.00     0.115 A 
ATOM     16  C   UNL     1       9.529  15.400 -19.354  1.00  0.00     0.016 A 
ATOM     17  C   UNL     1       9.552  16.281 -20.440  1.00  0.00     0.047 A 
BRANCH  15  18
ATOM     18  O   UNL     1       9.027  16.790 -22.739  1.00  0.00    -0.508 OA
ATOM     19  H   UNL     1       8.200  16.979 -23.292  1.00  0.00     0.293 HD
ENDBRANCH  15  18
ENDBRANCH   1  12
BRANCH   2  20
ATOM     20  O   UNL     1       7.134  14.363 -17.223  1.00  0.00    -0.502 OA
ATOM     21  H   UNL     1       6.854  14.810 -16.358  1.00  0.00     0.293 HD
ENDBRANCH   2  20
BRANCH   6  22
ATOM     22  O   UNL     1       8.346  10.348 -14.148  1.00  0.00    -0.507 OA
ATOM     23  H   UNL     1       7.408   9.964 -14.127  1.00  0.00     0.293 HD
ENDBRANCH   6  22
BRANCH   8  24
ATOM     24  O   UNL     1      11.769   8.141 -16.765  1.00  0.00    -0.508 OA
ATOM     25  H   UNL     1      12.353   8.072 -17.589  1.00  0.00     0.293 HD
ENDBRANCH   8  24
TORSDOF 5
ENDMDL
MODEL 9
REMARK VINA RESULT:    -5.765      4.148      7.193
REMARK INTER + INTRA:          -7.073
REMARK INTER:                  -6.792
REMARK INTRA:                  -0.280
REMARK UNBOUND:                -0.296
REMARK SMILES O=c1c(O)c(-c2ccc(O)cc2)oc2cc(O)cc(O)c12
REMARK SMILES IDX 5 1 3 2 2 3 1 4 21 5 19 6 18 7 16 8 15 9 14 10 13 11 6 12
REMARK SMILES IDX 7 13 8 14 9 15 12 16 11 17 10 18 4 20 20 22 17 24
REMARK H PARENT 10 19 4 21 20 23 17 25
REMARK Flexibility Score: inf
ROOT
ATOM      1  C   UNL     1       8.806  11.417 -15.430  1.00  0.00     0.180 A 
ATOM      2  C   UNL     1       8.380  11.521 -14.092  1.00  0.00     0.208 A 
ATOM      3  C   UNL     1       7.882  10.377 -13.448  1.00  0.00     0.238 A 
ATOM      4  O   UNL     1       7.508  10.455 -12.246  1.00  0.00    -0.285 OA
ATOM      5  C   UNL     1       7.799   9.159 -14.154  1.00  0.00     0.111 A 
ATOM      6  C   UNL     1       7.307   7.963 -13.580  1.00  0.00     0.134 A 
ATOM      7  C   UNL     1       7.248   6.793 -14.354  1.00  0.00     0.093 A 
ATOM      8  C   UNL     1       7.671   6.799 -15.687  1.00  0.00     0.123 A 
ATOM      9  C   UNL     1       8.158   7.976 -16.257  1.00  0.00     0.094 A 
ATOM     10  C   UNL     1       8.227   9.152 -15.504  1.00  0.00     0.146 A 
ATOM     11  O   UNL     1       8.700  10.256 -16.069  1.00  0.00    -0.452 OA
ENDROOT
BRANCH   1  12
ATOM     12  C   UNL     1       9.360  12.574 -16.170  1.00  0.00     0.021 A 
ATOM     13  C   UNL     1       8.550  13.252 -17.098  1.00  0.00     0.016 A 
ATOM     14  C   UNL     1       9.059  14.333 -17.824  1.00  0.00     0.047 A 
ATOM     15  C   UNL     1      10.388  14.738 -17.645  1.00  0.00     0.115 A 
ATOM     16  C   UNL     1      10.699  12.974 -16.011  1.00  0.00     0.016 A 
ATOM     17  C   UNL     1      11.206  14.054 -16.740  1.00  0.00     0.047 A 
BRANCH  15  18
ATOM     18  O   UNL     1      10.905  15.814 -18.363  1.00  0.00    -0.508 OA
ATOM     19  H   UNL     1      11.059  16.716 -17.929  1.00  0.00     0.293 HD
ENDBRANCH  15  18
ENDBRANCH   1  12
BRANCH   2  20
ATOM     20  O   UNL     1       8.426  12.750 -13.429  1.00  0.00    -0.502 OA
ATOM     21  H   UNL     1       7.630  13.126 -12.927  1.00  0.00     0.293 HD
ENDBRANCH   2  20
BRANCH   6  22
ATOM     22  O   UNL     1       6.877   7.926 -12.253  1.00  0.00    -0.507 OA
ATOM     23  H   UNL     1       6.147   8.541 -11.911  1.00  0.00     0.293 HD
ENDBRANCH   6  22
BRANCH   8  24
ATOM     24  O   UNL     1       7.612   5.638 -16.455  1.00  0.00    -0.508 OA
ATOM     25  H   UNL     1       8.354   4.947 -16.430  1.00  0.00     0.293 HD
ENDBRANCH   8  24
TORSDOF 5
ENDMDL
