MODEL 1
REMARK VINA RESULT:    -8.704      0.000      0.000
REMARK INTER + INTRA:         -10.729
REMARK INTER:                 -10.485
REMARK INTRA:                  -0.243
REMARK UNBOUND:                -0.243
REMARK SMILES O=c1c(O)c(-c2ccc(O)c(O)c2)oc2cc(O)cc(O)c12
REMARK SMILES IDX 5 1 3 2 2 3 1 4 22 5 20 6 19 7 17 8 16 9 15 10 14 11 6 12
REMARK SMILES IDX 7 13 8 14 9 15 13 16 11 17 10 18 12 20 4 22 21 24 18 26
REMARK H PARENT 10 19 12 21 4 23 21 25 18 27
REMARK Flexibility Score: inf
ROOT
ATOM      1  C   UNL     1      16.132  -7.098  86.216  1.00  0.00     0.180 A 
ATOM      2  C   UNL     1      15.556  -7.372  87.472  1.00  0.00     0.208 A 
ATOM      3  C   UNL     1      14.160  -7.492  87.567  1.00  0.00     0.238 A 
ATOM      4  O   UNL     1      13.635  -7.748  88.683  1.00  0.00    -0.285 OA
ATOM      5  C   UNL     1      13.366  -7.316  86.415  1.00  0.00     0.111 A 
ATOM      6  C   UNL     1      11.954  -7.416  86.425  1.00  0.00     0.134 A 
ATOM      7  C   UNL     1      11.234  -7.219  85.239  1.00  0.00     0.093 A 
ATOM      8  C   UNL     1      11.894  -6.924  84.044  1.00  0.00     0.123 A 
ATOM      9  C   UNL     1      13.290  -6.824  84.027  1.00  0.00     0.094 A 
ATOM     10  C   UNL     1      14.027  -7.019  85.200  1.00  0.00     0.146 A 
ATOM     11  O   UNL     1      15.350  -6.924  85.155  1.00  0.00    -0.452 OA
ENDROOT
BRANCH   1  12
ATOM     12  C   UNL     1      17.596  -6.975  86.032  1.00  0.00     0.025 A 
ATOM     13  C   UNL     1      18.398  -8.125  86.092  1.00  0.00     0.016 A 
ATOM     14  C   UNL     1      19.784  -8.031  85.943  1.00  0.00     0.051 A 
ATOM     15  C   UNL     1      20.389  -6.782  85.747  1.00  0.00     0.157 A 
ATOM     16  C   UNL     1      18.209  -5.721  85.856  1.00  0.00     0.062 A 
ATOM     17  C   UNL     1      19.598  -5.622  85.708  1.00  0.00     0.158 A 
BRANCH  15  18
ATOM     18  O   UNL     1      21.773  -6.690  85.596  1.00  0.00    -0.504 OA
ATOM     19  H   UNL     1      22.274  -5.836  85.813  1.00  0.00     0.293 HD
ENDBRANCH  15  18
BRANCH  17  20
ATOM     20  O   UNL     1      20.172  -4.363  85.529  1.00  0.00    -0.504 OA
ATOM     21  H   UNL     1      19.825  -3.542  86.009  1.00  0.00     0.293 HD
ENDBRANCH  17  20
ENDBRANCH   1  12
BRANCH   2  22
ATOM     22  O   UNL     1      16.361  -7.492  88.607  1.00  0.00    -0.502 OA
ATOM     23  H   UNL     1      16.280  -6.866  89.399  1.00  0.00     0.293 HD
ENDBRANCH   2  22
BRANCH   6  24
ATOM     24  O   UNL     1      11.263  -7.709  87.602  1.00  0.00    -0.507 OA
ATOM     25  H   UNL     1      11.442  -8.555  88.130  1.00  0.00     0.293 HD
ENDBRANCH   6  24
BRANCH   8  26
ATOM     26  O   UNL     1      11.156  -6.731  82.879  1.00  0.00    -0.508 OA
ATOM     27  H   UNL     1      10.144  -6.686  82.894  1.00  0.00     0.293 HD
ENDBRANCH   8  26
TORSDOF 6
ENDMDL
MODEL 2
REMARK VINA RESULT:    -7.867      0.814      1.399
REMARK INTER + INTRA:          -9.720
REMARK INTER:                  -9.529
REMARK INTRA:                  -0.191
REMARK UNBOUND:                -0.243
REMARK SMILES O=c1c(O)c(-c2ccc(O)c(O)c2)oc2cc(O)cc(O)c12
REMARK SMILES IDX 5 1 3 2 2 3 1 4 22 5 20 6 19 7 17 8 16 9 15 10 14 11 6 12
REMARK SMILES IDX 7 13 8 14 9 15 13 16 11 17 10 18 12 20 4 22 21 24 18 26
REMARK H PARENT 10 19 12 21 4 23 21 25 18 27
REMARK Flexibility Score: inf
ROOT
ATOM      1  C   UNL     1      16.290  -7.002  85.965  1.00  0.00     0.180 A 
ATOM      2  C   UNL     1      15.816  -7.396  87.232  1.00  0.00     0.208 A 
ATOM      3  C   UNL     1      14.444  -7.646  87.396  1.00  0.00     0.238 A 
ATOM      4  O   UNL     1      14.012  -8.010  88.523  1.00  0.00    -0.285 OA
ATOM      5  C   UNL     1      13.571  -7.479  86.302  1.00  0.00     0.111 A 
ATOM      6  C   UNL     1      12.175  -7.706  86.385  1.00  0.00     0.134 A 
ATOM      7  C   UNL     1      11.370  -7.511  85.253  1.00  0.00     0.093 A 
ATOM      8  C   UNL     1      11.930  -7.091  84.044  1.00  0.00     0.123 A 
ATOM      9  C   UNL     1      13.308  -6.865  83.956  1.00  0.00     0.094 A 
ATOM     10  C   UNL     1      14.128  -7.057  85.073  1.00  0.00     0.146 A 
ATOM     11  O   UNL     1      15.433  -6.840  84.961  1.00  0.00    -0.452 OA
ENDROOT
BRANCH   1  12
ATOM     12  C   UNL     1      17.723  -6.738  85.708  1.00  0.00     0.025 A 
ATOM     13  C   UNL     1      18.332  -5.612  86.285  1.00  0.00     0.016 A 
ATOM     14  C   UNL     1      19.679  -5.331  86.039  1.00  0.00     0.051 A 
ATOM     15  C   UNL     1      20.432  -6.164  85.200  1.00  0.00     0.157 A 
ATOM     16  C   UNL     1      18.477  -7.559  84.850  1.00  0.00     0.062 A 
ATOM     17  C   UNL     1      19.826  -7.280  84.600  1.00  0.00     0.158 A 
BRANCH  15  18
ATOM     18  O   UNL     1      21.776  -5.883  84.958  1.00  0.00    -0.504 OA
ATOM     19  H   UNL     1      22.163  -5.908  84.021  1.00  0.00     0.293 HD
ENDBRANCH  15  18
BRANCH  17  20
ATOM     20  O   UNL     1      20.545  -8.119  83.748  1.00  0.00    -0.504 OA
ATOM     21  H   UNL     1      21.323  -8.678  84.075  1.00  0.00     0.293 HD
ENDBRANCH  17  20
ENDBRANCH   1  12
BRANCH   2  22
ATOM     22  O   UNL     1      16.696  -7.505  88.312  1.00  0.00    -0.502 OA
ATOM     23  H   UNL     1      16.793  -6.776  89.008  1.00  0.00     0.293 HD
ENDBRANCH   2  22
BRANCH   6  24
ATOM     24  O   UNL     1      11.585  -8.125  87.578  1.00  0.00    -0.507 OA
ATOM     25  H   UNL     1      11.006  -8.955  87.625  1.00  0.00     0.293 HD
ENDBRANCH   6  24
BRANCH   8  26
ATOM     26  O   UNL     1      11.108  -6.902  82.935  1.00  0.00    -0.508 OA
ATOM     27  H   UNL     1      10.736  -7.686  82.412  1.00  0.00     0.293 HD
ENDBRANCH   8  26
TORSDOF 6
ENDMDL
MODEL 3
REMARK VINA RESULT:    -7.745      2.195      6.867
REMARK INTER + INTRA:          -9.573
REMARK INTER:                  -9.385
REMARK INTRA:                  -0.188
REMARK UNBOUND:                -0.243
REMARK SMILES O=c1c(O)c(-c2ccc(O)c(O)c2)oc2cc(O)cc(O)c12
REMARK SMILES IDX 5 1 3 2 2 3 1 4 22 5 20 6 19 7 17 8 16 9 15 10 14 11 6 12
REMARK SMILES IDX 7 13 8 14 9 15 13 16 11 17 10 18 12 20 4 22 21 24 18 26
REMARK H PARENT 10 19 12 21 4 23 21 25 18 27
REMARK Flexibility Score: inf
ROOT
ATOM      1  C   UNL     1      17.615  -6.533  85.905  1.00  0.00     0.180 A 
ATOM      2  C   UNL     1      18.508  -5.602  86.471  1.00  0.00     0.208 A 
ATOM      3  C   UNL     1      19.677  -5.271  85.769  1.00  0.00     0.238 A 
ATOM      4  O   UNL     1      20.478  -4.431  86.261  1.00  0.00    -0.285 OA
ATOM      5  C   UNL     1      19.944  -5.887  84.529  1.00  0.00     0.111 A 
ATOM      6  C   UNL     1      21.101  -5.612  83.761  1.00  0.00     0.134 A 
ATOM      7  C   UNL     1      21.299  -6.273  82.540  1.00  0.00     0.093 A 
ATOM      8  C   UNL     1      20.367  -7.203  82.074  1.00  0.00     0.123 A 
ATOM      9  C   UNL     1      19.221  -7.479  82.828  1.00  0.00     0.094 A 
ATOM     10  C   UNL     1      19.005  -6.828  84.047  1.00  0.00     0.146 A 
ATOM     11  O   UNL     1      17.907  -7.105  84.740  1.00  0.00    -0.452 OA
ENDROOT
BRANCH   1  12
ATOM     12  C   UNL     1      16.352  -6.920  86.575  1.00  0.00     0.025 A 
ATOM     13  C   UNL     1      16.401  -7.676  87.755  1.00  0.00     0.016 A 
ATOM     14  C   UNL     1      15.222  -8.071  88.393  1.00  0.00     0.051 A 
ATOM     15  C   UNL     1      13.977  -7.728  87.850  1.00  0.00     0.157 A 
ATOM     16  C   UNL     1      15.100  -6.595  86.021  1.00  0.00     0.062 A 
ATOM     17  C   UNL     1      13.917  -6.991  86.656  1.00  0.00     0.158 A 
BRANCH  15  18
ATOM     18  O   UNL     1      12.801  -8.121  88.489  1.00  0.00    -0.504 OA
ATOM     19  H   UNL     1      12.116  -7.443  88.803  1.00  0.00     0.293 HD
ENDBRANCH  15  18
BRANCH  17  20
ATOM     20  O   UNL     1      12.692  -6.646  86.082  1.00  0.00    -0.504 OA
ATOM     21  H   UNL     1      12.345  -7.099  85.246  1.00  0.00     0.293 HD
ENDBRANCH  17  20
ENDBRANCH   1  12
BRANCH   2  22
ATOM     22  O   UNL     1      18.245  -5.044  87.724  1.00  0.00    -0.502 OA
ATOM     23  H   UNL     1      18.139  -5.608  88.559  1.00  0.00     0.293 HD
ENDBRANCH   2  22
BRANCH   6  24
ATOM     24  O   UNL     1      22.053  -4.690  84.200  1.00  0.00    -0.507 OA
ATOM     25  H   UNL     1      21.803  -3.907  84.793  1.00  0.00     0.293 HD
ENDBRANCH   6  24
BRANCH   8  26
ATOM     26  O   UNL     1      20.588  -7.847  80.858  1.00  0.00    -0.508 OA
ATOM     27  H   UNL     1      19.828  -8.264  80.334  1.00  0.00     0.293 HD
ENDBRANCH   8  26
TORSDOF 6
ENDMDL
MODEL 4
REMARK VINA RESULT:    -7.704      1.797      7.091
REMARK INTER + INTRA:          -9.524
REMARK INTER:                  -9.557
REMARK INTRA:                   0.033
REMARK UNBOUND:                -0.243
REMARK SMILES O=c1c(O)c(-c2ccc(O)c(O)c2)oc2cc(O)cc(O)c12
REMARK SMILES IDX 5 1 3 2 2 3 1 4 22 5 20 6 19 7 17 8 16 9 15 10 14 11 6 12
REMARK SMILES IDX 7 13 8 14 9 15 13 16 11 17 10 18 12 20 4 22 21 24 18 26
REMARK H PARENT 10 19 12 21 4 23 21 25 18 27
REMARK Flexibility Score: inf
ROOT
ATOM      1  C   UNL     1      15.726  -6.960  85.956  1.00  0.00     0.180 A 
ATOM      2  C   UNL     1      15.976  -7.353  84.626  1.00  0.00     0.208 A 
ATOM      3  C   UNL     1      17.237  -7.089  84.068  1.00  0.00     0.238 A 
ATOM      4  O   UNL     1      17.476  -7.445  82.882  1.00  0.00    -0.285 OA
ATOM      5  C   UNL     1      18.214  -6.423  84.836  1.00  0.00     0.111 A 
ATOM      6  C   UNL     1      19.507  -6.116  84.346  1.00  0.00     0.134 A 
ATOM      7  C   UNL     1      20.421  -5.443  85.170  1.00  0.00     0.093 A 
ATOM      8  C   UNL     1      20.069  -5.070  86.469  1.00  0.00     0.123 A 
ATOM      9  C   UNL     1      18.793  -5.371  86.959  1.00  0.00     0.094 A 
ATOM     10  C   UNL     1      17.869  -6.043  86.154  1.00  0.00     0.146 A 
ATOM     11  O   UNL     1      16.667  -6.321  86.645  1.00  0.00    -0.452 OA
ENDROOT
BRANCH   1  12
ATOM     12  C   UNL     1      14.429  -7.219  86.621  1.00  0.00     0.025 A 
ATOM     13  C   UNL     1      14.409  -7.851  87.874  1.00  0.00     0.016 A 
ATOM     14  C   UNL     1      13.195  -8.125  88.510  1.00  0.00     0.051 A 
ATOM     15  C   UNL     1      11.983  -7.785  87.895  1.00  0.00     0.157 A 
ATOM     16  C   UNL     1      13.209  -6.898  85.997  1.00  0.00     0.062 A 
ATOM     17  C   UNL     1      11.991  -7.173  86.631  1.00  0.00     0.158 A 
BRANCH  15  18
ATOM     18  O   UNL     1      10.773  -8.057  88.533  1.00  0.00    -0.504 OA
ATOM     19  H   UNL     1      10.007  -7.393  88.524  1.00  0.00     0.293 HD
ENDBRANCH  15  18
BRANCH  17  20
ATOM     20  O   UNL     1      10.801  -6.835  85.986  1.00  0.00    -0.504 OA
ATOM     21  H   UNL     1      10.474  -7.333  85.167  1.00  0.00     0.293 HD
ENDBRANCH  17  20
ENDBRANCH   1  12
BRANCH   2  22
ATOM     22  O   UNL     1      14.974  -7.966  83.870  1.00  0.00    -0.502 OA
ATOM     23  H   UNL     1      14.057  -8.170  84.248  1.00  0.00     0.293 HD
ENDBRANCH   2  22
BRANCH   6  24
ATOM     24  O   UNL     1      19.889  -6.473  83.052  1.00  0.00    -0.507 OA
ATOM     25  H   UNL     1      20.822  -6.293  82.703  1.00  0.00     0.293 HD
ENDBRANCH   6  24
BRANCH   8  26
ATOM     26  O   UNL     1      20.995  -4.401  87.267  1.00  0.00    -0.508 OA
ATOM     27  H   UNL     1      20.836  -4.260  88.257  1.00  0.00     0.293 HD
ENDBRANCH   8  26
TORSDOF 6
ENDMDL
MODEL 5
REMARK VINA RESULT:    -7.573      1.833      6.722
REMARK INTER + INTRA:          -9.366
REMARK INTER:                  -9.409
REMARK INTRA:                   0.043
REMARK UNBOUND:                -0.243
REMARK SMILES O=c1c(O)c(-c2ccc(O)c(O)c2)oc2cc(O)cc(O)c12
REMARK SMILES IDX 5 1 3 2 2 3 1 4 22 5 20 6 19 7 17 8 16 9 15 10 14 11 6 12
REMARK SMILES IDX 7 13 8 14 9 15 13 16 11 17 10 18 12 20 4 22 21 24 18 26
REMARK H PARENT 10 19 12 21 4 23 21 25 18 27
REMARK Flexibility Score: inf
ROOT
ATOM      1  C   UNL     1      15.592  -7.003  85.365  1.00  0.00     0.180 A 
ATOM      2  C   UNL     1      16.305  -6.635  86.523  1.00  0.00     0.208 A 
ATOM      3  C   UNL     1      17.699  -6.492  86.444  1.00  0.00     0.238 A 
ATOM      4  O   UNL     1      18.347  -6.153  87.471  1.00  0.00    -0.285 OA
ATOM      5  C   UNL     1      18.356  -6.737  85.221  1.00  0.00     0.111 A 
ATOM      6  C   UNL     1      19.758  -6.619  85.058  1.00  0.00     0.134 A 
ATOM      7  C   UNL     1      20.339  -6.888  83.810  1.00  0.00     0.093 A 
ATOM      8  C   UNL     1      19.549  -7.273  82.725  1.00  0.00     0.123 A 
ATOM      9  C   UNL     1      18.163  -7.391  82.879  1.00  0.00     0.094 A 
ATOM     10  C   UNL     1      17.565  -7.125  84.114  1.00  0.00     0.146 A 
ATOM     11  O   UNL     1      16.247  -7.240  84.232  1.00  0.00    -0.452 OA
ENDROOT
BRANCH   1  12
ATOM     12  C   UNL     1      14.119  -7.156  85.364  1.00  0.00     0.025 A 
ATOM     13  C   UNL     1      13.507  -7.949  86.346  1.00  0.00     0.016 A 
ATOM     14  C   UNL     1      12.120  -8.125  86.351  1.00  0.00     0.051 A 
ATOM     15  C   UNL     1      11.328  -7.523  85.364  1.00  0.00     0.157 A 
ATOM     16  C   UNL     1      13.323  -6.570  84.362  1.00  0.00     0.062 A 
ATOM     17  C   UNL     1      11.934  -6.746  84.363  1.00  0.00     0.158 A 
BRANCH  15  18
ATOM     18  O   UNL     1       9.945  -7.698  85.373  1.00  0.00    -0.504 OA
ATOM     19  H   UNL     1       9.527  -8.611  85.509  1.00  0.00     0.293 HD
ENDBRANCH  15  18
BRANCH  17  20
ATOM     20  O   UNL     1      11.175  -6.145  83.358  1.00  0.00    -0.504 OA
ATOM     21  H   UNL     1      10.208  -6.396  83.194  1.00  0.00     0.293 HD
ENDBRANCH  17  20
ENDBRANCH   1  12
BRANCH   2  22
ATOM     22  O   UNL     1      15.635  -6.448  87.735  1.00  0.00    -0.502 OA
ATOM     23  H   UNL     1      15.508  -7.195  88.406  1.00  0.00     0.293 HD
ENDBRANCH   2  22
BRANCH   6  24
ATOM     24  O   UNL     1      20.576  -6.238  86.123  1.00  0.00    -0.507 OA
ATOM     25  H   UNL     1      20.193  -5.855  86.979  1.00  0.00     0.293 HD
ENDBRANCH   6  24
BRANCH   8  26
ATOM     26  O   UNL     1      20.150  -7.536  81.495  1.00  0.00    -0.508 OA
ATOM     27  H   UNL     1      21.041  -8.015  81.433  1.00  0.00     0.293 HD
ENDBRANCH   8  26
TORSDOF 6
ENDMDL
MODEL 6
REMARK VINA RESULT:    -7.218      1.372      3.031
REMARK INTER + INTRA:          -8.939
REMARK INTER:                  -8.676
REMARK INTRA:                  -0.262
REMARK UNBOUND:                -0.243
REMARK SMILES O=c1c(O)c(-c2ccc(O)c(O)c2)oc2cc(O)cc(O)c12
REMARK SMILES IDX 5 1 3 2 2 3 1 4 22 5 20 6 19 7 17 8 16 9 15 10 14 11 6 12
REMARK SMILES IDX 7 13 8 14 9 15 13 16 11 17 10 18 12 20 4 22 21 24 18 26
REMARK H PARENT 10 19 12 21 4 23 21 25 18 27
REMARK Flexibility Score: inf
ROOT
ATOM      1  C   UNL     1      16.239  -7.313  84.704  1.00  0.00     0.180 A 
ATOM      2  C   UNL     1      15.760  -7.418  83.383  1.00  0.00     0.208 A 
ATOM      3  C   UNL     1      14.388  -7.630  83.175  1.00  0.00     0.238 A 
ATOM      4  O   UNL     1      13.946  -7.714  81.997  1.00  0.00    -0.285 OA
ATOM      5  C   UNL     1      13.526  -7.753  84.283  1.00  0.00     0.111 A 
ATOM      6  C   UNL     1      12.132  -7.971  84.160  1.00  0.00     0.134 A 
ATOM      7  C   UNL     1      11.342  -8.092  85.311  1.00  0.00     0.093 A 
ATOM      8  C   UNL     1      11.915  -8.001  86.582  1.00  0.00     0.123 A 
ATOM      9  C   UNL     1      13.291  -7.784  86.711  1.00  0.00     0.094 A 
ATOM     10  C   UNL     1      14.096  -7.659  85.574  1.00  0.00     0.146 A 
ATOM     11  O   UNL     1      15.398  -7.450  85.725  1.00  0.00    -0.452 OA
ENDROOT
BRANCH   1  12
ATOM     12  C   UNL     1      17.669  -7.072  85.005  1.00  0.00     0.025 A 
ATOM     13  C   UNL     1      18.435  -8.096  85.582  1.00  0.00     0.016 A 
ATOM     14  C   UNL     1      19.781  -7.884  85.895  1.00  0.00     0.051 A 
ATOM     15  C   UNL     1      20.375  -6.639  85.648  1.00  0.00     0.157 A 
ATOM     16  C   UNL     1      18.263  -5.817  84.779  1.00  0.00     0.062 A 
ATOM     17  C   UNL     1      19.610  -5.600  85.092  1.00  0.00     0.158 A 
BRANCH  15  18
ATOM     18  O   UNL     1      21.718  -6.430  85.959  1.00  0.00    -0.504 OA
ATOM     19  H   UNL     1      22.005  -6.095  86.872  1.00  0.00     0.293 HD
ENDBRANCH  15  18
BRANCH  17  20
ATOM     20  O   UNL     1      20.169  -4.344  84.849  1.00  0.00    -0.504 OA
ATOM     21  H   UNL     1      20.870  -3.942  85.458  1.00  0.00     0.293 HD
ENDBRANCH  17  20
ENDBRANCH   1  12
BRANCH   2  22
ATOM     22  O   UNL     1      16.643  -7.342  82.303  1.00  0.00    -0.502 OA
ATOM     23  H   UNL     1      16.849  -8.139  81.713  1.00  0.00     0.293 HD
ENDBRANCH   2  22
BRANCH   6  24
ATOM     24  O   UNL     1      11.529  -8.069  82.905  1.00  0.00    -0.507 OA
ATOM     25  H   UNL     1      11.290  -8.964  82.495  1.00  0.00     0.293 HD
ENDBRANCH   6  24
BRANCH   8  26
ATOM     26  O   UNL     1      11.108  -8.125  87.711  1.00  0.00    -0.508 OA
ATOM     27  H   UNL     1      10.872  -9.032  88.096  1.00  0.00     0.293 HD
ENDBRANCH   8  26
TORSDOF 6
ENDMDL
MODEL 7
REMARK VINA RESULT:    -7.046      3.417      7.676
REMARK INTER + INTRA:          -8.731
REMARK INTER:                  -8.653
REMARK INTRA:                  -0.078
REMARK UNBOUND:                -0.243
REMARK SMILES O=c1c(O)c(-c2ccc(O)c(O)c2)oc2cc(O)cc(O)c12
REMARK SMILES IDX 5 1 3 2 2 3 1 4 22 5 20 6 19 7 17 8 16 9 15 10 14 11 6 12
REMARK SMILES IDX 7 13 8 14 9 15 13 16 11 17 10 18 12 20 4 22 21 24 18 26
REMARK H PARENT 10 19 12 21 4 23 21 25 18 27
REMARK Flexibility Score: inf
ROOT
ATOM      1  C   UNL     1      18.534  -6.586  83.683  1.00  0.00     0.180 A 
ATOM      2  C   UNL     1      19.783  -7.096  83.280  1.00  0.00     0.208 A 
ATOM      3  C   UNL     1      20.894  -6.908  84.117  1.00  0.00     0.238 A 
ATOM      4  O   UNL     1      22.015  -7.370  83.771  1.00  0.00    -0.285 OA
ATOM      5  C   UNL     1      20.744  -6.199  85.326  1.00  0.00     0.111 A 
ATOM      6  C   UNL     1      21.813  -5.963  86.223  1.00  0.00     0.134 A 
ATOM      7  C   UNL     1      21.585  -5.241  87.403  1.00  0.00     0.093 A 
ATOM      8  C   UNL     1      20.313  -4.750  87.704  1.00  0.00     0.123 A 
ATOM      9  C   UNL     1      19.251  -4.980  86.822  1.00  0.00     0.094 A 
ATOM     10  C   UNL     1      19.458  -5.700  85.641  1.00  0.00     0.146 A 
ATOM     11  O   UNL     1      18.433  -5.909  84.823  1.00  0.00    -0.452 OA
ENDROOT
BRANCH   1  12
ATOM     12  C   UNL     1      17.312  -6.759  82.864  1.00  0.00     0.025 A 
ATOM     13  C   UNL     1      17.279  -6.250  81.557  1.00  0.00     0.016 A 
ATOM     14  C   UNL     1      16.129  -6.383  80.774  1.00  0.00     0.051 A 
ATOM     15  C   UNL     1      14.991  -7.013  81.293  1.00  0.00     0.157 A 
ATOM     16  C   UNL     1      16.160  -7.372  83.390  1.00  0.00     0.062 A 
ATOM     17  C   UNL     1      15.005  -7.505  82.609  1.00  0.00     0.158 A 
BRANCH  15  18
ATOM     18  O   UNL     1      13.845  -7.147  80.509  1.00  0.00    -0.504 OA
ATOM     19  H   UNL     1      13.751  -6.666  79.621  1.00  0.00     0.293 HD
ENDBRANCH  15  18
BRANCH  17  20
ATOM     20  O   UNL     1      13.883  -8.124  83.159  1.00  0.00    -0.504 OA
ATOM     21  H   UNL     1      13.594  -9.055  82.885  1.00  0.00     0.293 HD
ENDBRANCH  17  20
ENDBRANCH   1  12
BRANCH   2  22
ATOM     22  O   UNL     1      19.916  -7.751  82.053  1.00  0.00    -0.502 OA
ATOM     23  H   UNL     1      20.019  -7.251  81.179  1.00  0.00     0.293 HD
ENDBRANCH   2  22
BRANCH   6  24
ATOM     24  O   UNL     1      23.097  -6.439  85.952  1.00  0.00    -0.507 OA
ATOM     25  H   UNL     1      23.278  -7.421  85.782  1.00  0.00     0.293 HD
ENDBRANCH   6  24
BRANCH   8  26
ATOM     26  O   UNL     1      20.112  -4.035  88.882  1.00  0.00    -0.508 OA
ATOM     27  H   UNL     1      20.881  -3.594  89.373  1.00  0.00     0.293 HD
ENDBRANCH   8  26
TORSDOF 6
ENDMDL
MODEL 8
REMARK VINA RESULT:    -6.453      2.409      4.009
REMARK INTER + INTRA:          -8.017
REMARK INTER:                  -8.055
REMARK INTRA:                   0.038
REMARK UNBOUND:                -0.243
REMARK SMILES O=c1c(O)c(-c2ccc(O)c(O)c2)oc2cc(O)cc(O)c12
REMARK SMILES IDX 5 1 3 2 2 3 1 4 22 5 20 6 19 7 17 8 16 9 15 10 14 11 6 12
REMARK SMILES IDX 7 13 8 14 9 15 13 16 11 17 10 18 12 20 4 22 21 24 18 26
REMARK H PARENT 10 19 12 21 4 23 21 25 18 27
REMARK Flexibility Score: inf
ROOT
ATOM      1  C   UNL     1      18.185  -6.854  84.144  1.00  0.00     0.180 A 
ATOM      2  C   UNL     1      18.039  -6.889  82.743  1.00  0.00     0.208 A 
ATOM      3  C   UNL     1      16.772  -7.153  82.199  1.00  0.00     0.238 A 
ATOM      4  O   UNL     1      16.628  -7.176  80.947  1.00  0.00    -0.285 OA
ATOM      5  C   UNL     1      15.682  -7.396  83.059  1.00  0.00     0.111 A 
ATOM      6  C   UNL     1      14.374  -7.673  82.592  1.00  0.00     0.134 A 
ATOM      7  C   UNL     1      13.343  -7.913  83.511  1.00  0.00     0.093 A 
ATOM      8  C   UNL     1      13.591  -7.882  84.885  1.00  0.00     0.123 A 
ATOM      9  C   UNL     1      14.881  -7.609  85.354  1.00  0.00     0.094 A 
ATOM     10  C   UNL     1      15.923  -7.365  84.453  1.00  0.00     0.146 A 
ATOM     11  O   UNL     1      17.136  -7.103  84.923  1.00  0.00    -0.452 OA
ENDROOT
BRANCH   1  12
ATOM     12  C   UNL     1      19.483  -6.565  84.793  1.00  0.00     0.025 A 
ATOM     13  C   UNL     1      20.624  -7.285  84.407  1.00  0.00     0.016 A 
ATOM     14  C   UNL     1      21.856  -7.044  85.021  1.00  0.00     0.051 A 
ATOM     15  C   UNL     1      21.961  -6.090  86.041  1.00  0.00     0.157 A 
ATOM     16  C   UNL     1      19.589  -5.623  85.832  1.00  0.00     0.062 A 
ATOM     17  C   UNL     1      20.821  -5.380  86.451  1.00  0.00     0.158 A 
BRANCH  15  18
ATOM     18  O   UNL     1      23.192  -5.849  86.651  1.00  0.00    -0.504 OA
ATOM     19  H   UNL     1      24.031  -6.340  86.363  1.00  0.00     0.293 HD
ENDBRANCH  15  18
BRANCH  17  20
ATOM     20  O   UNL     1      20.890  -4.434  87.475  1.00  0.00    -0.504 OA
ATOM     21  H   UNL     1      20.370  -4.536  88.337  1.00  0.00     0.293 HD
ENDBRANCH  17  20
ENDBRANCH   1  12
BRANCH   2  22
ATOM     22  O   UNL     1      19.146  -6.695  81.913  1.00  0.00    -0.502 OA
ATOM     23  H   UNL     1      19.366  -7.318  81.146  1.00  0.00     0.293 HD
ENDBRANCH   2  22
BRANCH   6  24
ATOM     24  O   UNL     1      14.092  -7.712  81.225  1.00  0.00    -0.507 OA
ATOM     25  H   UNL     1      13.842  -6.878  80.708  1.00  0.00     0.293 HD
ENDBRANCH   6  24
BRANCH   8  26
ATOM     26  O   UNL     1      12.550  -8.125  85.778  1.00  0.00    -0.508 OA
ATOM     27  H   UNL     1      12.365  -7.505  86.558  1.00  0.00     0.293 HD
ENDBRANCH   8  26
TORSDOF 6
ENDMDL
MODEL 9
REMARK VINA RESULT:    -6.367     12.562     15.692
REMARK INTER + INTRA:          -7.914
REMARK INTER:                  -8.044
REMARK INTRA:                   0.131
REMARK UNBOUND:                -0.243
REMARK SMILES O=c1c(O)c(-c2ccc(O)c(O)c2)oc2cc(O)cc(O)c12
REMARK SMILES IDX 5 1 3 2 2 3 1 4 22 5 20 6 19 7 17 8 16 9 15 10 14 11 6 12
REMARK SMILES IDX 7 13 8 14 9 15 13 16 11 17 10 18 12 20 4 22 21 24 18 26
REMARK H PARENT 10 19 12 21 4 23 21 25 18 27
REMARK Flexibility Score: inf
ROOT
ATOM      1  C   UNL     1      26.134   3.159  87.551  1.00  0.00     0.180 A 
ATOM      2  C   UNL     1      26.174   4.507  87.955  1.00  0.00     0.208 A 
ATOM      3  C   UNL     1      26.440   4.804  89.302  1.00  0.00     0.238 A 
ATOM      4  O   UNL     1      26.490   6.008  89.672  1.00  0.00    -0.285 OA
ATOM      5  C   UNL     1      26.640   3.754  90.220  1.00  0.00     0.111 A 
ATOM      6  C   UNL     1      26.909   3.967  91.594  1.00  0.00     0.134 A 
ATOM      7  C   UNL     1      27.087   2.869  92.447  1.00  0.00     0.093 A 
ATOM      8  C   UNL     1      27.001   1.564  91.956  1.00  0.00     0.123 A 
ATOM      9  C   UNL     1      26.736   1.346  90.599  1.00  0.00     0.094 A 
ATOM     10  C   UNL     1      26.557   2.428  89.732  1.00  0.00     0.146 A 
ATOM     11  O   UNL     1      26.312   2.194  88.449  1.00  0.00    -0.452 OA
ENDROOT
BRANCH   1  12
ATOM     12  C   UNL     1      25.877   2.766  86.147  1.00  0.00     0.025 A 
ATOM     13  C   UNL     1      26.490   3.482  85.107  1.00  0.00     0.016 A 
ATOM     14  C   UNL     1      26.246   3.143  83.773  1.00  0.00     0.051 A 
ATOM     15  C   UNL     1      25.372   2.092  83.461  1.00  0.00     0.157 A 
ATOM     16  C   UNL     1      24.985   1.726  85.829  1.00  0.00     0.062 A 
ATOM     17  C   UNL     1      24.736   1.384  84.494  1.00  0.00     0.158 A 
BRANCH  15  18
ATOM     18  O   UNL     1      25.131   1.754  82.129  1.00  0.00    -0.504 OA
ATOM     19  H   UNL     1      24.911   0.803  81.855  1.00  0.00     0.293 HD
ENDBRANCH  15  18
BRANCH  17  20
ATOM     20  O   UNL     1      23.850   0.344  84.215  1.00  0.00    -0.504 OA
ATOM     21  H   UNL     1      24.152  -0.515  83.771  1.00  0.00     0.293 HD
ENDBRANCH  17  20
ENDBRANCH   1  12
BRANCH   2  22
ATOM     22  O   UNL     1      25.923   5.528  87.035  1.00  0.00    -0.502 OA
ATOM     23  H   UNL     1      25.809   6.495  87.315  1.00  0.00     0.293 HD
ENDBRANCH   2  22
BRANCH   6  24
ATOM     24  O   UNL     1      27.000   5.258  92.116  1.00  0.00    -0.507 OA
ATOM     25  H   UNL     1      27.104   5.426  93.110  1.00  0.00     0.293 HD
ENDBRANCH   6  24
BRANCH   8  26
ATOM     26  O   UNL     1      27.182   0.489  92.824  1.00  0.00    -0.508 OA
ATOM     27  H   UNL     1      26.547  -0.301  92.829  1.00  0.00     0.293 HD
ENDBRANCH   8  26
TORSDOF 6
ENDMDL
