MODEL 1
REMARK VINA RESULT:    -6.276      0.000      0.000
REMARK INTER + INTRA:          -7.762
REMARK INTER:                  -7.561
REMARK INTRA:                  -0.201
REMARK UNBOUND:                -0.201
REMARK SMILES O=c1c(O)c(-c2ccc(O)c(O)c2)oc2cc(O)cc(O)c12
REMARK SMILES IDX 5 1 3 2 2 3 1 4 22 5 20 6 19 7 17 8 16 9 15 10 14 11 6 12
REMARK SMILES IDX 7 13 8 14 9 15 13 16 11 17 10 18 12 20 4 22 21 24 18 26
REMARK H PARENT 10 19 12 21 4 23 21 25 18 27
REMARK Flexibility Score: inf
ROOT
ATOM      1  C   UNL     1     108.253 112.594 110.617  1.00  0.00     0.180 A 
ATOM      2  C   UNL     1     109.558 113.044 110.349  1.00  0.00     0.208 A 
ATOM      3  C   UNL     1     110.105 114.061 111.146  1.00  0.00     0.238 A 
ATOM      4  O   UNL     1     111.252 114.497 110.868  1.00  0.00    -0.285 OA
ATOM      5  C   UNL     1     109.349 114.604 112.214  1.00  0.00     0.111 A 
ATOM      6  C   UNL     1     109.818 115.609 113.111  1.00  0.00     0.134 A 
ATOM      7  C   UNL     1     108.938 116.165 114.048  1.00  0.00     0.093 A 
ATOM      8  C   UNL     1     107.626 115.707 114.163  1.00  0.00     0.123 A 
ATOM      9  C   UNL     1     107.174 114.683 113.330  1.00  0.00     0.094 A 
ATOM     10  C   UNL     1     108.017 114.134 112.361  1.00  0.00     0.146 A 
ATOM     11  O   UNL     1     107.546 113.168 111.582  1.00  0.00    -0.452 OA
ENDROOT
BRANCH   1  12
ATOM     12  C   UNL     1     107.618 111.509 109.835  1.00  0.00     0.025 A 
ATOM     13  C   UNL     1     108.121 110.202 109.933  1.00  0.00     0.016 A 
ATOM     14  C   UNL     1     107.549 109.167 109.189  1.00  0.00     0.051 A 
ATOM     15  C   UNL     1     106.478 109.426 108.324  1.00  0.00     0.157 A 
ATOM     16  C   UNL     1     106.555 111.769 108.950  1.00  0.00     0.062 A 
ATOM     17  C   UNL     1     105.983 110.730 108.202  1.00  0.00     0.158 A 
BRANCH  15  18
ATOM     18  O   UNL     1     105.905 108.395 107.581  1.00  0.00    -0.504 OA
ATOM     19  H   UNL     1     106.038 107.423 107.832  1.00  0.00     0.293 HD
ENDBRANCH  15  18
BRANCH  17  20
ATOM     20  O   UNL     1     104.927 110.988 107.330  1.00  0.00    -0.504 OA
ATOM     21  H   UNL     1     103.994 111.186 107.671  1.00  0.00     0.293 HD
ENDBRANCH  17  20
ENDBRANCH   1  12
BRANCH   2  22
ATOM     22  O   UNL     1     110.279 112.510 109.276  1.00  0.00    -0.502 OA
ATOM     23  H   UNL     1     111.147 112.917 108.948  1.00  0.00     0.293 HD
ENDBRANCH   2  22
BRANCH   6  24
ATOM     24  O   UNL     1     111.137 116.073 113.142  1.00  0.00    -0.507 OA
ATOM     25  H   UNL     1     111.523 116.748 112.499  1.00  0.00     0.293 HD
ENDBRANCH   6  24
BRANCH   8  26
ATOM     26  O   UNL     1     106.783 116.272 115.117  1.00  0.00    -0.508 OA
ATOM     27  H   UNL     1     106.228 115.697 115.740  1.00  0.00     0.293 HD
ENDBRANCH   8  26
TORSDOF 6
ENDMDL
MODEL 2
REMARK VINA RESULT:    -6.242      6.482      8.558
REMARK INTER + INTRA:          -7.720
REMARK INTER:                  -7.525
REMARK INTRA:                  -0.195
REMARK UNBOUND:                -0.201
REMARK SMILES O=c1c(O)c(-c2ccc(O)c(O)c2)oc2cc(O)cc(O)c12
REMARK SMILES IDX 5 1 3 2 2 3 1 4 22 5 20 6 19 7 17 8 16 9 15 10 14 11 6 12
REMARK SMILES IDX 7 13 8 14 9 15 13 16 11 17 10 18 12 20 4 22 21 24 18 26
REMARK H PARENT 10 19 12 21 4 23 21 25 18 27
REMARK Flexibility Score: inf
ROOT
ATOM      1  C   UNL     1     113.351 108.455 110.672  1.00  0.00     0.180 A 
ATOM      2  C   UNL     1     112.317 109.373 110.416  1.00  0.00     0.208 A 
ATOM      3  C   UNL     1     111.162 109.336 111.213  1.00  0.00     0.238 A 
ATOM      4  O   UNL     1     110.217 110.123 110.945  1.00  0.00    -0.285 OA
ATOM      5  C   UNL     1     111.061 108.394 112.266  1.00  0.00     0.111 A 
ATOM      6  C   UNL     1     109.955 108.295 113.161  1.00  0.00     0.134 A 
ATOM      7  C   UNL     1     109.904 107.241 114.083  1.00  0.00     0.093 A 
ATOM      8  C   UNL     1     110.948 106.322 114.184  1.00  0.00     0.123 A 
ATOM      9  C   UNL     1     112.063 106.446 113.354  1.00  0.00     0.094 A 
ATOM     10  C   UNL     1     112.126 107.465 112.401  1.00  0.00     0.146 A 
ATOM     11  O   UNL     1     113.199 107.542 111.623  1.00  0.00    -0.452 OA
ENDROOT
BRANCH   1  12
ATOM     12  C   UNL     1     114.609 108.449 109.891  1.00  0.00     0.025 A 
ATOM     13  C   UNL     1     115.493 109.534 109.997  1.00  0.00     0.016 A 
ATOM     14  C   UNL     1     116.676 109.559 109.253  1.00  0.00     0.051 A 
ATOM     15  C   UNL     1     116.984 108.505 108.382  1.00  0.00     0.157 A 
ATOM     16  C   UNL     1     114.913 107.403 109.000  1.00  0.00     0.062 A 
ATOM     17  C   UNL     1     116.099 107.429 108.252  1.00  0.00     0.158 A 
BRANCH  15  18
ATOM     18  O   UNL     1     118.164 108.526 107.640  1.00  0.00    -0.504 OA
ATOM     19  H   UNL     1     119.069 108.620 108.085  1.00  0.00     0.293 HD
ENDBRANCH  15  18
BRANCH  17  20
ATOM     20  O   UNL     1     116.401 106.389 107.374  1.00  0.00    -0.504 OA
ATOM     21  H   UNL     1     116.776 105.508 107.704  1.00  0.00     0.293 HD
ENDBRANCH  17  20
ENDBRANCH   1  12
BRANCH   2  22
ATOM     22  O   UNL     1     112.427 110.280 109.358  1.00  0.00    -0.502 OA
ATOM     23  H   UNL     1     113.195 110.935 109.280  1.00  0.00     0.293 HD
ENDBRANCH   2  22
BRANCH   6  24
ATOM     24  O   UNL     1     108.901 109.213 113.205  1.00  0.00    -0.507 OA
ATOM     25  H   UNL     1     108.582 109.680 114.040  1.00  0.00     0.293 HD
ENDBRANCH   6  24
BRANCH   8  26
ATOM     26  O   UNL     1     110.871 105.296 115.123  1.00  0.00    -0.508 OA
ATOM     27  H   UNL     1     110.782 104.327 114.842  1.00  0.00     0.293 HD
ENDBRANCH   8  26
TORSDOF 6
ENDMDL
MODEL 3
REMARK VINA RESULT:    -6.237      6.480      8.526
REMARK INTER + INTRA:          -7.714
REMARK INTER:                  -7.519
REMARK INTRA:                  -0.195
REMARK UNBOUND:                -0.201
REMARK SMILES O=c1c(O)c(-c2ccc(O)c(O)c2)oc2cc(O)cc(O)c12
REMARK SMILES IDX 5 1 3 2 2 3 1 4 22 5 20 6 19 7 17 8 16 9 15 10 14 11 6 12
REMARK SMILES IDX 7 13 8 14 9 15 13 16 11 17 10 18 12 20 4 22 21 24 18 26
REMARK H PARENT 10 19 12 21 4 23 21 25 18 27
REMARK Flexibility Score: inf
ROOT
ATOM      1  C   UNL     1     114.369 114.957 110.548  1.00  0.00     0.180 A 
ATOM      2  C   UNL     1     114.162 113.599 110.246  1.00  0.00     0.208 A 
ATOM      3  C   UNL     1     114.784 112.623 111.039  1.00  0.00     0.238 A 
ATOM      4  O   UNL     1     114.639 111.411 110.731  1.00  0.00    -0.285 OA
ATOM      5  C   UNL     1     115.591 113.013 112.136  1.00  0.00     0.111 A 
ATOM      6  C   UNL     1     116.235 112.109 113.031  1.00  0.00     0.134 A 
ATOM      7  C   UNL     1     117.115 112.605 114.001  1.00  0.00     0.093 A 
ATOM      8  C   UNL     1     117.322 113.976 114.150  1.00  0.00     0.123 A 
ATOM      9  C   UNL     1     116.651 114.873 113.318  1.00  0.00     0.094 A 
ATOM     10  C   UNL     1     115.795 114.407 112.318  1.00  0.00     0.146 A 
ATOM     11  O   UNL     1     115.183 115.292 111.541  1.00  0.00    -0.452 OA
ENDROOT
BRANCH   1  12
ATOM     12  C   UNL     1     113.729 116.043 109.772  1.00  0.00     0.025 A 
ATOM     13  C   UNL     1     112.335 116.202 109.828  1.00  0.00     0.016 A 
ATOM     14  C   UNL     1     111.707 117.207 109.088  1.00  0.00     0.051 A 
ATOM     15  C   UNL     1     112.462 118.058 108.270  1.00  0.00     0.157 A 
ATOM     16  C   UNL     1     114.480 116.887 108.934  1.00  0.00     0.062 A 
ATOM     17  C   UNL     1     113.850 117.894 108.190  1.00  0.00     0.158 A 
BRANCH  15  18
ATOM     18  O   UNL     1     111.839 119.063 107.532  1.00  0.00    -0.504 OA
ATOM     19  H   UNL     1     112.254 119.982 107.431  1.00  0.00     0.293 HD
ENDBRANCH  15  18
BRANCH  17  20
ATOM     20  O   UNL     1     114.597 118.733 107.364  1.00  0.00    -0.504 OA
ATOM     21  H   UNL     1     115.338 118.373 106.774  1.00  0.00     0.293 HD
ENDBRANCH  17  20
ENDBRANCH   1  12
BRANCH   2  22
ATOM     22  O   UNL     1     113.380 113.235 109.145  1.00  0.00    -0.502 OA
ATOM     23  H   UNL     1     113.770 112.787 108.325  1.00  0.00     0.293 HD
ENDBRANCH   2  22
BRANCH   6  24
ATOM     24  O   UNL     1     116.027 110.726 113.027  1.00  0.00    -0.507 OA
ATOM     25  H   UNL     1     116.738 110.039 112.826  1.00  0.00     0.293 HD
ENDBRANCH   6  24
BRANCH   8  26
ATOM     26  O   UNL     1     118.192 114.436 115.137  1.00  0.00    -0.508 OA
ATOM     27  H   UNL     1     118.546 115.385 115.130  1.00  0.00     0.293 HD
ENDBRANCH   8  26
TORSDOF 6
ENDMDL
MODEL 4
REMARK VINA RESULT:    -6.235      7.043     10.258
REMARK INTER + INTRA:          -7.712
REMARK INTER:                  -7.386
REMARK INTRA:                  -0.326
REMARK UNBOUND:                -0.201
REMARK SMILES O=c1c(O)c(-c2ccc(O)c(O)c2)oc2cc(O)cc(O)c12
REMARK SMILES IDX 5 1 3 2 2 3 1 4 22 5 20 6 19 7 17 8 16 9 15 10 14 11 6 12
REMARK SMILES IDX 7 13 8 14 9 15 13 16 11 17 10 18 12 20 4 22 21 24 18 26
REMARK H PARENT 10 19 12 21 4 23 21 25 18 27
REMARK Flexibility Score: inf
ROOT
ATOM      1  C   UNL     1     113.916 114.023 106.346  1.00  0.00     0.180 A 
ATOM      2  C   UNL     1     114.331 113.102 107.324  1.00  0.00     0.208 A 
ATOM      3  C   UNL     1     115.035 111.956 106.925  1.00  0.00     0.238 A 
ATOM      4  O   UNL     1     115.357 111.108 107.798  1.00  0.00    -0.285 OA
ATOM      5  C   UNL     1     115.332 111.752 105.555  1.00  0.00     0.111 A 
ATOM      6  C   UNL     1     116.075 110.648 105.042  1.00  0.00     0.134 A 
ATOM      7  C   UNL     1     116.196 110.479 103.657  1.00  0.00     0.093 A 
ATOM      8  C   UNL     1     115.656 111.410 102.769  1.00  0.00     0.123 A 
ATOM      9  C   UNL     1     114.979 112.526 103.262  1.00  0.00     0.094 A 
ATOM     10  C   UNL     1     114.811 112.702 104.637  1.00  0.00     0.146 A 
ATOM     11  O   UNL     1     114.152 113.772 105.064  1.00  0.00    -0.452 OA
ENDROOT
BRANCH   1  12
ATOM     12  C   UNL     1     113.191 115.266 106.693  1.00  0.00     0.025 A 
ATOM     13  C   UNL     1     111.793 115.308 106.568  1.00  0.00     0.016 A 
ATOM     14  C   UNL     1     111.090 116.478 106.870  1.00  0.00     0.051 A 
ATOM     15  C   UNL     1     111.776 117.627 107.285  1.00  0.00     0.157 A 
ATOM     16  C   UNL     1     113.877 116.429 107.091  1.00  0.00     0.062 A 
ATOM     17  C   UNL     1     113.172 117.603 107.391  1.00  0.00     0.158 A 
BRANCH  15  18
ATOM     18  O   UNL     1     111.078 118.795 107.588  1.00  0.00    -0.504 OA
ATOM     19  H   UNL     1     111.476 119.510 108.186  1.00  0.00     0.293 HD
ENDBRANCH  15  18
BRANCH  17  20
ATOM     20  O   UNL     1     113.853 118.752 107.791  1.00  0.00    -0.504 OA
ATOM     21  H   UNL     1     113.997 118.970 108.770  1.00  0.00     0.293 HD
ENDBRANCH  17  20
ENDBRANCH   1  12
BRANCH   2  22
ATOM     22  O   UNL     1     114.008 113.311 108.669  1.00  0.00    -0.502 OA
ATOM     23  H   UNL     1     114.482 113.999 109.241  1.00  0.00     0.293 HD
ENDBRANCH   2  22
BRANCH   6  24
ATOM     24  O   UNL     1     116.732 109.708 105.844  1.00  0.00    -0.507 OA
ATOM     25  H   UNL     1     116.298 108.887 106.238  1.00  0.00     0.293 HD
ENDBRANCH   6  24
BRANCH   8  26
ATOM     26  O   UNL     1     115.810 111.219 101.397  1.00  0.00    -0.508 OA
ATOM     27  H   UNL     1     115.320 111.797 100.724  1.00  0.00     0.293 HD
ENDBRANCH   8  26
TORSDOF 6
ENDMDL
MODEL 5
REMARK VINA RESULT:    -6.162      4.540      6.667
REMARK INTER + INTRA:          -7.623
REMARK INTER:                  -7.370
REMARK INTRA:                  -0.253
REMARK UNBOUND:                -0.201
REMARK SMILES O=c1c(O)c(-c2ccc(O)c(O)c2)oc2cc(O)cc(O)c12
REMARK SMILES IDX 5 1 3 2 2 3 1 4 22 5 20 6 19 7 17 8 16 9 15 10 14 11 6 12
REMARK SMILES IDX 7 13 8 14 9 15 13 16 11 17 10 18 12 20 4 22 21 24 18 26
REMARK H PARENT 10 19 12 21 4 23 21 25 18 27
REMARK Flexibility Score: inf
ROOT
ATOM      1  C   UNL     1     108.837 112.401 106.469  1.00  0.00     0.180 A 
ATOM      2  C   UNL     1     109.492 113.253 107.375  1.00  0.00     0.208 A 
ATOM      3  C   UNL     1     110.240 114.332 106.877  1.00  0.00     0.238 A 
ATOM      4  O   UNL     1     110.868 115.059 107.690  1.00  0.00    -0.285 OA
ATOM      5  C   UNL     1     110.311 114.556 105.480  1.00  0.00     0.111 A 
ATOM      6  C   UNL     1     111.005 115.640 104.867  1.00  0.00     0.134 A 
ATOM      7  C   UNL     1     111.117 115.689 103.472  1.00  0.00     0.093 A 
ATOM      8  C   UNL     1     110.506 114.729 102.667  1.00  0.00     0.123 A 
ATOM      9  C   UNL     1     109.773 113.697 103.255  1.00  0.00     0.094 A 
ATOM     10  C   UNL     1     109.674 113.601 104.644  1.00  0.00     0.146 A 
ATOM     11  O   UNL     1     108.976 112.598 105.164  1.00  0.00    -0.452 OA
ENDROOT
BRANCH   1  12
ATOM     12  C   UNL     1     108.011 111.258 106.919  1.00  0.00     0.025 A 
ATOM     13  C   UNL     1     106.756 111.500 107.501  1.00  0.00     0.016 A 
ATOM     14  C   UNL     1     105.968 110.438 107.952  1.00  0.00     0.051 A 
ATOM     15  C   UNL     1     106.430 109.120 107.841  1.00  0.00     0.157 A 
ATOM     16  C   UNL     1     108.479 109.934 106.829  1.00  0.00     0.062 A 
ATOM     17  C   UNL     1     107.689 108.869 107.283  1.00  0.00     0.158 A 
BRANCH  15  18
ATOM     18  O   UNL     1     105.646 108.057 108.288  1.00  0.00    -0.504 OA
ATOM     19  H   UNL     1     105.334 107.327 107.660  1.00  0.00     0.293 HD
ENDBRANCH  15  18
BRANCH  17  20
ATOM     20  O   UNL     1     108.152 107.557 107.188  1.00  0.00    -0.504 OA
ATOM     21  H   UNL     1     109.107 107.350 106.920  1.00  0.00     0.293 HD
ENDBRANCH  17  20
ENDBRANCH   1  12
BRANCH   2  22
ATOM     22  O   UNL     1     109.428 113.002 108.749  1.00  0.00    -0.502 OA
ATOM     23  H   UNL     1     109.406 112.064 109.130  1.00  0.00     0.293 HD
ENDBRANCH   2  22
BRANCH   6  24
ATOM     24  O   UNL     1     111.576 116.703 105.576  1.00  0.00    -0.507 OA
ATOM     25  H   UNL     1     111.524 116.818 106.577  1.00  0.00     0.293 HD
ENDBRANCH   6  24
BRANCH   8  26
ATOM     26  O   UNL     1     110.625 114.818 101.282  1.00  0.00    -0.508 OA
ATOM     27  H   UNL     1     111.256 114.217 100.765  1.00  0.00     0.293 HD
ENDBRANCH   8  26
TORSDOF 6
ENDMDL
MODEL 6
REMARK VINA RESULT:    -6.142      5.395      7.375
REMARK INTER + INTRA:          -7.599
REMARK INTER:                  -7.310
REMARK INTRA:                  -0.290
REMARK UNBOUND:                -0.201
REMARK SMILES O=c1c(O)c(-c2ccc(O)c(O)c2)oc2cc(O)cc(O)c12
REMARK SMILES IDX 5 1 3 2 2 3 1 4 22 5 20 6 19 7 17 8 16 9 15 10 14 11 6 12
REMARK SMILES IDX 7 13 8 14 9 15 13 16 11 17 10 18 12 20 4 22 21 24 18 26
REMARK H PARENT 10 19 12 21 4 23 21 25 18 27
REMARK Flexibility Score: inf
ROOT
ATOM      1  C   UNL     1     110.686 108.999 107.590  1.00  0.00     0.180 A 
ATOM      2  C   UNL     1     111.470 108.881 106.429  1.00  0.00     0.208 A 
ATOM      3  C   UNL     1     112.812 108.491 106.551  1.00  0.00     0.238 A 
ATOM      4  O   UNL     1     113.524 108.439 105.514  1.00  0.00    -0.285 OA
ATOM      5  C   UNL     1     113.351 108.206 107.830  1.00  0.00     0.111 A 
ATOM      6  C   UNL     1     114.686 107.763 108.067  1.00  0.00     0.134 A 
ATOM      7  C   UNL     1     115.149 107.638 109.383  1.00  0.00     0.093 A 
ATOM      8  C   UNL     1     114.306 107.878 110.469  1.00  0.00     0.123 A 
ATOM      9  C   UNL     1     112.981 108.254 110.247  1.00  0.00     0.094 A 
ATOM     10  C   UNL     1     112.500 108.422 108.947  1.00  0.00     0.146 A 
ATOM     11  O   UNL     1     111.236 108.790 108.779  1.00  0.00    -0.452 OA
ENDROOT
BRANCH   1  12
ATOM     12  C   UNL     1     109.257 109.382 107.539  1.00  0.00     0.025 A 
ATOM     13  C   UNL     1     108.908 110.736 107.411  1.00  0.00     0.016 A 
ATOM     14  C   UNL     1     107.565 111.122 107.382  1.00  0.00     0.051 A 
ATOM     15  C   UNL     1     106.552 110.161 107.496  1.00  0.00     0.157 A 
ATOM     16  C   UNL     1     108.235 108.423 107.673  1.00  0.00     0.062 A 
ATOM     17  C   UNL     1     106.888 108.811 107.646  1.00  0.00     0.158 A 
BRANCH  15  18
ATOM     18  O   UNL     1     105.211 110.542 107.466  1.00  0.00    -0.504 OA
ATOM     19  H   UNL     1     104.572 110.176 106.771  1.00  0.00     0.293 HD
ENDBRANCH  15  18
BRANCH  17  20
ATOM     20  O   UNL     1     105.878 107.858 107.774  1.00  0.00    -0.504 OA
ATOM     21  H   UNL     1     106.067 106.930 108.133  1.00  0.00     0.293 HD
ENDBRANCH  17  20
ENDBRANCH   1  12
BRANCH   2  22
ATOM     22  O   UNL     1     110.925 109.188 105.178  1.00  0.00    -0.502 OA
ATOM     23  H   UNL     1     111.119 108.637 104.351  1.00  0.00     0.293 HD
ENDBRANCH   2  22
BRANCH   6  24
ATOM     24  O   UNL     1     115.583 107.409 107.055  1.00  0.00    -0.507 OA
ATOM     25  H   UNL     1     115.356 106.820 106.268  1.00  0.00     0.293 HD
ENDBRANCH   6  24
BRANCH   8  26
ATOM     26  O   UNL     1     114.797 107.728 111.764  1.00  0.00    -0.508 OA
ATOM     27  H   UNL     1     115.402 106.955 112.015  1.00  0.00     0.293 HD
ENDBRANCH   8  26
TORSDOF 6
ENDMDL
MODEL 7
REMARK VINA RESULT:    -6.122      4.348      7.404
REMARK INTER + INTRA:          -7.575
REMARK INTER:                  -7.294
REMARK INTRA:                  -0.281
REMARK UNBOUND:                -0.201
REMARK SMILES O=c1c(O)c(-c2ccc(O)c(O)c2)oc2cc(O)cc(O)c12
REMARK SMILES IDX 5 1 3 2 2 3 1 4 22 5 20 6 19 7 17 8 16 9 15 10 14 11 6 12
REMARK SMILES IDX 7 13 8 14 9 15 13 16 11 17 10 18 12 20 4 22 21 24 18 26
REMARK H PARENT 10 19 12 21 4 23 21 25 18 27
REMARK Flexibility Score: inf
ROOT
ATOM      1  C   UNL     1     109.787 113.428 107.226  1.00  0.00     0.180 A 
ATOM      2  C   UNL     1     110.490 112.215 107.328  1.00  0.00     0.208 A 
ATOM      3  C   UNL     1     109.768 111.012 107.379  1.00  0.00     0.238 A 
ATOM      4  O   UNL     1     110.399 109.933 107.524  1.00  0.00    -0.285 OA
ATOM      5  C   UNL     1     108.353 111.035 107.311  1.00  0.00     0.111 A 
ATOM      6  C   UNL     1     107.523 109.875 107.313  1.00  0.00     0.134 A 
ATOM      7  C   UNL     1     106.131 110.022 107.374  1.00  0.00     0.093 A 
ATOM      8  C   UNL     1     105.539 111.285 107.367  1.00  0.00     0.123 A 
ATOM      9  C   UNL     1     106.341 112.425 107.305  1.00  0.00     0.094 A 
ATOM     10  C   UNL     1     107.733 112.312 107.280  1.00  0.00     0.146 A 
ATOM     11  O   UNL     1     108.460 113.421 107.231  1.00  0.00    -0.452 OA
ENDROOT
BRANCH   1  12
ATOM     12  C   UNL     1     110.479 114.734 107.143  1.00  0.00     0.025 A 
ATOM     13  C   UNL     1     110.971 115.331 108.314  1.00  0.00     0.016 A 
ATOM     14  C   UNL     1     111.609 116.574 108.261  1.00  0.00     0.051 A 
ATOM     15  C   UNL     1     111.750 117.243 107.039  1.00  0.00     0.157 A 
ATOM     16  C   UNL     1     110.605 115.420 105.920  1.00  0.00     0.062 A 
ATOM     17  C   UNL     1     111.244 116.667 105.868  1.00  0.00     0.158 A 
BRANCH  15  18
ATOM     18  O   UNL     1     112.388 118.482 106.982  1.00  0.00    -0.504 OA
ATOM     19  H   UNL     1     112.856 118.799 106.142  1.00  0.00     0.293 HD
ENDBRANCH  15  18
BRANCH  17  20
ATOM     20  O   UNL     1     111.373 117.343 104.655  1.00  0.00    -0.504 OA
ATOM     21  H   UNL     1     111.557 118.339 104.620  1.00  0.00     0.293 HD
ENDBRANCH  17  20
ENDBRANCH   1  12
BRANCH   2  22
ATOM     22  O   UNL     1     111.885 112.215 107.416  1.00  0.00    -0.502 OA
ATOM     23  H   UNL     1     112.383 112.694 108.157  1.00  0.00     0.293 HD
ENDBRANCH   2  22
BRANCH   6  24
ATOM     24  O   UNL     1     108.009 108.567 107.230  1.00  0.00    -0.507 OA
ATOM     25  H   UNL     1     108.339 108.130 106.382  1.00  0.00     0.293 HD
ENDBRANCH   6  24
BRANCH   8  26
ATOM     26  O   UNL     1     104.151 111.393 107.413  1.00  0.00    -0.508 OA
ATOM     27  H   UNL     1     103.599 111.485 106.567  1.00  0.00     0.293 HD
ENDBRANCH   8  26
TORSDOF 6
ENDMDL
MODEL 8
REMARK VINA RESULT:    -6.103      3.782      7.139
REMARK INTER + INTRA:          -7.553
REMARK INTER:                  -7.237
REMARK INTRA:                  -0.316
REMARK UNBOUND:                -0.201
REMARK SMILES O=c1c(O)c(-c2ccc(O)c(O)c2)oc2cc(O)cc(O)c12
REMARK SMILES IDX 5 1 3 2 2 3 1 4 22 5 20 6 19 7 17 8 16 9 15 10 14 11 6 12
REMARK SMILES IDX 7 13 8 14 9 15 13 16 11 17 10 18 12 20 4 22 21 24 18 26
REMARK H PARENT 10 19 12 21 4 23 21 25 18 27
REMARK Flexibility Score: inf
ROOT
ATOM      1  C   UNL     1     110.145 114.792 107.803  1.00  0.00     0.180 A 
ATOM      2  C   UNL     1     109.624 114.192 106.643  1.00  0.00     0.208 A 
ATOM      3  C   UNL     1     108.614 113.226 106.771  1.00  0.00     0.238 A 
ATOM      4  O   UNL     1     108.189 112.654 105.734  1.00  0.00    -0.285 OA
ATOM      5  C   UNL     1     108.124 112.883 108.055  1.00  0.00     0.111 A 
ATOM      6  C   UNL     1     107.075 111.948 108.300  1.00  0.00     0.134 A 
ATOM      7  C   UNL     1     106.761 111.589 109.617  1.00  0.00     0.093 A 
ATOM      8  C   UNL     1     107.415 112.179 110.698  1.00  0.00     0.123 A 
ATOM      9  C   UNL     1     108.402 113.140 110.471  1.00  0.00     0.094 A 
ATOM     10  C   UNL     1     108.761 113.492 109.169  1.00  0.00     0.146 A 
ATOM     11  O   UNL     1     109.712 114.402 108.996  1.00  0.00    -0.452 OA
ENDROOT
BRANCH   1  12
ATOM     12  C   UNL     1     111.193 115.835 107.747  1.00  0.00     0.025 A 
ATOM     13  C   UNL     1     112.544 115.456 107.710  1.00  0.00     0.016 A 
ATOM     14  C   UNL     1     113.551 116.424 107.678  1.00  0.00     0.051 A 
ATOM     15  C   UNL     1     113.222 117.786 107.698  1.00  0.00     0.157 A 
ATOM     16  C   UNL     1     110.868 117.204 107.788  1.00  0.00     0.062 A 
ATOM     17  C   UNL     1     111.879 118.176 107.758  1.00  0.00     0.158 A 
BRANCH  15  18
ATOM     18  O   UNL     1     114.224 118.755 107.665  1.00  0.00    -0.504 OA
ATOM     19  H   UNL     1     114.147 119.577 107.078  1.00  0.00     0.293 HD
ENDBRANCH  15  18
BRANCH  17  20
ATOM     20  O   UNL     1     111.555 119.531 107.793  1.00  0.00    -0.504 OA
ATOM     21  H   UNL     1     110.816 119.885 108.390  1.00  0.00     0.293 HD
ENDBRANCH  17  20
ENDBRANCH   1  12
BRANCH   2  22
ATOM     22  O   UNL     1     110.136 114.529 105.387  1.00  0.00    -0.502 OA
ATOM     23  H   UNL     1     111.117 114.727 105.235  1.00  0.00     0.293 HD
ENDBRANCH   2  22
BRANCH   6  24
ATOM     24  O   UNL     1     106.296 111.367 107.293  1.00  0.00    -0.507 OA
ATOM     25  H   UNL     1     106.086 111.802 106.408  1.00  0.00     0.293 HD
ENDBRANCH   6  24
BRANCH   8  26
ATOM     26  O   UNL     1     107.066 111.810 111.996  1.00  0.00    -0.508 OA
ATOM     27  H   UNL     1     107.178 110.858 112.323  1.00  0.00     0.293 HD
ENDBRANCH   8  26
TORSDOF 6
ENDMDL
MODEL 9
REMARK VINA RESULT:    -6.070      6.375      8.399
REMARK INTER + INTRA:          -7.514
REMARK INTER:                  -7.241
REMARK INTRA:                  -0.272
REMARK UNBOUND:                -0.201
REMARK SMILES O=c1c(O)c(-c2ccc(O)c(O)c2)oc2cc(O)cc(O)c12
REMARK SMILES IDX 5 1 3 2 2 3 1 4 22 5 20 6 19 7 17 8 16 9 15 10 14 11 6 12
REMARK SMILES IDX 7 13 8 14 9 15 13 16 11 17 10 18 12 20 4 22 21 24 18 26
REMARK H PARENT 10 19 12 21 4 23 21 25 18 27
REMARK Flexibility Score: inf
ROOT
ATOM      1  C   UNL     1     114.306 113.157 107.390  1.00  0.00     0.180 A 
ATOM      2  C   UNL     1     112.903 113.186 107.471  1.00  0.00     0.208 A 
ATOM      3  C   UNL     1     112.246 114.426 107.465  1.00  0.00     0.238 A 
ATOM      4  O   UNL     1     110.994 114.448 107.593  1.00  0.00    -0.285 OA
ATOM      5  C   UNL     1     112.998 115.622 107.360  1.00  0.00     0.111 A 
ATOM      6  C   UNL     1     112.434 116.931 107.304  1.00  0.00     0.134 A 
ATOM      7  C   UNL     1     113.278 118.049 107.332  1.00  0.00     0.093 A 
ATOM      8  C   UNL     1     114.665 117.903 107.350  1.00  0.00     0.123 A 
ATOM      9  C   UNL     1     115.227 116.626 107.345  1.00  0.00     0.094 A 
ATOM     10  C   UNL     1     114.412 115.493 107.353  1.00  0.00     0.146 A 
ATOM     11  O   UNL     1     114.986 114.296 107.359  1.00  0.00    -0.452 OA
ENDROOT
BRANCH   1  12
ATOM     12  C   UNL     1     115.068 111.888 107.366  1.00  0.00     0.025 A 
ATOM     13  C   UNL     1     115.289 111.193 108.565  1.00  0.00     0.016 A 
ATOM     14  C   UNL     1     116.023 110.003 108.569  1.00  0.00     0.051 A 
ATOM     15  C   UNL     1     116.559 109.500 107.376  1.00  0.00     0.157 A 
ATOM     16  C   UNL     1     115.624 111.389 106.173  1.00  0.00     0.062 A 
ATOM     17  C   UNL     1     116.362 110.197 106.177  1.00  0.00     0.158 A 
BRANCH  15  18
ATOM     18  O   UNL     1     117.290 108.313 107.376  1.00  0.00    -0.504 OA
ATOM     19  H   UNL     1     116.834 107.410 107.329  1.00  0.00     0.293 HD
ENDBRANCH  15  18
BRANCH  17  20
ATOM     20  O   UNL     1     116.909 109.702 104.994  1.00  0.00    -0.504 OA
ATOM     21  H   UNL     1     117.501 110.273 104.404  1.00  0.00     0.293 HD
ENDBRANCH  17  20
ENDBRANCH   1  12
BRANCH   2  22
ATOM     22  O   UNL     1     112.181 111.995 107.596  1.00  0.00    -0.502 OA
ATOM     23  H   UNL     1     112.453 111.141 107.124  1.00  0.00     0.293 HD
ENDBRANCH   2  22
BRANCH   6  24
ATOM     24  O   UNL     1     111.064 117.188 107.192  1.00  0.00    -0.507 OA
ATOM     25  H   UNL     1     110.610 117.530 106.358  1.00  0.00     0.293 HD
ENDBRANCH   6  24
BRANCH   8  26
ATOM     26  O   UNL     1     115.474 119.037 107.362  1.00  0.00    -0.508 OA
ATOM     27  H   UNL     1     115.242 119.847 107.925  1.00  0.00     0.293 HD
ENDBRANCH   8  26
TORSDOF 6
ENDMDL
