MODEL 1
REMARK VINA RESULT:    -4.383      0.000      0.000
REMARK INTER + INTRA:         -11.324
REMARK INTER:                  -8.482
REMARK INTRA:                  -2.842
REMARK UNBOUND:                -2.842
REMARK SMILES CCCCCCCCCCCCCCCCCC(=O)[O-]
REMARK SMILES IDX 10 1 11 2 12 3 13 4 14 5 15 6 16 7 17 8 18 9 19 10 20 11
REMARK SMILES IDX 9 12 8 13 7 14 6 15 5 16 4 17 3 18 2 19 1 20
REMARK H PARENT
REMARK Flexibility Score: inf
ROOT
ATOM      1  C   UNL     1      84.595 125.552 129.768  1.00  0.00     0.000 C 
ENDROOT
BRANCH   1   2
ATOM      2  C   UNL     1      85.386 125.759 128.466  1.00  0.00     0.000 C 
BRANCH   2   3
ATOM      3  C   UNL     1      86.829 125.235 128.562  1.00  0.00     0.000 C 
BRANCH   3   4
ATOM      4  C   UNL     1      87.120 124.549 129.907  1.00  0.00     0.000 C 
BRANCH   4   5
ATOM      5  C   UNL     1      88.121 123.391 129.777  1.00  0.00     0.000 C 
BRANCH   5   6
ATOM      6  C   UNL     1      88.255 122.630 131.106  1.00  0.00     0.000 C 
BRANCH   6   7
ATOM      7  C   UNL     1      86.973 121.871 131.496  1.00  0.00     0.006 C 
BRANCH   7   8
ATOM      8  C   UNL     1      87.141 120.341 131.539  1.00  0.00     0.053 C 
BRANCH   8   9
ATOM      9  C   UNL     1      86.821 119.687 130.229  1.00  0.00     0.041 C 
ATOM     10  O   UNL     1      85.754 119.035 130.087  1.00  0.00    -0.550 OA
ATOM     11  O   UNL     1      87.690 119.823 129.153  1.00  0.00    -0.550 OA
ENDBRANCH   8   9
ENDBRANCH   7   8
ENDBRANCH   6   7
ENDBRANCH   5   6
ENDBRANCH   4   5
ENDBRANCH   3   4
ENDBRANCH   2   3
ENDBRANCH   1   2
BRANCH   1  12
ATOM     12  C   UNL     1      83.079 125.464 129.534  1.00  0.00     0.000 C 
BRANCH  12  13
ATOM     13  C   UNL     1      82.634 124.007 129.357  1.00  0.00    -0.000 C 
BRANCH  13  14
ATOM     14  C   UNL     1      83.667 123.041 129.955  1.00  0.00    -0.000 C 
BRANCH  14  15
ATOM     15  C   UNL     1      83.903 121.806 129.071  1.00  0.00    -0.000 C 
BRANCH  15  16
ATOM     16  C   UNL     1      85.067 121.999 128.083  1.00  0.00    -0.000 C 
BRANCH  16  17
ATOM     17  C   UNL     1      84.987 121.041 126.884  1.00  0.00    -0.000 C 
BRANCH  17  18
ATOM     18  C   UNL     1      84.263 121.665 125.679  1.00  0.00    -0.000 C 
BRANCH  18  19
ATOM     19  C   UNL     1      84.841 123.035 125.290  1.00  0.00    -0.003 C 
ATOM     20  C   UNL     1      83.860 124.181 125.535  1.00  0.00     0.004 C 
ENDBRANCH  18  19
ENDBRANCH  17  18
ENDBRANCH  16  17
ENDBRANCH  15  16
ENDBRANCH  14  15
ENDBRANCH  13  14
ENDBRANCH  12  13
ENDBRANCH   1  12
TORSDOF 16
ENDMDL
MODEL 2
REMARK VINA RESULT:    -4.203      1.223      2.827
REMARK INTER + INTRA:         -10.976
REMARK INTER:                  -8.177
REMARK INTRA:                  -2.800
REMARK UNBOUND:                -2.842
REMARK SMILES CCCCCCCCCCCCCCCCCC(=O)[O-]
REMARK SMILES IDX 10 1 11 2 12 3 13 4 14 5 15 6 16 7 17 8 18 9 19 10 20 11
REMARK SMILES IDX 9 12 8 13 7 14 6 15 5 16 4 17 3 18 2 19 1 20
REMARK H PARENT
REMARK Flexibility Score: inf
ROOT
ATOM      1  C   UNL     1      86.529 123.802 129.218  1.00  0.00     0.000 C 
ENDROOT
BRANCH   1   2
ATOM      2  C   UNL     1      87.975 123.504 129.647  1.00  0.00     0.000 C 
BRANCH   2   3
ATOM      3  C   UNL     1      88.209 123.752 131.147  1.00  0.00     0.000 C 
BRANCH   3   4
ATOM      4  C   UNL     1      86.915 123.651 131.972  1.00  0.00     0.000 C 
BRANCH   4   5
ATOM      5  C   UNL     1      86.692 122.247 132.556  1.00  0.00     0.000 C 
BRANCH   5   6
ATOM      6  C   UNL     1      85.328 121.685 132.128  1.00  0.00     0.000 C 
BRANCH   6   7
ATOM      7  C   UNL     1      85.339 121.099 130.704  1.00  0.00     0.006 C 
BRANCH   7   8
ATOM      8  C   UNL     1      86.426 120.033 130.474  1.00  0.00     0.053 C 
BRANCH   8   9
ATOM      9  C   UNL     1      86.791 119.881 129.028  1.00  0.00     0.041 C 
ATOM     10  O   UNL     1      87.902 119.389 128.701  1.00  0.00    -0.550 OA
ATOM     11  O   UNL     1      85.889 120.256 128.040  1.00  0.00    -0.550 OA
ENDBRANCH   8   9
ENDBRANCH   7   8
ENDBRANCH   6   7
ENDBRANCH   5   6
ENDBRANCH   4   5
ENDBRANCH   3   4
ENDBRANCH   2   3
ENDBRANCH   1   2
BRANCH   1  12
ATOM     12  C   UNL     1      86.440 124.911 128.158  1.00  0.00     0.000 C 
BRANCH  12  13
ATOM     13  C   UNL     1      85.499 126.032 128.616  1.00  0.00    -0.000 C 
BRANCH  13  14
ATOM     14  C   UNL     1      84.748 125.632 129.895  1.00  0.00    -0.000 C 
BRANCH  14  15
ATOM     15  C   UNL     1      83.224 125.598 129.699  1.00  0.00    -0.000 C 
BRANCH  15  16
ATOM     16  C   UNL     1      82.687 124.171 129.482  1.00  0.00    -0.000 C 
BRANCH  16  17
ATOM     17  C   UNL     1      82.527 123.822 127.995  1.00  0.00    -0.000 C 
BRANCH  17  18
ATOM     18  C   UNL     1      83.424 122.648 127.565  1.00  0.00    -0.000 C 
BRANCH  18  19
ATOM     19  C   UNL     1      83.972 122.818 126.139  1.00  0.00    -0.003 C 
ATOM     20  C   UNL     1      83.895 124.262 125.645  1.00  0.00     0.004 C 
ENDBRANCH  18  19
ENDBRANCH  17  18
ENDBRANCH  16  17
ENDBRANCH  15  16
ENDBRANCH  14  15
ENDBRANCH  13  14
ENDBRANCH  12  13
ENDBRANCH   1  12
TORSDOF 16
ENDMDL
MODEL 3
REMARK VINA RESULT:    -4.184      2.341      5.210
REMARK INTER + INTRA:         -10.939
REMARK INTER:                  -8.135
REMARK INTRA:                  -2.804
REMARK UNBOUND:                -2.842
REMARK SMILES CCCCCCCCCCCCCCCCCC(=O)[O-]
REMARK SMILES IDX 10 1 11 2 12 3 13 4 14 5 15 6 16 7 17 8 18 9 19 10 20 11
REMARK SMILES IDX 9 12 8 13 7 14 6 15 5 16 4 17 3 18 2 19 1 20
REMARK H PARENT
REMARK Flexibility Score: inf
ROOT
ATOM      1  C   UNL     1      86.693 124.157 128.825  1.00  0.00     0.000 C 
ENDROOT
BRANCH   1   2
ATOM      2  C   UNL     1      86.342 125.627 128.543  1.00  0.00     0.000 C 
BRANCH   2   3
ATOM      3  C   UNL     1      84.891 125.971 128.921  1.00  0.00     0.000 C 
BRANCH   3   4
ATOM      4  C   UNL     1      84.082 124.735 129.348  1.00  0.00     0.000 C 
BRANCH   4   5
ATOM      5  C   UNL     1      82.716 124.651 128.651  1.00  0.00     0.000 C 
BRANCH   5   6
ATOM      6  C   UNL     1      82.635 123.410 127.748  1.00  0.00     0.000 C 
BRANCH   6   7
ATOM      7  C   UNL     1      82.587 123.759 126.249  1.00  0.00     0.006 C 
BRANCH   7   8
ATOM      8  C   UNL     1      83.970 124.004 125.619  1.00  0.00     0.053 C 
BRANCH   8   9
ATOM      9  C   UNL     1      84.358 122.936 124.641  1.00  0.00     0.041 C 
ATOM     10  O   UNL     1      83.516 122.492 123.817  1.00  0.00    -0.550 OA
ATOM     11  O   UNL     1      85.660 122.452 124.620  1.00  0.00    -0.550 OA
ENDBRANCH   8   9
ENDBRANCH   7   8
ENDBRANCH   6   7
ENDBRANCH   5   6
ENDBRANCH   4   5
ENDBRANCH   3   4
ENDBRANCH   2   3
ENDBRANCH   1   2
BRANCH   1  12
ATOM     12  C   UNL     1      87.588 123.987 130.062  1.00  0.00     0.000 C 
BRANCH  12  13
ATOM     13  C   UNL     1      88.401 122.689 129.977  1.00  0.00    -0.000 C 
BRANCH  13  14
ATOM     14  C   UNL     1      88.212 121.838 131.241  1.00  0.00    -0.000 C 
BRANCH  14  15
ATOM     15  C   UNL     1      87.078 122.358 132.140  1.00  0.00    -0.000 C 
BRANCH  15  16
ATOM     16  C   UNL     1      85.851 121.430 132.140  1.00  0.00    -0.000 C 
BRANCH  16  17
ATOM     17  C   UNL     1      84.710 121.961 131.258  1.00  0.00    -0.000 C 
BRANCH  17  18
ATOM     18  C   UNL     1      84.279 120.951 130.180  1.00  0.00    -0.000 C 
BRANCH  18  19
ATOM     19  C   UNL     1      85.450 120.507 129.289  1.00  0.00    -0.003 C 
ATOM     20  C   UNL     1      85.278 120.935 127.832  1.00  0.00     0.004 C 
ENDBRANCH  18  19
ENDBRANCH  17  18
ENDBRANCH  16  17
ENDBRANCH  15  16
ENDBRANCH  14  15
ENDBRANCH  13  14
ENDBRANCH  12  13
ENDBRANCH   1  12
TORSDOF 16
ENDMDL
MODEL 4
REMARK VINA RESULT:    -4.182      1.749      3.266
REMARK INTER + INTRA:         -10.936
REMARK INTER:                  -8.746
REMARK INTRA:                  -2.190
REMARK UNBOUND:                -2.842
REMARK SMILES CCCCCCCCCCCCCCCCCC(=O)[O-]
REMARK SMILES IDX 10 1 11 2 12 3 13 4 14 5 15 6 16 7 17 8 18 9 19 10 20 11
REMARK SMILES IDX 9 12 8 13 7 14 6 15 5 16 4 17 3 18 2 19 1 20
REMARK H PARENT
REMARK Flexibility Score: inf
ROOT
ATOM      1  C   UNL     1      86.387 124.819 130.853  1.00  0.00     0.000 C 
ENDROOT
BRANCH   1   2
ATOM      2  C   UNL     1      87.285 123.898 131.695  1.00  0.00     0.000 C 
BRANCH   2   3
ATOM      3  C   UNL     1      88.439 123.292 130.879  1.00  0.00     0.000 C 
BRANCH   3   4
ATOM      4  C   UNL     1      88.572 121.773 131.081  1.00  0.00     0.000 C 
BRANCH   4   5
ATOM      5  C   UNL     1      87.303 121.141 131.675  1.00  0.00     0.000 C 
BRANCH   5   6
ATOM      6  C   UNL     1      86.497 120.407 130.592  1.00  0.00     0.000 C 
BRANCH   6   7
ATOM      7  C   UNL     1      85.577 121.344 129.788  1.00  0.00     0.006 C 
BRANCH   7   8
ATOM      8  C   UNL     1      85.619 121.110 128.268  1.00  0.00     0.053 C 
BRANCH   8   9
ATOM      9  C   UNL     1      84.452 120.311 127.772  1.00  0.00     0.041 C 
ATOM     10  O   UNL     1      84.488 119.770 126.636  1.00  0.00    -0.550 OA
ATOM     11  O   UNL     1      83.334 120.138 128.580  1.00  0.00    -0.550 OA
ENDBRANCH   8   9
ENDBRANCH   7   8
ENDBRANCH   6   7
ENDBRANCH   5   6
ENDBRANCH   4   5
ENDBRANCH   3   4
ENDBRANCH   2   3
ENDBRANCH   1   2
BRANCH   1  12
ATOM     12  C   UNL     1      86.823 124.891 129.382  1.00  0.00     0.000 C 
BRANCH  12  13
ATOM     13  C   UNL     1      85.727 125.522 128.515  1.00  0.00    -0.000 C 
BRANCH  13  14
ATOM     14  C   UNL     1      84.334 125.044 128.955  1.00  0.00    -0.000 C 
BRANCH  14  15
ATOM     15  C   UNL     1      83.631 124.201 127.879  1.00  0.00    -0.000 C 
BRANCH  15  16
ATOM     16  C   UNL     1      84.406 124.175 126.549  1.00  0.00    -0.000 C 
BRANCH  16  17
ATOM     17  C   UNL     1      83.508 123.829 125.351  1.00  0.00    -0.000 C 
BRANCH  17  18
ATOM     18  C   UNL     1      84.043 122.637 124.538  1.00  0.00    -0.000 C 
BRANCH  18  19
ATOM     19  C   UNL     1      82.917 121.765 123.961  1.00  0.00    -0.003 C 
ATOM     20  C   UNL     1      83.092 121.487 122.469  1.00  0.00     0.004 C 
ENDBRANCH  18  19
ENDBRANCH  17  18
ENDBRANCH  16  17
ENDBRANCH  15  16
ENDBRANCH  14  15
ENDBRANCH  13  14
ENDBRANCH  12  13
ENDBRANCH   1  12
TORSDOF 16
ENDMDL
MODEL 5
REMARK VINA RESULT:    -4.125      2.098      5.650
REMARK INTER + INTRA:         -10.826
REMARK INTER:                  -8.068
REMARK INTRA:                  -2.758
REMARK UNBOUND:                -2.842
REMARK SMILES CCCCCCCCCCCCCCCCCC(=O)[O-]
REMARK SMILES IDX 10 1 11 2 12 3 13 4 14 5 15 6 16 7 17 8 18 9 19 10 20 11
REMARK SMILES IDX 9 12 8 13 7 14 6 15 5 16 4 17 3 18 2 19 1 20
REMARK H PARENT
REMARK Flexibility Score: inf
ROOT
ATOM      1  C   UNL     1      85.118 121.552 129.235  1.00  0.00     0.000 C 
ENDROOT
BRANCH   1   2
ATOM      2  C   UNL     1      83.787 120.784 129.189  1.00  0.00     0.000 C 
BRANCH   2   3
ATOM      3  C   UNL     1      82.580 121.709 128.956  1.00  0.00     0.000 C 
BRANCH   3   4
ATOM      4  C   UNL     1      82.793 123.117 129.535  1.00  0.00     0.000 C 
BRANCH   4   5
ATOM      5  C   UNL     1      82.508 124.228 128.513  1.00  0.00     0.000 C 
BRANCH   5   6
ATOM      6  C   UNL     1      82.102 123.634 127.156  1.00  0.00     0.000 C 
BRANCH   6   7
ATOM      7  C   UNL     1      83.035 124.063 126.008  1.00  0.00     0.006 C 
BRANCH   7   8
ATOM      8  C   UNL     1      84.495 123.609 126.186  1.00  0.00     0.053 C 
BRANCH   8   9
ATOM      9  C   UNL     1      84.821 122.380 125.393  1.00  0.00     0.041 C 
ATOM     10  O   UNL     1      85.639 122.438 124.438  1.00  0.00    -0.550 OA
ATOM     11  O   UNL     1      84.242 121.162 125.728  1.00  0.00    -0.550 OA
ENDBRANCH   8   9
ENDBRANCH   7   8
ENDBRANCH   6   7
ENDBRANCH   5   6
ENDBRANCH   4   5
ENDBRANCH   3   4
ENDBRANCH   2   3
ENDBRANCH   1   2
BRANCH   1  12
ATOM     12  C   UNL     1      86.130 120.929 130.209  1.00  0.00     0.000 C 
BRANCH  12  13
ATOM     13  C   UNL     1      87.468 120.657 129.510  1.00  0.00    -0.000 C 
BRANCH  13  14
ATOM     14  C   UNL     1      88.578 121.552 130.080  1.00  0.00    -0.000 C 
BRANCH  14  15
ATOM     15  C   UNL     1      88.153 122.272 131.370  1.00  0.00    -0.000 C 
BRANCH  15  16
ATOM     16  C   UNL     1      88.021 123.794 131.181  1.00  0.00    -0.000 C 
BRANCH  16  17
ATOM     17  C   UNL     1      86.744 124.359 131.823  1.00  0.00    -0.000 C 
BRANCH  17  18
ATOM     18  C   UNL     1      85.812 125.024 130.796  1.00  0.00    -0.000 C 
BRANCH  18  19
ATOM     19  C   UNL     1      86.418 125.052 129.383  1.00  0.00    -0.003 C 
ATOM     20  C   UNL     1      85.758 126.091 128.478  1.00  0.00     0.004 C 
ENDBRANCH  18  19
ENDBRANCH  17  18
ENDBRANCH  16  17
ENDBRANCH  15  16
ENDBRANCH  14  15
ENDBRANCH  13  14
ENDBRANCH  12  13
ENDBRANCH   1  12
TORSDOF 16
ENDMDL
MODEL 6
REMARK VINA RESULT:    -4.094      2.280      4.981
REMARK INTER + INTRA:         -10.765
REMARK INTER:                  -7.829
REMARK INTRA:                  -2.936
REMARK UNBOUND:                -2.842
REMARK SMILES CCCCCCCCCCCCCCCCCC(=O)[O-]
REMARK SMILES IDX 10 1 11 2 12 3 13 4 14 5 15 6 16 7 17 8 18 9 19 10 20 11
REMARK SMILES IDX 9 12 8 13 7 14 6 15 5 16 4 17 3 18 2 19 1 20
REMARK H PARENT
REMARK Flexibility Score: inf
ROOT
ATOM      1  C   UNL     1      88.281 123.031 131.216  1.00  0.00     0.000 C 
ENDROOT
BRANCH   1   2
ATOM      2  C   UNL     1      88.358 121.617 130.617  1.00  0.00     0.000 C 
BRANCH   2   3
ATOM      3  C   UNL     1      87.157 120.742 131.013  1.00  0.00     0.000 C 
BRANCH   3   4
ATOM      4  C   UNL     1      86.257 120.396 129.814  1.00  0.00     0.000 C 
BRANCH   4   5
ATOM      5  C   UNL     1      84.833 120.955 129.961  1.00  0.00     0.000 C 
BRANCH   5   6
ATOM      6  C   UNL     1      84.140 121.054 128.594  1.00  0.00     0.000 C 
BRANCH   6   7
ATOM      7  C   UNL     1      85.130 121.059 127.415  1.00  0.00     0.006 C 
BRANCH   7   8
ATOM      8  C   UNL     1      84.468 121.278 126.043  1.00  0.00     0.053 C 
BRANCH   8   9
ATOM      9  C   UNL     1      84.873 122.571 125.404  1.00  0.00     0.041 C 
ATOM     10  O   UNL     1      85.724 122.584 124.476  1.00  0.00    -0.550 OA
ATOM     11  O   UNL     1      84.287 123.763 125.814  1.00  0.00    -0.550 OA
ENDBRANCH   8   9
ENDBRANCH   7   8
ENDBRANCH   6   7
ENDBRANCH   5   6
ENDBRANCH   4   5
ENDBRANCH   3   4
ENDBRANCH   2   3
ENDBRANCH   1   2
BRANCH   1  12
ATOM     12  C   UNL     1      86.959 123.292 131.954  1.00  0.00     0.000 C 
BRANCH  12  13
ATOM     13  C   UNL     1      86.827 124.771 132.338  1.00  0.00    -0.000 C 
BRANCH  13  14
ATOM     14  C   UNL     1      85.351 125.194 132.397  1.00  0.00    -0.000 C 
BRANCH  14  15
ATOM     15  C   UNL     1      84.423 124.202 131.677  1.00  0.00    -0.000 C 
BRANCH  15  16
ATOM     16  C   UNL     1      83.600 124.867 130.560  1.00  0.00    -0.000 C 
BRANCH  16  17
ATOM     17  C   UNL     1      84.261 124.728 129.179  1.00  0.00    -0.000 C 
BRANCH  17  18
ATOM     18  C   UNL     1      85.128 125.945 128.815  1.00  0.00    -0.000 C 
BRANCH  18  19
ATOM     19  C   UNL     1      86.599 125.570 128.576  1.00  0.00    -0.003 C 
ATOM     20  C   UNL     1      86.785 124.087 128.258  1.00  0.00     0.004 C 
ENDBRANCH  18  19
ENDBRANCH  17  18
ENDBRANCH  16  17
ENDBRANCH  15  16
ENDBRANCH  14  15
ENDBRANCH  13  14
ENDBRANCH  12  13
ENDBRANCH   1  12
TORSDOF 16
ENDMDL
MODEL 7
REMARK VINA RESULT:    -4.075      2.480      5.354
REMARK INTER + INTRA:         -10.729
REMARK INTER:                  -7.940
REMARK INTRA:                  -2.790
REMARK UNBOUND:                -2.842
REMARK SMILES CCCCCCCCCCCCCCCCCC(=O)[O-]
REMARK SMILES IDX 10 1 11 2 12 3 13 4 14 5 15 6 16 7 17 8 18 9 19 10 20 11
REMARK SMILES IDX 9 12 8 13 7 14 6 15 5 16 4 17 3 18 2 19 1 20
REMARK H PARENT
REMARK Flexibility Score: inf
ROOT
ATOM      1  C   UNL     1      85.581 125.545 128.866  1.00  0.00     0.000 C 
ENDROOT
BRANCH   1   2
ATOM      2  C   UNL     1      85.181 124.536 127.778  1.00  0.00     0.000 C 
BRANCH   2   3
ATOM      3  C   UNL     1      85.612 123.099 128.118  1.00  0.00     0.000 C 
BRANCH   3   4
ATOM      4  C   UNL     1      84.416 122.153 128.314  1.00  0.00     0.000 C 
BRANCH   4   5
ATOM      5  C   UNL     1      83.069 122.832 128.019  1.00  0.00     0.000 C 
BRANCH   5   6
ATOM      6  C   UNL     1      82.299 122.072 126.928  1.00  0.00     0.000 C 
BRANCH   6   7
ATOM      7  C   UNL     1      83.190 121.111 126.120  1.00  0.00     0.006 C 
BRANCH   7   8
ATOM      8  C   UNL     1      83.460 121.573 124.677  1.00  0.00     0.053 C 
BRANCH   8   9
ATOM      9  C   UNL     1      84.453 122.693 124.603  1.00  0.00     0.041 C 
ATOM     10  O   UNL     1      85.686 122.447 124.541  1.00  0.00    -0.550 OA
ATOM     11  O   UNL     1      84.013 124.011 124.572  1.00  0.00    -0.550 OA
ENDBRANCH   8   9
ENDBRANCH   7   8
ENDBRANCH   6   7
ENDBRANCH   5   6
ENDBRANCH   4   5
ENDBRANCH   3   4
ENDBRANCH   2   3
ENDBRANCH   1   2
BRANCH   1  12
ATOM     12  C   UNL     1      84.577 125.595 130.028  1.00  0.00     0.000 C 
BRANCH  12  13
ATOM     13  C   UNL     1      85.221 125.108 131.332  1.00  0.00    -0.000 C 
BRANCH  13  14
ATOM     14  C   UNL     1      84.721 123.703 131.701  1.00  0.00    -0.000 C 
BRANCH  14  15
ATOM     15  C   UNL     1      85.200 123.253 133.091  1.00  0.00    -0.000 C 
BRANCH  15  16
ATOM     16  C   UNL     1      86.062 121.979 133.035  1.00  0.00    -0.000 C 
BRANCH  16  17
ATOM     17  C   UNL     1      86.292 121.486 131.598  1.00  0.00    -0.000 C 
BRANCH  17  18
ATOM     18  C   UNL     1      87.755 121.084 131.340  1.00  0.00    -0.000 C 
BRANCH  18  19
ATOM     19  C   UNL     1      88.432 121.971 130.283  1.00  0.00    -0.003 C 
ATOM     20  C   UNL     1      88.367 123.457 130.631  1.00  0.00     0.004 C 
ENDBRANCH  18  19
ENDBRANCH  17  18
ENDBRANCH  16  17
ENDBRANCH  15  16
ENDBRANCH  14  15
ENDBRANCH  13  14
ENDBRANCH  12  13
ENDBRANCH   1  12
TORSDOF 16
ENDMDL
MODEL 8
REMARK VINA RESULT:    -4.040      1.803      2.657
REMARK INTER + INTRA:         -10.660
REMARK INTER:                  -7.968
REMARK INTRA:                  -2.692
REMARK UNBOUND:                -2.842
REMARK SMILES CCCCCCCCCCCCCCCCCC(=O)[O-]
REMARK SMILES IDX 10 1 11 2 12 3 13 4 14 5 15 6 16 7 17 8 18 9 19 10 20 11
REMARK SMILES IDX 9 12 8 13 7 14 6 15 5 16 4 17 3 18 2 19 1 20
REMARK H PARENT
REMARK Flexibility Score: inf
ROOT
ATOM      1  C   UNL     1      85.946 125.336 128.968  1.00  0.00     0.000 C 
ENDROOT
BRANCH   1   2
ATOM      2  C   UNL     1      85.259 125.331 130.344  1.00  0.00     0.000 C 
BRANCH   2   3
ATOM      3  C   UNL     1      86.144 124.718 131.444  1.00  0.00     0.000 C 
BRANCH   3   4
ATOM      4  C   UNL     1      85.324 124.008 132.534  1.00  0.00     0.000 C 
BRANCH   4   5
ATOM      5  C   UNL     1      85.577 122.493 132.574  1.00  0.00     0.000 C 
BRANCH   5   6
ATOM      6  C   UNL     1      85.091 121.822 131.281  1.00  0.00     0.000 C 
BRANCH   6   7
ATOM      7  C   UNL     1      86.192 121.008 130.575  1.00  0.00     0.006 C 
BRANCH   7   8
ATOM      8  C   UNL     1      87.472 120.831 131.411  1.00  0.00     0.053 C 
BRANCH   8   9
ATOM      9  C   UNL     1      88.657 121.523 130.809  1.00  0.00     0.041 C 
ATOM     10  O   UNL     1      89.813 121.314 131.261  1.00  0.00    -0.550 OA
ATOM     11  O   UNL     1      88.487 122.379 129.727  1.00  0.00    -0.550 OA
ENDBRANCH   8   9
ENDBRANCH   7   8
ENDBRANCH   6   7
ENDBRANCH   5   6
ENDBRANCH   4   5
ENDBRANCH   3   4
ENDBRANCH   2   3
ENDBRANCH   1   2
BRANCH   1  12
ATOM     12  C   UNL     1      85.531 124.144 128.093  1.00  0.00     0.000 C 
BRANCH  12  13
ATOM     13  C   UNL     1      84.527 124.577 127.017  1.00  0.00    -0.000 C 
BRANCH  13  14
ATOM     14  C   UNL     1      83.105 124.119 127.376  1.00  0.00    -0.000 C 
BRANCH  14  15
ATOM     15  C   UNL     1      83.093 123.002 128.432  1.00  0.00    -0.000 C 
BRANCH  15  16
ATOM     16  C   UNL     1      82.703 121.635 127.842  1.00  0.00    -0.000 C 
BRANCH  16  17
ATOM     17  C   UNL     1      83.914 120.711 127.647  1.00  0.00    -0.000 C 
BRANCH  17  18
ATOM     18  C   UNL     1      84.502 120.801 126.228  1.00  0.00    -0.000 C 
BRANCH  18  19
ATOM     19  C   UNL     1      83.451 121.201 125.180  1.00  0.00    -0.003 C 
ATOM     20  C   UNL     1      83.974 122.236 124.185  1.00  0.00     0.004 C 
ENDBRANCH  18  19
ENDBRANCH  17  18
ENDBRANCH  16  17
ENDBRANCH  15  16
ENDBRANCH  14  15
ENDBRANCH  13  14
ENDBRANCH  12  13
ENDBRANCH   1  12
TORSDOF 16
ENDMDL
MODEL 9
REMARK VINA RESULT:    -4.008      2.100      3.358
REMARK INTER + INTRA:         -10.599
REMARK INTER:                  -8.711
REMARK INTRA:                  -1.888
REMARK UNBOUND:                -2.842
REMARK SMILES CCCCCCCCCCCCCCCCCC(=O)[O-]
REMARK SMILES IDX 10 1 11 2 12 3 13 4 14 5 15 6 16 7 17 8 18 9 19 10 20 11
REMARK SMILES IDX 9 12 8 13 7 14 6 15 5 16 4 17 3 18 2 19 1 20
REMARK H PARENT
REMARK Flexibility Score: inf
ROOT
ATOM      1  C   UNL     1      86.742 124.813 128.621  1.00  0.00     0.000 C 
ENDROOT
BRANCH   1   2
ATOM      2  C   UNL     1      87.162 124.508 130.068  1.00  0.00     0.000 C 
BRANCH   2   3
ATOM      3  C   UNL     1      86.025 124.750 131.077  1.00  0.00     0.000 C 
BRANCH   3   4
ATOM      4  C   UNL     1      85.505 123.446 131.705  1.00  0.00     0.000 C 
BRANCH   4   5
ATOM      5  C   UNL     1      84.188 122.968 131.074  1.00  0.00     0.000 C 
BRANCH   5   6
ATOM      6  C   UNL     1      84.328 121.539 130.528  1.00  0.00     0.000 C 
BRANCH   6   7
ATOM      7  C   UNL     1      85.351 121.429 129.383  1.00  0.00     0.006 C 
BRANCH   7   8
ATOM      8  C   UNL     1      86.388 120.308 129.576  1.00  0.00     0.053 C 
BRANCH   8   9
ATOM      9  C   UNL     1      87.569 120.745 130.388  1.00  0.00     0.041 C 
ATOM     10  O   UNL     1      87.554 120.635 131.642  1.00  0.00    -0.550 OA
ATOM     11  O   UNL     1      88.701 121.246 129.756  1.00  0.00    -0.550 OA
ENDBRANCH   8   9
ENDBRANCH   7   8
ENDBRANCH   6   7
ENDBRANCH   5   6
ENDBRANCH   4   5
ENDBRANCH   3   4
ENDBRANCH   2   3
ENDBRANCH   1   2
BRANCH   1  12
ATOM     12  C   UNL     1      85.442 125.629 128.539  1.00  0.00     0.000 C 
BRANCH  12  13
ATOM     13  C   UNL     1      84.334 124.826 127.847  1.00  0.00    -0.000 C 
BRANCH  13  14
ATOM     14  C   UNL     1      84.920 123.885 126.783  1.00  0.00    -0.000 C 
BRANCH  14  15
ATOM     15  C   UNL     1      84.087 123.862 125.491  1.00  0.00    -0.000 C 
BRANCH  15  16
ATOM     16  C   UNL     1      84.560 122.782 124.502  1.00  0.00    -0.000 C 
BRANCH  16  17
ATOM     17  C   UNL     1      83.458 121.763 124.173  1.00  0.00    -0.000 C 
BRANCH  17  18
ATOM     18  C   UNL     1      83.120 121.724 122.672  1.00  0.00    -0.000 C 
BRANCH  18  19
ATOM     19  C   UNL     1      82.346 120.457 122.276  1.00  0.00    -0.003 C 
ATOM     20  C   UNL     1      83.058 119.645 121.195  1.00  0.00     0.004 C 
ENDBRANCH  18  19
ENDBRANCH  17  18
ENDBRANCH  16  17
ENDBRANCH  15  16
ENDBRANCH  14  15
ENDBRANCH  13  14
ENDBRANCH  12  13
ENDBRANCH   1  12
TORSDOF 16
ENDMDL
