MODEL 1
REMARK VINA RESULT:    -4.723      0.000      0.000
REMARK INTER + INTRA:         -10.255
REMARK INTER:                  -9.140
REMARK INTRA:                  -1.115
REMARK UNBOUND:                -1.115
REMARK SMILES CCCCCCCCCCCCCCCCCC(=O)[O-]
REMARK SMILES IDX 10 1 11 2 12 3 13 4 14 5 15 6 16 7 17 8 18 9 19 10 20 11
REMARK SMILES IDX 9 12 8 13 7 14 6 15 5 16 4 17 3 18 2 19 1 20
REMARK H PARENT
REMARK Flexibility Score: inf
ROOT
ATOM      1  C   UNL     1     315.254 230.550 209.979  1.00  0.00     0.000 C 
ENDROOT
BRANCH   1   2
ATOM      2  C   UNL     1     314.564 231.891 210.293  1.00  0.00     0.000 C 
BRANCH   2   3
ATOM      3  C   UNL     1     315.418 233.110 209.904  1.00  0.00     0.000 C 
BRANCH   3   4
ATOM      4  C   UNL     1     314.723 234.443 210.222  1.00  0.00     0.000 C 
BRANCH   4   5
ATOM      5  C   UNL     1     314.153 235.123 208.970  1.00  0.00     0.000 C 
BRANCH   5   6
ATOM      6  C   UNL     1     314.979 234.769 207.727  1.00  0.00     0.000 C 
BRANCH   6   7
ATOM      7  C   UNL     1     314.083 234.649 206.485  1.00  0.00     0.006 C 
BRANCH   7   8
ATOM      8  C   UNL     1     312.701 234.073 206.820  1.00  0.00     0.053 C 
BRANCH   8   9
ATOM      9  C   UNL     1     312.557 232.661 206.344  1.00  0.00     0.041 C 
ATOM     10  O   UNL     1     312.088 232.424 205.199  1.00  0.00    -0.550 OA
ATOM     11  O   UNL     1     312.970 231.608 207.149  1.00  0.00    -0.550 OA
ENDBRANCH   8   9
ENDBRANCH   7   8
ENDBRANCH   6   7
ENDBRANCH   5   6
ENDBRANCH   4   5
ENDBRANCH   3   4
ENDBRANCH   2   3
ENDBRANCH   1   2
BRANCH   1  12
ATOM     12  C   UNL     1     315.338 229.566 211.161  1.00  0.00     0.000 C 
BRANCH  12  13
ATOM     13  C   UNL     1     316.467 228.534 211.003  1.00  0.00    -0.000 C 
BRANCH  13  14
ATOM     14  C   UNL     1     317.245 228.692 209.683  1.00  0.00    -0.000 C 
BRANCH  14  15
ATOM     15  C   UNL     1     318.669 228.105 209.685  1.00  0.00    -0.000 C 
BRANCH  15  16
ATOM     16  C   UNL     1     319.571 228.711 208.599  1.00  0.00    -0.000 C 
BRANCH  16  17
ATOM     17  C   UNL     1     320.263 227.608 207.782  1.00  0.00    -0.000 C 
BRANCH  17  18
ATOM     18  C   UNL     1     319.742 227.522 206.340  1.00  0.00    -0.000 C 
BRANCH  18  19
ATOM     19  C   UNL     1     320.201 226.245 205.620  1.00  0.00    -0.003 C 
ATOM     20  C   UNL     1     321.305 225.540 206.404  1.00  0.00     0.004 C 
ENDBRANCH  18  19
ENDBRANCH  17  18
ENDBRANCH  16  17
ENDBRANCH  15  16
ENDBRANCH  14  15
ENDBRANCH  13  14
ENDBRANCH  12  13
ENDBRANCH   1  12
TORSDOF 16
ENDMDL
MODEL 2
REMARK VINA RESULT:    -4.692      9.600     13.114
REMARK INTER + INTRA:         -10.195
REMARK INTER:                  -7.715
REMARK INTRA:                  -2.480
REMARK UNBOUND:                -1.115
REMARK SMILES CCCCCCCCCCCCCCCCCC(=O)[O-]
REMARK SMILES IDX 10 1 11 2 12 3 13 4 14 5 15 6 16 7 17 8 18 9 19 10 20 11
REMARK SMILES IDX 9 12 8 13 7 14 6 15 5 16 4 17 3 18 2 19 1 20
REMARK H PARENT
REMARK Flexibility Score: inf
ROOT
ATOM      1  C   UNL     1     314.522 231.648 195.030  1.00  0.00     0.000 C 
ENDROOT
BRANCH   1   2
ATOM      2  C   UNL     1     315.436 232.565 195.864  1.00  0.00     0.000 C 
BRANCH   2   3
ATOM      3  C   UNL     1     315.013 234.043 195.808  1.00  0.00     0.000 C 
BRANCH   3   4
ATOM      4  C   UNL     1     314.899 234.678 197.203  1.00  0.00     0.000 C 
BRANCH   4   5
ATOM      5  C   UNL     1     315.934 234.120 198.190  1.00  0.00     0.000 C 
BRANCH   5   6
ATOM      6  C   UNL     1     316.542 235.242 199.042  1.00  0.00     0.000 C 
BRANCH   6   7
ATOM      7  C   UNL     1     317.311 234.668 200.241  1.00  0.00     0.006 C 
BRANCH   7   8
ATOM      8  C   UNL     1     318.830 234.723 200.036  1.00  0.00     0.053 C 
BRANCH   8   9
ATOM      9  C   UNL     1     319.573 234.340 201.279  1.00  0.00     0.041 C 
ATOM     10  O   UNL     1     318.942 233.966 202.303  1.00  0.00    -0.550 OA
ATOM     11  O   UNL     1     320.962 234.363 201.296  1.00  0.00    -0.550 OA
ENDBRANCH   8   9
ENDBRANCH   7   8
ENDBRANCH   6   7
ENDBRANCH   5   6
ENDBRANCH   4   5
ENDBRANCH   3   4
ENDBRANCH   2   3
ENDBRANCH   1   2
BRANCH   1  12
ATOM     12  C   UNL     1     313.726 232.354 193.917  1.00  0.00     0.000 C 
BRANCH  12  13
ATOM     13  C   UNL     1     312.283 231.836 193.790  1.00  0.00    -0.000 C 
BRANCH  13  14
ATOM     14  C   UNL     1     311.231 232.875 194.222  1.00  0.00    -0.000 C 
BRANCH  14  15
ATOM     15  C   UNL     1     310.717 232.727 195.667  1.00  0.00    -0.000 C 
BRANCH  15  16
ATOM     16  C   UNL     1     311.261 233.807 196.613  1.00  0.00    -0.000 C 
BRANCH  16  17
ATOM     17  C   UNL     1     311.814 233.180 197.902  1.00  0.00    -0.000 C 
BRANCH  17  18
ATOM     18  C   UNL     1     312.209 231.707 197.723  1.00  0.00    -0.000 C 
BRANCH  18  19
ATOM     19  C   UNL     1     313.364 231.288 198.645  1.00  0.00    -0.003 C 
ATOM     20  C   UNL     1     313.391 232.138 199.913  1.00  0.00     0.004 C 
ENDBRANCH  18  19
ENDBRANCH  17  18
ENDBRANCH  16  17
ENDBRANCH  15  16
ENDBRANCH  14  15
ENDBRANCH  13  14
ENDBRANCH  12  13
ENDBRANCH   1  12
TORSDOF 16
ENDMDL
MODEL 3
REMARK VINA RESULT:    -4.441      9.397     12.485
REMARK INTER + INTRA:          -9.711
REMARK INTER:                  -7.597
REMARK INTRA:                  -2.113
REMARK UNBOUND:                -1.115
REMARK SMILES CCCCCCCCCCCCCCCCCC(=O)[O-]
REMARK SMILES IDX 10 1 11 2 12 3 13 4 14 5 15 6 16 7 17 8 18 9 19 10 20 11
REMARK SMILES IDX 9 12 8 13 7 14 6 15 5 16 4 17 3 18 2 19 1 20
REMARK H PARENT
REMARK Flexibility Score: inf
ROOT
ATOM      1  C   UNL     1     314.316 231.591 194.955  1.00  0.00     0.000 C 
ENDROOT
BRANCH   1   2
ATOM      2  C   UNL     1     313.583 232.478 193.930  1.00  0.00     0.000 C 
BRANCH   2   3
ATOM      3  C   UNL     1     312.231 231.892 193.489  1.00  0.00     0.000 C 
BRANCH   3   4
ATOM      4  C   UNL     1     311.036 232.678 194.050  1.00  0.00     0.000 C 
BRANCH   4   5
ATOM      5  C   UNL     1     311.416 233.544 195.260  1.00  0.00     0.000 C 
BRANCH   5   6
ATOM      6  C   UNL     1     311.074 232.832 196.575  1.00  0.00     0.000 C 
BRANCH   6   7
ATOM      7  C   UNL     1     312.053 233.229 197.689  1.00  0.00     0.006 C 
BRANCH   7   8
ATOM      8  C   UNL     1     311.862 232.390 198.958  1.00  0.00     0.053 C 
BRANCH   8   9
ATOM      9  C   UNL     1     313.126 231.695 199.362  1.00  0.00     0.041 C 
ATOM     10  O   UNL     1     313.675 230.875 198.580  1.00  0.00    -0.550 OA
ATOM     11  O   UNL     1     313.716 231.979 200.587  1.00  0.00    -0.550 OA
ENDBRANCH   8   9
ENDBRANCH   7   8
ENDBRANCH   6   7
ENDBRANCH   5   6
ENDBRANCH   4   5
ENDBRANCH   3   4
ENDBRANCH   2   3
ENDBRANCH   1   2
BRANCH   1  12
ATOM     12  C   UNL     1     315.279 232.338 195.896  1.00  0.00     0.000 C 
BRANCH  12  13
ATOM     13  C   UNL     1     315.365 233.844 195.595  1.00  0.00    -0.000 C 
BRANCH  13  14
ATOM     14  C   UNL     1     315.291 234.714 196.863  1.00  0.00    -0.000 C 
BRANCH  14  15
ATOM     15  C   UNL     1     315.791 234.039 198.154  1.00  0.00    -0.000 C 
BRANCH  15  16
ATOM     16  C   UNL     1     315.341 234.769 199.428  1.00  0.00    -0.000 C 
BRANCH  16  17
ATOM     17  C   UNL     1     316.441 234.731 200.500  1.00  0.00    -0.000 C 
BRANCH  17  18
ATOM     18  C   UNL     1     317.852 234.631 199.899  1.00  0.00    -0.000 C 
BRANCH  18  19
ATOM     19  C   UNL     1     318.891 234.128 200.912  1.00  0.00    -0.003 C 
ATOM     20  C   UNL     1     320.039 233.407 200.209  1.00  0.00     0.004 C 
ENDBRANCH  18  19
ENDBRANCH  17  18
ENDBRANCH  16  17
ENDBRANCH  15  16
ENDBRANCH  14  15
ENDBRANCH  13  14
ENDBRANCH  12  13
ENDBRANCH   1  12
TORSDOF 16
ENDMDL
MODEL 4
REMARK VINA RESULT:    -4.421      1.726      2.196
REMARK INTER + INTRA:          -9.672
REMARK INTER:                  -9.094
REMARK INTRA:                  -0.578
REMARK UNBOUND:                -1.115
REMARK SMILES CCCCCCCCCCCCCCCCCC(=O)[O-]
REMARK SMILES IDX 10 1 11 2 12 3 13 4 14 5 15 6 16 7 17 8 18 9 19 10 20 11
REMARK SMILES IDX 9 12 8 13 7 14 6 15 5 16 4 17 3 18 2 19 1 20
REMARK H PARENT
REMARK Flexibility Score: inf
ROOT
ATOM      1  C   UNL     1     314.412 230.195 210.843  1.00  0.00     0.000 C 
ENDROOT
BRANCH   1   2
ATOM      2  C   UNL     1     314.349 231.734 210.830  1.00  0.00     0.000 C 
BRANCH   2   3
ATOM      3  C   UNL     1     312.909 232.275 210.850  1.00  0.00     0.000 C 
BRANCH   3   4
ATOM      4  C   UNL     1     312.524 232.974 209.537  1.00  0.00     0.000 C 
BRANCH   4   5
ATOM      5  C   UNL     1     313.712 233.120 208.576  1.00  0.00     0.000 C 
BRANCH   5   6
ATOM      6  C   UNL     1     314.482 234.419 208.847  1.00  0.00     0.000 C 
BRANCH   6   7
ATOM      7  C   UNL     1     314.342 235.398 207.671  1.00  0.00     0.006 C 
BRANCH   7   8
ATOM      8  C   UNL     1     315.614 235.465 206.817  1.00  0.00     0.053 C 
BRANCH   8   9
ATOM      9  C   UNL     1     315.345 235.104 205.389  1.00  0.00     0.041 C 
ATOM     10  O   UNL     1     314.726 234.043 205.111  1.00  0.00    -0.550 OA
ATOM     11  O   UNL     1     315.749 235.953 204.367  1.00  0.00    -0.550 OA
ENDBRANCH   8   9
ENDBRANCH   7   8
ENDBRANCH   6   7
ENDBRANCH   5   6
ENDBRANCH   4   5
ENDBRANCH   3   4
ENDBRANCH   2   3
ENDBRANCH   1   2
BRANCH   1  12
ATOM     12  C   UNL     1     315.622 229.597 211.584  1.00  0.00     0.000 C 
BRANCH  12  13
ATOM     13  C   UNL     1     316.162 228.320 210.918  1.00  0.00    -0.000 C 
BRANCH  13  14
ATOM     14  C   UNL     1     317.065 228.612 209.704  1.00  0.00    -0.000 C 
BRANCH  14  15
ATOM     15  C   UNL     1     318.547 228.233 209.882  1.00  0.00    -0.000 C 
BRANCH  15  16
ATOM     16  C   UNL     1     319.433 228.711 208.722  1.00  0.00    -0.000 C 
BRANCH  16  17
ATOM     17  C   UNL     1     320.109 227.523 208.021  1.00  0.00    -0.000 C 
BRANCH  17  18
ATOM     18  C   UNL     1     320.551 227.853 206.587  1.00  0.00    -0.000 C 
BRANCH  18  19
ATOM     19  C   UNL     1     320.199 226.740 205.589  1.00  0.00    -0.003 C 
ATOM     20  C   UNL     1     320.977 225.462 205.893  1.00  0.00     0.004 C 
ENDBRANCH  18  19
ENDBRANCH  17  18
ENDBRANCH  16  17
ENDBRANCH  15  16
ENDBRANCH  14  15
ENDBRANCH  13  14
ENDBRANCH  12  13
ENDBRANCH   1  12
TORSDOF 16
ENDMDL
MODEL 5
REMARK VINA RESULT:    -4.416      5.006      7.575
REMARK INTER + INTRA:          -9.663
REMARK INTER:                  -8.706
REMARK INTRA:                  -0.957
REMARK UNBOUND:                -1.115
REMARK SMILES CCCCCCCCCCCCCCCCCC(=O)[O-]
REMARK SMILES IDX 10 1 11 2 12 3 13 4 14 5 15 6 16 7 17 8 18 9 19 10 20 11
REMARK SMILES IDX 9 12 8 13 7 14 6 15 5 16 4 17 3 18 2 19 1 20
REMARK H PARENT
REMARK Flexibility Score: inf
ROOT
ATOM      1  C   UNL     1     315.052 235.890 207.118  1.00  0.00     0.000 C 
ENDROOT
BRANCH   1   2
ATOM      2  C   UNL     1     316.382 235.330 206.580  1.00  0.00     0.000 C 
BRANCH   2   3
ATOM      3  C   UNL     1     316.576 235.592 205.076  1.00  0.00     0.000 C 
BRANCH   3   4
ATOM      4  C   UNL     1     316.475 234.309 204.236  1.00  0.00     0.000 C 
BRANCH   4   5
ATOM      5  C   UNL     1     317.573 234.217 203.166  1.00  0.00     0.000 C 
BRANCH   5   6
ATOM      6  C   UNL     1     316.999 234.471 201.767  1.00  0.00     0.000 C 
BRANCH   6   7
ATOM      7  C   UNL     1     318.120 234.582 200.723  1.00  0.00     0.006 C 
BRANCH   7   8
ATOM      8  C   UNL     1     319.491 234.207 201.301  1.00  0.00     0.053 C 
BRANCH   8   9
ATOM      9  C   UNL     1     320.605 234.567 200.367  1.00  0.00     0.041 C 
ATOM     10  O   UNL     1     321.674 233.901 200.372  1.00  0.00    -0.550 OA
ATOM     11  O   UNL     1     320.452 235.616 199.471  1.00  0.00    -0.550 OA
ENDBRANCH   8   9
ENDBRANCH   7   8
ENDBRANCH   6   7
ENDBRANCH   5   6
ENDBRANCH   4   5
ENDBRANCH   3   4
ENDBRANCH   2   3
ENDBRANCH   1   2
BRANCH   1  12
ATOM     12  C   UNL     1     314.034 234.829 207.576  1.00  0.00     0.000 C 
BRANCH  12  13
ATOM     13  C   UNL     1     313.423 235.138 208.953  1.00  0.00    -0.000 C 
BRANCH  13  14
ATOM     14  C   UNL     1     313.807 234.103 210.027  1.00  0.00    -0.000 C 
BRANCH  14  15
ATOM     15  C   UNL     1     315.290 233.688 210.040  1.00  0.00    -0.000 C 
BRANCH  15  16
ATOM     16  C   UNL     1     315.489 232.169 210.144  1.00  0.00    -0.000 C 
BRANCH  16  17
ATOM     17  C   UNL     1     314.184 231.471 210.559  1.00  0.00    -0.000 C 
BRANCH  17  18
ATOM     18  C   UNL     1     314.376 229.974 210.843  1.00  0.00    -0.000 C 
BRANCH  18  19
ATOM     19  C   UNL     1     315.718 229.669 211.526  1.00  0.00    -0.003 C 
ATOM     20  C   UNL     1     316.450 228.533 210.816  1.00  0.00     0.004 C 
ENDBRANCH  18  19
ENDBRANCH  17  18
ENDBRANCH  16  17
ENDBRANCH  15  16
ENDBRANCH  14  15
ENDBRANCH  13  14
ENDBRANCH  12  13
ENDBRANCH   1  12
TORSDOF 16
ENDMDL
MODEL 6
REMARK VINA RESULT:    -4.381      9.934     13.247
REMARK INTER + INTRA:          -9.594
REMARK INTER:                  -7.795
REMARK INTRA:                  -1.800
REMARK UNBOUND:                -1.115
REMARK SMILES CCCCCCCCCCCCCCCCCC(=O)[O-]
REMARK SMILES IDX 10 1 11 2 12 3 13 4 14 5 15 6 16 7 17 8 18 9 19 10 20 11
REMARK SMILES IDX 9 12 8 13 7 14 6 15 5 16 4 17 3 18 2 19 1 20
REMARK H PARENT
REMARK Flexibility Score: inf
ROOT
ATOM      1  C   UNL     1     315.630 232.996 196.898  1.00  0.00     0.000 C 
ENDROOT
BRANCH   1   2
ATOM      2  C   UNL     1     315.099 234.441 196.846  1.00  0.00     0.000 C 
BRANCH   2   3
ATOM      3  C   UNL     1     315.800 235.373 197.849  1.00  0.00     0.000 C 
BRANCH   3   4
ATOM      4  C   UNL     1     315.197 235.284 199.259  1.00  0.00     0.000 C 
BRANCH   4   5
ATOM      5  C   UNL     1     316.142 234.607 200.262  1.00  0.00     0.000 C 
BRANCH   5   6
ATOM      6  C   UNL     1     317.588 234.625 199.754  1.00  0.00     0.000 C 
BRANCH   6   7
ATOM      7  C   UNL     1     318.583 234.462 200.913  1.00  0.00     0.006 C 
BRANCH   7   8
ATOM      8  C   UNL     1     319.777 233.578 200.534  1.00  0.00     0.053 C 
BRANCH   8   9
ATOM      9  C   UNL     1     320.992 234.392 200.212  1.00  0.00     0.041 C 
ATOM     10  O   UNL     1     320.869 235.541 199.711  1.00  0.00    -0.550 OA
ATOM     11  O   UNL     1     322.259 233.896 200.495  1.00  0.00    -0.550 OA
ENDBRANCH   8   9
ENDBRANCH   7   8
ENDBRANCH   6   7
ENDBRANCH   5   6
ENDBRANCH   4   5
ENDBRANCH   3   4
ENDBRANCH   2   3
ENDBRANCH   1   2
BRANCH   1  12
ATOM     12  C   UNL     1     315.258 232.119 195.689  1.00  0.00     0.000 C 
BRANCH  12  13
ATOM     13  C   UNL     1     315.084 232.927 194.392  1.00  0.00    -0.000 C 
BRANCH  13  14
ATOM     14  C   UNL     1     313.917 232.423 193.522  1.00  0.00    -0.000 C 
BRANCH  14  15
ATOM     15  C   UNL     1     312.786 231.712 194.287  1.00  0.00    -0.000 C 
BRANCH  15  16
ATOM     16  C   UNL     1     311.403 232.327 194.024  1.00  0.00    -0.000 C 
BRANCH  16  17
ATOM     17  C   UNL     1     310.756 232.805 195.334  1.00  0.00    -0.000 C 
BRANCH  17  18
ATOM     18  C   UNL     1     311.772 232.953 196.477  1.00  0.00    -0.000 C 
BRANCH  18  19
ATOM     19  C   UNL     1     311.453 232.042 197.672  1.00  0.00    -0.003 C 
ATOM     20  C   UNL     1     312.719 231.695 198.451  1.00  0.00     0.004 C 
ENDBRANCH  18  19
ENDBRANCH  17  18
ENDBRANCH  16  17
ENDBRANCH  15  16
ENDBRANCH  14  15
ENDBRANCH  13  14
ENDBRANCH  12  13
ENDBRANCH   1  12
TORSDOF 16
ENDMDL
MODEL 7
REMARK VINA RESULT:    -4.378      9.786     12.749
REMARK INTER + INTRA:          -9.588
REMARK INTER:                  -7.963
REMARK INTRA:                  -1.625
REMARK UNBOUND:                -1.115
REMARK SMILES CCCCCCCCCCCCCCCCCC(=O)[O-]
REMARK SMILES IDX 10 1 11 2 12 3 13 4 14 5 15 6 16 7 17 8 18 9 19 10 20 11
REMARK SMILES IDX 9 12 8 13 7 14 6 15 5 16 4 17 3 18 2 19 1 20
REMARK H PARENT
REMARK Flexibility Score: inf
ROOT
ATOM      1  C   UNL     1     314.923 234.507 198.206  1.00  0.00     0.000 C 
ENDROOT
BRANCH   1   2
ATOM      2  C   UNL     1     315.680 235.319 199.272  1.00  0.00     0.000 C 
BRANCH   2   3
ATOM      3  C   UNL     1     317.051 234.716 199.623  1.00  0.00     0.000 C 
BRANCH   3   4
ATOM      4  C   UNL     1     317.274 234.597 201.139  1.00  0.00     0.000 C 
BRANCH   4   5
ATOM      5  C   UNL     1     318.730 234.267 201.497  1.00  0.00     0.000 C 
BRANCH   5   6
ATOM      6  C   UNL     1     319.568 234.038 200.233  1.00  0.00     0.000 C 
BRANCH   6   7
ATOM      7  C   UNL     1     320.562 235.188 200.015  1.00  0.00     0.006 C 
BRANCH   7   8
ATOM      8  C   UNL     1     321.890 234.703 199.420  1.00  0.00     0.053 C 
BRANCH   8   9
ATOM      9  C   UNL     1     322.625 233.800 200.361  1.00  0.00     0.041 C 
ATOM     10  O   UNL     1     322.827 232.595 200.053  1.00  0.00    -0.550 OA
ATOM     11  O   UNL     1     323.117 234.295 201.562  1.00  0.00    -0.550 OA
ENDBRANCH   8   9
ENDBRANCH   7   8
ENDBRANCH   6   7
ENDBRANCH   5   6
ENDBRANCH   4   5
ENDBRANCH   3   4
ENDBRANCH   2   3
ENDBRANCH   1   2
BRANCH   1  12
ATOM     12  C   UNL     1     314.186 233.262 198.734  1.00  0.00     0.000 C 
BRANCH  12  13
ATOM     13  C   UNL     1     314.513 231.988 197.937  1.00  0.00    -0.000 C 
BRANCH  13  14
ATOM     14  C   UNL     1     315.548 232.226 196.822  1.00  0.00    -0.000 C 
BRANCH  14  15
ATOM     15  C   UNL     1     315.141 231.717 195.426  1.00  0.00    -0.000 C 
BRANCH  15  16
ATOM     16  C   UNL     1     315.067 232.834 194.376  1.00  0.00    -0.000 C 
BRANCH  16  17
ATOM     17  C   UNL     1     313.614 233.284 194.154  1.00  0.00    -0.000 C 
BRANCH  17  18
ATOM     18  C   UNL     1     312.594 232.192 194.513  1.00  0.00    -0.000 C 
BRANCH  18  19
ATOM     19  C   UNL     1     311.285 232.768 195.074  1.00  0.00    -0.003 C 
ATOM     20  C   UNL     1     311.178 232.524 196.577  1.00  0.00     0.004 C 
ENDBRANCH  18  19
ENDBRANCH  17  18
ENDBRANCH  16  17
ENDBRANCH  15  16
ENDBRANCH  14  15
ENDBRANCH  13  14
ENDBRANCH  12  13
ENDBRANCH   1  12
TORSDOF 16
ENDMDL
MODEL 8
REMARK VINA RESULT:    -4.369     10.838     14.641
REMARK INTER + INTRA:          -9.571
REMARK INTER:                  -6.675
REMARK INTRA:                  -2.896
REMARK UNBOUND:                -1.115
REMARK SMILES CCCCCCCCCCCCCCCCCC(=O)[O-]
REMARK SMILES IDX 10 1 11 2 12 3 13 4 14 5 15 6 16 7 17 8 18 9 19 10 20 11
REMARK SMILES IDX 9 12 8 13 7 14 6 15 5 16 4 17 3 18 2 19 1 20
REMARK H PARENT
REMARK Flexibility Score: inf
ROOT
ATOM      1  C   UNL     1     312.999 232.521 192.190  1.00  0.00     0.000 C 
ENDROOT
BRANCH   1   2
ATOM      2  C   UNL     1     314.120 232.757 193.219  1.00  0.00     0.000 C 
BRANCH   2   3
ATOM      3  C   UNL     1     313.979 231.875 194.471  1.00  0.00     0.000 C 
BRANCH   3   4
ATOM      4  C   UNL     1     314.977 232.255 195.576  1.00  0.00     0.000 C 
BRANCH   4   5
ATOM      5  C   UNL     1     315.252 233.765 195.628  1.00  0.00     0.000 C 
BRANCH   5   6
ATOM      6  C   UNL     1     314.832 234.355 196.979  1.00  0.00     0.000 C 
BRANCH   6   7
ATOM      7  C   UNL     1     315.413 233.538 198.142  1.00  0.00     0.006 C 
BRANCH   7   8
ATOM      8  C   UNL     1     315.407 234.320 199.462  1.00  0.00     0.053 C 
BRANCH   8   9
ATOM      9  C   UNL     1     316.761 234.872 199.788  1.00  0.00     0.041 C 
ATOM     10  O   UNL     1     317.325 234.564 200.871  1.00  0.00    -0.550 OA
ATOM     11  O   UNL     1     317.412 235.699 198.883  1.00  0.00    -0.550 OA
ENDBRANCH   8   9
ENDBRANCH   7   8
ENDBRANCH   6   7
ENDBRANCH   5   6
ENDBRANCH   4   5
ENDBRANCH   3   4
ENDBRANCH   2   3
ENDBRANCH   1   2
BRANCH   1  12
ATOM     12  C   UNL     1     311.870 231.583 192.656  1.00  0.00     0.000 C 
BRANCH  12  13
ATOM     13  C   UNL     1     310.540 232.317 192.895  1.00  0.00    -0.000 C 
BRANCH  13  14
ATOM     14  C   UNL     1     310.670 233.848 192.784  1.00  0.00    -0.000 C 
BRANCH  14  15
ATOM     15  C   UNL     1     310.342 234.630 194.070  1.00  0.00    -0.000 C 
BRANCH  15  16
ATOM     16  C   UNL     1     311.525 234.707 195.046  1.00  0.00    -0.000 C 
BRANCH  16  17
ATOM     17  C   UNL     1     311.142 234.134 196.419  1.00  0.00    -0.000 C 
BRANCH  17  18
ATOM     18  C   UNL     1     311.097 232.599 196.430  1.00  0.00    -0.000 C 
BRANCH  18  19
ATOM     19  C   UNL     1     311.769 231.996 197.673  1.00  0.00    -0.003 C 
ATOM     20  C   UNL     1     311.773 232.989 198.832  1.00  0.00     0.004 C 
ENDBRANCH  18  19
ENDBRANCH  17  18
ENDBRANCH  16  17
ENDBRANCH  15  16
ENDBRANCH  14  15
ENDBRANCH  13  14
ENDBRANCH  12  13
ENDBRANCH   1  12
TORSDOF 16
ENDMDL
MODEL 9
REMARK VINA RESULT:    -4.345     10.650     14.140
REMARK INTER + INTRA:          -9.525
REMARK INTER:                  -6.535
REMARK INTRA:                  -2.991
REMARK UNBOUND:                -1.115
REMARK SMILES CCCCCCCCCCCCCCCCCC(=O)[O-]
REMARK SMILES IDX 10 1 11 2 12 3 13 4 14 5 15 6 16 7 17 8 18 9 19 10 20 11
REMARK SMILES IDX 9 12 8 13 7 14 6 15 5 16 4 17 3 18 2 19 1 20
REMARK H PARENT
REMARK Flexibility Score: inf
ROOT
ATOM      1  C   UNL     1     315.596 233.165 197.036  1.00  0.00     0.000 C 
ENDROOT
BRANCH   1   2
ATOM      2  C   UNL     1     315.277 234.653 196.799  1.00  0.00     0.000 C 
BRANCH   2   3
ATOM      3  C   UNL     1     313.938 235.085 197.421  1.00  0.00     0.000 C 
BRANCH   3   4
ATOM      4  C   UNL     1     312.792 235.105 196.397  1.00  0.00     0.000 C 
BRANCH   4   5
ATOM      5  C   UNL     1     311.789 233.963 196.614  1.00  0.00     0.000 C 
BRANCH   5   6
ATOM      6  C   UNL     1     311.868 233.426 198.048  1.00  0.00     0.000 C 
BRANCH   6   7
ATOM      7  C   UNL     1     312.013 231.897 198.057  1.00  0.00     0.006 C 
BRANCH   7   8
ATOM      8  C   UNL     1     313.231 231.434 198.867  1.00  0.00     0.053 C 
BRANCH   8   9
ATOM      9  C   UNL     1     313.231 232.010 200.250  1.00  0.00     0.041 C 
ATOM     10  O   UNL     1     314.113 232.844 200.587  1.00  0.00    -0.550 OA
ATOM     11  O   UNL     1     312.240 231.652 201.154  1.00  0.00    -0.550 OA
ENDBRANCH   8   9
ENDBRANCH   7   8
ENDBRANCH   6   7
ENDBRANCH   5   6
ENDBRANCH   4   5
ENDBRANCH   3   4
ENDBRANCH   2   3
ENDBRANCH   1   2
BRANCH   1  12
ATOM     12  C   UNL     1     315.271 232.231 195.856  1.00  0.00     0.000 C 
BRANCH  12  13
ATOM     13  C   UNL     1     315.262 232.958 194.500  1.00  0.00    -0.000 C 
BRANCH  13  14
ATOM     14  C   UNL     1     313.957 232.743 193.711  1.00  0.00    -0.000 C 
BRANCH  14  15
ATOM     15  C   UNL     1     313.025 231.651 194.269  1.00  0.00    -0.000 C 
BRANCH  15  16
ATOM     16  C   UNL     1     311.737 231.483 193.449  1.00  0.00    -0.000 C 
BRANCH  16  17
ATOM     17  C   UNL     1     311.676 232.509 192.307  1.00  0.00    -0.000 C 
BRANCH  17  18
ATOM     18  C   UNL     1     310.273 233.107 192.120  1.00  0.00    -0.000 C 
BRANCH  18  19
ATOM     19  C   UNL     1     310.022 234.319 193.029  1.00  0.00    -0.003 C 
ATOM     20  C   UNL     1     311.240 235.238 193.069  1.00  0.00     0.004 C 
ENDBRANCH  18  19
ENDBRANCH  17  18
ENDBRANCH  16  17
ENDBRANCH  15  16
ENDBRANCH  14  15
ENDBRANCH  13  14
ENDBRANCH  12  13
ENDBRANCH   1  12
TORSDOF 16
ENDMDL
