MODEL 1
REMARK VINA RESULT:    -2.343      0.000      0.000
REMARK INTER + INTRA:          -7.416
REMARK INTER:                  -6.179
REMARK INTRA:                  -1.237
REMARK UNBOUND:                -1.237
REMARK SMILES CCCCCCCCCCCCCCCCCCCCCCCCCCCCCC(=O)[O-]
REMARK SMILES IDX 16 1 17 2 18 3 19 4 20 5 21 6 22 7 23 8 24 9 25 10 26 11
REMARK SMILES IDX 27 12 28 13 29 14 30 15 31 16 32 17 15 18 14 19 13 20 12 21
REMARK SMILES IDX 11 22 10 23 9 24 8 25 7 26 6 27 5 28 4 29 3 30 2 31 1 32
REMARK H PARENT
REMARK Flexibility Score: inf
ROOT
ATOM      1  C   UNL     1      17.586  25.958  -1.108  1.00  0.00     0.000 C 
ENDROOT
BRANCH   1   2
ATOM      2  C   UNL     1      17.555  27.171  -0.156  1.00  0.00     0.000 C 
BRANCH   2   3
ATOM      3  C   UNL     1      18.933  27.665   0.315  1.00  0.00     0.000 C 
BRANCH   3   4
ATOM      4  C   UNL     1      19.212  29.125  -0.086  1.00  0.00     0.000 C 
BRANCH   4   5
ATOM      5  C   UNL     1      20.377  29.740   0.711  1.00  0.00     0.000 C 
BRANCH   5   6
ATOM      6  C   UNL     1      20.086  31.181   1.160  1.00  0.00     0.000 C 
BRANCH   6   7
ATOM      7  C   UNL     1      21.050  32.178   0.507  1.00  0.00     0.000 C 
BRANCH   7   8
ATOM      8  C   UNL     1      20.409  33.571   0.419  1.00  0.00     0.000 C 
BRANCH   8   9
ATOM      9  C   UNL     1      20.408  34.139  -1.009  1.00  0.00     0.000 C 
BRANCH   9  10
ATOM     10  C   UNL     1      19.964  35.609  -1.118  1.00  0.00     0.000 C 
BRANCH  10  11
ATOM     11  C   UNL     1      20.491  36.302  -2.387  1.00  0.00     0.000 C 
BRANCH  11  12
ATOM     12  C   UNL     1      19.959  37.739  -2.498  1.00  0.00     0.000 C 
BRANCH  12  13
ATOM     13  C   UNL     1      19.074  37.953  -3.737  1.00  0.00     0.006 C 
BRANCH  13  14
ATOM     14  C   UNL     1      17.947  36.911  -3.847  1.00  0.00     0.053 C 
BRANCH  14  15
ATOM     15  C   UNL     1      16.711  37.394  -3.155  1.00  0.00     0.041 C 
ATOM     16  O   UNL     1      16.647  37.387  -1.896  1.00  0.00    -0.550 OA
ATOM     17  O   UNL     1      15.613  37.810  -3.900  1.00  0.00    -0.550 OA
ENDBRANCH  14  15
ENDBRANCH  13  14
ENDBRANCH  12  13
ENDBRANCH  11  12
ENDBRANCH  10  11
ENDBRANCH   9  10
ENDBRANCH   8   9
ENDBRANCH   7   8
ENDBRANCH   6   7
ENDBRANCH   5   6
ENDBRANCH   4   5
ENDBRANCH   3   4
ENDBRANCH   2   3
ENDBRANCH   1   2
BRANCH   1  18
ATOM     18  C   UNL     1      18.965  25.291  -1.285  1.00  0.00     0.000 C 
BRANCH  18  19
ATOM     19  C   UNL     1      19.292  24.166  -0.281  1.00  0.00     0.000 C 
BRANCH  19  20
ATOM     20  C   UNL     1      18.792  24.435   1.155  1.00  0.00     0.000 C 
BRANCH  20  21
ATOM     21  C   UNL     1      19.941  24.579   2.166  1.00  0.00     0.000 C 
BRANCH  21  22
ATOM     22  C   UNL     1      19.460  25.259   3.457  1.00  0.00     0.000 C 
BRANCH  22  23
ATOM     23  C   UNL     1      19.197  24.254   4.592  1.00  0.00     0.000 C 
BRANCH  23  24
ATOM     24  C   UNL     1      18.044  23.261   4.337  1.00  0.00    -0.000 C 
BRANCH  24  25
ATOM     25  C   UNL     1      17.147  23.019   5.567  1.00  0.00    -0.000 C 
BRANCH  25  26
ATOM     26  C   UNL     1      16.417  21.665   5.507  1.00  0.00    -0.000 C 
BRANCH  26  27
ATOM     27  C   UNL     1      14.970  21.803   6.000  1.00  0.00    -0.000 C 
BRANCH  27  28
ATOM     28  C   UNL     1      13.972  22.106   4.864  1.00  0.00    -0.000 C 
BRANCH  28  29
ATOM     29  C   UNL     1      13.293  23.490   4.942  1.00  0.00    -0.000 C 
BRANCH  29  30
ATOM     30  C   UNL     1      12.199  23.750   3.888  1.00  0.00    -0.000 C 
BRANCH  30  31
ATOM     31  C   UNL     1      12.282  22.852   2.642  1.00  0.00    -0.003 C 
ATOM     32  C   UNL     1      10.994  22.068   2.390  1.00  0.00     0.004 C 
ENDBRANCH  30  31
ENDBRANCH  29  30
ENDBRANCH  28  29
ENDBRANCH  27  28
ENDBRANCH  26  27
ENDBRANCH  25  26
ENDBRANCH  24  25
ENDBRANCH  23  24
ENDBRANCH  22  23
ENDBRANCH  21  22
ENDBRANCH  20  21
ENDBRANCH  19  20
ENDBRANCH  18  19
ENDBRANCH   1  18
TORSDOF 28
ENDMDL
MODEL 2
REMARK VINA RESULT:    -2.220     11.839     17.181
REMARK INTER + INTRA:          -7.092
REMARK INTER:                  -5.296
REMARK INTRA:                  -1.796
REMARK UNBOUND:                -1.237
REMARK SMILES CCCCCCCCCCCCCCCCCCCCCCCCCCCCCC(=O)[O-]
REMARK SMILES IDX 16 1 17 2 18 3 19 4 20 5 21 6 22 7 23 8 24 9 25 10 26 11
REMARK SMILES IDX 27 12 28 13 29 14 30 15 31 16 32 17 15 18 14 19 13 20 12 21
REMARK SMILES IDX 11 22 10 23 9 24 8 25 7 26 6 27 5 28 4 29 3 30 2 31 1 32
REMARK H PARENT
REMARK Flexibility Score: inf
ROOT
ATOM      1  C   UNL     1      18.389  33.215  10.317  1.00  0.00     0.000 C 
ENDROOT
BRANCH   1   2
ATOM      2  C   UNL     1      17.097  32.406  10.558  1.00  0.00     0.000 C 
BRANCH   2   3
ATOM      3  C   UNL     1      17.214  30.897  10.289  1.00  0.00     0.000 C 
BRANCH   3   4
ATOM      4  C   UNL     1      16.007  30.102  10.819  1.00  0.00     0.000 C 
BRANCH   4   5
ATOM      5  C   UNL     1      16.246  28.582  10.789  1.00  0.00     0.000 C 
BRANCH   5   6
ATOM      6  C   UNL     1      15.613  27.862  11.991  1.00  0.00     0.000 C 
BRANCH   6   7
ATOM      7  C   UNL     1      16.429  26.631  12.402  1.00  0.00     0.000 C 
BRANCH   7   8
ATOM      8  C   UNL     1      15.698  25.840  13.497  1.00  0.00     0.000 C 
BRANCH   8   9
ATOM      9  C   UNL     1      16.644  24.964  14.334  1.00  0.00     0.000 C 
BRANCH   9  10
ATOM     10  C   UNL     1      16.647  23.472  13.955  1.00  0.00     0.000 C 
BRANCH  10  11
ATOM     11  C   UNL     1      15.800  23.169  12.706  1.00  0.00     0.000 C 
BRANCH  11  12
ATOM     12  C   UNL     1      16.683  23.019  11.458  1.00  0.00     0.000 C 
BRANCH  12  13
ATOM     13  C   UNL     1      18.001  23.804  11.564  1.00  0.00     0.006 C 
BRANCH  13  14
ATOM     14  C   UNL     1      18.852  23.709  10.285  1.00  0.00     0.053 C 
BRANCH  14  15
ATOM     15  C   UNL     1      20.071  24.570  10.395  1.00  0.00     0.041 C 
ATOM     16  O   UNL     1      21.181  24.059  10.705  1.00  0.00    -0.550 OA
ATOM     17  O   UNL     1      19.974  25.943  10.197  1.00  0.00    -0.550 OA
ENDBRANCH  14  15
ENDBRANCH  13  14
ENDBRANCH  12  13
ENDBRANCH  11  12
ENDBRANCH  10  11
ENDBRANCH   9  10
ENDBRANCH   8   9
ENDBRANCH   7   8
ENDBRANCH   6   7
ENDBRANCH   5   6
ENDBRANCH   4   5
ENDBRANCH   3   4
ENDBRANCH   2   3
ENDBRANCH   1   2
BRANCH   1  18
ATOM     18  C   UNL     1      18.812  34.145  11.471  1.00  0.00     0.000 C 
BRANCH  18  19
ATOM     19  C   UNL     1      20.331  34.374  11.617  1.00  0.00     0.000 C 
BRANCH  19  20
ATOM     20  C   UNL     1      20.794  34.644  13.065  1.00  0.00     0.000 C 
BRANCH  20  21
ATOM     21  C   UNL     1      22.172  35.321  13.131  1.00  0.00     0.000 C 
BRANCH  21  22
ATOM     22  C   UNL     1      22.240  36.326  14.291  1.00  0.00     0.000 C 
BRANCH  22  23
ATOM     23  C   UNL     1      23.523  36.177  15.128  1.00  0.00     0.000 C 
BRANCH  23  24
ATOM     24  C   UNL     1      24.773  36.867  14.544  1.00  0.00    -0.000 C 
BRANCH  24  25
ATOM     25  C   UNL     1      25.347  36.166  13.297  1.00  0.00    -0.000 C 
BRANCH  25  26
ATOM     26  C   UNL     1      26.796  35.692  13.503  1.00  0.00    -0.000 C 
BRANCH  26  27
ATOM     27  C   UNL     1      26.852  34.168  13.679  1.00  0.00    -0.000 C 
BRANCH  27  28
ATOM     28  C   UNL     1      26.729  33.727  15.151  1.00  0.00    -0.000 C 
BRANCH  28  29
ATOM     29  C   UNL     1      25.366  33.116  15.541  1.00  0.00    -0.000 C 
BRANCH  29  30
ATOM     30  C   UNL     1      24.385  32.891  14.374  1.00  0.00    -0.000 C 
BRANCH  30  31
ATOM     31  C   UNL     1      23.167  32.016  14.718  1.00  0.00    -0.003 C 
ATOM     32  C   UNL     1      22.178  32.720  15.648  1.00  0.00     0.004 C 
ENDBRANCH  30  31
ENDBRANCH  29  30
ENDBRANCH  28  29
ENDBRANCH  27  28
ENDBRANCH  26  27
ENDBRANCH  25  26
ENDBRANCH  24  25
ENDBRANCH  23  24
ENDBRANCH  22  23
ENDBRANCH  21  22
ENDBRANCH  20  21
ENDBRANCH  19  20
ENDBRANCH  18  19
ENDBRANCH   1  18
TORSDOF 28
ENDMDL
MODEL 3
REMARK VINA RESULT:    -2.024      4.360     12.815
REMARK INTER + INTRA:          -6.574
REMARK INTER:                  -5.133
REMARK INTRA:                  -1.441
REMARK UNBOUND:                -1.237
REMARK SMILES CCCCCCCCCCCCCCCCCCCCCCCCCCCCCC(=O)[O-]
REMARK SMILES IDX 16 1 17 2 18 3 19 4 20 5 21 6 22 7 23 8 24 9 25 10 26 11
REMARK SMILES IDX 27 12 28 13 29 14 30 15 31 16 32 17 15 18 14 19 13 20 12 21
REMARK SMILES IDX 11 22 10 23 9 24 8 25 7 26 6 27 5 28 4 29 3 30 2 31 1 32
REMARK H PARENT
REMARK Flexibility Score: inf
ROOT
ATOM      1  C   UNL     1      17.720  24.694  -0.868  1.00  0.00     0.000 C 
ENDROOT
BRANCH   1   2
ATOM      2  C   UNL     1      19.045  24.438  -0.122  1.00  0.00     0.000 C 
BRANCH   2   3
ATOM      3  C   UNL     1      18.906  24.210   1.393  1.00  0.00     0.000 C 
BRANCH   3   4
ATOM      4  C   UNL     1      19.664  25.261   2.225  1.00  0.00     0.000 C 
BRANCH   4   5
ATOM      5  C   UNL     1      20.123  24.710   3.587  1.00  0.00     0.000 C 
BRANCH   5   6
ATOM      6  C   UNL     1      19.189  23.613   4.124  1.00  0.00     0.000 C 
BRANCH   6   7
ATOM      7  C   UNL     1      18.056  24.205   4.970  1.00  0.00     0.000 C 
BRANCH   7   8
ATOM      8  C   UNL     1      17.468  23.140   5.908  1.00  0.00     0.000 C 
BRANCH   8   9
ATOM      9  C   UNL     1      16.690  22.047   5.158  1.00  0.00     0.000 C 
BRANCH   9  10
ATOM     10  C   UNL     1      15.669  21.278   6.015  1.00  0.00     0.000 C 
BRANCH  10  11
ATOM     11  C   UNL     1      14.221  21.744   5.787  1.00  0.00     0.000 C 
BRANCH  11  12
ATOM     12  C   UNL     1      14.178  23.179   5.239  1.00  0.00     0.000 C 
BRANCH  12  13
ATOM     13  C   UNL     1      12.765  23.612   4.814  1.00  0.00     0.006 C 
BRANCH  13  14
ATOM     14  C   UNL     1      12.571  23.586   3.288  1.00  0.00     0.053 C 
BRANCH  14  15
ATOM     15  C   UNL     1      11.882  22.328   2.863  1.00  0.00     0.041 C 
ATOM     16  O   UNL     1      12.526  21.248   2.784  1.00  0.00    -0.550 OA
ATOM     17  O   UNL     1      10.536  22.356   2.513  1.00  0.00    -0.550 OA
ENDBRANCH  14  15
ENDBRANCH  13  14
ENDBRANCH  12  13
ENDBRANCH  11  12
ENDBRANCH  10  11
ENDBRANCH   9  10
ENDBRANCH   8   9
ENDBRANCH   7   8
ENDBRANCH   6   7
ENDBRANCH   5   6
ENDBRANCH   4   5
ENDBRANCH   3   4
ENDBRANCH   2   3
ENDBRANCH   1   2
BRANCH   1  18
ATOM     18  C   UNL     1      17.364  26.176  -1.096  1.00  0.00     0.000 C 
BRANCH  18  19
ATOM     19  C   UNL     1      17.731  27.133   0.058  1.00  0.00     0.000 C 
BRANCH  19  20
ATOM     20  C   UNL     1      19.006  27.967  -0.193  1.00  0.00     0.000 C 
BRANCH  20  21
ATOM     21  C   UNL     1      19.178  29.107   0.823  1.00  0.00     0.000 C 
BRANCH  21  22
ATOM     22  C   UNL     1      20.366  30.007   0.449  1.00  0.00     0.000 C 
BRANCH  22  23
ATOM     23  C   UNL     1      20.323  31.369   1.163  1.00  0.00     0.000 C 
BRANCH  23  24
ATOM     24  C   UNL     1      21.101  32.503   0.464  1.00  0.00    -0.000 C 
BRANCH  24  25
ATOM     25  C   UNL     1      20.321  33.830   0.374  1.00  0.00    -0.000 C 
BRANCH  25  26
ATOM     26  C   UNL     1      20.346  34.433  -1.042  1.00  0.00    -0.000 C 
BRANCH  26  27
ATOM     27  C   UNL     1      19.757  35.851  -1.041  1.00  0.00    -0.000 C 
BRANCH  27  28
ATOM     28  C   UNL     1      19.601  36.439  -2.458  1.00  0.00    -0.000 C 
BRANCH  28  29
ATOM     29  C   UNL     1      18.835  37.777  -2.531  1.00  0.00    -0.000 C 
BRANCH  29  30
ATOM     30  C   UNL     1      17.584  37.872  -1.635  1.00  0.00    -0.000 C 
BRANCH  30  31
ATOM     31  C   UNL     1      16.273  37.443  -2.316  1.00  0.00    -0.003 C 
ATOM     32  C   UNL     1      16.304  37.637  -3.833  1.00  0.00     0.004 C 
ENDBRANCH  30  31
ENDBRANCH  29  30
ENDBRANCH  28  29
ENDBRANCH  27  28
ENDBRANCH  26  27
ENDBRANCH  25  26
ENDBRANCH  24  25
ENDBRANCH  23  24
ENDBRANCH  22  23
ENDBRANCH  21  22
ENDBRANCH  20  21
ENDBRANCH  19  20
ENDBRANCH  18  19
ENDBRANCH   1  18
TORSDOF 28
ENDMDL
MODEL 4
REMARK VINA RESULT:    -1.922      6.351      9.616
REMARK INTER + INTRA:          -6.304
REMARK INTER:                  -5.007
REMARK INTRA:                  -1.297
REMARK UNBOUND:                -1.237
REMARK SMILES CCCCCCCCCCCCCCCCCCCCCCCCCCCCCC(=O)[O-]
REMARK SMILES IDX 16 1 17 2 18 3 19 4 20 5 21 6 22 7 23 8 24 9 25 10 26 11
REMARK SMILES IDX 27 12 28 13 29 14 30 15 31 16 32 17 15 18 14 19 13 20 12 21
REMARK SMILES IDX 11 22 10 23 9 24 8 25 7 26 6 27 5 28 4 29 3 30 2 31 1 32
REMARK H PARENT
REMARK Flexibility Score: inf
ROOT
ATOM      1  C   UNL     1      16.798  20.924   7.274  1.00  0.00     0.000 C 
ENDROOT
BRANCH   1   2
ATOM      2  C   UNL     1      15.645  21.328   6.332  1.00  0.00     0.000 C 
BRANCH   2   3
ATOM      3  C   UNL     1      16.022  22.343   5.241  1.00  0.00     0.000 C 
BRANCH   3   4
ATOM      4  C   UNL     1      17.239  23.206   5.624  1.00  0.00     0.000 C 
BRANCH   4   5
ATOM      5  C   UNL     1      18.247  23.343   4.469  1.00  0.00     0.000 C 
BRANCH   5   6
ATOM      6  C   UNL     1      18.908  24.730   4.426  1.00  0.00     0.000 C 
BRANCH   6   7
ATOM      7  C   UNL     1      20.304  24.668   3.797  1.00  0.00     0.000 C 
BRANCH   7   8
ATOM      8  C   UNL     1      20.232  24.076   2.381  1.00  0.00     0.000 C 
BRANCH   8   9
ATOM      9  C   UNL     1      19.083  24.663   1.546  1.00  0.00     0.000 C 
BRANCH   9  10
ATOM     10  C   UNL     1      19.064  26.200   1.464  1.00  0.00     0.000 C 
BRANCH  10  11
ATOM     11  C   UNL     1      18.584  26.723   0.099  1.00  0.00     0.000 C 
BRANCH  11  12
ATOM     12  C   UNL     1      18.934  25.738  -1.028  1.00  0.00     0.000 C 
BRANCH  12  13
ATOM     13  C   UNL     1      17.704  25.305  -1.843  1.00  0.00     0.006 C 
BRANCH  13  14
ATOM     14  C   UNL     1      16.378  25.685  -1.162  1.00  0.00     0.053 C 
BRANCH  14  15
ATOM     15  C   UNL     1      15.216  25.106  -1.906  1.00  0.00     0.041 C 
ATOM     16  O   UNL     1      14.416  24.325  -1.323  1.00  0.00    -0.550 OA
ATOM     17  O   UNL     1      15.039  25.394  -3.255  1.00  0.00    -0.550 OA
ENDBRANCH  14  15
ENDBRANCH  13  14
ENDBRANCH  12  13
ENDBRANCH  11  12
ENDBRANCH  10  11
ENDBRANCH   9  10
ENDBRANCH   8   9
ENDBRANCH   7   8
ENDBRANCH   6   7
ENDBRANCH   5   6
ENDBRANCH   4   5
ENDBRANCH   3   4
ENDBRANCH   2   3
ENDBRANCH   1   2
BRANCH   1  18
ATOM     18  C   UNL     1      16.618  21.328   8.751  1.00  0.00     0.000 C 
BRANCH  18  19
ATOM     19  C   UNL     1      17.893  21.825   9.463  1.00  0.00     0.000 C 
BRANCH  19  20
ATOM     20  C   UNL     1      18.448  23.156   8.910  1.00  0.00     0.000 C 
BRANCH  20  21
ATOM     21  C   UNL     1      19.207  23.969   9.970  1.00  0.00     0.000 C 
BRANCH  21  22
ATOM     22  C   UNL     1      18.684  23.662  11.382  1.00  0.00     0.000 C 
BRANCH  22  23
ATOM     23  C   UNL     1      17.211  24.069  11.568  1.00  0.00     0.000 C 
BRANCH  23  24
ATOM     24  C   UNL     1      16.471  23.352  12.716  1.00  0.00    -0.000 C 
BRANCH  24  25
ATOM     25  C   UNL     1      16.111  24.274  13.898  1.00  0.00    -0.000 C 
BRANCH  25  26
ATOM     26  C   UNL     1      16.717  25.681  13.753  1.00  0.00    -0.000 C 
BRANCH  26  27
ATOM     27  C   UNL     1      15.735  26.630  13.053  1.00  0.00    -0.000 C 
BRANCH  27  28
ATOM     28  C   UNL     1      16.321  27.275  11.782  1.00  0.00    -0.000 C 
BRANCH  28  29
ATOM     29  C   UNL     1      15.659  28.603  11.356  1.00  0.00    -0.000 C 
BRANCH  29  30
ATOM     30  C   UNL     1      15.421  28.768   9.842  1.00  0.00    -0.000 C 
BRANCH  30  31
ATOM     31  C   UNL     1      14.204  28.003   9.297  1.00  0.00    -0.003 C 
ATOM     32  C   UNL     1      13.884  28.357   7.844  1.00  0.00     0.004 C 
ENDBRANCH  30  31
ENDBRANCH  29  30
ENDBRANCH  28  29
ENDBRANCH  27  28
ENDBRANCH  26  27
ENDBRANCH  25  26
ENDBRANCH  24  25
ENDBRANCH  23  24
ENDBRANCH  22  23
ENDBRANCH  21  22
ENDBRANCH  20  21
ENDBRANCH  19  20
ENDBRANCH  18  19
ENDBRANCH   1  18
TORSDOF 28
ENDMDL
MODEL 5
REMARK VINA RESULT:    -1.733      6.257      9.950
REMARK INTER + INTRA:          -5.808
REMARK INTER:                  -4.511
REMARK INTRA:                  -1.297
REMARK UNBOUND:                -1.237
REMARK SMILES CCCCCCCCCCCCCCCCCCCCCCCCCCCCCC(=O)[O-]
REMARK SMILES IDX 16 1 17 2 18 3 19 4 20 5 21 6 22 7 23 8 24 9 25 10 26 11
REMARK SMILES IDX 27 12 28 13 29 14 30 15 31 16 32 17 15 18 14 19 13 20 12 21
REMARK SMILES IDX 11 22 10 23 9 24 8 25 7 26 6 27 5 28 4 29 3 30 2 31 1 32
REMARK H PARENT
REMARK Flexibility Score: inf
ROOT
ATOM      1  C   UNL     1      13.009  24.906   4.458  1.00  0.00     0.000 C 
ENDROOT
BRANCH   1   2
ATOM      2  C   UNL     1      12.589  23.421   4.477  1.00  0.00     0.000 C 
BRANCH   2   3
ATOM      3  C   UNL     1      13.739  22.417   4.290  1.00  0.00     0.000 C 
BRANCH   3   4
ATOM      4  C   UNL     1      14.380  21.990   5.623  1.00  0.00     0.000 C 
BRANCH   4   5
ATOM      5  C   UNL     1      15.892  21.734   5.492  1.00  0.00     0.000 C 
BRANCH   5   6
ATOM      6  C   UNL     1      16.711  23.035   5.501  1.00  0.00     0.000 C 
BRANCH   6   7
ATOM      7  C   UNL     1      17.810  23.014   4.432  1.00  0.00     0.000 C 
BRANCH   7   8
ATOM      8  C   UNL     1      18.801  24.166   4.653  1.00  0.00     0.000 C 
BRANCH   8   9
ATOM      9  C   UNL     1      19.754  24.371   3.465  1.00  0.00     0.000 C 
BRANCH   9  10
ATOM     10  C   UNL     1      19.392  25.550   2.544  1.00  0.00     0.000 C 
BRANCH  10  11
ATOM     11  C   UNL     1      19.009  25.106   1.122  1.00  0.00     0.000 C 
BRANCH  11  12
ATOM     12  C   UNL     1      18.838  26.314   0.188  1.00  0.00     0.000 C 
BRANCH  12  13
ATOM     13  C   UNL     1      17.453  26.360  -0.480  1.00  0.00     0.006 C 
BRANCH  13  14
ATOM     14  C   UNL     1      16.985  24.978  -0.968  1.00  0.00     0.053 C 
BRANCH  14  15
ATOM     15  C   UNL     1      15.729  25.098  -1.772  1.00  0.00     0.041 C 
ATOM     16  O   UNL     1      14.686  24.488  -1.413  1.00  0.00    -0.550 OA
ATOM     17  O   UNL     1      15.721  25.849  -2.942  1.00  0.00    -0.550 OA
ENDBRANCH  14  15
ENDBRANCH  13  14
ENDBRANCH  12  13
ENDBRANCH  11  12
ENDBRANCH  10  11
ENDBRANCH   9  10
ENDBRANCH   8   9
ENDBRANCH   7   8
ENDBRANCH   6   7
ENDBRANCH   5   6
ENDBRANCH   4   5
ENDBRANCH   3   4
ENDBRANCH   2   3
ENDBRANCH   1   2
BRANCH   1  18
ATOM     18  C   UNL     1      13.659  25.426   5.755  1.00  0.00     0.000 C 
BRANCH  18  19
ATOM     19  C   UNL     1      13.909  26.948   5.809  1.00  0.00     0.000 C 
BRANCH  19  20
ATOM     20  C   UNL     1      13.331  27.640   7.062  1.00  0.00     0.000 C 
BRANCH  20  21
ATOM     21  C   UNL     1      14.395  28.416   7.855  1.00  0.00     0.000 C 
BRANCH  21  22
ATOM     22  C   UNL     1      14.236  28.188   9.366  1.00  0.00     0.000 C 
BRANCH  22  23
ATOM     23  C   UNL     1      15.408  28.765  10.178  1.00  0.00     0.000 C 
BRANCH  23  24
ATOM     24  C   UNL     1      16.310  27.719  10.866  1.00  0.00    -0.000 C 
BRANCH  24  25
ATOM     25  C   UNL     1      15.927  27.435  12.332  1.00  0.00    -0.000 C 
BRANCH  25  26
ATOM     26  C   UNL     1      16.412  26.056  12.811  1.00  0.00    -0.000 C 
BRANCH  26  27
ATOM     27  C   UNL     1      16.993  25.246  11.644  1.00  0.00    -0.000 C 
BRANCH  27  28
ATOM     28  C   UNL     1      17.141  23.746  11.966  1.00  0.00    -0.000 C 
BRANCH  28  29
ATOM     29  C   UNL     1      17.626  22.869  10.792  1.00  0.00    -0.000 C 
BRANCH  29  30
ATOM     30  C   UNL     1      18.636  23.539   9.839  1.00  0.00    -0.000 C 
BRANCH  30  31
ATOM     31  C   UNL     1      19.478  24.655  10.479  1.00  0.00    -0.003 C 
ATOM     32  C   UNL     1      20.887  24.192  10.852  1.00  0.00     0.004 C 
ENDBRANCH  30  31
ENDBRANCH  29  30
ENDBRANCH  28  29
ENDBRANCH  27  28
ENDBRANCH  26  27
ENDBRANCH  25  26
ENDBRANCH  24  25
ENDBRANCH  23  24
ENDBRANCH  22  23
ENDBRANCH  21  22
ENDBRANCH  20  21
ENDBRANCH  19  20
ENDBRANCH  18  19
ENDBRANCH   1  18
TORSDOF 28
ENDMDL
MODEL 6
REMARK VINA RESULT:    -1.733      6.912     11.789
REMARK INTER + INTRA:          -5.808
REMARK INTER:                  -4.409
REMARK INTRA:                  -1.398
REMARK UNBOUND:                -1.237
REMARK SMILES CCCCCCCCCCCCCCCCCCCCCCCCCCCCCC(=O)[O-]
REMARK SMILES IDX 16 1 17 2 18 3 19 4 20 5 21 6 22 7 23 8 24 9 25 10 26 11
REMARK SMILES IDX 27 12 28 13 29 14 30 15 31 16 32 17 15 18 14 19 13 20 12 21
REMARK SMILES IDX 11 22 10 23 9 24 8 25 7 26 6 27 5 28 4 29 3 30 2 31 1 32
REMARK H PARENT
REMARK Flexibility Score: inf
ROOT
ATOM      1  C   UNL     1      17.855  22.318   9.578  1.00  0.00     0.000 C 
ENDROOT
BRANCH   1   2
ATOM      2  C   UNL     1      17.625  21.777   8.152  1.00  0.00     0.000 C 
BRANCH   2   3
ATOM      3  C   UNL     1      16.223  21.198   7.894  1.00  0.00     0.000 C 
BRANCH   3   4
ATOM      4  C   UNL     1      15.901  21.065   6.394  1.00  0.00     0.000 C 
BRANCH   4   5
ATOM      5  C   UNL     1      15.994  22.411   5.652  1.00  0.00     0.000 C 
BRANCH   5   6
ATOM      6  C   UNL     1      17.228  22.496   4.740  1.00  0.00     0.000 C 
BRANCH   6   7
ATOM      7  C   UNL     1      18.084  23.725   5.067  1.00  0.00     0.000 C 
BRANCH   7   8
ATOM      8  C   UNL     1      19.156  23.940   3.988  1.00  0.00     0.000 C 
BRANCH   8   9
ATOM      9  C   UNL     1      19.426  25.426   3.702  1.00  0.00     0.000 C 
BRANCH   9  10
ATOM     10  C   UNL     1      19.202  25.852   2.240  1.00  0.00     0.000 C 
BRANCH  10  11
ATOM     11  C   UNL     1      19.206  24.665   1.261  1.00  0.00     0.000 C 
BRANCH  11  12
ATOM     12  C   UNL     1      18.897  25.124  -0.172  1.00  0.00     0.000 C 
BRANCH  12  13
ATOM     13  C   UNL     1      17.459  24.794  -0.607  1.00  0.00     0.006 C 
BRANCH  13  14
ATOM     14  C   UNL     1      16.830  25.903  -1.468  1.00  0.00     0.053 C 
BRANCH  14  15
ATOM     15  C   UNL     1      15.526  25.450  -2.044  1.00  0.00     0.041 C 
ATOM     16  O   UNL     1      15.382  25.362  -3.293  1.00  0.00    -0.550 OA
ATOM     17  O   UNL     1      14.455  25.166  -1.204  1.00  0.00    -0.550 OA
ENDBRANCH  14  15
ENDBRANCH  13  14
ENDBRANCH  12  13
ENDBRANCH  11  12
ENDBRANCH  10  11
ENDBRANCH   9  10
ENDBRANCH   8   9
ENDBRANCH   7   8
ENDBRANCH   6   7
ENDBRANCH   5   6
ENDBRANCH   4   5
ENDBRANCH   3   4
ENDBRANCH   2   3
ENDBRANCH   1   2
BRANCH   1  18
ATOM     18  C   UNL     1      18.804  23.529   9.681  1.00  0.00     0.000 C 
BRANCH  18  19
ATOM     19  C   UNL     1      18.603  24.427  10.919  1.00  0.00     0.000 C 
BRANCH  19  20
ATOM     20  C   UNL     1      17.298  24.149  11.697  1.00  0.00     0.000 C 
BRANCH  20  21
ATOM     21  C   UNL     1      16.685  25.422  12.301  1.00  0.00     0.000 C 
BRANCH  21  22
ATOM     22  C   UNL     1      16.648  26.561  11.271  1.00  0.00     0.000 C 
BRANCH  22  23
ATOM     23  C   UNL     1      15.977  27.833  11.819  1.00  0.00     0.000 C 
BRANCH  23  24
ATOM     24  C   UNL     1      15.727  28.946  10.781  1.00  0.00    -0.000 C 
BRANCH  24  25
ATOM     25  C   UNL     1      16.952  29.848  10.529  1.00  0.00    -0.000 C 
BRANCH  25  26
ATOM     26  C   UNL     1      16.619  31.344  10.668  1.00  0.00    -0.000 C 
BRANCH  26  27
ATOM     27  C   UNL     1      17.698  32.207   9.998  1.00  0.00    -0.000 C 
BRANCH  27  28
ATOM     28  C   UNL     1      17.705  33.663  10.505  1.00  0.00    -0.000 C 
BRANCH  28  29
ATOM     29  C   UNL     1      18.802  33.990  11.541  1.00  0.00    -0.000 C 
BRANCH  29  30
ATOM     30  C   UNL     1      20.165  34.406  10.952  1.00  0.00    -0.000 C 
BRANCH  30  31
ATOM     31  C   UNL     1      21.333  34.370  11.951  1.00  0.00    -0.003 C 
ATOM     32  C   UNL     1      20.917  34.786  13.363  1.00  0.00     0.004 C 
ENDBRANCH  30  31
ENDBRANCH  29  30
ENDBRANCH  28  29
ENDBRANCH  27  28
ENDBRANCH  26  27
ENDBRANCH  25  26
ENDBRANCH  24  25
ENDBRANCH  23  24
ENDBRANCH  22  23
ENDBRANCH  21  22
ENDBRANCH  20  21
ENDBRANCH  19  20
ENDBRANCH  18  19
ENDBRANCH   1  18
TORSDOF 28
ENDMDL
MODEL 7
REMARK VINA RESULT:    -1.690      9.880     15.624
REMARK INTER + INTRA:          -5.693
REMARK INTER:                  -4.195
REMARK INTRA:                  -1.498
REMARK UNBOUND:                -1.237
REMARK SMILES CCCCCCCCCCCCCCCCCCCCCCCCCCCCCC(=O)[O-]
REMARK SMILES IDX 16 1 17 2 18 3 19 4 20 5 21 6 22 7 23 8 24 9 25 10 26 11
REMARK SMILES IDX 27 12 28 13 29 14 30 15 31 16 32 17 15 18 14 19 13 20 12 21
REMARK SMILES IDX 11 22 10 23 9 24 8 25 7 26 6 27 5 28 4 29 3 30 2 31 1 32
REMARK H PARENT
REMARK Flexibility Score: inf
ROOT
ATOM      1  C   UNL     1      15.853  29.129  10.487  1.00  0.00     0.000 C 
ENDROOT
BRANCH   1   2
ATOM      2  C   UNL     1      15.958  28.067  11.601  1.00  0.00     0.000 C 
BRANCH   2   3
ATOM      3  C   UNL     1      16.585  26.731  11.168  1.00  0.00     0.000 C 
BRANCH   3   4
ATOM      4  C   UNL     1      16.645  25.703  12.313  1.00  0.00     0.000 C 
BRANCH   4   5
ATOM      5  C   UNL     1      17.009  24.292  11.817  1.00  0.00     0.000 C 
BRANCH   5   6
ATOM      6  C   UNL     1      18.325  24.268  11.024  1.00  0.00     0.000 C 
BRANCH   6   7
ATOM      7  C   UNL     1      18.338  23.135   9.992  1.00  0.00     0.000 C 
BRANCH   7   8
ATOM      8  C   UNL     1      17.166  22.171  10.232  1.00  0.00     0.000 C 
BRANCH   8   9
ATOM      9  C   UNL     1      17.033  21.106   9.132  1.00  0.00     0.000 C 
BRANCH   9  10
ATOM     10  C   UNL     1      16.931  21.664   7.702  1.00  0.00     0.000 C 
BRANCH  10  11
ATOM     11  C   UNL     1      15.856  20.958   6.857  1.00  0.00     0.000 C 
BRANCH  11  12
ATOM     12  C   UNL     1      15.676  21.647   5.496  1.00  0.00     0.000 C 
BRANCH  12  13
ATOM     13  C   UNL     1      14.299  22.317   5.344  1.00  0.00     0.006 C 
BRANCH  13  14
ATOM     14  C   UNL     1      13.564  21.876   4.066  1.00  0.00     0.053 C 
BRANCH  14  15
ATOM     15  C   UNL     1      12.552  22.901   3.659  1.00  0.00     0.041 C 
ATOM     16  O   UNL     1      12.445  23.978   4.305  1.00  0.00    -0.550 OA
ATOM     17  O   UNL     1      11.697  22.649   2.592  1.00  0.00    -0.550 OA
ENDBRANCH  14  15
ENDBRANCH  13  14
ENDBRANCH  12  13
ENDBRANCH  11  12
ENDBRANCH  10  11
ENDBRANCH   9  10
ENDBRANCH   8   9
ENDBRANCH   7   8
ENDBRANCH   6   7
ENDBRANCH   5   6
ENDBRANCH   4   5
ENDBRANCH   3   4
ENDBRANCH   2   3
ENDBRANCH   1   2
BRANCH   1  18
ATOM     18  C   UNL     1      16.256  30.559  10.897  1.00  0.00     0.000 C 
BRANCH  18  19
ATOM     19  C   UNL     1      17.472  31.146  10.151  1.00  0.00     0.000 C 
BRANCH  19  20
ATOM     20  C   UNL     1      17.359  32.656   9.847  1.00  0.00     0.000 C 
BRANCH  20  21
ATOM     21  C   UNL     1      17.696  33.533  11.063  1.00  0.00     0.000 C 
BRANCH  21  22
ATOM     22  C   UNL     1      19.167  33.974  11.038  1.00  0.00     0.000 C 
BRANCH  22  23
ATOM     23  C   UNL     1      19.701  34.332  12.436  1.00  0.00     0.000 C 
BRANCH  23  24
ATOM     24  C   UNL     1      21.128  34.918  12.465  1.00  0.00    -0.000 C 
BRANCH  24  25
ATOM     25  C   UNL     1      21.814  34.819  13.842  1.00  0.00    -0.000 C 
BRANCH  25  26
ATOM     26  C   UNL     1      21.205  33.717  14.726  1.00  0.00    -0.000 C 
BRANCH  26  27
ATOM     27  C   UNL     1      22.255  32.653  15.074  1.00  0.00    -0.000 C 
BRANCH  27  28
ATOM     28  C   UNL     1      23.588  33.258  15.557  1.00  0.00    -0.000 C 
BRANCH  28  29
ATOM     29  C   UNL     1      24.837  32.800  14.773  1.00  0.00    -0.000 C 
BRANCH  29  30
ATOM     30  C   UNL     1      24.845  33.159  13.274  1.00  0.00    -0.000 C 
BRANCH  30  31
ATOM     31  C   UNL     1      25.444  34.537  12.947  1.00  0.00    -0.003 C 
ATOM     32  C   UNL     1      26.732  34.443  12.129  1.00  0.00     0.004 C 
ENDBRANCH  30  31
ENDBRANCH  29  30
ENDBRANCH  28  29
ENDBRANCH  27  28
ENDBRANCH  26  27
ENDBRANCH  25  26
ENDBRANCH  24  25
ENDBRANCH  23  24
ENDBRANCH  22  23
ENDBRANCH  21  22
ENDBRANCH  20  21
ENDBRANCH  19  20
ENDBRANCH  18  19
ENDBRANCH   1  18
TORSDOF 28
ENDMDL
MODEL 8
REMARK VINA RESULT:    -1.664     10.328     16.278
REMARK INTER + INTRA:          -5.626
REMARK INTER:                  -4.005
REMARK INTRA:                  -1.620
REMARK UNBOUND:                -1.237
REMARK SMILES CCCCCCCCCCCCCCCCCCCCCCCCCCCCCC(=O)[O-]
REMARK SMILES IDX 16 1 17 2 18 3 19 4 20 5 21 6 22 7 23 8 24 9 25 10 26 11
REMARK SMILES IDX 27 12 28 13 29 14 30 15 31 16 32 17 15 18 14 19 13 20 12 21
REMARK SMILES IDX 11 22 10 23 9 24 8 25 7 26 6 27 5 28 4 29 3 30 2 31 1 32
REMARK H PARENT
REMARK Flexibility Score: inf
ROOT
ATOM      1  C   UNL     1      16.657  30.095  10.257  1.00  0.00     0.000 C 
ENDROOT
BRANCH   1   2
ATOM      2  C   UNL     1      15.873  29.097  11.134  1.00  0.00     0.000 C 
BRANCH   2   3
ATOM      3  C   UNL     1      16.165  27.614  10.850  1.00  0.00     0.000 C 
BRANCH   3   4
ATOM      4  C   UNL     1      16.249  26.767  12.134  1.00  0.00     0.000 C 
BRANCH   4   5
ATOM      5  C   UNL     1      16.846  25.372  11.878  1.00  0.00     0.000 C 
BRANCH   5   6
ATOM      6  C   UNL     1      16.614  24.407  13.052  1.00  0.00     0.000 C 
BRANCH   6   7
ATOM      7  C   UNL     1      16.608  22.947  12.586  1.00  0.00     0.000 C 
BRANCH   7   8
ATOM      8  C   UNL     1      17.173  22.832  11.162  1.00  0.00     0.000 C 
BRANCH   8   9
ATOM      9  C   UNL     1      16.587  21.645  10.382  1.00  0.00     0.000 C 
BRANCH   9  10
ATOM     10  C   UNL     1      17.143  21.472   8.957  1.00  0.00     0.000 C 
BRANCH  10  11
ATOM     11  C   UNL     1      16.062  21.083   7.933  1.00  0.00     0.000 C 
BRANCH  11  12
ATOM     12  C   UNL     1      16.601  21.162   6.497  1.00  0.00     0.000 C 
BRANCH  12  13
ATOM     13  C   UNL     1      15.780  22.106   5.603  1.00  0.00     0.006 C 
BRANCH  13  14
ATOM     14  C   UNL     1      14.292  21.721   5.544  1.00  0.00     0.053 C 
BRANCH  14  15
ATOM     15  C   UNL     1      13.551  22.614   4.600  1.00  0.00     0.041 C 
ATOM     16  O   UNL     1      13.313  23.812   4.915  1.00  0.00    -0.550 OA
ATOM     17  O   UNL     1      13.085  22.114   3.389  1.00  0.00    -0.550 OA
ENDBRANCH  14  15
ENDBRANCH  13  14
ENDBRANCH  12  13
ENDBRANCH  11  12
ENDBRANCH  10  11
ENDBRANCH   9  10
ENDBRANCH   8   9
ENDBRANCH   7   8
ENDBRANCH   6   7
ENDBRANCH   5   6
ENDBRANCH   4   5
ENDBRANCH   3   4
ENDBRANCH   2   3
ENDBRANCH   1   2
BRANCH   1  18
ATOM     18  C   UNL     1      16.706  31.543  10.785  1.00  0.00     0.000 C 
BRANCH  18  19
ATOM     19  C   UNL     1      17.733  32.467  10.098  1.00  0.00     0.000 C 
BRANCH  19  20
ATOM     20  C   UNL     1      17.989  33.794  10.844  1.00  0.00     0.000 C 
BRANCH  20  21
ATOM     21  C   UNL     1      19.485  34.075  11.057  1.00  0.00     0.000 C 
BRANCH  21  22
ATOM     22  C   UNL     1      19.832  34.122  12.553  1.00  0.00     0.000 C 
BRANCH  22  23
ATOM     23  C   UNL     1      20.986  35.092  12.862  1.00  0.00     0.000 C 
BRANCH  23  24
ATOM     24  C   UNL     1      21.815  34.749  14.117  1.00  0.00    -0.000 C 
BRANCH  24  25
ATOM     25  C   UNL     1      22.508  33.373  14.049  1.00  0.00    -0.000 C 
BRANCH  25  26
ATOM     26  C   UNL     1      23.153  33.105  12.678  1.00  0.00    -0.000 C 
BRANCH  26  27
ATOM     27  C   UNL     1      24.672  32.930  12.814  1.00  0.00    -0.000 C 
BRANCH  27  28
ATOM     28  C   UNL     1      25.288  33.833  13.901  1.00  0.00    -0.000 C 
BRANCH  28  29
ATOM     29  C   UNL     1      25.983  35.108  13.378  1.00  0.00    -0.000 C 
BRANCH  29  30
ATOM     30  C   UNL     1      25.071  36.340  13.218  1.00  0.00    -0.000 C 
BRANCH  30  31
ATOM     31  C   UNL     1      25.122  37.334  14.390  1.00  0.00    -0.003 C 
ATOM     32  C   UNL     1      23.958  37.159  15.366  1.00  0.00     0.004 C 
ENDBRANCH  30  31
ENDBRANCH  29  30
ENDBRANCH  28  29
ENDBRANCH  27  28
ENDBRANCH  26  27
ENDBRANCH  25  26
ENDBRANCH  24  25
ENDBRANCH  23  24
ENDBRANCH  22  23
ENDBRANCH  21  22
ENDBRANCH  20  21
ENDBRANCH  19  20
ENDBRANCH  18  19
ENDBRANCH   1  18
TORSDOF 28
ENDMDL
MODEL 9
REMARK VINA RESULT:    -1.396      2.793      4.538
REMARK INTER + INTRA:          -4.918
REMARK INTER:                  -3.486
REMARK INTRA:                  -1.432
REMARK UNBOUND:                -1.237
REMARK SMILES CCCCCCCCCCCCCCCCCCCCCCCCCCCCCC(=O)[O-]
REMARK SMILES IDX 16 1 17 2 18 3 19 4 20 5 21 6 22 7 23 8 24 9 25 10 26 11
REMARK SMILES IDX 27 12 28 13 29 14 30 15 31 16 32 17 15 18 14 19 13 20 12 21
REMARK SMILES IDX 11 22 10 23 9 24 8 25 7 26 6 27 5 28 4 29 3 30 2 31 1 32
REMARK H PARENT
REMARK Flexibility Score: inf
ROOT
ATOM      1  C   UNL     1      19.119  24.722   0.720  1.00  0.00     0.000 C 
ENDROOT
BRANCH   1   2
ATOM      2  C   UNL     1      18.343  25.566  -0.312  1.00  0.00     0.000 C 
BRANCH   2   3
ATOM      3  C   UNL     1      18.029  27.005   0.130  1.00  0.00     0.000 C 
BRANCH   3   4
ATOM      4  C   UNL     1      19.170  27.989  -0.187  1.00  0.00     0.000 C 
BRANCH   4   5
ATOM      5  C   UNL     1      19.314  29.086   0.883  1.00  0.00     0.000 C 
BRANCH   5   6
ATOM      6  C   UNL     1      20.293  30.194   0.463  1.00  0.00     0.000 C 
BRANCH   6   7
ATOM      7  C   UNL     1      20.273  31.365   1.451  1.00  0.00     0.000 C 
BRANCH   7   8
ATOM      8  C   UNL     1      21.016  32.577   0.869  1.00  0.00     0.000 C 
BRANCH   8   9
ATOM      9  C   UNL     1      20.392  33.089  -0.439  1.00  0.00     0.000 C 
BRANCH   9  10
ATOM     10  C   UNL     1      20.359  34.621  -0.582  1.00  0.00     0.000 C 
BRANCH  10  11
ATOM     11  C   UNL     1      20.391  35.087  -2.049  1.00  0.00     0.000 C 
BRANCH  11  12
ATOM     12  C   UNL     1      20.553  36.612  -2.144  1.00  0.00     0.000 C 
BRANCH  12  13
ATOM     13  C   UNL     1      19.356  37.297  -2.825  1.00  0.00     0.006 C 
BRANCH  13  14
ATOM     14  C   UNL     1      18.257  37.701  -1.827  1.00  0.00     0.053 C 
BRANCH  14  15
ATOM     15  C   UNL     1      17.010  36.909  -2.064  1.00  0.00     0.041 C 
ATOM     16  O   UNL     1      16.917  36.162  -3.075  1.00  0.00    -0.550 OA
ATOM     17  O   UNL     1      15.934  37.028  -1.192  1.00  0.00    -0.550 OA
ENDBRANCH  14  15
ENDBRANCH  13  14
ENDBRANCH  12  13
ENDBRANCH  11  12
ENDBRANCH  10  11
ENDBRANCH   9  10
ENDBRANCH   8   9
ENDBRANCH   7   8
ENDBRANCH   6   7
ENDBRANCH   5   6
ENDBRANCH   4   5
ENDBRANCH   3   4
ENDBRANCH   2   3
ENDBRANCH   1   2
BRANCH   1  18
ATOM     18  C   UNL     1      19.224  25.333   2.131  1.00  0.00     0.000 C 
BRANCH  18  19
ATOM     19  C   UNL     1      19.891  24.437   3.195  1.00  0.00     0.000 C 
BRANCH  19  20
ATOM     20  C   UNL     1      19.076  24.288   4.499  1.00  0.00     0.000 C 
BRANCH  20  21
ATOM     21  C   UNL     1      18.078  23.122   4.444  1.00  0.00     0.000 C 
BRANCH  21  22
ATOM     22  C   UNL     1      17.152  23.126   5.670  1.00  0.00     0.000 C 
BRANCH  22  23
ATOM     23  C   UNL     1      16.233  21.894   5.722  1.00  0.00     0.000 C 
BRANCH  23  24
ATOM     24  C   UNL     1      16.231  21.130   7.062  1.00  0.00    -0.000 C 
BRANCH  24  25
ATOM     25  C   UNL     1      17.160  21.742   8.130  1.00  0.00    -0.000 C 
BRANCH  25  26
ATOM     26  C   UNL     1      16.960  21.109   9.518  1.00  0.00    -0.000 C 
BRANCH  26  27
ATOM     27  C   UNL     1      16.145  22.038  10.429  1.00  0.00    -0.000 C 
BRANCH  27  28
ATOM     28  C   UNL     1      16.861  22.361  11.755  1.00  0.00    -0.000 C 
BRANCH  28  29
ATOM     29  C   UNL     1      16.911  23.859  12.124  1.00  0.00    -0.000 C 
BRANCH  29  30
ATOM     30  C   UNL     1      17.855  24.721  11.263  1.00  0.00    -0.000 C 
BRANCH  30  31
ATOM     31  C   UNL     1      18.930  23.929  10.500  1.00  0.00    -0.003 C 
ATOM     32  C   UNL     1      20.326  24.537  10.642  1.00  0.00     0.004 C 
ENDBRANCH  30  31
ENDBRANCH  29  30
ENDBRANCH  28  29
ENDBRANCH  27  28
ENDBRANCH  26  27
ENDBRANCH  25  26
ENDBRANCH  24  25
ENDBRANCH  23  24
ENDBRANCH  22  23
ENDBRANCH  21  22
ENDBRANCH  20  21
ENDBRANCH  19  20
ENDBRANCH  18  19
ENDBRANCH   1  18
TORSDOF 28
ENDMDL
