MODEL 1
REMARK VINA RESULT:    -4.384      0.000      0.000
REMARK INTER + INTRA:          -9.009
REMARK INTER:                  -7.459
REMARK INTRA:                  -1.550
REMARK UNBOUND:                -1.550
REMARK SMILES CCCCCCCCCCCCCC(=O)[O-]
REMARK SMILES IDX 8 1 9 2 10 3 11 4 12 5 13 6 14 7 15 8 16 9 7 10 6 11 5 12
REMARK SMILES IDX 4 13 3 14 2 15 1 16
REMARK H PARENT
REMARK Flexibility Score: inf
ROOT
ATOM      1  C   UNL     1       0.764 -20.264  -4.531  1.00  0.00     0.000 C 
ENDROOT
BRANCH   1   2
ATOM      2  C   UNL     1       0.490 -20.291  -3.019  1.00  0.00     0.000 C 
BRANCH   2   3
ATOM      3  C   UNL     1       1.797 -20.399  -2.226  1.00  0.00     0.000 C 
BRANCH   3   4
ATOM      4  C   UNL     1       3.008 -20.072  -3.112  1.00  0.00     0.000 C 
BRANCH   4   5
ATOM      5  C   UNL     1       3.758 -18.803  -2.668  1.00  0.00     0.006 C 
BRANCH   5   6
ATOM      6  C   UNL     1       2.964 -17.920  -1.689  1.00  0.00     0.053 C 
BRANCH   6   7
ATOM      7  C   UNL     1       2.325 -16.743  -2.364  1.00  0.00     0.041 C 
ATOM      8  O   UNL     1       2.530 -15.579  -1.932  1.00  0.00    -0.550 OA
ATOM      9  O   UNL     1       1.477 -16.934  -3.447  1.00  0.00    -0.550 OA
ENDBRANCH   6   7
ENDBRANCH   5   6
ENDBRANCH   4   5
ENDBRANCH   3   4
ENDBRANCH   2   3
ENDBRANCH   1   2
BRANCH   1  10
ATOM     10  C   UNL     1       0.115 -21.444  -5.271  1.00  0.00     0.000 C 
BRANCH  10  11
ATOM     11  C   UNL     1       1.083 -22.140  -6.239  1.00  0.00    -0.000 C 
BRANCH  11  12
ATOM     12  C   UNL     1       0.875 -21.639  -7.677  1.00  0.00    -0.000 C 
BRANCH  12  13
ATOM     13  C   UNL     1       2.079 -20.845  -8.216  1.00  0.00    -0.000 C 
BRANCH  13  14
ATOM     14  C   UNL     1       3.345 -20.911  -7.343  1.00  0.00    -0.000 C 
BRANCH  14  15
ATOM     15  C   UNL     1       4.163 -19.613  -7.376  1.00  0.00    -0.003 C 
ATOM     16  C   UNL     1       3.574 -18.568  -6.433  1.00  0.00     0.004 C 
ENDBRANCH  14  15
ENDBRANCH  13  14
ENDBRANCH  12  13
ENDBRANCH  11  12
ENDBRANCH  10  11
ENDBRANCH   1  10
TORSDOF 12
ENDMDL
MODEL 2
REMARK VINA RESULT:    -4.283      2.091      3.852
REMARK INTER + INTRA:          -8.838
REMARK INTER:                  -7.029
REMARK INTRA:                  -1.809
REMARK UNBOUND:                -1.550
REMARK SMILES CCCCCCCCCCCCCC(=O)[O-]
REMARK SMILES IDX 8 1 9 2 10 3 11 4 12 5 13 6 14 7 15 8 16 9 7 10 6 11 5 12
REMARK SMILES IDX 4 13 3 14 2 15 1 16
REMARK H PARENT
REMARK Flexibility Score: inf
ROOT
ATOM      1  C   UNL     1       2.996 -20.263  -7.879  1.00  0.00     0.000 C 
ENDROOT
BRANCH   1   2
ATOM      2  C   UNL     1       3.732 -21.304  -7.022  1.00  0.00     0.000 C 
BRANCH   2   3
ATOM      3  C   UNL     1       5.245 -21.054  -7.035  1.00  0.00     0.000 C 
BRANCH   3   4
ATOM      4  C   UNL     1       5.888 -21.490  -5.710  1.00  0.00     0.000 C 
BRANCH   4   5
ATOM      5  C   UNL     1       4.934 -21.373  -4.508  1.00  0.00     0.006 C 
BRANCH   5   6
ATOM      6  C   UNL     1       5.526 -20.605  -3.313  1.00  0.00     0.053 C 
BRANCH   6   7
ATOM      7  C   UNL     1       5.101 -19.168  -3.285  1.00  0.00     0.041 C 
ATOM      8  O   UNL     1       4.599 -18.677  -2.240  1.00  0.00    -0.550 OA
ATOM      9  O   UNL     1       5.225 -18.380  -4.422  1.00  0.00    -0.550 OA
ENDBRANCH   6   7
ENDBRANCH   5   6
ENDBRANCH   4   5
ENDBRANCH   3   4
ENDBRANCH   2   3
ENDBRANCH   1   2
BRANCH   1  10
ATOM     10  C   UNL     1       1.601 -20.736  -8.317  1.00  0.00     0.000 C 
BRANCH  10  11
ATOM     11  C   UNL     1       1.234 -22.112  -7.741  1.00  0.00    -0.000 C 
BRANCH  11  12
ATOM     12  C   UNL     1       0.053 -22.000  -6.764  1.00  0.00    -0.000 C 
BRANCH  12  13
ATOM     13  C   UNL     1       0.493 -21.980  -5.289  1.00  0.00    -0.000 C 
BRANCH  13  14
ATOM     14  C   UNL     1       0.285 -20.637  -4.567  1.00  0.00    -0.000 C 
BRANCH  14  15
ATOM     15  C   UNL     1       1.604 -19.927  -4.231  1.00  0.00    -0.003 C 
ATOM     16  C   UNL     1       1.687 -18.566  -4.917  1.00  0.00     0.004 C 
ENDBRANCH  14  15
ENDBRANCH  13  14
ENDBRANCH  12  13
ENDBRANCH  11  12
ENDBRANCH  10  11
ENDBRANCH   1  10
TORSDOF 12
ENDMDL
MODEL 3
REMARK VINA RESULT:    -4.245      3.723      5.602
REMARK INTER + INTRA:          -8.774
REMARK INTER:                  -7.409
REMARK INTRA:                  -1.365
REMARK UNBOUND:                -1.550
REMARK SMILES CCCCCCCCCCCCCC(=O)[O-]
REMARK SMILES IDX 8 1 9 2 10 3 11 4 12 5 13 6 14 7 15 8 16 9 7 10 6 11 5 12
REMARK SMILES IDX 4 13 3 14 2 15 1 16
REMARK H PARENT
REMARK Flexibility Score: inf
ROOT
ATOM      1  C   UNL     1       3.722 -19.244  -3.252  1.00  0.00     0.000 C 
ENDROOT
BRANCH   1   2
ATOM      2  C   UNL     1       4.679 -20.445  -3.191  1.00  0.00     0.000 C 
BRANCH   2   3
ATOM      3  C   UNL     1       4.782 -21.133  -4.557  1.00  0.00     0.000 C 
BRANCH   3   4
ATOM      4  C   UNL     1       4.565 -20.129  -5.699  1.00  0.00     0.000 C 
BRANCH   4   5
ATOM      5  C   UNL     1       5.333 -20.496  -6.981  1.00  0.00     0.006 C 
BRANCH   5   6
ATOM      6  C   UNL     1       5.970 -21.896  -6.948  1.00  0.00     0.053 C 
BRANCH   6   7
ATOM      7  C   UNL     1       7.102 -22.037  -7.921  1.00  0.00     0.041 C 
ATOM      8  O   UNL     1       7.591 -23.171  -8.163  1.00  0.00    -0.550 OA
ATOM      9  O   UNL     1       7.640 -20.913  -8.535  1.00  0.00    -0.550 OA
ENDBRANCH   6   7
ENDBRANCH   5   6
ENDBRANCH   4   5
ENDBRANCH   3   4
ENDBRANCH   2   3
ENDBRANCH   1   2
BRANCH   1  10
ATOM     10  C   UNL     1       2.334 -19.562  -2.676  1.00  0.00     0.000 C 
BRANCH  10  11
ATOM     11  C   UNL     1       1.194 -19.181  -3.632  1.00  0.00    -0.000 C 
BRANCH  11  12
ATOM     12  C   UNL     1       0.570 -20.432  -4.268  1.00  0.00    -0.000 C 
BRANCH  12  13
ATOM     13  C   UNL     1       0.995 -20.636  -5.734  1.00  0.00    -0.000 C 
BRANCH  13  14
ATOM     14  C   UNL     1       0.674 -22.024  -6.316  1.00  0.00    -0.000 C 
BRANCH  14  15
ATOM     15  C   UNL     1       1.055 -22.155  -7.797  1.00  0.00    -0.003 C 
ATOM     16  C   UNL     1       1.810 -20.920  -8.282  1.00  0.00     0.004 C 
ENDBRANCH  14  15
ENDBRANCH  13  14
ENDBRANCH  12  13
ENDBRANCH  11  12
ENDBRANCH  10  11
ENDBRANCH   1  10
TORSDOF 12
ENDMDL
MODEL 4
REMARK VINA RESULT:    -4.240      1.604      2.765
REMARK INTER + INTRA:          -8.764
REMARK INTER:                  -7.420
REMARK INTRA:                  -1.345
REMARK UNBOUND:                -1.550
REMARK SMILES CCCCCCCCCCCCCC(=O)[O-]
REMARK SMILES IDX 8 1 9 2 10 3 11 4 12 5 13 6 14 7 15 8 16 9 7 10 6 11 5 12
REMARK SMILES IDX 4 13 3 14 2 15 1 16
REMARK H PARENT
REMARK Flexibility Score: inf
ROOT
ATOM      1  C   UNL     1       1.030 -22.130  -6.279  1.00  0.00     0.000 C 
ENDROOT
BRANCH   1   2
ATOM      2  C   UNL     1       0.104 -21.441  -5.264  1.00  0.00     0.000 C 
BRANCH   2   3
ATOM      3  C   UNL     1       0.833 -20.302  -4.542  1.00  0.00     0.000 C 
BRANCH   3   4
ATOM      4  C   UNL     1       0.598 -20.370  -3.026  1.00  0.00     0.000 C 
BRANCH   4   5
ATOM      5  C   UNL     1       1.895 -20.247  -2.206  1.00  0.00     0.006 C 
BRANCH   5   6
ATOM      6  C   UNL     1       3.161 -20.079  -3.064  1.00  0.00     0.053 C 
BRANCH   6   7
ATOM      7  C   UNL     1       3.840 -18.762  -2.836  1.00  0.00     0.041 C 
ATOM      8  O   UNL     1       4.696 -18.341  -3.658  1.00  0.00    -0.550 OA
ATOM      9  O   UNL     1       3.555 -18.016  -1.700  1.00  0.00    -0.550 OA
ENDBRANCH   6   7
ENDBRANCH   5   6
ENDBRANCH   4   5
ENDBRANCH   3   4
ENDBRANCH   2   3
ENDBRANCH   1   2
BRANCH   1  10
ATOM     10  C   UNL     1       0.803 -21.638  -7.717  1.00  0.00     0.000 C 
BRANCH  10  11
ATOM     11  C   UNL     1       1.973 -20.796  -8.247  1.00  0.00    -0.000 C 
BRANCH  11  12
ATOM     12  C   UNL     1       3.251 -21.062  -7.436  1.00  0.00    -0.000 C 
BRANCH  12  13
ATOM     13  C   UNL     1       3.926 -19.770  -6.939  1.00  0.00    -0.000 C 
BRANCH  13  14
ATOM     14  C   UNL     1       5.460 -19.838  -6.834  1.00  0.00    -0.000 C 
BRANCH  14  15
ATOM     15  C   UNL     1       5.973 -21.238  -6.467  1.00  0.00    -0.003 C 
ATOM     16  C   UNL     1       5.968 -21.446  -4.955  1.00  0.00     0.004 C 
ENDBRANCH  14  15
ENDBRANCH  13  14
ENDBRANCH  12  13
ENDBRANCH  11  12
ENDBRANCH  10  11
ENDBRANCH   1  10
TORSDOF 12
ENDMDL
MODEL 5
REMARK VINA RESULT:    -4.197      2.337      4.069
REMARK INTER + INTRA:          -8.692
REMARK INTER:                  -7.607
REMARK INTRA:                  -1.085
REMARK UNBOUND:                -1.550
REMARK SMILES CCCCCCCCCCCCCC(=O)[O-]
REMARK SMILES IDX 8 1 9 2 10 3 11 4 12 5 13 6 14 7 15 8 16 9 7 10 6 11 5 12
REMARK SMILES IDX 4 13 3 14 2 15 1 16
REMARK H PARENT
REMARK Flexibility Score: inf
ROOT
ATOM      1  C   UNL     1       1.601 -20.523  -7.746  1.00  0.00     0.000 C 
ENDROOT
BRANCH   1   2
ATOM      2  C   UNL     1       0.890 -21.886  -7.716  1.00  0.00     0.000 C 
BRANCH   2   3
ATOM      3  C   UNL     1       0.192 -22.111  -6.370  1.00  0.00     0.000 C 
BRANCH   3   4
ATOM      4  C   UNL     1       0.995 -21.484  -5.221  1.00  0.00     0.000 C 
BRANCH   4   5
ATOM      5  C   UNL     1       0.131 -20.628  -4.277  1.00  0.00     0.006 C 
BRANCH   5   6
ATOM      6  C   UNL     1       0.928 -19.578  -3.482  1.00  0.00     0.053 C 
BRANCH   6   7
ATOM      7  C   UNL     1       1.929 -20.196  -2.554  1.00  0.00     0.041 C 
ATOM      8  O   UNL     1       3.161 -20.014  -2.740  1.00  0.00    -0.550 OA
ATOM      9  O   UNL     1       1.505 -21.002  -1.505  1.00  0.00    -0.550 OA
ENDBRANCH   6   7
ENDBRANCH   5   6
ENDBRANCH   4   5
ENDBRANCH   3   4
ENDBRANCH   2   3
ENDBRANCH   1   2
BRANCH   1  10
ATOM     10  C   UNL     1       3.052 -20.623  -8.241  1.00  0.00     0.000 C 
BRANCH  10  11
ATOM     11  C   UNL     1       4.069 -20.124  -7.203  1.00  0.00    -0.000 C 
BRANCH  11  12
ATOM     12  C   UNL     1       4.154 -21.090  -6.011  1.00  0.00    -0.000 C 
BRANCH  12  13
ATOM     13  C   UNL     1       5.550 -21.718  -5.846  1.00  0.00    -0.000 C 
BRANCH  13  14
ATOM     14  C   UNL     1       6.244 -22.114  -7.161  1.00  0.00    -0.000 C 
BRANCH  14  15
ATOM     15  C   UNL     1       7.607 -21.434  -7.348  1.00  0.00    -0.003 C 
ATOM     16  C   UNL     1       7.586 -20.479  -8.539  1.00  0.00     0.004 C 
ENDBRANCH  14  15
ENDBRANCH  13  14
ENDBRANCH  12  13
ENDBRANCH  11  12
ENDBRANCH  10  11
ENDBRANCH   1  10
TORSDOF 12
ENDMDL
MODEL 6
REMARK VINA RESULT:    -4.187      3.725      5.572
REMARK INTER + INTRA:          -8.675
REMARK INTER:                  -7.232
REMARK INTRA:                  -1.443
REMARK UNBOUND:                -1.550
REMARK SMILES CCCCCCCCCCCCCC(=O)[O-]
REMARK SMILES IDX 8 1 9 2 10 3 11 4 12 5 13 6 14 7 15 8 16 9 7 10 6 11 5 12
REMARK SMILES IDX 4 13 3 14 2 15 1 16
REMARK H PARENT
REMARK Flexibility Score: inf
ROOT
ATOM      1  C   UNL     1       1.653 -20.638  -7.815  1.00  0.00     0.000 C 
ENDROOT
BRANCH   1   2
ATOM      2  C   UNL     1       3.172 -20.452  -7.947  1.00  0.00     0.000 C 
BRANCH   2   3
ATOM      3  C   UNL     1       3.796 -20.062  -6.601  1.00  0.00     0.000 C 
BRANCH   3   4
ATOM      4  C   UNL     1       4.047 -21.302  -5.730  1.00  0.00     0.000 C 
BRANCH   4   5
ATOM      5  C   UNL     1       5.524 -21.733  -5.702  1.00  0.00     0.006 C 
BRANCH   5   6
ATOM      6  C   UNL     1       6.092 -22.102  -7.084  1.00  0.00     0.053 C 
BRANCH   6   7
ATOM      7  C   UNL     1       7.576 -21.906  -7.167  1.00  0.00     0.041 C 
ATOM      8  O   UNL     1       8.153 -21.101  -6.390  1.00  0.00    -0.550 OA
ATOM      9  O   UNL     1       8.318 -22.586  -8.124  1.00  0.00    -0.550 OA
ENDBRANCH   6   7
ENDBRANCH   5   6
ENDBRANCH   4   5
ENDBRANCH   3   4
ENDBRANCH   2   3
ENDBRANCH   1   2
BRANCH   1  10
ATOM     10  C   UNL     1       1.233 -22.116  -7.832  1.00  0.00     0.000 C 
BRANCH  10  11
ATOM     11  C   UNL     1       0.457 -22.526  -6.571  1.00  0.00    -0.000 C 
BRANCH  11  12
ATOM     12  C   UNL     1       0.013 -21.289  -5.775  1.00  0.00    -0.000 C 
BRANCH  12  13
ATOM     13  C   UNL     1       0.466 -21.327  -4.304  1.00  0.00    -0.000 C 
BRANCH  13  14
ATOM     14  C   UNL     1       0.402 -19.977  -3.569  1.00  0.00    -0.000 C 
BRANCH  14  15
ATOM     15  C   UNL     1       1.735 -19.216  -3.596  1.00  0.00    -0.003 C 
ATOM     16  C   UNL     1       1.633 -17.957  -4.453  1.00  0.00     0.004 C 
ENDBRANCH  14  15
ENDBRANCH  13  14
ENDBRANCH  12  13
ENDBRANCH  11  12
ENDBRANCH  10  11
ENDBRANCH   1  10
TORSDOF 12
ENDMDL
MODEL 7
REMARK VINA RESULT:    -4.182      3.108      4.544
REMARK INTER + INTRA:          -8.666
REMARK INTER:                  -7.098
REMARK INTRA:                  -1.569
REMARK UNBOUND:                -1.550
REMARK SMILES CCCCCCCCCCCCCC(=O)[O-]
REMARK SMILES IDX 8 1 9 2 10 3 11 4 12 5 13 6 14 7 15 8 16 9 7 10 6 11 5 12
REMARK SMILES IDX 4 13 3 14 2 15 1 16
REMARK H PARENT
REMARK Flexibility Score: inf
ROOT
ATOM      1  C   UNL     1       2.042 -20.157  -2.332  1.00  0.00     0.000 C 
ENDROOT
BRANCH   1   2
ATOM      2  C   UNL     1       2.824 -18.839  -2.227  1.00  0.00     0.000 C 
BRANCH   2   3
ATOM      3  C   UNL     1       4.317 -19.064  -2.499  1.00  0.00     0.000 C 
BRANCH   3   4
ATOM      4  C   UNL     1       4.556 -20.422  -3.176  1.00  0.00     0.000 C 
BRANCH   4   5
ATOM      5  C   UNL     1       5.463 -20.328  -4.416  1.00  0.00     0.006 C 
BRANCH   5   6
ATOM      6  C   UNL     1       5.645 -21.663  -5.158  1.00  0.00     0.053 C 
BRANCH   6   7
ATOM      7  C   UNL     1       5.878 -21.477  -6.627  1.00  0.00     0.041 C 
ATOM      8  O   UNL     1       5.591 -20.383  -7.180  1.00  0.00    -0.550 OA
ATOM      9  O   UNL     1       6.380 -22.522  -7.393  1.00  0.00    -0.550 OA
ENDBRANCH   6   7
ENDBRANCH   5   6
ENDBRANCH   4   5
ENDBRANCH   3   4
ENDBRANCH   2   3
ENDBRANCH   1   2
BRANCH   1  10
ATOM     10  C   UNL     1       1.118 -20.202  -3.559  1.00  0.00     0.000 C 
BRANCH  10  11
ATOM     11  C   UNL     1       1.225 -18.940  -4.427  1.00  0.00    -0.000 C 
BRANCH  11  12
ATOM     12  C   UNL     1       1.616 -19.298  -5.869  1.00  0.00    -0.000 C 
BRANCH  12  13
ATOM     13  C   UNL     1       2.169 -20.728  -6.004  1.00  0.00    -0.000 C 
BRANCH  13  14
ATOM     14  C   UNL     1       2.205 -21.278  -7.441  1.00  0.00    -0.000 C 
BRANCH  14  15
ATOM     15  C   UNL     1       0.936 -22.054  -7.819  1.00  0.00    -0.003 C 
ATOM     16  C   UNL     1       0.351 -22.774  -6.607  1.00  0.00     0.004 C 
ENDBRANCH  14  15
ENDBRANCH  13  14
ENDBRANCH  12  13
ENDBRANCH  11  12
ENDBRANCH  10  11
ENDBRANCH   1  10
TORSDOF 12
ENDMDL
MODEL 8
REMARK VINA RESULT:    -4.182     11.214     13.087
REMARK INTER + INTRA:          -8.665
REMARK INTER:                  -6.703
REMARK INTRA:                  -1.962
REMARK UNBOUND:                -1.550
REMARK SMILES CCCCCCCCCCCCCC(=O)[O-]
REMARK SMILES IDX 8 1 9 2 10 3 11 4 12 5 13 6 14 7 15 8 16 9 7 10 6 11 5 12
REMARK SMILES IDX 4 13 3 14 2 15 1 16
REMARK H PARENT
REMARK Flexibility Score: inf
ROOT
ATOM      1  C   UNL     1      -7.773 -27.148  -0.668  1.00  0.00     0.000 C 
ENDROOT
BRANCH   1   2
ATOM      2  C   UNL     1      -9.133 -27.660  -0.169  1.00  0.00     0.000 C 
BRANCH   2   3
ATOM      3  C   UNL     1     -10.262 -27.220  -1.109  1.00  0.00     0.000 C 
BRANCH   3   4
ATOM      4  C   UNL     1      -9.736 -26.991  -2.534  1.00  0.00     0.000 C 
BRANCH   4   5
ATOM      5  C   UNL     1     -10.077 -25.596  -3.087  1.00  0.00     0.006 C 
BRANCH   5   6
ATOM      6  C   UNL     1      -8.852 -24.684  -3.280  1.00  0.00     0.053 C 
BRANCH   6   7
ATOM      7  C   UNL     1      -8.532 -23.883  -2.054  1.00  0.00     0.041 C 
ATOM      8  O   UNL     1      -9.403 -23.720  -1.160  1.00  0.00    -0.550 OA
ATOM      9  O   UNL     1      -7.285 -23.287  -1.915  1.00  0.00    -0.550 OA
ENDBRANCH   6   7
ENDBRANCH   5   6
ENDBRANCH   4   5
ENDBRANCH   3   4
ENDBRANCH   2   3
ENDBRANCH   1   2
BRANCH   1  10
ATOM     10  C   UNL     1      -6.630 -28.136  -0.385  1.00  0.00     0.000 C 
BRANCH  10  11
ATOM     11  C   UNL     1      -5.328 -27.757  -1.107  1.00  0.00    -0.000 C 
BRANCH  11  12
ATOM     12  C   UNL     1      -5.623 -26.975  -2.396  1.00  0.00    -0.000 C 
BRANCH  12  13
ATOM     13  C   UNL     1      -5.521 -27.845  -3.662  1.00  0.00    -0.000 C 
BRANCH  13  14
ATOM     14  C   UNL     1      -6.870 -28.234  -4.294  1.00  0.00    -0.000 C 
BRANCH  14  15
ATOM     15  C   UNL     1      -7.092 -29.752  -4.343  1.00  0.00    -0.003 C 
ATOM     16  C   UNL     1      -7.860 -30.235  -3.116  1.00  0.00     0.004 C 
ENDBRANCH  14  15
ENDBRANCH  13  14
ENDBRANCH  12  13
ENDBRANCH  11  12
ENDBRANCH  10  11
ENDBRANCH   1  10
TORSDOF 12
ENDMDL
MODEL 9
REMARK VINA RESULT:    -4.159     12.189     14.464
REMARK INTER + INTRA:          -8.627
REMARK INTER:                  -6.762
REMARK INTRA:                  -1.866
REMARK UNBOUND:                -1.550
REMARK SMILES CCCCCCCCCCCCCC(=O)[O-]
REMARK SMILES IDX 8 1 9 2 10 3 11 4 12 5 13 6 14 7 15 8 16 9 7 10 6 11 5 12
REMARK SMILES IDX 4 13 3 14 2 15 1 16
REMARK H PARENT
REMARK Flexibility Score: inf
ROOT
ATOM      1  C   UNL     1      -5.562 -26.936  -3.127  1.00  0.00     0.000 C 
ENDROOT
BRANCH   1   2
ATOM      2  C   UNL     1      -5.537 -28.338  -3.755  1.00  0.00     0.000 C 
BRANCH   2   3
ATOM      3  C   UNL     1      -6.880 -28.666  -4.418  1.00  0.00     0.000 C 
BRANCH   3   4
ATOM      4  C   UNL     1      -7.425 -30.015  -3.925  1.00  0.00     0.000 C 
BRANCH   4   5
ATOM      5  C   UNL     1      -6.886 -30.414  -2.539  1.00  0.00     0.006 C 
BRANCH   5   6
ATOM      6  C   UNL     1      -7.875 -30.162  -1.388  1.00  0.00     0.053 C 
BRANCH   6   7
ATOM      7  C   UNL     1      -8.320 -31.430  -0.724  1.00  0.00     0.041 C 
ATOM      8  O   UNL     1      -9.413 -31.964  -1.046  1.00  0.00    -0.550 OA
ATOM      9  O   UNL     1      -7.545 -32.004   0.276  1.00  0.00    -0.550 OA
ENDBRANCH   6   7
ENDBRANCH   5   6
ENDBRANCH   4   5
ENDBRANCH   3   4
ENDBRANCH   2   3
ENDBRANCH   1   2
BRANCH   1  10
ATOM     10  C   UNL     1      -6.037 -26.950  -1.666  1.00  0.00     0.000 C 
BRANCH  10  11
ATOM     11  C   UNL     1      -7.396 -26.259  -1.478  1.00  0.00    -0.000 C 
BRANCH  11  12
ATOM     12  C   UNL     1      -7.485 -24.984  -2.331  1.00  0.00    -0.000 C 
BRANCH  12  13
ATOM     13  C   UNL     1      -8.860 -24.804  -3.000  1.00  0.00    -0.000 C 
BRANCH  13  14
ATOM     14  C   UNL     1      -9.173 -25.809  -4.122  1.00  0.00    -0.000 C 
BRANCH  14  15
ATOM     15  C   UNL     1     -10.512 -26.533  -3.921  1.00  0.00    -0.003 C 
ATOM     16  C   UNL     1     -10.325 -27.826  -3.133  1.00  0.00     0.004 C 
ENDBRANCH  14  15
ENDBRANCH  13  14
ENDBRANCH  12  13
ENDBRANCH  11  12
ENDBRANCH  10  11
ENDBRANCH   1  10
TORSDOF 12
ENDMDL
