MODEL 1
REMARK VINA RESULT:    -8.074      0.000      0.000
REMARK INTER + INTRA:          -9.408
REMARK INTER:                  -9.725
REMARK INTRA:                   0.317
REMARK UNBOUND:                 0.317
REMARK SMILES O=c1c(O)c(-c2ccc(O)c(O)c2)oc2cc(O)cc(O)c12
REMARK SMILES IDX 5 1 3 2 2 3 1 4 22 5 20 6 19 7 17 8 16 9 15 10 14 11 6 12
REMARK SMILES IDX 7 13 8 14 9 15 13 16 11 17 10 18 12 20 4 22 21 24 18 26
REMARK H PARENT 10 19 12 21 4 23 21 25 18 27
REMARK Flexibility Score: inf
ROOT
ATOM      1  C   UNL     1     -38.868  12.599   8.694  1.00  0.00     0.180 A 
ATOM      2  C   UNL     1     -39.025  11.252   9.075  1.00  0.00     0.208 A 
ATOM      3  C   UNL     1     -40.104  10.904   9.903  1.00  0.00     0.238 A 
ATOM      4  O   UNL     1     -40.249   9.703  10.260  1.00  0.00    -0.285 OA
ATOM      5  C   UNL     1     -41.014  11.898  10.318  1.00  0.00     0.111 A 
ATOM      6  C   UNL     1     -42.128  11.629  11.149  1.00  0.00     0.134 A 
ATOM      7  C   UNL     1     -42.993  12.673  11.511  1.00  0.00     0.093 A 
ATOM      8  C   UNL     1     -42.768  13.975  11.059  1.00  0.00     0.123 A 
ATOM      9  C   UNL     1     -41.668  14.246  10.239  1.00  0.00     0.094 A 
ATOM     10  C   UNL     1     -40.793  13.221   9.868  1.00  0.00     0.146 A 
ATOM     11  O   UNL     1     -39.753  13.506   9.093  1.00  0.00    -0.452 OA
ENDROOT
BRANCH   1  12
ATOM     12  C   UNL     1     -37.745  13.048   7.839  1.00  0.00     0.025 A 
ATOM     13  C   UNL     1     -36.530  12.346   7.871  1.00  0.00     0.016 A 
ATOM     14  C   UNL     1     -35.464  12.738   7.057  1.00  0.00     0.051 A 
ATOM     15  C   UNL     1     -35.603  13.829   6.190  1.00  0.00     0.157 A 
ATOM     16  C   UNL     1     -37.886  14.130   6.951  1.00  0.00     0.062 A 
ATOM     17  C   UNL     1     -36.818  14.523   6.133  1.00  0.00     0.158 A 
BRANCH  15  18
ATOM     18  O   UNL     1     -34.541  14.226   5.378  1.00  0.00    -0.504 OA
ATOM     19  H   UNL     1     -34.148  13.607   4.680  1.00  0.00     0.293 HD
ENDBRANCH  15  18
BRANCH  17  20
ATOM     20  O   UNL     1     -36.958  15.599   5.259  1.00  0.00    -0.504 OA
ATOM     21  H   UNL     1     -36.258  16.330   5.202  1.00  0.00     0.293 HD
ENDBRANCH  17  20
ENDBRANCH   1  12
BRANCH   2  22
ATOM     22  O   UNL     1     -38.138  10.278   8.610  1.00  0.00    -0.502 OA
ATOM     23  H   UNL     1     -38.400   9.303   8.523  1.00  0.00     0.293 HD
ENDBRANCH   2  22
BRANCH   6  24
ATOM     24  O   UNL     1     -42.382  10.339  11.616  1.00  0.00    -0.507 OA
ATOM     25  H   UNL     1     -42.748   9.615  11.008  1.00  0.00     0.293 HD
ENDBRANCH   6  24
BRANCH   8  26
ATOM     26  O   UNL     1     -43.643  14.993  11.432  1.00  0.00    -0.508 OA
ATOM     27  H   UNL     1     -43.643  15.890  10.962  1.00  0.00     0.293 HD
ENDBRANCH   8  26
TORSDOF 6
ENDMDL
MODEL 2
REMARK VINA RESULT:    -7.935      5.459     11.558
REMARK INTER + INTRA:          -9.242
REMARK INTER:                  -9.497
REMARK INTRA:                   0.255
REMARK UNBOUND:                 0.317
REMARK SMILES O=c1c(O)c(-c2ccc(O)c(O)c2)oc2cc(O)cc(O)c12
REMARK SMILES IDX 5 1 3 2 2 3 1 4 22 5 20 6 19 7 17 8 16 9 15 10 14 11 6 12
REMARK SMILES IDX 7 13 8 14 9 15 13 16 11 17 10 18 12 20 4 22 21 24 18 26
REMARK H PARENT 10 19 12 21 4 23 21 25 18 27
REMARK Flexibility Score: inf
ROOT
ATOM      1  C   UNL     1     -33.247  14.753   2.951  1.00  0.00     0.180 A 
ATOM      2  C   UNL     1     -33.566  14.966   1.596  1.00  0.00     0.208 A 
ATOM      3  C   UNL     1     -32.522  15.116   0.670  1.00  0.00     0.238 A 
ATOM      4  O   UNL     1     -32.794  15.318  -0.545  1.00  0.00    -0.285 OA
ATOM      5  C   UNL     1     -31.184  15.033   1.107  1.00  0.00     0.111 A 
ATOM      6  C   UNL     1     -30.075  15.170   0.238  1.00  0.00     0.134 A 
ATOM      7  C   UNL     1     -28.773  15.065   0.751  1.00  0.00     0.093 A 
ATOM      8  C   UNL     1     -28.559  14.826   2.109  1.00  0.00     0.123 A 
ATOM      9  C   UNL     1     -29.651  14.690   2.973  1.00  0.00     0.094 A 
ATOM     10  C   UNL     1     -30.955  14.794   2.483  1.00  0.00     0.146 A 
ATOM     11  O   UNL     1     -31.975  14.666   3.325  1.00  0.00    -0.452 OA
ENDROOT
BRANCH   1  12
ATOM     12  C   UNL     1     -34.292  14.604   3.990  1.00  0.00     0.025 A 
ATOM     13  C   UNL     1     -35.497  15.312   3.863  1.00  0.00     0.016 A 
ATOM     14  C   UNL     1     -36.505  15.171   4.820  1.00  0.00     0.051 A 
ATOM     15  C   UNL     1     -36.329  14.308   5.910  1.00  0.00     0.157 A 
ATOM     16  C   UNL     1     -34.127  13.723   5.075  1.00  0.00     0.062 A 
ATOM     17  C   UNL     1     -35.138  13.580   6.034  1.00  0.00     0.158 A 
BRANCH  15  18
ATOM     18  O   UNL     1     -37.330  14.167   6.868  1.00  0.00    -0.504 OA
ATOM     19  H   UNL     1     -37.334  13.391   7.520  1.00  0.00     0.293 HD
ENDBRANCH  15  18
BRANCH  17  20
ATOM     20  O   UNL     1     -34.972  12.711   7.112  1.00  0.00    -0.504 OA
ATOM     21  H   UNL     1     -35.518  11.862   7.197  1.00  0.00     0.293 HD
ENDBRANCH  17  20
ENDBRANCH   1  12
BRANCH   2  22
ATOM     22  O   UNL     1     -34.899  14.995   1.180  1.00  0.00    -0.502 OA
ATOM     23  H   UNL     1     -35.195  14.633   0.281  1.00  0.00     0.293 HD
ENDBRANCH   2  22
BRANCH   6  24
ATOM     24  O   UNL     1     -30.256  15.409  -1.125  1.00  0.00    -0.507 OA
ATOM     25  H   UNL     1     -29.738  14.896  -1.829  1.00  0.00     0.293 HD
ENDBRANCH   6  24
BRANCH   8  26
ATOM     26  O   UNL     1     -27.255  14.725   2.592  1.00  0.00    -0.508 OA
ATOM     27  H   UNL     1     -26.478  15.162   2.113  1.00  0.00     0.293 HD
ENDBRANCH   8  26
TORSDOF 6
ENDMDL
MODEL 3
REMARK VINA RESULT:    -7.757      0.961      1.088
REMARK INTER + INTRA:          -9.027
REMARK INTER:                  -9.120
REMARK INTRA:                   0.093
REMARK UNBOUND:                 0.317
REMARK SMILES O=c1c(O)c(-c2ccc(O)c(O)c2)oc2cc(O)cc(O)c12
REMARK SMILES IDX 5 1 3 2 2 3 1 4 22 5 20 6 19 7 17 8 16 9 15 10 14 11 6 12
REMARK SMILES IDX 7 13 8 14 9 15 13 16 11 17 10 18 12 20 4 22 21 24 18 26
REMARK H PARENT 10 19 12 21 4 23 21 25 18 27
REMARK Flexibility Score: inf
ROOT
ATOM      1  C   UNL     1     -38.010  12.599   8.059  1.00  0.00     0.180 A 
ATOM      2  C   UNL     1     -38.199  11.243   8.388  1.00  0.00     0.208 A 
ATOM      3  C   UNL     1     -39.285  10.888   9.203  1.00  0.00     0.238 A 
ATOM      4  O   UNL     1     -39.458   9.678   9.514  1.00  0.00    -0.285 OA
ATOM      5  C   UNL     1     -40.171  11.886   9.658  1.00  0.00     0.111 A 
ATOM      6  C   UNL     1     -41.291  11.612  10.480  1.00  0.00     0.134 A 
ATOM      7  C   UNL     1     -42.130  12.661  10.883  1.00  0.00     0.093 A 
ATOM      8  C   UNL     1     -41.874  13.973  10.482  1.00  0.00     0.123 A 
ATOM      9  C   UNL     1     -40.769  14.250   9.671  1.00  0.00     0.094 A 
ATOM     10  C   UNL     1     -39.919  13.220   9.260  1.00  0.00     0.146 A 
ATOM     11  O   UNL     1     -38.874  13.511   8.494  1.00  0.00    -0.452 OA
ENDROOT
BRANCH   1  12
ATOM     12  C   UNL     1     -36.878  13.054   7.220  1.00  0.00     0.025 A 
ATOM     13  C   UNL     1     -35.591  12.551   7.466  1.00  0.00     0.016 A 
ATOM     14  C   UNL     1     -34.511  12.950   6.674  1.00  0.00     0.051 A 
ATOM     15  C   UNL     1     -34.705  13.846   5.615  1.00  0.00     0.157 A 
ATOM     16  C   UNL     1     -37.072  13.938   6.143  1.00  0.00     0.062 A 
ATOM     17  C   UNL     1     -35.990  14.338   5.347  1.00  0.00     0.158 A 
BRANCH  15  18
ATOM     18  O   UNL     1     -33.631  14.249   4.824  1.00  0.00    -0.504 OA
ATOM     19  H   UNL     1     -32.678  13.998   5.058  1.00  0.00     0.293 HD
ENDBRANCH  15  18
BRANCH  17  20
ATOM     20  O   UNL     1     -36.182  15.219   4.284  1.00  0.00    -0.504 OA
ATOM     21  H   UNL     1     -36.770  14.977   3.495  1.00  0.00     0.293 HD
ENDBRANCH  17  20
ENDBRANCH   1  12
BRANCH   2  22
ATOM     22  O   UNL     1     -37.336  10.267   7.884  1.00  0.00    -0.502 OA
ATOM     23  H   UNL     1     -36.624  10.475   7.193  1.00  0.00     0.293 HD
ENDBRANCH   2  22
BRANCH   6  24
ATOM     24  O   UNL     1     -41.574  10.310  10.896  1.00  0.00    -0.507 OA
ATOM     25  H   UNL     1     -42.331   9.773  10.489  1.00  0.00     0.293 HD
ENDBRANCH   6  24
BRANCH   8  26
ATOM     26  O   UNL     1     -42.725  14.997  10.896  1.00  0.00    -0.508 OA
ATOM     27  H   UNL     1     -43.238  14.939  11.767  1.00  0.00     0.293 HD
ENDBRANCH   8  26
TORSDOF 6
ENDMDL
MODEL 4
REMARK VINA RESULT:    -7.656      6.724     10.136
REMARK INTER + INTRA:          -8.905
REMARK INTER:                  -8.836
REMARK INTRA:                  -0.069
REMARK UNBOUND:                 0.317
REMARK SMILES O=c1c(O)c(-c2ccc(O)c(O)c2)oc2cc(O)cc(O)c12
REMARK SMILES IDX 5 1 3 2 2 3 1 4 22 5 20 6 19 7 17 8 16 9 15 10 14 11 6 12
REMARK SMILES IDX 7 13 8 14 9 15 13 16 11 17 10 18 12 20 4 22 21 24 18 26
REMARK H PARENT 10 19 12 21 4 23 21 25 18 27
REMARK Flexibility Score: inf
ROOT
ATOM      1  C   UNL     1     -31.932  13.842   1.727  1.00  0.00     0.180 A 
ATOM      2  C   UNL     1     -32.317  12.789   0.874  1.00  0.00     0.208 A 
ATOM      3  C   UNL     1     -33.597  12.233   1.019  1.00  0.00     0.238 A 
ATOM      4  O   UNL     1     -33.949  11.282   0.269  1.00  0.00    -0.285 OA
ATOM      5  C   UNL     1     -34.475  12.748   1.995  1.00  0.00     0.111 A 
ATOM      6  C   UNL     1     -35.783  12.247   2.203  1.00  0.00     0.134 A 
ATOM      7  C   UNL     1     -36.599  12.820   3.189  1.00  0.00     0.093 A 
ATOM      8  C   UNL     1     -36.136  13.882   3.969  1.00  0.00     0.123 A 
ATOM      9  C   UNL     1     -34.845  14.381   3.768  1.00  0.00     0.094 A 
ATOM     10  C   UNL     1     -34.015  13.823   2.792  1.00  0.00     0.146 A 
ATOM     11  O   UNL     1     -32.791  14.312   2.626  1.00  0.00    -0.452 OA
ENDROOT
BRANCH   1  12
ATOM     12  C   UNL     1     -30.592  14.468   1.649  1.00  0.00     0.025 A 
ATOM     13  C   UNL     1     -29.756  14.450   2.776  1.00  0.00     0.016 A 
ATOM     14  C   UNL     1     -28.479  15.016   2.719  1.00  0.00     0.051 A 
ATOM     15  C   UNL     1     -28.015  15.593   1.530  1.00  0.00     0.157 A 
ATOM     16  C   UNL     1     -30.114  15.030   0.451  1.00  0.00     0.062 A 
ATOM     17  C   UNL     1     -28.833  15.596   0.392  1.00  0.00     0.158 A 
BRANCH  15  18
ATOM     18  O   UNL     1     -26.744  16.161   1.469  1.00  0.00    -0.504 OA
ATOM     19  H   UNL     1     -25.979  15.809   2.033  1.00  0.00     0.293 HD
ENDBRANCH  15  18
BRANCH  17  20
ATOM     20  O   UNL     1     -28.363  16.158  -0.793  1.00  0.00    -0.504 OA
ATOM     21  H   UNL     1     -28.928  16.170  -1.635  1.00  0.00     0.293 HD
ENDBRANCH  17  20
ENDBRANCH   1  12
BRANCH   2  22
ATOM     22  O   UNL     1     -31.447  12.330  -0.118  1.00  0.00    -0.502 OA
ATOM     23  H   UNL     1     -30.879  12.957  -0.675  1.00  0.00     0.293 HD
ENDBRANCH   2  22
BRANCH   6  24
ATOM     24  O   UNL     1     -36.275  11.187   1.440  1.00  0.00    -0.507 OA
ATOM     25  H   UNL     1     -37.044  11.310   0.791  1.00  0.00     0.293 HD
ENDBRANCH   6  24
BRANCH   8  26
ATOM     26  O   UNL     1     -36.967  14.434   4.941  1.00  0.00    -0.508 OA
ATOM     27  H   UNL     1     -37.971  14.479   4.816  1.00  0.00     0.293 HD
ENDBRANCH   8  26
TORSDOF 6
ENDMDL
MODEL 5
REMARK VINA RESULT:    -7.538      2.360      6.933
REMARK INTER + INTRA:          -8.762
REMARK INTER:                  -8.468
REMARK INTRA:                  -0.294
REMARK UNBOUND:                 0.317
REMARK SMILES O=c1c(O)c(-c2ccc(O)c(O)c2)oc2cc(O)cc(O)c12
REMARK SMILES IDX 5 1 3 2 2 3 1 4 22 5 20 6 19 7 17 8 16 9 15 10 14 11 6 12
REMARK SMILES IDX 7 13 8 14 9 15 13 16 11 17 10 18 12 20 4 22 21 24 18 26
REMARK H PARENT 10 19 12 21 4 23 21 25 18 27
REMARK Flexibility Score: inf
ROOT
ATOM      1  C   UNL     1     -40.422  11.369   8.117  1.00  0.00     0.180 A 
ATOM      2  C   UNL     1     -40.706  10.571   6.991  1.00  0.00     0.208 A 
ATOM      3  C   UNL     1     -39.741  10.462   5.977  1.00  0.00     0.238 A 
ATOM      4  O   UNL     1     -39.987   9.760   4.959  1.00  0.00    -0.285 OA
ATOM      5  C   UNL     1     -38.507  11.132   6.114  1.00  0.00     0.111 A 
ATOM      6  C   UNL     1     -37.481  11.070   5.141  1.00  0.00     0.134 A 
ATOM      7  C   UNL     1     -36.277  11.759   5.355  1.00  0.00     0.093 A 
ATOM      8  C   UNL     1     -36.080  12.504   6.520  1.00  0.00     0.123 A 
ATOM      9  C   UNL     1     -37.091  12.568   7.484  1.00  0.00     0.094 A 
ATOM     10  C   UNL     1     -38.298  11.891   7.289  1.00  0.00     0.146 A 
ATOM     11  O   UNL     1     -39.243  11.973   8.218  1.00  0.00    -0.452 OA
ENDROOT
BRANCH   1  12
ATOM     12  C   UNL     1     -41.396  11.549   9.217  1.00  0.00     0.025 A 
ATOM     13  C   UNL     1     -41.513  10.557  10.204  1.00  0.00     0.016 A 
ATOM     14  C   UNL     1     -42.410  10.715  11.264  1.00  0.00     0.051 A 
ATOM     15  C   UNL     1     -43.192  11.873  11.360  1.00  0.00     0.157 A 
ATOM     16  C   UNL     1     -42.168  12.719   9.330  1.00  0.00     0.062 A 
ATOM     17  C   UNL     1     -43.067  12.880  10.393  1.00  0.00     0.158 A 
BRANCH  15  18
ATOM     18  O   UNL     1     -44.090  12.034  12.414  1.00  0.00    -0.504 OA
ATOM     19  H   UNL     1     -43.776  12.274  13.346  1.00  0.00     0.293 HD
ENDBRANCH  15  18
BRANCH  17  20
ATOM     20  O   UNL     1     -43.836  14.037  10.500  1.00  0.00    -0.504 OA
ATOM     21  H   UNL     1     -44.736  14.034  10.966  1.00  0.00     0.293 HD
ENDBRANCH  17  20
ENDBRANCH   1  12
BRANCH   2  22
ATOM     22  O   UNL     1     -41.915   9.878   6.902  1.00  0.00    -0.502 OA
ATOM     23  H   UNL     1     -42.785  10.256   7.256  1.00  0.00     0.293 HD
ENDBRANCH   2  22
BRANCH   6  24
ATOM     24  O   UNL     1     -37.647  10.333   3.967  1.00  0.00    -0.507 OA
ATOM     25  H   UNL     1     -37.194  10.602   3.101  1.00  0.00     0.293 HD
ENDBRANCH   6  24
BRANCH   8  26
ATOM     26  O   UNL     1     -34.874  13.177   6.709  1.00  0.00    -0.508 OA
ATOM     27  H   UNL     1     -34.358  13.566   5.930  1.00  0.00     0.293 HD
ENDBRANCH   8  26
TORSDOF 6
ENDMDL
MODEL 6
REMARK VINA RESULT:    -7.500      2.693      6.958
REMARK INTER + INTRA:          -8.717
REMARK INTER:                  -8.516
REMARK INTRA:                  -0.202
REMARK UNBOUND:                 0.317
REMARK SMILES O=c1c(O)c(-c2ccc(O)c(O)c2)oc2cc(O)cc(O)c12
REMARK SMILES IDX 5 1 3 2 2 3 1 4 22 5 20 6 19 7 17 8 16 9 15 10 14 11 6 12
REMARK SMILES IDX 7 13 8 14 9 15 13 16 11 17 10 18 12 20 4 22 21 24 18 26
REMARK H PARENT 10 19 12 21 4 23 21 25 18 27
REMARK Flexibility Score: inf
ROOT
ATOM      1  C   UNL     1     -40.566  11.701   8.964  1.00  0.00     0.180 A 
ATOM      2  C   UNL     1     -39.247  12.193   9.001  1.00  0.00     0.208 A 
ATOM      3  C   UNL     1     -38.404  11.957   7.904  1.00  0.00     0.238 A 
ATOM      4  O   UNL     1     -37.217  12.383   7.930  1.00  0.00    -0.285 OA
ATOM      5  C   UNL     1     -38.896  11.253   6.786  1.00  0.00     0.111 A 
ATOM      6  C   UNL     1     -38.113  10.976   5.639  1.00  0.00     0.134 A 
ATOM      7  C   UNL     1     -38.679  10.277   4.563  1.00  0.00     0.093 A 
ATOM      8  C   UNL     1     -40.008   9.851   4.609  1.00  0.00     0.123 A 
ATOM      9  C   UNL     1     -40.787  10.122   5.740  1.00  0.00     0.094 A 
ATOM     10  C   UNL     1     -40.241  10.815   6.823  1.00  0.00     0.146 A 
ATOM     11  O   UNL     1     -41.000  11.054   7.887  1.00  0.00    -0.452 OA
ENDROOT
BRANCH   1  12
ATOM     12  C   UNL     1     -41.509  11.893  10.090  1.00  0.00     0.025 A 
ATOM     13  C   UNL     1     -41.879  10.791  10.876  1.00  0.00     0.016 A 
ATOM     14  C   UNL     1     -42.750  10.951  11.956  1.00  0.00     0.051 A 
ATOM     15  C   UNL     1     -43.253  12.220  12.274  1.00  0.00     0.157 A 
ATOM     16  C   UNL     1     -42.000  13.168  10.426  1.00  0.00     0.062 A 
ATOM     17  C   UNL     1     -42.873  13.331  11.510  1.00  0.00     0.158 A 
BRANCH  15  18
ATOM     18  O   UNL     1     -44.125  12.385  13.349  1.00  0.00    -0.504 OA
ATOM     19  H   UNL     1     -44.991  11.863  13.414  1.00  0.00     0.293 HD
ENDBRANCH  15  18
BRANCH  17  20
ATOM     20  O   UNL     1     -43.363  14.593  11.838  1.00  0.00    -0.504 OA
ATOM     21  H   UNL     1     -44.358  14.788  11.854  1.00  0.00     0.293 HD
ENDBRANCH  17  20
ENDBRANCH   1  12
BRANCH   2  22
ATOM     22  O   UNL     1     -38.799  12.931  10.100  1.00  0.00    -0.502 OA
ATOM     23  H   UNL     1     -37.836  13.229  10.197  1.00  0.00     0.293 HD
ENDBRANCH   2  22
BRANCH   6  24
ATOM     24  O   UNL     1     -36.782  11.389   5.562  1.00  0.00    -0.507 OA
ATOM     25  H   UNL     1     -36.533  12.358   5.403  1.00  0.00     0.293 HD
ENDBRANCH   6  24
BRANCH   8  26
ATOM     26  O   UNL     1     -40.547   9.160   3.525  1.00  0.00    -0.508 OA
ATOM     27  H   UNL     1     -41.526   9.242   3.279  1.00  0.00     0.293 HD
ENDBRANCH   8  26
TORSDOF 6
ENDMDL
MODEL 7
REMARK VINA RESULT:    -7.457      2.347      7.264
REMARK INTER + INTRA:          -8.665
REMARK INTER:                  -8.386
REMARK INTRA:                  -0.279
REMARK UNBOUND:                 0.317
REMARK SMILES O=c1c(O)c(-c2ccc(O)c(O)c2)oc2cc(O)cc(O)c12
REMARK SMILES IDX 5 1 3 2 2 3 1 4 22 5 20 6 19 7 17 8 16 9 15 10 14 11 6 12
REMARK SMILES IDX 7 13 8 14 9 15 13 16 11 17 10 18 12 20 4 22 21 24 18 26
REMARK H PARENT 10 19 12 21 4 23 21 25 18 27
REMARK Flexibility Score: inf
ROOT
ATOM      1  C   UNL     1     -39.469  11.070   7.608  1.00  0.00     0.180 A 
ATOM      2  C   UNL     1     -39.743  10.470   6.364  1.00  0.00     0.208 A 
ATOM      3  C   UNL     1     -38.836  10.650   5.309  1.00  0.00     0.238 A 
ATOM      4  O   UNL     1     -39.076  10.127   4.187  1.00  0.00    -0.285 OA
ATOM      5  C   UNL     1     -37.664  11.407   5.519  1.00  0.00     0.111 A 
ATOM      6  C   UNL     1     -36.697  11.633   4.510  1.00  0.00     0.134 A 
ATOM      7  C   UNL     1     -35.553  12.390   4.800  1.00  0.00     0.093 A 
ATOM      8  C   UNL     1     -35.356  12.923   6.076  1.00  0.00     0.123 A 
ATOM      9  C   UNL     1     -36.308  12.704   7.076  1.00  0.00     0.094 A 
ATOM     10  C   UNL     1     -37.456  11.954   6.807  1.00  0.00     0.146 A 
ATOM     11  O   UNL     1     -38.347  11.764   7.773  1.00  0.00    -0.452 OA
ENDROOT
BRANCH   1  12
ATOM     12  C   UNL     1     -40.386  10.942   8.763  1.00  0.00     0.025 A 
ATOM     13  C   UNL     1     -41.563  11.707   8.798  1.00  0.00     0.016 A 
ATOM     14  C   UNL     1     -42.454  11.588   9.867  1.00  0.00     0.051 A 
ATOM     15  C   UNL     1     -42.190  10.690  10.909  1.00  0.00     0.157 A 
ATOM     16  C   UNL     1     -40.136  10.026   9.801  1.00  0.00     0.062 A 
ATOM     17  C   UNL     1     -41.030   9.904  10.874  1.00  0.00     0.158 A 
BRANCH  15  18
ATOM     18  O   UNL     1     -43.074  10.569  11.979  1.00  0.00    -0.504 OA
ATOM     19  H   UNL     1     -43.929  11.112  12.024  1.00  0.00     0.293 HD
ENDBRANCH  15  18
BRANCH  17  20
ATOM     20  O   UNL     1     -40.777   9.001  11.905  1.00  0.00    -0.504 OA
ATOM     21  H   UNL     1     -41.529   8.591  12.446  1.00  0.00     0.293 HD
ENDBRANCH  17  20
ENDBRANCH   1  12
BRANCH   2  22
ATOM     22  O   UNL     1     -40.886   9.684   6.196  1.00  0.00    -0.502 OA
ATOM     23  H   UNL     1     -40.858   8.771   5.759  1.00  0.00     0.293 HD
ENDBRANCH   2  22
BRANCH   6  24
ATOM     24  O   UNL     1     -36.865  11.113   3.225  1.00  0.00    -0.507 OA
ATOM     25  H   UNL     1     -37.770  10.809   2.887  1.00  0.00     0.293 HD
ENDBRANCH   6  24
BRANCH   8  26
ATOM     26  O   UNL     1     -34.209  13.670   6.338  1.00  0.00    -0.508 OA
ATOM     27  H   UNL     1     -33.300  13.233   6.424  1.00  0.00     0.293 HD
ENDBRANCH   8  26
TORSDOF 6
ENDMDL
MODEL 8
REMARK VINA RESULT:    -7.448      2.643      7.356
REMARK INTER + INTRA:          -8.655
REMARK INTER:                  -8.395
REMARK INTRA:                  -0.260
REMARK UNBOUND:                 0.317
REMARK SMILES O=c1c(O)c(-c2ccc(O)c(O)c2)oc2cc(O)cc(O)c12
REMARK SMILES IDX 5 1 3 2 2 3 1 4 22 5 20 6 19 7 17 8 16 9 15 10 14 11 6 12
REMARK SMILES IDX 7 13 8 14 9 15 13 16 11 17 10 18 12 20 4 22 21 24 18 26
REMARK H PARENT 10 19 12 21 4 23 21 25 18 27
REMARK Flexibility Score: inf
ROOT
ATOM      1  C   UNL     1     -39.075  11.411   7.877  1.00  0.00     0.180 A 
ATOM      2  C   UNL     1     -37.843  12.032   8.162  1.00  0.00     0.208 A 
ATOM      3  C   UNL     1     -36.920  12.218   7.122  1.00  0.00     0.238 A 
ATOM      4  O   UNL     1     -35.809  12.762   7.367  1.00  0.00    -0.285 OA
ATOM      5  C   UNL     1     -37.249  11.800   5.815  1.00  0.00     0.111 A 
ATOM      6  C   UNL     1     -36.377  11.954   4.710  1.00  0.00     0.134 A 
ATOM      7  C   UNL     1     -36.782  11.520   3.439  1.00  0.00     0.093 A 
ATOM      8  C   UNL     1     -38.037  10.939   3.251  1.00  0.00     0.123 A 
ATOM      9  C   UNL     1     -38.903  10.784   4.339  1.00  0.00     0.094 A 
ATOM     10  C   UNL     1     -38.518  11.207   5.614  1.00  0.00     0.146 A 
ATOM     11  O   UNL     1     -39.356  11.044   6.631  1.00  0.00    -0.452 OA
ENDROOT
BRANCH   1  12
ATOM     12  C   UNL     1     -40.091  11.163   8.924  1.00  0.00     0.025 A 
ATOM     13  C   UNL     1     -41.292  11.889   8.906  1.00  0.00     0.016 A 
ATOM     14  C   UNL     1     -42.275  11.657   9.872  1.00  0.00     0.051 A 
ATOM     15  C   UNL     1     -42.078  10.684  10.860  1.00  0.00     0.157 A 
ATOM     16  C   UNL     1     -39.906  10.172   9.906  1.00  0.00     0.062 A 
ATOM     17  C   UNL     1     -40.892   9.937  10.875  1.00  0.00     0.158 A 
BRANCH  15  18
ATOM     18  O   UNL     1     -43.054  10.451  11.827  1.00  0.00    -0.504 OA
ATOM     19  H   UNL     1     -43.181   9.535  12.241  1.00  0.00     0.293 HD
ENDBRANCH  15  18
BRANCH  17  20
ATOM     20  O   UNL     1     -40.705   8.961  11.851  1.00  0.00    -0.504 OA
ATOM     21  H   UNL     1     -39.868   8.390  11.876  1.00  0.00     0.293 HD
ENDBRANCH  17  20
ENDBRANCH   1  12
BRANCH   2  22
ATOM     22  O   UNL     1     -37.562  12.481   9.455  1.00  0.00    -0.502 OA
ATOM     23  H   UNL     1     -38.183  12.311  10.236  1.00  0.00     0.293 HD
ENDBRANCH   2  22
BRANCH   6  24
ATOM     24  O   UNL     1     -35.116  12.532   4.866  1.00  0.00    -0.507 OA
ATOM     25  H   UNL     1     -34.766  12.810   5.775  1.00  0.00     0.293 HD
ENDBRANCH   6  24
BRANCH   8  26
ATOM     26  O   UNL     1     -38.416  10.518   1.977  1.00  0.00    -0.508 OA
ATOM     27  H   UNL     1     -38.981  11.102   1.373  1.00  0.00     0.293 HD
ENDBRANCH   8  26
TORSDOF 6
ENDMDL
MODEL 9
REMARK VINA RESULT:    -7.403      7.084     10.100
REMARK INTER + INTRA:          -8.600
REMARK INTER:                  -8.331
REMARK INTRA:                  -0.269
REMARK UNBOUND:                 0.317
REMARK SMILES O=c1c(O)c(-c2ccc(O)c(O)c2)oc2cc(O)cc(O)c12
REMARK SMILES IDX 5 1 3 2 2 3 1 4 22 5 20 6 19 7 17 8 16 9 15 10 14 11 6 12
REMARK SMILES IDX 7 13 8 14 9 15 13 16 11 17 10 18 12 20 4 22 21 24 18 26
REMARK H PARENT 10 19 12 21 4 23 21 25 18 27
REMARK Flexibility Score: inf
ROOT
ATOM      1  C   UNL     1     -32.659  14.067   1.713  1.00  0.00     0.180 A 
ATOM      2  C   UNL     1     -33.354  14.894   2.616  1.00  0.00     0.208 A 
ATOM      3  C   UNL     1     -34.586  14.456   3.127  1.00  0.00     0.238 A 
ATOM      4  O   UNL     1     -35.224  15.192   3.928  1.00  0.00    -0.285 OA
ATOM      5  C   UNL     1     -35.091  13.196   2.744  1.00  0.00     0.111 A 
ATOM      6  C   UNL     1     -36.322  12.679   3.216  1.00  0.00     0.134 A 
ATOM      7  C   UNL     1     -36.750  11.411   2.795  1.00  0.00     0.093 A 
ATOM      8  C   UNL     1     -35.976  10.653   1.915  1.00  0.00     0.123 A 
ATOM      9  C   UNL     1     -34.759  11.158   1.445  1.00  0.00     0.094 A 
ATOM     10  C   UNL     1     -34.315  12.420   1.851  1.00  0.00     0.146 A 
ATOM     11  O   UNL     1     -33.159  12.879   1.387  1.00  0.00    -0.452 OA
ENDROOT
BRANCH   1  12
ATOM     12  C   UNL     1     -31.365  14.468   1.117  1.00  0.00     0.025 A 
ATOM     13  C   UNL     1     -31.333  14.959  -0.198  1.00  0.00     0.016 A 
ATOM     14  C   UNL     1     -30.126  15.363  -0.774  1.00  0.00     0.051 A 
ATOM     15  C   UNL     1     -28.936  15.296  -0.039  1.00  0.00     0.157 A 
ATOM     16  C   UNL     1     -30.170  14.421   1.858  1.00  0.00     0.062 A 
ATOM     17  C   UNL     1     -28.959  14.828   1.282  1.00  0.00     0.158 A 
BRANCH  15  18
ATOM     18  O   UNL     1     -27.729  15.695  -0.610  1.00  0.00    -0.504 OA
ATOM     19  H   UNL     1     -27.115  15.031  -1.068  1.00  0.00     0.293 HD
ENDBRANCH  15  18
BRANCH  17  20
ATOM     20  O   UNL     1     -27.775  14.775   2.015  1.00  0.00    -0.504 OA
ATOM     21  H   UNL     1     -26.942  15.269   1.714  1.00  0.00     0.293 HD
ENDBRANCH  17  20
ENDBRANCH   1  12
BRANCH   2  22
ATOM     22  O   UNL     1     -32.810  16.116   3.018  1.00  0.00    -0.502 OA
ATOM     23  H   UNL     1     -33.313  16.768   3.608  1.00  0.00     0.293 HD
ENDBRANCH   2  22
BRANCH   6  24
ATOM     24  O   UNL     1     -37.118  13.412   4.097  1.00  0.00    -0.507 OA
ATOM     25  H   UNL     1     -37.846  12.973   4.648  1.00  0.00     0.293 HD
ENDBRANCH   6  24
BRANCH   8  26
ATOM     26  O   UNL     1     -36.424   9.396   1.513  1.00  0.00    -0.508 OA
ATOM     27  H   UNL     1     -36.331   8.584   2.112  1.00  0.00     0.293 HD
ENDBRANCH   8  26
TORSDOF 6
ENDMDL
