MODEL 1
REMARK VINA RESULT:    -6.151      0.000      0.000
REMARK INTER + INTRA:          -7.968
REMARK INTER:                  -7.590
REMARK INTRA:                  -0.378
REMARK UNBOUND:                -0.378
REMARK SMILES Oc1cc(O)c2cc(O)c(-c3cc(O)c(O)c(O)c3)[o+]c2c1
REMARK SMILES IDX 10 1 20 2 21 3 22 4 2 5 3 6 4 7 6 8 7 9 8 10 11 11 12 12
REMARK SMILES IDX 13 13 19 14 15 15 17 16 14 17 16 19 18 21 9 23 1 25 5 27
REMARK H PARENT 14 18 16 20 18 22 9 24 1 26 5 28
REMARK Flexibility Score: inf
ROOT
ATOM      1  C   UNL     1     -63.300 -56.899  31.066  1.00  0.00     0.402 A 
ATOM      2  O   UNL     1     -62.211 -56.818  31.828  1.00  0.00    -0.202 OA
ATOM      3  C   UNL     1     -62.255 -56.612  33.140  1.00  0.00     0.368 A 
ATOM      4  C   UNL     1     -61.064 -56.535  33.869  1.00  0.00     0.162 A 
ATOM      5  C   UNL     1     -61.097 -56.315  35.252  1.00  0.00     0.128 A 
ATOM      6  C   UNL     1     -62.325 -56.173  35.907  1.00  0.00     0.093 A 
ATOM      7  C   UNL     1     -63.528 -56.250  35.190  1.00  0.00     0.136 A 
ATOM      8  C   UNL     1     -63.495 -56.470  33.799  1.00  0.00     0.125 A 
ATOM      9  C   UNL     1     -64.662 -56.563  33.035  1.00  0.00     0.078 A 
ATOM     10  C   UNL     1     -64.575 -56.790  31.658  1.00  0.00     0.223 A 
ENDROOT
BRANCH   1  11
ATOM     11  C   UNL     1     -63.123 -57.121  29.613  1.00  0.00     0.091 A 
ATOM     12  C   UNL     1     -62.920 -56.049  28.727  1.00  0.00     0.068 A 
ATOM     13  C   UNL     1     -62.730 -56.281  27.358  1.00  0.00     0.162 A 
ATOM     14  C   UNL     1     -63.101 -58.433  29.113  1.00  0.00     0.068 A 
ATOM     15  C   UNL     1     -62.733 -57.596  26.864  1.00  0.00     0.200 A 
ATOM     16  C   UNL     1     -62.915 -58.671  27.745  1.00  0.00     0.162 A 
BRANCH  13  17
ATOM     17  O   UNL     1     -62.536 -55.210  26.487  1.00  0.00    -0.504 OA
ATOM     18  H   UNL     1     -63.109 -55.086  25.661  1.00  0.00     0.293 HD
ENDBRANCH  13  17
BRANCH  15  19
ATOM     19  O   UNL     1     -62.552 -57.853  25.505  1.00  0.00    -0.502 OA
ATOM     20  H   UNL     1     -63.313 -58.148  24.906  1.00  0.00     0.293 HD
ENDBRANCH  15  19
BRANCH  16  21
ATOM     21  O   UNL     1     -62.909 -59.975  27.252  1.00  0.00    -0.504 OA
ATOM     22  H   UNL     1     -63.698 -60.353  26.741  1.00  0.00     0.293 HD
ENDBRANCH  16  21
ENDBRANCH   1  11
BRANCH  10  23
ATOM     23  O   UNL     1     -65.736 -56.935  30.897  1.00  0.00    -0.500 OA
ATOM     24  H   UNL     1     -65.827 -56.512  29.981  1.00  0.00     0.294 HD
ENDBRANCH  10  23
BRANCH   5  25
ATOM     25  O   UNL     1     -59.915 -56.236  35.986  1.00  0.00    -0.507 OA
ATOM     26  H   UNL     1     -59.512 -57.053  36.429  1.00  0.00     0.293 HD
ENDBRANCH   5  25
BRANCH   7  27
ATOM     27  O   UNL     1     -64.746 -56.108  35.855  1.00  0.00    -0.507 OA
ATOM     28  H   UNL     1     -64.890 -56.481  36.786  1.00  0.00     0.293 HD
ENDBRANCH   7  27
TORSDOF 7
ENDMDL
MODEL 2
REMARK VINA RESULT:    -5.708      8.523     12.869
REMARK INTER + INTRA:          -7.421
REMARK INTER:                  -7.073
REMARK INTRA:                  -0.348
REMARK UNBOUND:                -0.378
REMARK SMILES Oc1cc(O)c2cc(O)c(-c3cc(O)c(O)c(O)c3)[o+]c2c1
REMARK SMILES IDX 10 1 20 2 21 3 22 4 2 5 3 6 4 7 6 8 7 9 8 10 11 11 12 12
REMARK SMILES IDX 13 13 19 14 15 15 17 16 14 17 16 19 18 21 9 23 1 25 5 27
REMARK H PARENT 14 18 16 20 18 22 9 24 1 26 5 28
REMARK Flexibility Score: inf
ROOT
ATOM      1  C   UNL     1     -57.251 -49.325  37.059  1.00  0.00     0.402 A 
ATOM      2  O   UNL     1     -57.342 -50.196  36.055  1.00  0.00    -0.202 OA
ATOM      3  C   UNL     1     -57.756 -49.863  34.838  1.00  0.00     0.368 A 
ATOM      4  C   UNL     1     -57.828 -50.840  33.840  1.00  0.00     0.162 A 
ATOM      5  C   UNL     1     -58.266 -50.502  32.553  1.00  0.00     0.128 A 
ATOM      6  C   UNL     1     -58.633 -49.183  32.264  1.00  0.00     0.093 A 
ATOM      7  C   UNL     1     -58.565 -48.192  33.255  1.00  0.00     0.136 A 
ATOM      8  C   UNL     1     -58.125 -48.532  34.549  1.00  0.00     0.125 A 
ATOM      9  C   UNL     1     -58.030 -47.584  35.573  1.00  0.00     0.078 A 
ATOM     10  C   UNL     1     -57.580 -47.972  36.839  1.00  0.00     0.223 A 
ENDROOT
BRANCH   1  11
ATOM     11  C   UNL     1     -56.784 -49.818  38.375  1.00  0.00     0.091 A 
ATOM     12  C   UNL     1     -55.455 -49.638  38.794  1.00  0.00     0.068 A 
ATOM     13  C   UNL     1     -55.037 -50.091  40.053  1.00  0.00     0.162 A 
ATOM     14  C   UNL     1     -57.698 -50.430  39.247  1.00  0.00     0.068 A 
ATOM     15  C   UNL     1     -55.955 -50.723  40.910  1.00  0.00     0.200 A 
ATOM     16  C   UNL     1     -57.286 -50.887  40.505  1.00  0.00     0.162 A 
BRANCH  13  17
ATOM     17  O   UNL     1     -53.715 -49.912  40.458  1.00  0.00    -0.504 OA
ATOM     18  H   UNL     1     -53.463 -49.229  41.162  1.00  0.00     0.293 HD
ENDBRANCH  13  17
BRANCH  15  19
ATOM     19  O   UNL     1     -55.562 -51.186  42.165  1.00  0.00    -0.502 OA
ATOM     20  H   UNL     1     -55.484 -52.174  42.374  1.00  0.00     0.293 HD
ENDBRANCH  15  19
BRANCH  16  21
ATOM     21  O   UNL     1     -58.195 -51.507  41.361  1.00  0.00    -0.504 OA
ATOM     22  H   UNL     1     -59.185 -51.293  41.330  1.00  0.00     0.293 HD
ENDBRANCH  16  21
ENDBRANCH   1  11
BRANCH  10  23
ATOM     23  O   UNL     1     -57.433 -47.023  37.851  1.00  0.00    -0.500 OA
ATOM     24  H   UNL     1     -57.420 -46.030  37.650  1.00  0.00     0.294 HD
ENDBRANCH  10  23
BRANCH   5  25
ATOM     25  O   UNL     1     -58.342 -51.469  31.552  1.00  0.00    -0.507 OA
ATOM     26  H   UNL     1     -58.569 -51.223  30.596  1.00  0.00     0.293 HD
ENDBRANCH   5  25
BRANCH   7  27
ATOM     27  O   UNL     1     -58.932 -46.880  32.954  1.00  0.00    -0.507 OA
ATOM     28  H   UNL     1     -59.720 -46.431  33.407  1.00  0.00     0.293 HD
ENDBRANCH   7  27
TORSDOF 7
ENDMDL
MODEL 3
REMARK VINA RESULT:    -5.614      7.444     12.127
REMARK INTER + INTRA:          -7.305
REMARK INTER:                  -7.280
REMARK INTRA:                  -0.025
REMARK UNBOUND:                -0.378
REMARK SMILES Oc1cc(O)c2cc(O)c(-c3cc(O)c(O)c(O)c3)[o+]c2c1
REMARK SMILES IDX 10 1 20 2 21 3 22 4 2 5 3 6 4 7 6 8 7 9 8 10 11 11 12 12
REMARK SMILES IDX 13 13 19 14 15 15 17 16 14 17 16 19 18 21 9 23 1 25 5 27
REMARK H PARENT 14 18 16 20 18 22 9 24 1 26 5 28
REMARK Flexibility Score: inf
ROOT
ATOM      1  C   UNL     1     -57.608 -50.374  36.937  1.00  0.00     0.402 A 
ATOM      2  O   UNL     1     -58.217 -51.413  36.366  1.00  0.00    -0.202 OA
ATOM      3  C   UNL     1     -58.748 -51.366  35.149  1.00  0.00     0.368 A 
ATOM      4  C   UNL     1     -59.375 -52.500  34.624  1.00  0.00     0.162 A 
ATOM      5  C   UNL     1     -59.941 -52.463  33.343  1.00  0.00     0.128 A 
ATOM      6  C   UNL     1     -59.877 -51.288  32.585  1.00  0.00     0.093 A 
ATOM      7  C   UNL     1     -59.250 -50.143  33.099  1.00  0.00     0.136 A 
ATOM      8  C   UNL     1     -58.682 -50.180  34.387  1.00  0.00     0.125 A 
ATOM      9  C   UNL     1     -58.037 -49.072  34.946  1.00  0.00     0.078 A 
ATOM     10  C   UNL     1     -57.483 -49.163  36.226  1.00  0.00     0.223 A 
ENDROOT
BRANCH   1  11
ATOM     11  C   UNL     1     -57.064 -50.545  38.303  1.00  0.00     0.091 A 
ATOM     12  C   UNL     1     -55.756 -50.146  38.626  1.00  0.00     0.068 A 
ATOM     13  C   UNL     1     -55.266 -50.294  39.931  1.00  0.00     0.162 A 
ATOM     14  C   UNL     1     -57.888 -51.066  39.314  1.00  0.00     0.068 A 
ATOM     15  C   UNL     1     -56.091 -50.838  40.930  1.00  0.00     0.200 A 
ATOM     16  C   UNL     1     -57.403 -51.219  40.619  1.00  0.00     0.162 A 
BRANCH  13  17
ATOM     17  O   UNL     1     -53.965 -49.900  40.239  1.00  0.00    -0.504 OA
ATOM     18  H   UNL     1     -53.212 -50.573  40.323  1.00  0.00     0.293 HD
ENDBRANCH  13  17
BRANCH  15  19
ATOM     19  O   UNL     1     -55.625 -51.000  42.235  1.00  0.00    -0.502 OA
ATOM     20  H   UNL     1     -56.131 -50.642  43.036  1.00  0.00     0.293 HD
ENDBRANCH  15  19
BRANCH  16  21
ATOM     21  O   UNL     1     -58.220 -51.750  41.616  1.00  0.00    -0.504 OA
ATOM     22  H   UNL     1     -59.139 -52.122  41.406  1.00  0.00     0.293 HD
ENDBRANCH  16  21
ENDBRANCH   1  11
BRANCH  10  23
ATOM     23  O   UNL     1     -56.794 -48.078  36.770  1.00  0.00    -0.500 OA
ATOM     24  H   UNL     1     -56.121 -47.550  36.226  1.00  0.00     0.294 HD
ENDBRANCH  10  23
BRANCH   5  25
ATOM     25  O   UNL     1     -60.569 -53.588  32.811  1.00  0.00    -0.507 OA
ATOM     26  H   UNL     1     -60.718 -53.689  31.814  1.00  0.00     0.293 HD
ENDBRANCH   5  25
BRANCH   7  27
ATOM     27  O   UNL     1     -59.192 -48.978  32.333  1.00  0.00    -0.507 OA
ATOM     28  H   UNL     1     -60.006 -48.620  31.848  1.00  0.00     0.293 HD
ENDBRANCH   7  27
TORSDOF 7
ENDMDL
MODEL 4
REMARK VINA RESULT:    -5.594      7.449     12.198
REMARK INTER + INTRA:          -7.280
REMARK INTER:                  -7.269
REMARK INTRA:                  -0.011
REMARK UNBOUND:                -0.378
REMARK SMILES Oc1cc(O)c2cc(O)c(-c3cc(O)c(O)c(O)c3)[o+]c2c1
REMARK SMILES IDX 10 1 20 2 21 3 22 4 2 5 3 6 4 7 6 8 7 9 8 10 11 11 12 12
REMARK SMILES IDX 13 13 19 14 15 15 17 16 14 17 16 19 18 21 9 23 1 25 5 27
REMARK H PARENT 14 18 16 20 18 22 9 24 1 26 5 28
REMARK Flexibility Score: inf
ROOT
ATOM      1  C   UNL     1     -57.630 -50.342  36.935  1.00  0.00     0.402 A 
ATOM      2  O   UNL     1     -58.253 -51.371  36.363  1.00  0.00    -0.202 OA
ATOM      3  C   UNL     1     -58.743 -51.331  35.129  1.00  0.00     0.368 A 
ATOM      4  C   UNL     1     -59.389 -52.454  34.603  1.00  0.00     0.162 A 
ATOM      5  C   UNL     1     -59.913 -52.423  33.304  1.00  0.00     0.128 A 
ATOM      6  C   UNL     1     -59.789 -51.265  32.530  1.00  0.00     0.093 A 
ATOM      7  C   UNL     1     -59.143 -50.130  33.043  1.00  0.00     0.136 A 
ATOM      8  C   UNL     1     -58.617 -50.161  34.349  1.00  0.00     0.125 A 
ATOM      9  C   UNL     1     -57.956 -49.063  34.909  1.00  0.00     0.078 A 
ATOM     10  C   UNL     1     -57.445 -49.148  36.208  1.00  0.00     0.223 A 
ENDROOT
BRANCH   1  11
ATOM     11  C   UNL     1     -57.135 -50.505  38.321  1.00  0.00     0.091 A 
ATOM     12  C   UNL     1     -57.949 -51.045  39.330  1.00  0.00     0.068 A 
ATOM     13  C   UNL     1     -57.456 -51.214  40.632  1.00  0.00     0.162 A 
ATOM     14  C   UNL     1     -55.807 -50.166  38.624  1.00  0.00     0.068 A 
ATOM     15  C   UNL     1     -56.132 -50.849  40.930  1.00  0.00     0.200 A 
ATOM     16  C   UNL     1     -55.309 -50.329  39.923  1.00  0.00     0.162 A 
BRANCH  13  17
ATOM     17  O   UNL     1     -58.274 -51.745  41.627  1.00  0.00    -0.504 OA
ATOM     18  H   UNL     1     -58.411 -52.745  41.724  1.00  0.00     0.293 HD
ENDBRANCH  13  17
BRANCH  15  19
ATOM     19  O   UNL     1     -55.619 -51.003  42.218  1.00  0.00    -0.502 OA
ATOM     20  H   UNL     1     -54.963 -51.738  42.452  1.00  0.00     0.293 HD
ENDBRANCH  15  19
BRANCH  16  21
ATOM     21  O   UNL     1     -53.993 -49.977  40.221  1.00  0.00    -0.504 OA
ATOM     22  H   UNL     1     -53.728 -49.015  40.397  1.00  0.00     0.293 HD
ENDBRANCH  16  21
ENDBRANCH   1  11
BRANCH  10  23
ATOM     23  O   UNL     1     -56.741 -48.075  36.754  1.00  0.00    -0.500 OA
ATOM     24  H   UNL     1     -56.964 -47.704  37.670  1.00  0.00     0.294 HD
ENDBRANCH  10  23
BRANCH   5  25
ATOM     25  O   UNL     1     -60.558 -53.538  32.773  1.00  0.00    -0.507 OA
ATOM     26  H   UNL     1     -60.932 -54.267  33.369  1.00  0.00     0.293 HD
ENDBRANCH   5  25
BRANCH   7  27
ATOM     27  O   UNL     1     -59.025 -48.981  32.260  1.00  0.00    -0.507 OA
ATOM     28  H   UNL     1     -58.157 -48.741  31.796  1.00  0.00     0.293 HD
ENDBRANCH   7  27
TORSDOF 7
ENDMDL
MODEL 5
REMARK VINA RESULT:    -5.439      7.415     11.929
REMARK INTER + INTRA:          -7.089
REMARK INTER:                  -7.375
REMARK INTRA:                   0.286
REMARK UNBOUND:                -0.378
REMARK SMILES Oc1cc(O)c2cc(O)c(-c3cc(O)c(O)c(O)c3)[o+]c2c1
REMARK SMILES IDX 10 1 20 2 21 3 22 4 2 5 3 6 4 7 6 8 7 9 8 10 11 11 12 12
REMARK SMILES IDX 13 13 19 14 15 15 17 16 14 17 16 19 18 21 9 23 1 25 5 27
REMARK H PARENT 14 18 16 20 18 22 9 24 1 26 5 28
REMARK Flexibility Score: inf
ROOT
ATOM      1  C   UNL     1     -57.874 -51.062  36.847  1.00  0.00     0.402 A 
ATOM      2  O   UNL     1     -57.416 -50.184  35.956  1.00  0.00    -0.202 OA
ATOM      3  C   UNL     1     -57.850 -50.126  34.701  1.00  0.00     0.368 A 
ATOM      4  C   UNL     1     -57.312 -49.178  33.826  1.00  0.00     0.162 A 
ATOM      5  C   UNL     1     -57.759 -49.108  32.500  1.00  0.00     0.128 A 
ATOM      6  C   UNL     1     -58.747 -49.991  32.050  1.00  0.00     0.093 A 
ATOM      7  C   UNL     1     -59.296 -50.947  32.917  1.00  0.00     0.136 A 
ATOM      8  C   UNL     1     -58.847 -51.017  34.249  1.00  0.00     0.125 A 
ATOM      9  C   UNL     1     -59.364 -51.944  35.160  1.00  0.00     0.078 A 
ATOM     10  C   UNL     1     -58.888 -51.967  36.474  1.00  0.00     0.223 A 
ENDROOT
BRANCH   1  11
ATOM     11  C   UNL     1     -57.306 -51.035  38.214  1.00  0.00     0.091 A 
ATOM     12  C   UNL     1     -56.011 -50.546  38.458  1.00  0.00     0.068 A 
ATOM     13  C   UNL     1     -55.498 -50.506  39.762  1.00  0.00     0.162 A 
ATOM     14  C   UNL     1     -58.093 -51.453  39.298  1.00  0.00     0.068 A 
ATOM     15  C   UNL     1     -56.286 -50.949  40.838  1.00  0.00     0.200 A 
ATOM     16  C   UNL     1     -57.585 -51.419  40.602  1.00  0.00     0.162 A 
BRANCH  13  17
ATOM     17  O   UNL     1     -54.210 -50.024  39.993  1.00  0.00    -0.504 OA
ATOM     18  H   UNL     1     -53.405 -50.409  39.513  1.00  0.00     0.293 HD
ENDBRANCH  13  17
BRANCH  15  19
ATOM     19  O   UNL     1     -55.797 -50.924  42.144  1.00  0.00    -0.502 OA
ATOM     20  H   UNL     1     -55.161 -51.630  42.494  1.00  0.00     0.293 HD
ENDBRANCH  15  19
BRANCH  16  21
ATOM     21  O   UNL     1     -58.366 -51.849  41.674  1.00  0.00    -0.504 OA
ATOM     22  H   UNL     1     -58.874 -51.195  42.258  1.00  0.00     0.293 HD
ENDBRANCH  16  21
ENDBRANCH   1  11
BRANCH  10  23
ATOM     23  O   UNL     1     -59.436 -52.855  37.401  1.00  0.00    -0.500 OA
ATOM     24  H   UNL     1     -58.881 -53.590  37.824  1.00  0.00     0.294 HD
ENDBRANCH  10  23
BRANCH   5  25
ATOM     25  O   UNL     1     -57.228 -48.167  31.621  1.00  0.00    -0.507 OA
ATOM     26  H   UNL     1     -56.278 -47.830  31.717  1.00  0.00     0.293 HD
ENDBRANCH   5  25
BRANCH   7  27
ATOM     27  O   UNL     1     -60.282 -51.821  32.456  1.00  0.00    -0.507 OA
ATOM     28  H   UNL     1     -61.267 -51.632  32.596  1.00  0.00     0.293 HD
ENDBRANCH   7  27
TORSDOF 7
ENDMDL
MODEL 6
REMARK VINA RESULT:    -5.422      7.498     12.057
REMARK INTER + INTRA:          -7.068
REMARK INTER:                  -7.312
REMARK INTRA:                   0.244
REMARK UNBOUND:                -0.378
REMARK SMILES Oc1cc(O)c2cc(O)c(-c3cc(O)c(O)c(O)c3)[o+]c2c1
REMARK SMILES IDX 10 1 20 2 21 3 22 4 2 5 3 6 4 7 6 8 7 9 8 10 11 11 12 12
REMARK SMILES IDX 13 13 19 14 15 15 17 16 14 17 16 19 18 21 9 23 1 25 5 27
REMARK H PARENT 14 18 16 20 18 22 9 24 1 26 5 28
REMARK Flexibility Score: inf
ROOT
ATOM      1  C   UNL     1     -57.834 -50.984  36.850  1.00  0.00     0.402 A 
ATOM      2  O   UNL     1     -57.352 -50.105  35.973  1.00  0.00    -0.202 OA
ATOM      3  C   UNL     1     -57.742 -50.055  34.703  1.00  0.00     0.368 A 
ATOM      4  C   UNL     1     -57.182 -49.105  33.844  1.00  0.00     0.162 A 
ATOM      5  C   UNL     1     -57.582 -49.044  32.503  1.00  0.00     0.128 A 
ATOM      6  C   UNL     1     -58.545 -49.937  32.021  1.00  0.00     0.093 A 
ATOM      7  C   UNL     1     -59.116 -50.896  32.872  1.00  0.00     0.136 A 
ATOM      8  C   UNL     1     -58.714 -50.957  34.219  1.00  0.00     0.125 A 
ATOM      9  C   UNL     1     -59.255 -51.886  35.114  1.00  0.00     0.078 A 
ATOM     10  C   UNL     1     -58.826 -51.900  36.445  1.00  0.00     0.223 A 
ENDROOT
BRANCH   1  11
ATOM     11  C   UNL     1     -57.315 -50.947  38.236  1.00  0.00     0.091 A 
ATOM     12  C   UNL     1     -58.087 -51.401  39.319  1.00  0.00     0.068 A 
ATOM     13  C   UNL     1     -57.569 -51.380  40.622  1.00  0.00     0.162 A 
ATOM     14  C   UNL     1     -56.005 -50.502  38.471  1.00  0.00     0.068 A 
ATOM     15  C   UNL     1     -56.265 -50.911  40.849  1.00  0.00     0.200 A 
ATOM     16  C   UNL     1     -55.483 -50.476  39.771  1.00  0.00     0.162 A 
BRANCH  13  17
ATOM     17  O   UNL     1     -58.345 -51.828  41.690  1.00  0.00    -0.504 OA
ATOM     18  H   UNL     1     -58.069 -52.626  42.250  1.00  0.00     0.293 HD
ENDBRANCH  13  17
BRANCH  15  19
ATOM     19  O   UNL     1     -55.729 -50.876  42.137  1.00  0.00    -0.502 OA
ATOM     20  H   UNL     1     -54.739 -50.998  42.312  1.00  0.00     0.293 HD
ENDBRANCH  15  19
BRANCH  16  21
ATOM     21  O   UNL     1     -54.186 -50.019  40.000  1.00  0.00    -0.504 OA
ATOM     22  H   UNL     1     -53.805 -49.228  39.495  1.00  0.00     0.293 HD
ENDBRANCH  16  21
ENDBRANCH   1  11
BRANCH  10  23
ATOM     23  O   UNL     1     -59.398 -52.790  37.355  1.00  0.00    -0.500 OA
ATOM     24  H   UNL     1     -59.115 -53.762  37.396  1.00  0.00     0.294 HD
ENDBRANCH  10  23
BRANCH   5  25
ATOM     25  O   UNL     1     -57.029 -48.100  31.640  1.00  0.00    -0.507 OA
ATOM     26  H   UNL     1     -57.066 -48.218  30.634  1.00  0.00     0.293 HD
ENDBRANCH   5  25
BRANCH   7  27
ATOM     27  O   UNL     1     -60.077 -51.780  32.379  1.00  0.00    -0.507 OA
ATOM     28  H   UNL     1     -61.031 -51.486  32.206  1.00  0.00     0.293 HD
ENDBRANCH   7  27
TORSDOF 7
ENDMDL
MODEL 7
REMARK VINA RESULT:    -5.414      5.380     10.531
REMARK INTER + INTRA:          -7.057
REMARK INTER:                  -6.978
REMARK INTRA:                  -0.080
REMARK UNBOUND:                -0.378
REMARK SMILES Oc1cc(O)c2cc(O)c(-c3cc(O)c(O)c(O)c3)[o+]c2c1
REMARK SMILES IDX 10 1 20 2 21 3 22 4 2 5 3 6 4 7 6 8 7 9 8 10 11 11 12 12
REMARK SMILES IDX 13 13 19 14 15 15 17 16 14 17 16 19 18 21 9 23 1 25 5 27
REMARK H PARENT 14 18 16 20 18 22 9 24 1 26 5 28
REMARK Flexibility Score: inf
ROOT
ATOM      1  C   UNL     1     -59.174 -52.572  36.881  1.00  0.00     0.402 A 
ATOM      2  O   UNL     1     -59.662 -53.812  36.873  1.00  0.00    -0.202 OA
ATOM      3  C   UNL     1     -60.288 -54.341  35.827  1.00  0.00     0.368 A 
ATOM      4  C   UNL     1     -60.776 -55.649  35.902  1.00  0.00     0.162 A 
ATOM      5  C   UNL     1     -61.441 -56.217  34.807  1.00  0.00     0.128 A 
ATOM      6  C   UNL     1     -61.617 -55.473  33.635  1.00  0.00     0.093 A 
ATOM      7  C   UNL     1     -61.133 -54.159  33.546  1.00  0.00     0.136 A 
ATOM      8  C   UNL     1     -60.465 -53.588  34.646  1.00  0.00     0.125 A 
ATOM      9  C   UNL     1     -59.954 -52.287  34.611  1.00  0.00     0.078 A 
ATOM     10  C   UNL     1     -59.292 -51.769  35.729  1.00  0.00     0.223 A 
ENDROOT
BRANCH   1  11
ATOM     11  C   UNL     1     -58.504 -52.091  38.111  1.00  0.00     0.091 A 
ATOM     12  C   UNL     1     -59.134 -52.165  39.365  1.00  0.00     0.068 A 
ATOM     13  C   UNL     1     -58.474 -51.726  40.521  1.00  0.00     0.162 A 
ATOM     14  C   UNL     1     -57.190 -51.602  38.034  1.00  0.00     0.068 A 
ATOM     15  C   UNL     1     -57.168 -51.217  40.431  1.00  0.00     0.200 A 
ATOM     16  C   UNL     1     -56.527 -51.159  39.186  1.00  0.00     0.162 A 
BRANCH  13  17
ATOM     17  O   UNL     1     -59.110 -51.799  41.760  1.00  0.00    -0.504 OA
ATOM     18  H   UNL     1     -58.773 -51.278  42.561  1.00  0.00     0.293 HD
ENDBRANCH  13  17
BRANCH  15  19
ATOM     19  O   UNL     1     -56.492 -50.769  41.566  1.00  0.00    -0.502 OA
ATOM     20  H   UNL     1     -56.540 -49.807  41.877  1.00  0.00     0.293 HD
ENDBRANCH  15  19
BRANCH  16  21
ATOM     21  O   UNL     1     -55.228 -50.660  39.102  1.00  0.00    -0.504 OA
ATOM     22  H   UNL     1     -55.041 -49.664  39.086  1.00  0.00     0.293 HD
ENDBRANCH  16  21
ENDBRANCH   1  11
BRANCH  10  23
ATOM     23  O   UNL     1     -58.736 -50.490  35.682  1.00  0.00    -0.500 OA
ATOM     24  H   UNL     1     -58.934 -49.799  36.395  1.00  0.00     0.294 HD
ENDBRANCH  10  23
BRANCH   5  25
ATOM     25  O   UNL     1     -61.930 -57.520  34.872  1.00  0.00    -0.507 OA
ATOM     26  H   UNL     1     -61.309 -58.320  34.861  1.00  0.00     0.293 HD
ENDBRANCH   5  25
BRANCH   7  27
ATOM     27  O   UNL     1     -61.314 -53.428  32.371  1.00  0.00    -0.507 OA
ATOM     28  H   UNL     1     -61.956 -53.734  31.649  1.00  0.00     0.293 HD
ENDBRANCH   7  27
TORSDOF 7
ENDMDL
MODEL 8
REMARK VINA RESULT:    -5.320      6.938      9.453
REMARK INTER + INTRA:          -6.942
REMARK INTER:                  -7.148
REMARK INTRA:                   0.206
REMARK UNBOUND:                -0.378
REMARK SMILES Oc1cc(O)c2cc(O)c(-c3cc(O)c(O)c(O)c3)[o+]c2c1
REMARK SMILES IDX 10 1 20 2 21 3 22 4 2 5 3 6 4 7 6 8 7 9 8 10 11 11 12 12
REMARK SMILES IDX 13 13 19 14 15 15 17 16 14 17 16 19 18 21 9 23 1 25 5 27
REMARK H PARENT 14 18 16 20 18 22 9 24 1 26 5 28
REMARK Flexibility Score: inf
ROOT
ATOM      1  C   UNL     1     -58.345 -51.339  36.459  1.00  0.00     0.402 A 
ATOM      2  O   UNL     1     -57.165 -50.954  36.943  1.00  0.00    -0.202 OA
ATOM      3  C   UNL     1     -56.872 -50.963  38.239  1.00  0.00     0.368 A 
ATOM      4  C   UNL     1     -55.610 -50.538  38.666  1.00  0.00     0.162 A 
ATOM      5  C   UNL     1     -55.290 -50.540  40.030  1.00  0.00     0.128 A 
ATOM      6  C   UNL     1     -56.235 -50.969  40.968  1.00  0.00     0.093 A 
ATOM      7  C   UNL     1     -57.504 -51.400  40.554  1.00  0.00     0.136 A 
ATOM      8  C   UNL     1     -57.826 -51.397  39.183  1.00  0.00     0.125 A 
ATOM      9  C   UNL     1     -59.073 -51.823  38.713  1.00  0.00     0.078 A 
ATOM     10  C   UNL     1     -59.340 -51.808  37.340  1.00  0.00     0.223 A 
ENDROOT
BRANCH   1  11
ATOM     11  C   UNL     1     -58.556 -51.275  34.995  1.00  0.00     0.091 A 
ATOM     12  C   UNL     1     -59.414 -52.174  34.339  1.00  0.00     0.068 A 
ATOM     13  C   UNL     1     -59.620 -52.084  32.955  1.00  0.00     0.162 A 
ATOM     14  C   UNL     1     -57.931 -50.262  34.250  1.00  0.00     0.068 A 
ATOM     15  C   UNL     1     -58.972 -51.080  32.216  1.00  0.00     0.200 A 
ATOM     16  C   UNL     1     -58.130 -50.168  32.867  1.00  0.00     0.162 A 
BRANCH  13  17
ATOM     17  O   UNL     1     -60.469 -52.984  32.314  1.00  0.00    -0.504 OA
ATOM     18  H   UNL     1     -60.109 -53.780  31.800  1.00  0.00     0.293 HD
ENDBRANCH  13  17
BRANCH  15  19
ATOM     19  O   UNL     1     -59.156 -50.972  30.837  1.00  0.00    -0.502 OA
ATOM     20  H   UNL     1     -59.616 -51.695  30.297  1.00  0.00     0.293 HD
ENDBRANCH  15  19
BRANCH  16  21
ATOM     21  O   UNL     1     -57.496 -49.169  32.131  1.00  0.00    -0.504 OA
ATOM     22  H   UNL     1     -57.981 -48.322  31.858  1.00  0.00     0.293 HD
ENDBRANCH  16  21
ENDBRANCH   1  11
BRANCH  10  23
ATOM     23  O   UNL     1     -60.562 -52.279  36.860  1.00  0.00    -0.500 OA
ATOM     24  H   UNL     1     -61.105 -51.754  36.184  1.00  0.00     0.294 HD
ENDBRANCH  10  23
BRANCH   5  25
ATOM     25  O   UNL     1     -54.036 -50.117  40.465  1.00  0.00    -0.507 OA
ATOM     26  H   UNL     1     -53.737 -49.154  40.362  1.00  0.00     0.293 HD
ENDBRANCH   5  25
BRANCH   7  27
ATOM     27  O   UNL     1     -58.438 -51.827  41.499  1.00  0.00    -0.507 OA
ATOM     28  H   UNL     1     -58.522 -51.378  42.403  1.00  0.00     0.293 HD
ENDBRANCH   7  27
TORSDOF 7
ENDMDL
MODEL 9
REMARK VINA RESULT:    -5.276      7.040     11.415
REMARK INTER + INTRA:          -6.887
REMARK INTER:                  -6.567
REMARK INTRA:                  -0.321
REMARK UNBOUND:                -0.378
REMARK SMILES Oc1cc(O)c2cc(O)c(-c3cc(O)c(O)c(O)c3)[o+]c2c1
REMARK SMILES IDX 10 1 20 2 21 3 22 4 2 5 3 6 4 7 6 8 7 9 8 10 11 11 12 12
REMARK SMILES IDX 13 13 19 14 15 15 17 16 14 17 16 19 18 21 9 23 1 25 5 27
REMARK H PARENT 14 18 16 20 18 22 9 24 1 26 5 28
REMARK Flexibility Score: inf
ROOT
ATOM      1  C   UNL     1     -59.035 -52.181  39.393  1.00  0.00     0.402 A 
ATOM      2  O   UNL     1     -59.295 -53.016  38.389  1.00  0.00    -0.202 OA
ATOM      3  C   UNL     1     -60.330 -53.850  38.384  1.00  0.00     0.368 A 
ATOM      4  C   UNL     1     -60.530 -54.699  37.292  1.00  0.00     0.162 A 
ATOM      5  C   UNL     1     -61.615 -55.585  37.277  1.00  0.00     0.128 A 
ATOM      6  C   UNL     1     -62.503 -55.619  38.358  1.00  0.00     0.093 A 
ATOM      7  C   UNL     1     -62.316 -54.772  39.460  1.00  0.00     0.136 A 
ATOM      8  C   UNL     1     -61.224 -53.882  39.476  1.00  0.00     0.125 A 
ATOM      9  C   UNL     1     -60.993 -53.009  40.544  1.00  0.00     0.078 A 
ATOM     10  C   UNL     1     -59.899 -52.140  40.507  1.00  0.00     0.223 A 
ENDROOT
BRANCH   1  11
ATOM     11  C   UNL     1     -57.846 -51.306  39.287  1.00  0.00     0.091 A 
ATOM     12  C   UNL     1     -56.703 -51.525  40.074  1.00  0.00     0.068 A 
ATOM     13  C   UNL     1     -55.577 -50.700  39.943  1.00  0.00     0.162 A 
ATOM     14  C   UNL     1     -57.834 -50.268  38.341  1.00  0.00     0.068 A 
ATOM     15  C   UNL     1     -55.584 -49.650  39.010  1.00  0.00     0.200 A 
ATOM     16  C   UNL     1     -56.713 -49.439  38.208  1.00  0.00     0.162 A 
BRANCH  13  17
ATOM     17  O   UNL     1     -54.450 -50.923  40.733  1.00  0.00    -0.504 OA
ATOM     18  H   UNL     1     -54.406 -50.610  41.696  1.00  0.00     0.293 HD
ENDBRANCH  13  17
BRANCH  15  19
ATOM     19  O   UNL     1     -54.478 -48.812  38.864  1.00  0.00    -0.502 OA
ATOM     20  H   UNL     1     -54.530 -47.816  39.038  1.00  0.00     0.293 HD
ENDBRANCH  15  19
BRANCH  16  21
ATOM     21  O   UNL     1     -56.713 -48.401  37.277  1.00  0.00    -0.504 OA
ATOM     22  H   UNL     1     -57.026 -47.469  37.521  1.00  0.00     0.293 HD
ENDBRANCH  16  21
ENDBRANCH   1  11
BRANCH  10  23
ATOM     23  O   UNL     1     -59.691 -51.232  41.545  1.00  0.00    -0.500 OA
ATOM     24  H   UNL     1     -58.878 -50.629  41.569  1.00  0.00     0.294 HD
ENDBRANCH  10  23
BRANCH   5  25
ATOM     25  O   UNL     1     -61.822 -56.435  36.193  1.00  0.00    -0.507 OA
ATOM     26  H   UNL     1     -61.150 -57.154  35.949  1.00  0.00     0.293 HD
ENDBRANCH   5  25
BRANCH   7  27
ATOM     27  O   UNL     1     -63.209 -54.815  40.532  1.00  0.00    -0.507 OA
ATOM     28  H   UNL     1     -64.210 -54.879  40.387  1.00  0.00     0.293 HD
ENDBRANCH   7  27
TORSDOF 7
ENDMDL
