MODEL 1
REMARK VINA RESULT:    -0.294      0.000      0.000
REMARK INTER + INTRA:          -2.381
REMARK INTER:                  -0.741
REMARK INTRA:                  -1.639
REMARK UNBOUND:                -1.639
REMARK SMILES CCCCCCCCCCCCCCCCCCCCCCCCCCCC(=O)[O-]
REMARK SMILES IDX 15 1 16 2 17 3 18 4 19 5 20 6 21 7 22 8 23 9 24 10 25 11
REMARK SMILES IDX 26 12 27 13 28 14 29 15 30 16 14 17 13 18 12 19 11 20 10 21
REMARK SMILES IDX 9 22 8 23 7 24 6 25 5 26 4 27 3 28 2 29 1 30
REMARK H PARENT
REMARK Flexibility Score: inf
ROOT
ATOM      1  C   UNL     1      27.135  31.984  25.410  1.00  0.00     0.000 C 
ENDROOT
BRANCH   1   2
ATOM      2  C   UNL     1      28.067  31.107  24.559  1.00  0.00     0.000 C 
BRANCH   2   3
ATOM      3  C   UNL     1      27.718  29.623  24.742  1.00  0.00     0.000 C 
BRANCH   3   4
ATOM      4  C   UNL     1      26.398  29.227  24.060  1.00  0.00     0.000 C 
BRANCH   4   5
ATOM      5  C   UNL     1      26.122  27.715  24.007  1.00  0.00     0.000 C 
BRANCH   5   6
ATOM      6  C   UNL     1      27.358  26.889  23.615  1.00  0.00     0.000 C 
BRANCH   6   7
ATOM      7  C   UNL     1      27.624  25.771  24.631  1.00  0.00     0.000 C 
BRANCH   7   8
ATOM      8  C   UNL     1      26.514  24.711  24.585  1.00  0.00     0.000 C 
BRANCH   8   9
ATOM      9  C   UNL     1      27.037  23.297  24.921  1.00  0.00     0.000 C 
BRANCH   9  10
ATOM     10  C   UNL     1      26.915  22.307  23.748  1.00  0.00     0.000 C 
BRANCH  10  11
ATOM     11  C   UNL     1      26.417  22.923  22.425  1.00  0.00     0.000 C 
BRANCH  11  12
ATOM     12  C   UNL     1      25.087  22.331  21.912  1.00  0.00     0.006 C 
BRANCH  12  13
ATOM     13  C   UNL     1      23.891  23.275  22.094  1.00  0.00     0.053 C 
BRANCH  13  14
ATOM     14  C   UNL     1      24.059  24.497  21.246  1.00  0.00     0.041 C 
ATOM     15  O   UNL     1      24.238  24.386  20.003  1.00  0.00    -0.550 OA
ATOM     16  O   UNL     1      23.969  25.761  21.819  1.00  0.00    -0.550 OA
ENDBRANCH  13  14
ENDBRANCH  12  13
ENDBRANCH  11  12
ENDBRANCH  10  11
ENDBRANCH   9  10
ENDBRANCH   8   9
ENDBRANCH   7   8
ENDBRANCH   6   7
ENDBRANCH   5   6
ENDBRANCH   4   5
ENDBRANCH   3   4
ENDBRANCH   2   3
ENDBRANCH   1   2
BRANCH   1  17
ATOM     17  C   UNL     1      27.828  33.239  25.971  1.00  0.00     0.000 C 
BRANCH  17  18
ATOM     18  C   UNL     1      27.985  34.406  24.974  1.00  0.00     0.000 C 
BRANCH  18  19
ATOM     19  C   UNL     1      27.617  34.084  23.515  1.00  0.00     0.000 C 
BRANCH  19  20
ATOM     20  C   UNL     1      26.993  35.279  22.772  1.00  0.00     0.000 C 
BRANCH  20  21
ATOM     21  C   UNL     1      28.048  36.308  22.334  1.00  0.00     0.000 C 
BRANCH  21  22
ATOM     22  C   UNL     1      27.571  37.182  21.161  1.00  0.00    -0.000 C 
BRANCH  22  23
ATOM     23  C   UNL     1      28.119  38.620  21.223  1.00  0.00    -0.000 C 
BRANCH  23  24
ATOM     24  C   UNL     1      28.125  39.253  22.625  1.00  0.00    -0.000 C 
BRANCH  24  25
ATOM     25  C   UNL     1      27.713  40.731  22.614  1.00  0.00    -0.000 C 
BRANCH  25  26
ATOM     26  C   UNL     1      27.694  41.305  24.039  1.00  0.00    -0.000 C 
BRANCH  26  27
ATOM     27  C   UNL     1      28.125  40.280  25.103  1.00  0.00    -0.000 C 
BRANCH  27  28
ATOM     28  C   UNL     1      27.174  40.157  26.307  1.00  0.00    -0.000 C 
BRANCH  28  29
ATOM     29  C   UNL     1      26.451  38.803  26.363  1.00  0.00    -0.003 C 
ATOM     30  C   UNL     1      27.206  37.814  27.244  1.00  0.00     0.004 C 
ENDBRANCH  28  29
ENDBRANCH  27  28
ENDBRANCH  26  27
ENDBRANCH  25  26
ENDBRANCH  24  25
ENDBRANCH  23  24
ENDBRANCH  22  23
ENDBRANCH  21  22
ENDBRANCH  20  21
ENDBRANCH  19  20
ENDBRANCH  18  19
ENDBRANCH  17  18
ENDBRANCH   1  17
TORSDOF 26
ENDMDL
MODEL 2
REMARK VINA RESULT:     0.213      4.266     12.429
REMARK INTER + INTRA:          -1.102
REMARK INTER:                  -2.683
REMARK INTRA:                   1.581
REMARK UNBOUND:                -1.639
REMARK SMILES CCCCCCCCCCCCCCCCCCCCCCCCCCCC(=O)[O-]
REMARK SMILES IDX 15 1 16 2 17 3 18 4 19 5 20 6 21 7 22 8 23 9 24 10 25 11
REMARK SMILES IDX 26 12 27 13 28 14 29 15 30 16 14 17 13 18 12 19 11 20 10 21
REMARK SMILES IDX 9 22 8 23 7 24 6 25 5 26 4 27 3 28 2 29 1 30
REMARK H PARENT
REMARK Flexibility Score: inf
ROOT
ATOM      1  C   UNL     1      27.470  27.260  24.541  1.00  0.00     0.000 C 
ENDROOT
BRANCH   1   2
ATOM      2  C   UNL     1      26.501  26.711  23.482  1.00  0.00     0.000 C 
BRANCH   2   3
ATOM      3  C   UNL     1      25.771  27.864  22.778  1.00  0.00     0.000 C 
BRANCH   3   4
ATOM      4  C   UNL     1      25.904  29.203  23.522  1.00  0.00     0.000 C 
BRANCH   4   5
ATOM      5  C   UNL     1      27.348  29.648  23.807  1.00  0.00     0.000 C 
BRANCH   5   6
ATOM      6  C   UNL     1      27.636  29.839  25.304  1.00  0.00     0.000 C 
BRANCH   6   7
ATOM      7  C   UNL     1      28.124  31.263  25.599  1.00  0.00     0.000 C 
BRANCH   7   8
ATOM      8  C   UNL     1      27.470  32.276  24.648  1.00  0.00     0.000 C 
BRANCH   8   9
ATOM      9  C   UNL     1      28.116  33.675  24.744  1.00  0.00     0.000 C 
BRANCH   9  10
ATOM     10  C   UNL     1      27.828  34.566  23.522  1.00  0.00     0.000 C 
BRANCH  10  11
ATOM     11  C   UNL     1      27.486  36.033  23.852  1.00  0.00     0.000 C 
BRANCH  11  12
ATOM     12  C   UNL     1      28.116  37.062  22.889  1.00  0.00     0.006 C 
BRANCH  12  13
ATOM     13  C   UNL     1      27.078  37.867  22.097  1.00  0.00     0.053 C 
BRANCH  13  14
ATOM     14  C   UNL     1      27.660  39.176  21.659  1.00  0.00     0.041 C 
ATOM     15  O   UNL     1      28.002  40.035  22.515  1.00  0.00    -0.550 OA
ATOM     16  O   UNL     1      27.871  39.427  20.307  1.00  0.00    -0.550 OA
ENDBRANCH  13  14
ENDBRANCH  12  13
ENDBRANCH  11  12
ENDBRANCH  10  11
ENDBRANCH   9  10
ENDBRANCH   8   9
ENDBRANCH   7   8
ENDBRANCH   6   7
ENDBRANCH   5   6
ENDBRANCH   4   5
ENDBRANCH   3   4
ENDBRANCH   2   3
ENDBRANCH   1   2
BRANCH   1  17
ATOM     17  C   UNL     1      27.359  26.537  25.896  1.00  0.00     0.000 C 
BRANCH  17  18
ATOM     18  C   UNL     1      28.048  25.159  25.966  1.00  0.00     0.000 C 
BRANCH  18  19
ATOM     19  C   UNL     1      27.927  24.294  24.698  1.00  0.00     0.000 C 
BRANCH  19  20
ATOM     20  C   UNL     1      27.524  22.839  24.997  1.00  0.00     0.000 C 
BRANCH  20  21
ATOM     21  C   UNL     1      27.237  22.038  23.717  1.00  0.00     0.000 C 
BRANCH  21  22
ATOM     22  C   UNL     1      27.953  22.616  22.483  1.00  0.00    -0.000 C 
BRANCH  22  23
ATOM     23  C   UNL     1      26.979  23.204  21.446  1.00  0.00    -0.000 C 
BRANCH  23  24
ATOM     24  C   UNL     1      25.524  22.722  21.574  1.00  0.00    -0.000 C 
BRANCH  24  25
ATOM     25  C   UNL     1      24.643  23.689  22.377  1.00  0.00    -0.000 C 
BRANCH  25  26
ATOM     26  C   UNL     1      23.166  23.546  21.977  1.00  0.00    -0.000 C 
BRANCH  26  27
ATOM     27  C   UNL     1      22.878  24.067  20.558  1.00  0.00    -0.000 C 
BRANCH  27  28
ATOM     28  C   UNL     1      22.776  25.598  20.439  1.00  0.00    -0.000 C 
BRANCH  28  29
ATOM     29  C   UNL     1      23.354  26.333  21.658  1.00  0.00    -0.003 C 
ATOM     30  C   UNL     1      22.594  27.628  21.928  1.00  0.00     0.004 C 
ENDBRANCH  28  29
ENDBRANCH  27  28
ENDBRANCH  26  27
ENDBRANCH  25  26
ENDBRANCH  24  25
ENDBRANCH  23  24
ENDBRANCH  22  23
ENDBRANCH  21  22
ENDBRANCH  20  21
ENDBRANCH  19  20
ENDBRANCH  18  19
ENDBRANCH  17  18
ENDBRANCH   1  17
TORSDOF 26
ENDMDL
MODEL 3
REMARK VINA RESULT:     1.000      4.107     12.733
REMARK INTER + INTRA:           0.880
REMARK INTER:                  -0.601
REMARK INTRA:                   1.482
REMARK UNBOUND:                -1.639
REMARK SMILES CCCCCCCCCCCCCCCCCCCCCCCCCCCC(=O)[O-]
REMARK SMILES IDX 15 1 16 2 17 3 18 4 19 5 20 6 21 7 22 8 23 9 24 10 25 11
REMARK SMILES IDX 26 12 27 13 28 14 29 15 30 16 14 17 13 18 12 19 11 20 10 21
REMARK SMILES IDX 9 22 8 23 7 24 6 25 5 26 4 27 3 28 2 29 1 30
REMARK H PARENT
REMARK Flexibility Score: inf
ROOT
ATOM      1  C   UNL     1      27.457  27.272  24.530  1.00  0.00     0.000 C 
ENDROOT
BRANCH   1   2
ATOM      2  C   UNL     1      26.476  26.728  23.479  1.00  0.00     0.000 C 
BRANCH   2   3
ATOM      3  C   UNL     1      25.730  27.884  22.798  1.00  0.00     0.000 C 
BRANCH   3   4
ATOM      4  C   UNL     1      25.871  29.218  23.549  1.00  0.00     0.000 C 
BRANCH   4   5
ATOM      5  C   UNL     1      27.318  29.667  23.810  1.00  0.00     0.000 C 
BRANCH   5   6
ATOM      6  C   UNL     1      27.589  30.003  25.286  1.00  0.00     0.000 C 
BRANCH   6   7
ATOM      7  C   UNL     1      28.080  31.447  25.446  1.00  0.00     0.000 C 
BRANCH   7   8
ATOM      8  C   UNL     1      27.447  32.363  24.389  1.00  0.00     0.000 C 
BRANCH   8   9
ATOM      9  C   UNL     1      27.937  33.823  24.505  1.00  0.00     0.000 C 
BRANCH   9  10
ATOM     10  C   UNL     1      28.083  34.527  23.144  1.00  0.00     0.000 C 
BRANCH  10  11
ATOM     11  C   UNL     1      27.512  35.959  23.087  1.00  0.00     0.000 C 
BRANCH  11  12
ATOM     12  C   UNL     1      27.852  36.826  24.318  1.00  0.00     0.006 C 
BRANCH  12  13
ATOM     13  C   UNL     1      27.982  38.319  23.992  1.00  0.00     0.053 C 
BRANCH  13  14
ATOM     14  C   UNL     1      27.630  39.146  25.190  1.00  0.00     0.041 C 
ATOM     15  O   UNL     1      28.071  40.321  25.301  1.00  0.00    -0.550 OA
ATOM     16  O   UNL     1      26.772  38.637  26.159  1.00  0.00    -0.550 OA
ENDBRANCH  13  14
ENDBRANCH  12  13
ENDBRANCH  11  12
ENDBRANCH  10  11
ENDBRANCH   9  10
ENDBRANCH   8   9
ENDBRANCH   7   8
ENDBRANCH   6   7
ENDBRANCH   5   6
ENDBRANCH   4   5
ENDBRANCH   3   4
ENDBRANCH   2   3
ENDBRANCH   1   2
BRANCH   1  17
ATOM     17  C   UNL     1      27.372  26.534  25.878  1.00  0.00     0.000 C 
BRANCH  17  18
ATOM     18  C   UNL     1      28.088  25.168  25.929  1.00  0.00     0.000 C 
BRANCH  18  19
ATOM     19  C   UNL     1      28.120  24.389  24.602  1.00  0.00     0.000 C 
BRANCH  19  20
ATOM     20  C   UNL     1      27.751  22.904  24.766  1.00  0.00     0.000 C 
BRANCH  20  21
ATOM     21  C   UNL     1      27.270  22.273  23.449  1.00  0.00     0.000 C 
BRANCH  21  22
ATOM     22  C   UNL     1      27.972  22.869  22.216  1.00  0.00    -0.000 C 
BRANCH  22  23
ATOM     23  C   UNL     1      27.082  23.857  21.439  1.00  0.00    -0.000 C 
BRANCH  23  24
ATOM     24  C   UNL     1      25.569  23.626  21.592  1.00  0.00    -0.000 C 
BRANCH  24  25
ATOM     25  C   UNL     1      24.843  24.821  22.226  1.00  0.00    -0.000 C 
BRANCH  25  26
ATOM     26  C   UNL     1      23.405  24.932  21.697  1.00  0.00    -0.000 C 
BRANCH  26  27
ATOM     27  C   UNL     1      22.948  23.675  20.936  1.00  0.00    -0.000 C 
BRANCH  27  28
ATOM     28  C   UNL     1      22.408  22.540  21.825  1.00  0.00    -0.000 C 
BRANCH  28  29
ATOM     29  C   UNL     1      22.275  22.947  23.301  1.00  0.00    -0.003 C 
ATOM     30  C   UNL     1      21.361  21.987  24.054  1.00  0.00     0.004 C 
ENDBRANCH  28  29
ENDBRANCH  27  28
ENDBRANCH  26  27
ENDBRANCH  25  26
ENDBRANCH  24  25
ENDBRANCH  23  24
ENDBRANCH  22  23
ENDBRANCH  21  22
ENDBRANCH  20  21
ENDBRANCH  19  20
ENDBRANCH  18  19
ENDBRANCH  17  18
ENDBRANCH   1  17
TORSDOF 26
ENDMDL
MODEL 4
REMARK VINA RESULT:     2.179      1.946      5.482
REMARK INTER + INTRA:           3.853
REMARK INTER:                   4.929
REMARK INTRA:                  -1.076
REMARK UNBOUND:                -1.639
REMARK SMILES CCCCCCCCCCCCCCCCCCCCCCCCCCCC(=O)[O-]
REMARK SMILES IDX 15 1 16 2 17 3 18 4 19 5 20 6 21 7 22 8 23 9 24 10 25 11
REMARK SMILES IDX 26 12 27 13 28 14 29 15 30 16 14 17 13 18 12 19 11 20 10 21
REMARK SMILES IDX 9 22 8 23 7 24 6 25 5 26 4 27 3 28 2 29 1 30
REMARK H PARENT
REMARK Flexibility Score: inf
ROOT
ATOM      1  C   UNL     1      24.001  26.932  22.059  1.00  0.00     0.000 C 
ENDROOT
BRANCH   1   2
ATOM      2  C   UNL     1      24.428  25.474  21.826  1.00  0.00     0.000 C 
BRANCH   2   3
ATOM      3  C   UNL     1      23.614  24.857  20.680  1.00  0.00     0.000 C 
BRANCH   3   4
ATOM      4  C   UNL     1      22.992  23.500  21.047  1.00  0.00     0.000 C 
BRANCH   4   5
ATOM      5  C   UNL     1      22.381  23.425  22.456  1.00  0.00     0.000 C 
BRANCH   5   6
ATOM      6  C   UNL     1      22.910  22.241  23.282  1.00  0.00     0.000 C 
BRANCH   6   7
ATOM      7  C   UNL     1      24.344  21.877  22.875  1.00  0.00     0.000 C 
BRANCH   7   8
ATOM      8  C   UNL     1      25.364  22.761  23.607  1.00  0.00     0.000 C 
BRANCH   8   9
ATOM      9  C   UNL     1      26.811  22.245  23.448  1.00  0.00     0.000 C 
BRANCH   9  10
ATOM     10  C   UNL     1      27.833  23.365  23.182  1.00  0.00     0.000 C 
BRANCH  10  11
ATOM     11  C   UNL     1      28.051  23.708  21.695  1.00  0.00     0.000 C 
BRANCH  11  12
ATOM     12  C   UNL     1      27.339  22.753  20.713  1.00  0.00     0.006 C 
BRANCH  12  13
ATOM     13  C   UNL     1      26.812  23.456  19.455  1.00  0.00     0.053 C 
BRANCH  13  14
ATOM     14  C   UNL     1      27.356  24.849  19.372  1.00  0.00     0.041 C 
ATOM     15  O   UNL     1      27.863  25.268  18.297  1.00  0.00    -0.550 OA
ATOM     16  O   UNL     1      27.258  25.702  20.466  1.00  0.00    -0.550 OA
ENDBRANCH  13  14
ENDBRANCH  12  13
ENDBRANCH  11  12
ENDBRANCH  10  11
ENDBRANCH   9  10
ENDBRANCH   8   9
ENDBRANCH   7   8
ENDBRANCH   6   7
ENDBRANCH   5   6
ENDBRANCH   4   5
ENDBRANCH   3   4
ENDBRANCH   2   3
ENDBRANCH   1   2
BRANCH   1  17
ATOM     17  C   UNL     1      24.998  27.725  22.922  1.00  0.00     0.000 C 
BRANCH  17  18
ATOM     18  C   UNL     1      26.459  27.233  22.863  1.00  0.00     0.000 C 
BRANCH  18  19
ATOM     19  C   UNL     1      27.519  28.250  23.322  1.00  0.00     0.000 C 
BRANCH  19  20
ATOM     20  C   UNL     1      27.191  28.889  24.683  1.00  0.00     0.000 C 
BRANCH  20  21
ATOM     21  C   UNL     1      27.950  30.208  24.907  1.00  0.00     0.000 C 
BRANCH  21  22
ATOM     22  C   UNL     1      27.020  31.364  25.313  1.00  0.00    -0.000 C 
BRANCH  22  23
ATOM     23  C   UNL     1      27.410  32.704  24.663  1.00  0.00    -0.000 C 
BRANCH  23  24
ATOM     24  C   UNL     1      27.935  33.771  25.639  1.00  0.00    -0.000 C 
BRANCH  24  25
ATOM     25  C   UNL     1      26.996  34.979  25.764  1.00  0.00    -0.000 C 
BRANCH  25  26
ATOM     26  C   UNL     1      27.761  36.220  26.248  1.00  0.00    -0.000 C 
BRANCH  26  27
ATOM     27  C   UNL     1      28.121  37.184  25.103  1.00  0.00    -0.000 C 
BRANCH  27  28
ATOM     28  C   UNL     1      27.790  36.666  23.692  1.00  0.00    -0.000 C 
BRANCH  28  29
ATOM     29  C   UNL     1      27.756  37.781  22.637  1.00  0.00    -0.003 C 
ATOM     30  C   UNL     1      26.655  38.792  22.943  1.00  0.00     0.004 C 
ENDBRANCH  28  29
ENDBRANCH  27  28
ENDBRANCH  26  27
ENDBRANCH  25  26
ENDBRANCH  24  25
ENDBRANCH  23  24
ENDBRANCH  22  23
ENDBRANCH  21  22
ENDBRANCH  20  21
ENDBRANCH  19  20
ENDBRANCH  18  19
ENDBRANCH  17  18
ENDBRANCH   1  17
TORSDOF 26
ENDMDL
MODEL 5
REMARK VINA RESULT:     2.441      4.319     13.125
REMARK INTER + INTRA:           4.512
REMARK INTER:                   4.367
REMARK INTRA:                   0.144
REMARK UNBOUND:                -1.639
REMARK SMILES CCCCCCCCCCCCCCCCCCCCCCCCCCCC(=O)[O-]
REMARK SMILES IDX 15 1 16 2 17 3 18 4 19 5 20 6 21 7 22 8 23 9 24 10 25 11
REMARK SMILES IDX 26 12 27 13 28 14 29 15 30 16 14 17 13 18 12 19 11 20 10 21
REMARK SMILES IDX 9 22 8 23 7 24 6 25 5 26 4 27 3 28 2 29 1 30
REMARK H PARENT
REMARK Flexibility Score: inf
ROOT
ATOM      1  C   UNL     1      27.304  27.743  22.890  1.00  0.00     0.000 C 
ENDROOT
BRANCH   1   2
ATOM      2  C   UNL     1      28.115  28.757  23.712  1.00  0.00     0.000 C 
BRANCH   2   3
ATOM      3  C   UNL     1      27.218  29.920  24.159  1.00  0.00     0.000 C 
BRANCH   3   4
ATOM      4  C   UNL     1      28.007  31.201  24.475  1.00  0.00     0.000 C 
BRANCH   4   5
ATOM      5  C   UNL     1      27.179  32.497  24.449  1.00  0.00     0.000 C 
BRANCH   5   6
ATOM      6  C   UNL     1      26.389  32.735  25.746  1.00  0.00     0.000 C 
BRANCH   6   7
ATOM      7  C   UNL     1      27.078  33.780  26.633  1.00  0.00     0.000 C 
BRANCH   7   8
ATOM      8  C   UNL     1      28.123  34.574  25.836  1.00  0.00     0.000 C 
BRANCH   8   9
ATOM      9  C   UNL     1      27.885  36.098  25.911  1.00  0.00     0.000 C 
BRANCH   9  10
ATOM     10  C   UNL     1      28.098  36.816  24.566  1.00  0.00     0.000 C 
BRANCH  10  11
ATOM     11  C   UNL     1      26.955  37.759  24.142  1.00  0.00     0.000 C 
BRANCH  11  12
ATOM     12  C   UNL     1      27.297  39.260  24.253  1.00  0.00     0.006 C 
BRANCH  12  13
ATOM     13  C   UNL     1      27.905  39.647  25.607  1.00  0.00     0.053 C 
BRANCH  13  14
ATOM     14  C   UNL     1      26.936  39.361  26.712  1.00  0.00     0.041 C 
ATOM     15  O   UNL     1      27.291  38.664  27.701  1.00  0.00    -0.550 OA
ATOM     16  O   UNL     1      25.657  39.905  26.676  1.00  0.00    -0.550 OA
ENDBRANCH  13  14
ENDBRANCH  12  13
ENDBRANCH  11  12
ENDBRANCH  10  11
ENDBRANCH   9  10
ENDBRANCH   8   9
ENDBRANCH   7   8
ENDBRANCH   6   7
ENDBRANCH   5   6
ENDBRANCH   4   5
ENDBRANCH   3   4
ENDBRANCH   2   3
ENDBRANCH   1   2
BRANCH   1  17
ATOM     17  C   UNL     1      28.056  26.423  22.643  1.00  0.00     0.000 C 
BRANCH  17  18
ATOM     18  C   UNL     1      27.221  25.300  21.993  1.00  0.00     0.000 C 
BRANCH  18  19
ATOM     19  C   UNL     1      26.002  25.769  21.179  1.00  0.00     0.000 C 
BRANCH  19  20
ATOM     20  C   UNL     1      24.665  25.278  21.759  1.00  0.00     0.000 C 
BRANCH  20  21
ATOM     21  C   UNL     1      24.375  23.811  21.399  1.00  0.00     0.000 C 
BRANCH  21  22
ATOM     22  C   UNL     1      24.936  22.824  22.438  1.00  0.00    -0.000 C 
BRANCH  22  23
ATOM     23  C   UNL     1      26.018  21.895  21.859  1.00  0.00    -0.000 C 
BRANCH  23  24
ATOM     24  C   UNL     1      27.464  22.283  22.214  1.00  0.00    -0.000 C 
BRANCH  24  25
ATOM     25  C   UNL     1      27.697  22.402  23.726  1.00  0.00    -0.000 C 
BRANCH  25  26
ATOM     26  C   UNL     1      27.928  23.866  24.132  1.00  0.00    -0.000 C 
BRANCH  26  27
ATOM     27  C   UNL     1      28.124  24.042  25.648  1.00  0.00    -0.000 C 
BRANCH  27  28
ATOM     28  C   UNL     1      26.826  24.247  26.449  1.00  0.00    -0.000 C 
BRANCH  28  29
ATOM     29  C   UNL     1      26.684  23.263  27.620  1.00  0.00    -0.003 C 
ATOM     30  C   UNL     1      25.813  22.072  27.232  1.00  0.00     0.004 C 
ENDBRANCH  28  29
ENDBRANCH  27  28
ENDBRANCH  26  27
ENDBRANCH  25  26
ENDBRANCH  24  25
ENDBRANCH  23  24
ENDBRANCH  22  23
ENDBRANCH  21  22
ENDBRANCH  20  21
ENDBRANCH  19  20
ENDBRANCH  18  19
ENDBRANCH  17  18
ENDBRANCH   1  17
TORSDOF 26
ENDMDL
MODEL 6
REMARK VINA RESULT:     2.481      3.643     12.766
REMARK INTER + INTRA:           4.613
REMARK INTER:                   5.504
REMARK INTRA:                  -0.891
REMARK UNBOUND:                -1.639
REMARK SMILES CCCCCCCCCCCCCCCCCCCCCCCCCCCC(=O)[O-]
REMARK SMILES IDX 15 1 16 2 17 3 18 4 19 5 20 6 21 7 22 8 23 9 24 10 25 11
REMARK SMILES IDX 26 12 27 13 28 14 29 15 30 16 14 17 13 18 12 19 11 20 10 21
REMARK SMILES IDX 9 22 8 23 7 24 6 25 5 26 4 27 3 28 2 29 1 30
REMARK H PARENT
REMARK Flexibility Score: inf
ROOT
ATOM      1  C   UNL     1      27.199  27.627  23.135  1.00  0.00     0.000 C 
ENDROOT
BRANCH   1   2
ATOM      2  C   UNL     1      28.035  28.542  24.042  1.00  0.00     0.000 C 
BRANCH   2   3
ATOM      3  C   UNL     1      27.149  29.630  24.665  1.00  0.00     0.000 C 
BRANCH   3   4
ATOM      4  C   UNL     1      27.938  30.878  25.094  1.00  0.00     0.000 C 
BRANCH   4   5
ATOM      5  C   UNL     1      27.301  32.219  24.695  1.00  0.00     0.000 C 
BRANCH   5   6
ATOM      6  C   UNL     1      26.200  32.676  25.665  1.00  0.00     0.000 C 
BRANCH   6   7
ATOM      7  C   UNL     1      26.690  33.819  26.564  1.00  0.00     0.000 C 
BRANCH   7   8
ATOM      8  C   UNL     1      28.053  34.344  26.091  1.00  0.00     0.000 C 
BRANCH   8   9
ATOM      9  C   UNL     1      27.922  35.385  24.959  1.00  0.00     0.000 C 
BRANCH   9  10
ATOM     10  C   UNL     1      27.321  36.723  25.426  1.00  0.00     0.000 C 
BRANCH  10  11
ATOM     11  C   UNL     1      27.996  37.980  24.841  1.00  0.00     0.000 C 
BRANCH  11  12
ATOM     12  C   UNL     1      27.009  39.044  24.317  1.00  0.00     0.006 C 
BRANCH  12  13
ATOM     13  C   UNL     1      26.198  38.576  23.102  1.00  0.00     0.053 C 
BRANCH  13  14
ATOM     14  C   UNL     1      27.115  38.098  22.018  1.00  0.00     0.041 C 
ATOM     15  O   UNL     1      26.982  36.940  21.542  1.00  0.00    -0.550 OA
ATOM     16  O   UNL     1      28.083  38.951  21.499  1.00  0.00    -0.550 OA
ENDBRANCH  13  14
ENDBRANCH  12  13
ENDBRANCH  11  12
ENDBRANCH  10  11
ENDBRANCH   9  10
ENDBRANCH   8   9
ENDBRANCH   7   8
ENDBRANCH   6   7
ENDBRANCH   5   6
ENDBRANCH   4   5
ENDBRANCH   3   4
ENDBRANCH   2   3
ENDBRANCH   1   2
BRANCH   1  17
ATOM     17  C   UNL     1      27.919  26.318  22.765  1.00  0.00     0.000 C 
BRANCH  17  18
ATOM     18  C   UNL     1      27.133  25.372  21.833  1.00  0.00     0.000 C 
BRANCH  18  19
ATOM     19  C   UNL     1      25.934  26.008  21.106  1.00  0.00     0.000 C 
BRANCH  19  20
ATOM     20  C   UNL     1      24.627  25.926  21.914  1.00  0.00     0.000 C 
BRANCH  20  21
ATOM     21  C   UNL     1      23.834  24.643  21.612  1.00  0.00     0.000 C 
BRANCH  21  22
ATOM     22  C   UNL     1      24.174  23.495  22.577  1.00  0.00    -0.000 C 
BRANCH  22  23
ATOM     23  C   UNL     1      24.841  22.298  21.874  1.00  0.00    -0.000 C 
BRANCH  23  24
ATOM     24  C   UNL     1      26.379  22.308  21.893  1.00  0.00    -0.000 C 
BRANCH  24  25
ATOM     25  C   UNL     1      26.961  22.010  23.281  1.00  0.00    -0.000 C 
BRANCH  25  26
ATOM     26  C   UNL     1      26.756  23.202  24.229  1.00  0.00    -0.000 C 
BRANCH  26  27
ATOM     27  C   UNL     1      27.117  22.873  25.688  1.00  0.00    -0.000 C 
BRANCH  27  28
ATOM     28  C   UNL     1      27.290  24.098  26.604  1.00  0.00    -0.000 C 
BRANCH  28  29
ATOM     29  C   UNL     1      26.740  23.870  28.020  1.00  0.00    -0.003 C 
ATOM     30  C   UNL     1      26.227  22.444  28.186  1.00  0.00     0.004 C 
ENDBRANCH  28  29
ENDBRANCH  27  28
ENDBRANCH  26  27
ENDBRANCH  25  26
ENDBRANCH  24  25
ENDBRANCH  23  24
ENDBRANCH  22  23
ENDBRANCH  21  22
ENDBRANCH  20  21
ENDBRANCH  19  20
ENDBRANCH  18  19
ENDBRANCH  17  18
ENDBRANCH   1  17
TORSDOF 26
ENDMDL
MODEL 7
REMARK VINA RESULT:     2.488      5.704      9.396
REMARK INTER + INTRA:           4.632
REMARK INTER:                   5.762
REMARK INTRA:                  -1.131
REMARK UNBOUND:                -1.639
REMARK SMILES CCCCCCCCCCCCCCCCCCCCCCCCCCCC(=O)[O-]
REMARK SMILES IDX 15 1 16 2 17 3 18 4 19 5 20 6 21 7 22 8 23 9 24 10 25 11
REMARK SMILES IDX 26 12 27 13 28 14 29 15 30 16 14 17 13 18 12 19 11 20 10 21
REMARK SMILES IDX 9 22 8 23 7 24 6 25 5 26 4 27 3 28 2 29 1 30
REMARK H PARENT
REMARK Flexibility Score: inf
ROOT
ATOM      1  C   UNL     1      23.565  26.997  22.024  1.00  0.00     0.000 C 
ENDROOT
BRANCH   1   2
ATOM      2  C   UNL     1      24.244  25.704  21.545  1.00  0.00     0.000 C 
BRANCH   2   3
ATOM      3  C   UNL     1      23.561  25.183  20.272  1.00  0.00     0.000 C 
BRANCH   3   4
ATOM      4  C   UNL     1      22.668  23.957  20.527  1.00  0.00     0.000 C 
BRANCH   4   5
ATOM      5  C   UNL     1      22.069  23.872  21.941  1.00  0.00     0.000 C 
BRANCH   5   6
ATOM      6  C   UNL     1      22.510  22.615  22.709  1.00  0.00     0.000 C 
BRANCH   6   7
ATOM      7  C   UNL     1      23.884  22.126  22.231  1.00  0.00     0.000 C 
BRANCH   7   8
ATOM      8  C   UNL     1      25.006  22.699  23.108  1.00  0.00     0.000 C 
BRANCH   8   9
ATOM      9  C   UNL     1      26.313  21.883  22.999  1.00  0.00     0.000 C 
BRANCH   9  10
ATOM     10  C   UNL     1      27.582  22.738  23.168  1.00  0.00     0.000 C 
BRANCH  10  11
ATOM     11  C   UNL     1      28.125  23.363  21.867  1.00  0.00     0.000 C 
BRANCH  11  12
ATOM     12  C   UNL     1      27.969  22.467  20.620  1.00  0.00     0.006 C 
BRANCH  12  13
ATOM     13  C   UNL     1      28.107  23.234  19.299  1.00  0.00     0.053 C 
BRANCH  13  14
ATOM     14  C   UNL     1      27.078  24.319  19.217  1.00  0.00     0.041 C 
ATOM     15  O   UNL     1      27.253  25.406  19.829  1.00  0.00    -0.550 OA
ATOM     16  O   UNL     1      25.948  24.148  18.424  1.00  0.00    -0.550 OA
ENDBRANCH  13  14
ENDBRANCH  12  13
ENDBRANCH  11  12
ENDBRANCH  10  11
ENDBRANCH   9  10
ENDBRANCH   8   9
ENDBRANCH   7   8
ENDBRANCH   6   7
ENDBRANCH   5   6
ENDBRANCH   4   5
ENDBRANCH   3   4
ENDBRANCH   2   3
ENDBRANCH   1   2
BRANCH   1  17
ATOM     17  C   UNL     1      24.462  27.849  22.940  1.00  0.00     0.000 C 
BRANCH  17  18
ATOM     18  C   UNL     1      23.909  29.245  23.291  1.00  0.00     0.000 C 
BRANCH  18  19
ATOM     19  C   UNL     1      24.598  29.952  24.472  1.00  0.00     0.000 C 
BRANCH  19  20
ATOM     20  C   UNL     1      26.095  30.210  24.229  1.00  0.00     0.000 C 
BRANCH  20  21
ATOM     21  C   UNL     1      26.905  30.229  25.536  1.00  0.00     0.000 C 
BRANCH  21  22
ATOM     22  C   UNL     1      28.113  29.276  25.499  1.00  0.00    -0.000 C 
BRANCH  22  23
ATOM     23  C   UNL     1      27.801  27.940  24.801  1.00  0.00    -0.000 C 
BRANCH  23  24
ATOM     24  C   UNL     1      28.125  26.684  25.628  1.00  0.00    -0.000 C 
BRANCH  24  25
ATOM     25  C   UNL     1      27.393  25.432  25.125  1.00  0.00    -0.000 C 
BRANCH  25  26
ATOM     26  C   UNL     1      27.506  24.286  26.142  1.00  0.00    -0.000 C 
BRANCH  26  27
ATOM     27  C   UNL     1      26.416  23.215  25.958  1.00  0.00    -0.000 C 
BRANCH  27  28
ATOM     28  C   UNL     1      26.634  21.924  26.767  1.00  0.00    -0.000 C 
BRANCH  28  29
ATOM     29  C   UNL     1      26.358  22.104  28.268  1.00  0.00    -0.003 C 
ATOM     30  C   UNL     1      25.885  23.522  28.572  1.00  0.00     0.004 C 
ENDBRANCH  28  29
ENDBRANCH  27  28
ENDBRANCH  26  27
ENDBRANCH  25  26
ENDBRANCH  24  25
ENDBRANCH  23  24
ENDBRANCH  22  23
ENDBRANCH  21  22
ENDBRANCH  20  21
ENDBRANCH  19  20
ENDBRANCH  18  19
ENDBRANCH  17  18
ENDBRANCH   1  17
TORSDOF 26
ENDMDL
