MODEL 1
REMARK VINA RESULT:    -4.389      0.000      0.000
REMARK INTER + INTRA:          -5.773
REMARK INTER:                  -5.415
REMARK INTRA:                  -0.358
REMARK UNBOUND:                -0.358
REMARK SMILES Oc1cc(O)c2cc(O)c(-c3cc(O)c(O)c(O)c3)[o+]c2c1
REMARK SMILES IDX 10 1 20 2 21 3 22 4 2 5 3 6 4 7 6 8 7 9 8 10 11 11 12 12
REMARK SMILES IDX 13 13 19 14 15 15 17 16 14 17 16 19 18 21 9 23 1 25 5 27
REMARK H PARENT 14 18 16 20 18 22 9 24 1 26 5 28
REMARK Flexibility Score: inf
ROOT
ATOM      1  C   UNL     1       9.511  37.615  22.500  1.00  0.00     0.402 A 
ATOM      2  O   UNL     1       9.796  36.900  23.584  1.00  0.00    -0.202 OA
ATOM      3  C   UNL     1      10.162  37.443  24.741  1.00  0.00     0.368 A 
ATOM      4  C   UNL     1      10.438  36.609  25.827  1.00  0.00     0.162 A 
ATOM      5  C   UNL     1      10.822  37.151  27.054  1.00  0.00     0.128 A 
ATOM      6  C   UNL     1      10.928  38.540  27.199  1.00  0.00     0.093 A 
ATOM      7  C   UNL     1      10.656  39.397  26.127  1.00  0.00     0.136 A 
ATOM      8  C   UNL     1      10.268  38.849  24.876  1.00  0.00     0.125 A 
ATOM      9  C   UNL     1       9.990  39.630  23.743  1.00  0.00     0.078 A 
ATOM     10  C   UNL     1       9.618  39.017  22.542  1.00  0.00     0.223 A 
ENDROOT
BRANCH   1  11
ATOM     11  C   UNL     1       9.105  36.892  21.272  1.00  0.00     0.091 A 
ATOM     12  C   UNL     1       7.746  36.818  20.931  1.00  0.00     0.068 A 
ATOM     13  C   UNL     1       7.337  36.159  19.768  1.00  0.00     0.162 A 
ATOM     14  C   UNL     1      10.059  36.326  20.408  1.00  0.00     0.068 A 
ATOM     15  C   UNL     1       8.292  35.576  18.919  1.00  0.00     0.200 A 
ATOM     16  C   UNL     1       9.657  35.665  19.239  1.00  0.00     0.162 A 
BRANCH  13  17
ATOM     17  O   UNL     1       5.975  36.095  19.474  1.00  0.00    -0.504 OA
ATOM     18  H   UNL     1       5.608  36.338  18.560  1.00  0.00     0.293 HD
ENDBRANCH  13  17
BRANCH  15  19
ATOM     19  O   UNL     1       7.874  34.917  17.760  1.00  0.00    -0.502 OA
ATOM     20  H   UNL     1       7.995  35.318  16.838  1.00  0.00     0.293 HD
ENDBRANCH  15  19
BRANCH  16  21
ATOM     21  O   UNL     1      10.611  35.101  18.394  1.00  0.00    -0.504 OA
ATOM     22  H   UNL     1      10.397  34.864  17.432  1.00  0.00     0.293 HD
ENDBRANCH  16  21
ENDBRANCH   1  11
BRANCH  10  23
ATOM     23  O   UNL     1       9.389  39.790  21.404  1.00  0.00    -0.500 OA
ATOM     24  H   UNL     1       9.096  39.374  20.528  1.00  0.00     0.294 HD
ENDBRANCH  10  23
BRANCH   5  25
ATOM     25  O   UNL     1      11.094  36.303  28.125  1.00  0.00    -0.507 OA
ATOM     26  H   UNL     1      10.420  36.152  28.867  1.00  0.00     0.293 HD
ENDBRANCH   5  25
BRANCH   7  27
ATOM     27  O   UNL     1      10.782  40.771  26.352  1.00  0.00    -0.507 OA
ATOM     28  H   UNL     1      11.625  41.221  26.677  1.00  0.00     0.293 HD
ENDBRANCH   7  27
TORSDOF 7
ENDMDL
MODEL 2
REMARK VINA RESULT:    -4.312      0.241      1.809
REMARK INTER + INTRA:          -5.678
REMARK INTER:                  -5.318
REMARK INTRA:                  -0.360
REMARK UNBOUND:                -0.358
REMARK SMILES Oc1cc(O)c2cc(O)c(-c3cc(O)c(O)c(O)c3)[o+]c2c1
REMARK SMILES IDX 10 1 20 2 21 3 22 4 2 5 3 6 4 7 6 8 7 9 8 10 11 11 12 12
REMARK SMILES IDX 13 13 19 14 15 15 17 16 14 17 16 19 18 21 9 23 1 25 5 27
REMARK H PARENT 14 18 16 20 18 22 9 24 1 26 5 28
REMARK Flexibility Score: inf
ROOT
ATOM      1  C   UNL     1       9.427  37.536  22.593  1.00  0.00     0.402 A 
ATOM      2  O   UNL     1       9.715  36.759  23.634  1.00  0.00    -0.202 OA
ATOM      3  C   UNL     1      10.093  37.234  24.816  1.00  0.00     0.368 A 
ATOM      4  C   UNL     1      10.370  36.338  25.852  1.00  0.00     0.162 A 
ATOM      5  C   UNL     1      10.767  36.808  27.104  1.00  0.00     0.128 A 
ATOM      6  C   UNL     1      10.886  38.186  27.325  1.00  0.00     0.093 A 
ATOM      7  C   UNL     1      10.613  39.103  26.305  1.00  0.00     0.136 A 
ATOM      8  C   UNL     1      10.212  38.629  25.028  1.00  0.00     0.125 A 
ATOM      9  C   UNL     1       9.932  39.475  23.943  1.00  0.00     0.078 A 
ATOM     10  C   UNL     1       9.547  38.932  22.713  1.00  0.00     0.223 A 
ENDROOT
BRANCH   1  11
ATOM     11  C   UNL     1       9.007  36.886  21.330  1.00  0.00     0.091 A 
ATOM     12  C   UNL     1       9.966  36.247  20.530  1.00  0.00     0.068 A 
ATOM     13  C   UNL     1       9.595  35.609  19.342  1.00  0.00     0.162 A 
ATOM     14  C   UNL     1       7.657  36.846  20.942  1.00  0.00     0.068 A 
ATOM     15  C   UNL     1       8.247  35.590  18.948  1.00  0.00     0.200 A 
ATOM     16  C   UNL     1       7.275  36.207  19.754  1.00  0.00     0.162 A 
BRANCH  13  17
ATOM     17  O   UNL     1      10.582  34.999  18.568  1.00  0.00    -0.504 OA
ATOM     18  H   UNL     1      11.489  35.425  18.417  1.00  0.00     0.293 HD
ENDBRANCH  13  17
BRANCH  15  19
ATOM     19  O   UNL     1       7.885  34.952  17.759  1.00  0.00    -0.502 OA
ATOM     20  H   UNL     1       6.997  35.124  17.304  1.00  0.00     0.293 HD
ENDBRANCH  15  19
BRANCH  16  21
ATOM     21  O   UNL     1       5.934  36.179  19.377  1.00  0.00    -0.504 OA
ATOM     22  H   UNL     1       5.349  35.369  19.548  1.00  0.00     0.293 HD
ENDBRANCH  16  21
ENDBRANCH   1  11
BRANCH  10  23
ATOM     23  O   UNL     1       9.315  39.769  21.621  1.00  0.00    -0.500 OA
ATOM     24  H   UNL     1       9.565  40.751  21.641  1.00  0.00     0.294 HD
ENDBRANCH  10  23
BRANCH   5  25
ATOM     25  O   UNL     1      11.040  35.899  28.124  1.00  0.00    -0.507 OA
ATOM     26  H   UNL     1      11.769  35.202  28.031  1.00  0.00     0.293 HD
ENDBRANCH   5  25
BRANCH   7  27
ATOM     27  O   UNL     1      10.752  40.462  26.606  1.00  0.00    -0.507 OA
ATOM     28  H   UNL     1       9.986  41.117  26.652  1.00  0.00     0.293 HD
ENDBRANCH   7  27
TORSDOF 7
ENDMDL
MODEL 3
REMARK VINA RESULT:    -4.124      1.079      2.604
REMARK INTER + INTRA:          -5.445
REMARK INTER:                  -5.061
REMARK INTRA:                  -0.384
REMARK UNBOUND:                -0.358
REMARK SMILES Oc1cc(O)c2cc(O)c(-c3cc(O)c(O)c(O)c3)[o+]c2c1
REMARK SMILES IDX 10 1 20 2 21 3 22 4 2 5 3 6 4 7 6 8 7 9 8 10 11 11 12 12
REMARK SMILES IDX 13 13 19 14 15 15 17 16 14 17 16 19 18 21 9 23 1 25 5 27
REMARK H PARENT 14 18 16 20 18 22 9 24 1 26 5 28
REMARK Flexibility Score: inf
ROOT
ATOM      1  C   UNL     1       9.446  37.076  22.752  1.00  0.00     0.402 A 
ATOM      2  O   UNL     1       9.729  38.372  22.842  1.00  0.00    -0.202 OA
ATOM      3  C   UNL     1      10.131  38.956  23.966  1.00  0.00     0.368 A 
ATOM      4  C   UNL     1      10.409  40.326  23.960  1.00  0.00     0.162 A 
ATOM      5  C   UNL     1      10.835  40.964  25.126  1.00  0.00     0.128 A 
ATOM      6  C   UNL     1      10.986  40.228  26.307  1.00  0.00     0.093 A 
ATOM      7  C   UNL     1      10.715  38.856  26.339  1.00  0.00     0.136 A 
ATOM      8  C   UNL     1      10.279  38.203  25.156  1.00  0.00     0.125 A 
ATOM      9  C   UNL     1       9.971  36.834  25.098  1.00  0.00     0.078 A 
ATOM     10  C   UNL     1       9.541  36.263  23.896  1.00  0.00     0.223 A 
ENDROOT
BRANCH   1  11
ATOM     11  C   UNL     1       9.017  36.542  21.439  1.00  0.00     0.091 A 
ATOM     12  C   UNL     1       7.679  36.681  21.040  1.00  0.00     0.068 A 
ATOM     13  C   UNL     1       7.251  36.205  19.797  1.00  0.00     0.162 A 
ATOM     14  C   UNL     1       9.935  35.948  20.556  1.00  0.00     0.068 A 
ATOM     15  C   UNL     1       8.168  35.592  18.927  1.00  0.00     0.200 A 
ATOM     16  C   UNL     1       9.515  35.469  19.308  1.00  0.00     0.162 A 
BRANCH  13  17
ATOM     17  O   UNL     1       5.909  36.349  19.446  1.00  0.00    -0.504 OA
ATOM     18  H   UNL     1       5.158  36.014  20.038  1.00  0.00     0.293 HD
ENDBRANCH  13  17
BRANCH  15  19
ATOM     19  O   UNL     1       7.731  35.117  17.689  1.00  0.00    -0.502 OA
ATOM     20  H   UNL     1       8.228  34.392  17.184  1.00  0.00     0.293 HD
ENDBRANCH  15  19
BRANCH  16  21
ATOM     21  O   UNL     1      10.434  34.875  18.443  1.00  0.00    -0.504 OA
ATOM     22  H   UNL     1      10.445  35.086  17.452  1.00  0.00     0.293 HD
ENDBRANCH  16  21
ENDBRANCH   1  11
BRANCH  10  23
ATOM     23  O   UNL     1       9.189  34.914  23.850  1.00  0.00    -0.500 OA
ATOM     24  H   UNL     1       9.864  34.195  23.620  1.00  0.00     0.294 HD
ENDBRANCH  10  23
BRANCH   5  25
ATOM     25  O   UNL     1      11.106  42.330  25.100  1.00  0.00    -0.507 OA
ATOM     26  H   UNL     1      10.413  43.002  24.791  1.00  0.00     0.293 HD
ENDBRANCH   5  25
BRANCH   7  27
ATOM     27  O   UNL     1      10.893  38.191  27.556  1.00  0.00    -0.507 OA
ATOM     28  H   UNL     1      11.329  38.599  28.370  1.00  0.00     0.293 HD
ENDBRANCH   7  27
TORSDOF 7
ENDMDL
MODEL 4
REMARK VINA RESULT:    -4.011      1.053      3.139
REMARK INTER + INTRA:          -5.307
REMARK INTER:                  -4.943
REMARK INTRA:                  -0.363
REMARK UNBOUND:                -0.358
REMARK SMILES Oc1cc(O)c2cc(O)c(-c3cc(O)c(O)c(O)c3)[o+]c2c1
REMARK SMILES IDX 10 1 20 2 21 3 22 4 2 5 3 6 4 7 6 8 7 9 8 10 11 11 12 12
REMARK SMILES IDX 13 13 19 14 15 15 17 16 14 17 16 19 18 21 9 23 1 25 5 27
REMARK H PARENT 14 18 16 20 18 22 9 24 1 26 5 28
REMARK Flexibility Score: inf
ROOT
ATOM      1  C   UNL     1       9.423  37.085  22.757  1.00  0.00     0.402 A 
ATOM      2  O   UNL     1       9.708  38.378  22.890  1.00  0.00    -0.202 OA
ATOM      3  C   UNL     1      10.130  38.919  24.028  1.00  0.00     0.368 A 
ATOM      4  C   UNL     1      10.408  40.288  24.070  1.00  0.00     0.162 A 
ATOM      5  C   UNL     1      10.855  40.881  25.250  1.00  0.00     0.128 A 
ATOM      6  C   UNL     1      11.030  40.101  26.399  1.00  0.00     0.093 A 
ATOM      7  C   UNL     1      10.761  38.728  26.384  1.00  0.00     0.136 A 
ATOM      8  C   UNL     1      10.302  38.121  25.186  1.00  0.00     0.125 A 
ATOM      9  C   UNL     1       9.994  36.755  25.081  1.00  0.00     0.078 A 
ATOM     10  C   UNL     1       9.542  36.229  23.867  1.00  0.00     0.223 A 
ENDROOT
BRANCH   1  11
ATOM     11  C   UNL     1       8.970  36.602  21.432  1.00  0.00     0.091 A 
ATOM     12  C   UNL     1       9.884  35.968  20.578  1.00  0.00     0.068 A 
ATOM     13  C   UNL     1       9.480  35.485  19.330  1.00  0.00     0.162 A 
ATOM     14  C   UNL     1       7.626  36.713  21.034  1.00  0.00     0.068 A 
ATOM     15  C   UNL     1       8.140  35.617  18.927  1.00  0.00     0.200 A 
ATOM     16  C   UNL     1       7.211  36.229  19.786  1.00  0.00     0.162 A 
BRANCH  13  17
ATOM     17  O   UNL     1      10.424  34.875  18.504  1.00  0.00    -0.504 OA
ATOM     18  H   UNL     1      11.360  34.658  18.825  1.00  0.00     0.293 HD
ENDBRANCH  13  17
BRANCH  15  19
ATOM     19  O   UNL     1       7.745  35.134  17.679  1.00  0.00    -0.502 OA
ATOM     20  H   UNL     1       7.065  34.389  17.579  1.00  0.00     0.293 HD
ENDBRANCH  15  19
BRANCH  16  21
ATOM     21  O   UNL     1       5.877  36.351  19.399  1.00  0.00    -0.504 OA
ATOM     22  H   UNL     1       5.348  35.558  19.056  1.00  0.00     0.293 HD
ENDBRANCH  16  21
ENDBRANCH   1  11
BRANCH  10  23
ATOM     23  O   UNL     1       9.189  34.882  23.775  1.00  0.00    -0.500 OA
ATOM     24  H   UNL     1       8.297  34.590  23.395  1.00  0.00     0.294 HD
ENDBRANCH  10  23
BRANCH   5  25
ATOM     25  O   UNL     1      11.125  42.248  25.272  1.00  0.00    -0.507 OA
ATOM     26  H   UNL     1      11.615  42.704  24.510  1.00  0.00     0.293 HD
ENDBRANCH   5  25
BRANCH   7  27
ATOM     27  O   UNL     1      10.963  38.018  27.571  1.00  0.00    -0.507 OA
ATOM     28  H   UNL     1      11.571  38.318  28.319  1.00  0.00     0.293 HD
ENDBRANCH   7  27
TORSDOF 7
ENDMDL
MODEL 5
REMARK VINA RESULT:    -3.704     16.286     20.679
REMARK INTER + INTRA:          -4.928
REMARK INTER:                  -4.552
REMARK INTRA:                  -0.375
REMARK UNBOUND:                -0.358
REMARK SMILES Oc1cc(O)c2cc(O)c(-c3cc(O)c(O)c(O)c3)[o+]c2c1
REMARK SMILES IDX 10 1 20 2 21 3 22 4 2 5 3 6 4 7 6 8 7 9 8 10 11 11 12 12
REMARK SMILES IDX 13 13 19 14 15 15 17 16 14 17 16 19 18 21 9 23 1 25 5 27
REMARK H PARENT 14 18 16 20 18 22 9 24 1 26 5 28
REMARK Flexibility Score: inf
ROOT
ATOM      1  C   UNL     1      -7.418  37.079  13.282  1.00  0.00     0.402 A 
ATOM      2  O   UNL     1      -7.686  36.214  12.307  1.00  0.00    -0.202 OA
ATOM      3  C   UNL     1      -8.131  36.578  11.109  1.00  0.00     0.368 A 
ATOM      4  C   UNL     1      -8.381  35.596  10.148  1.00  0.00     0.162 A 
ATOM      5  C   UNL     1      -8.846  35.951   8.881  1.00  0.00     0.128 A 
ATOM      6  C   UNL     1      -9.062  37.299   8.571  1.00  0.00     0.093 A 
ATOM      7  C   UNL     1      -8.819  38.301   9.516  1.00  0.00     0.136 A 
ATOM      8  C   UNL     1      -8.348  37.945  10.806  1.00  0.00     0.125 A 
ATOM      9  C   UNL     1      -8.090  38.881  11.821  1.00  0.00     0.078 A 
ATOM     10  C   UNL     1      -7.632  38.453  13.071  1.00  0.00     0.223 A 
ENDROOT
BRANCH   1  11
ATOM     11  C   UNL     1      -6.917  36.547  14.571  1.00  0.00     0.091 A 
ATOM     12  C   UNL     1      -7.820  35.977  15.480  1.00  0.00     0.068 A 
ATOM     13  C   UNL     1      -7.373  35.450  16.695  1.00  0.00     0.162 A 
ATOM     14  C   UNL     1      -5.546  36.551  14.880  1.00  0.00     0.068 A 
ATOM     15  C   UNL     1      -6.003  35.475  17.009  1.00  0.00     0.200 A 
ATOM     16  C   UNL     1      -5.088  36.024  16.095  1.00  0.00     0.162 A 
BRANCH  13  17
ATOM     17  O   UNL     1      -8.305  34.905  17.578  1.00  0.00    -0.504 OA
ATOM     18  H   UNL     1      -8.669  35.427  18.367  1.00  0.00     0.293 HD
ENDBRANCH  13  17
BRANCH  15  19
ATOM     19  O   UNL     1      -5.565  34.949  18.226  1.00  0.00    -0.502 OA
ATOM     20  H   UNL     1      -6.146  34.342  18.792  1.00  0.00     0.293 HD
ENDBRANCH  15  19
BRANCH  16  21
ATOM     21  O   UNL     1      -3.726  36.039  16.394  1.00  0.00    -0.504 OA
ATOM     22  H   UNL     1      -3.083  35.377  15.978  1.00  0.00     0.293 HD
ENDBRANCH  16  21
ENDBRANCH   1  11
BRANCH  10  23
ATOM     23  O   UNL     1      -7.422  39.378  14.094  1.00  0.00    -0.500 OA
ATOM     24  H   UNL     1      -6.881  40.221  13.946  1.00  0.00     0.294 HD
ENDBRANCH  10  23
BRANCH   5  25
ATOM     25  O   UNL     1      -9.091  34.956   7.937  1.00  0.00    -0.507 OA
ATOM     26  H   UNL     1      -8.376  34.658   7.284  1.00  0.00     0.293 HD
ENDBRANCH   5  25
BRANCH   7  27
ATOM     27  O   UNL     1      -9.056  39.624   9.128  1.00  0.00    -0.507 OA
ATOM     28  H   UNL     1      -8.896  40.428   9.716  1.00  0.00     0.293 HD
ENDBRANCH   7  27
TORSDOF 7
ENDMDL
MODEL 6
REMARK VINA RESULT:    -2.115      2.205      3.394
REMARK INTER + INTRA:          -2.967
REMARK INTER:                  -3.343
REMARK INTRA:                   0.376
REMARK UNBOUND:                -0.358
REMARK SMILES Oc1cc(O)c2cc(O)c(-c3cc(O)c(O)c(O)c3)[o+]c2c1
REMARK SMILES IDX 10 1 20 2 21 3 22 4 2 5 3 6 4 7 6 8 7 9 8 10 11 11 12 12
REMARK SMILES IDX 13 13 19 14 15 15 17 16 14 17 16 19 18 21 9 23 1 25 5 27
REMARK H PARENT 14 18 16 20 18 22 9 24 1 26 5 28
REMARK Flexibility Score: inf
ROOT
ATOM      1  C   UNL     1      10.841  37.340  23.133  1.00  0.00     0.402 A 
ATOM      2  O   UNL     1      10.940  38.441  23.874  1.00  0.00    -0.202 OA
ATOM      3  C   UNL     1      10.913  38.433  25.202  1.00  0.00     0.368 A 
ATOM      4  C   UNL     1      11.028  39.641  25.894  1.00  0.00     0.162 A 
ATOM      5  C   UNL     1      11.005  39.661  27.288  1.00  0.00     0.128 A 
ATOM      6  C   UNL     1      10.868  38.463  28.000  1.00  0.00     0.093 A 
ATOM      7  C   UNL     1      10.752  37.240  27.331  1.00  0.00     0.136 A 
ATOM      8  C   UNL     1      10.772  37.215  25.912  1.00  0.00     0.125 A 
ATOM      9  C   UNL     1      10.648  36.037  25.158  1.00  0.00     0.078 A 
ATOM     10  C   UNL     1      10.671  36.093  23.761  1.00  0.00     0.223 A 
ENDROOT
BRANCH   1  11
ATOM     11  C   UNL     1      10.895  37.481  21.660  1.00  0.00     0.091 A 
ATOM     12  C   UNL     1      10.974  38.761  21.091  1.00  0.00     0.068 A 
ATOM     13  C   UNL     1      11.046  38.923  19.704  1.00  0.00     0.162 A 
ATOM     14  C   UNL     1      10.926  36.356  20.818  1.00  0.00     0.068 A 
ATOM     15  C   UNL     1      11.055  37.795  18.865  1.00  0.00     0.200 A 
ATOM     16  C   UNL     1      11.000  36.508  19.427  1.00  0.00     0.162 A 
BRANCH  13  17
ATOM     17  O   UNL     1      11.108  40.213  19.177  1.00  0.00    -0.504 OA
ATOM     18  H   UNL     1      11.486  40.402  18.256  1.00  0.00     0.293 HD
ENDBRANCH  13  17
BRANCH  15  19
ATOM     19  O   UNL     1      11.125  37.966  17.481  1.00  0.00    -0.502 OA
ATOM     20  H   UNL     1      10.302  38.145  16.918  1.00  0.00     0.293 HD
ENDBRANCH  15  19
BRANCH  16  21
ATOM     21  O   UNL     1      11.023  35.384  18.602  1.00  0.00    -0.504 OA
ATOM     22  H   UNL     1      10.370  35.273  17.836  1.00  0.00     0.293 HD
ENDBRANCH  16  21
ENDBRANCH   1  11
BRANCH  10  23
ATOM     23  O   UNL     1      10.500  34.929  23.011  1.00  0.00    -0.500 OA
ATOM     24  H   UNL     1      11.255  34.268  22.875  1.00  0.00     0.294 HD
ENDBRANCH  10  23
BRANCH   5  25
ATOM     25  O   UNL     1      11.119  40.877  27.959  1.00  0.00    -0.507 OA
ATOM     26  H   UNL     1      10.325  41.496  28.075  1.00  0.00     0.293 HD
ENDBRANCH   5  25
BRANCH   7  27
ATOM     27  O   UNL     1      10.622  36.088  28.113  1.00  0.00    -0.507 OA
ATOM     28  H   UNL     1      10.363  35.181  27.755  1.00  0.00     0.293 HD
ENDBRANCH   7  27
TORSDOF 7
ENDMDL
