MODEL 1
REMARK VINA RESULT:    16.144      0.000      0.000
REMARK INTER + INTRA:          36.192
REMARK INTER:                  36.907
REMARK INTRA:                  -0.715
REMARK UNBOUND:                -0.715
REMARK SMILES CCCCCCCCCCCCCCCCCCCCCCCC(=O)[O-]
REMARK SMILES IDX 13 1 14 2 15 3 16 4 17 5 18 6 19 7 20 8 21 9 22 10 23 11
REMARK SMILES IDX 24 12 25 13 26 14 12 15 11 16 10 17 9 18 8 19 7 20 6 21 5 22
REMARK SMILES IDX 4 23 3 24 2 25 1 26
REMARK H PARENT
REMARK Flexibility Score: inf
ROOT
ATOM      1  C   UNL     1      -7.082  14.821 -15.010  1.00  0.00     0.000 C 
ENDROOT
BRANCH   1   2
ATOM      2  C   UNL     1      -6.245  14.506 -16.263  1.00  0.00     0.000 C 
BRANCH   2   3
ATOM      3  C   UNL     1      -5.837  13.027 -16.343  1.00  0.00     0.000 C 
BRANCH   3   4
ATOM      4  C   UNL     1      -6.520  12.287 -17.506  1.00  0.00     0.000 C 
BRANCH   4   5
ATOM      5  C   UNL     1      -7.219  10.987 -17.050  1.00  0.00     0.000 C 
BRANCH   5   6
ATOM      6  C   UNL     1      -7.898  10.213 -18.197  1.00  0.00     0.000 C 
BRANCH   6   7
ATOM      7  C   UNL     1      -8.218   8.740 -17.884  1.00  0.00     0.000 C 
BRANCH   7   8
ATOM      8  C   UNL     1      -7.406   7.707 -18.693  1.00  0.00     0.000 C 
BRANCH   8   9
ATOM      9  C   UNL     1      -8.005   6.289 -18.734  1.00  0.00     0.000 C 
BRANCH   9  10
ATOM     10  C   UNL     1      -7.366   5.401 -19.815  1.00  0.00     0.006 C 
BRANCH  10  11
ATOM     11  C   UNL     1      -8.402   4.515 -20.522  1.00  0.00     0.053 C 
BRANCH  11  12
ATOM     12  C   UNL     1      -7.871   3.952 -21.805  1.00  0.00     0.041 C 
ATOM     13  O   UNL     1      -6.743   3.394 -21.833  1.00  0.00    -0.550 OA
ATOM     14  O   UNL     1      -8.609   4.072 -22.976  1.00  0.00    -0.550 OA
ENDBRANCH  11  12
ENDBRANCH  10  11
ENDBRANCH   9  10
ENDBRANCH   8   9
ENDBRANCH   7   8
ENDBRANCH   6   7
ENDBRANCH   5   6
ENDBRANCH   4   5
ENDBRANCH   3   4
ENDBRANCH   2   3
ENDBRANCH   1   2
BRANCH   1  15
ATOM     15  C   UNL     1      -7.551  16.285 -14.962  1.00  0.00     0.000 C 
BRANCH  15  16
ATOM     16  C   UNL     1      -8.558  16.546 -13.828  1.00  0.00     0.000 C 
BRANCH  16  17
ATOM     17  C   UNL     1      -9.172  17.954 -13.903  1.00  0.00     0.000 C 
BRANCH  17  18
ATOM     18  C   UNL     1     -10.708  17.934 -13.811  1.00  0.00    -0.000 C 
BRANCH  18  19
ATOM     19  C   UNL     1     -11.318  19.345 -13.851  1.00  0.00    -0.000 C 
BRANCH  19  20
ATOM     20  C   UNL     1     -12.804  19.354 -13.461  1.00  0.00    -0.000 C 
BRANCH  20  21
ATOM     21  C   UNL     1     -12.972  19.460 -11.938  1.00  0.00    -0.000 C 
BRANCH  21  22
ATOM     22  C   UNL     1     -13.142  18.089 -11.264  1.00  0.00    -0.000 C 
BRANCH  22  23
ATOM     23  C   UNL     1     -12.876  18.133  -9.749  1.00  0.00    -0.000 C 
BRANCH  23  24
ATOM     24  C   UNL     1     -13.275  19.489  -9.127  1.00  0.00    -0.000 C 
BRANCH  24  25
ATOM     25  C   UNL     1     -12.395  19.902  -7.936  1.00  0.00    -0.003 C 
ATOM     26  C   UNL     1     -12.385  21.410  -7.695  1.00  0.00     0.004 C 
ENDBRANCH  24  25
ENDBRANCH  23  24
ENDBRANCH  22  23
ENDBRANCH  21  22
ENDBRANCH  20  21
ENDBRANCH  19  20
ENDBRANCH  18  19
ENDBRANCH  17  18
ENDBRANCH  16  17
ENDBRANCH  15  16
ENDBRANCH   1  15
TORSDOF 22
ENDMDL
MODEL 2
REMARK VINA RESULT:    16.796      5.887     14.333
REMARK INTER + INTRA:          37.682
REMARK INTER:                  38.500
REMARK INTRA:                  -0.819
REMARK UNBOUND:                -0.715
REMARK SMILES CCCCCCCCCCCCCCCCCCCCCCCC(=O)[O-]
REMARK SMILES IDX 13 1 14 2 15 3 16 4 17 5 18 6 19 7 20 8 21 9 22 10 23 11
REMARK SMILES IDX 24 12 25 13 26 14 12 15 11 16 10 17 9 18 8 19 7 20 6 21 5 22
REMARK SMILES IDX 4 23 3 24 2 25 1 26
REMARK H PARENT
REMARK Flexibility Score: inf
ROOT
ATOM      1  C   UNL     1      -5.261  13.917 -16.341  1.00  0.00     0.000 C 
ENDROOT
BRANCH   1   2
ATOM      2  C   UNL     1      -6.488  14.087 -15.428  1.00  0.00     0.000 C 
BRANCH   2   3
ATOM      3  C   UNL     1      -6.964  15.545 -15.343  1.00  0.00     0.000 C 
BRANCH   3   4
ATOM      4  C   UNL     1      -8.146  15.727 -14.377  1.00  0.00     0.000 C 
BRANCH   4   5
ATOM      5  C   UNL     1      -8.522  17.212 -14.175  1.00  0.00     0.000 C 
BRANCH   5   6
ATOM      6  C   UNL     1      -9.952  17.423 -13.643  1.00  0.00     0.000 C 
BRANCH   6   7
ATOM      7  C   UNL     1     -10.581  18.783 -13.996  1.00  0.00     0.000 C 
BRANCH   7   8
ATOM      8  C   UNL     1     -12.117  18.778 -14.136  1.00  0.00     0.000 C 
BRANCH   8   9
ATOM      9  C   UNL     1     -12.878  19.553 -13.043  1.00  0.00     0.000 C 
BRANCH   9  10
ATOM     10  C   UNL     1     -12.324  19.296 -11.632  1.00  0.00     0.006 C 
BRANCH  10  11
ATOM     11  C   UNL     1     -13.440  19.014 -10.615  1.00  0.00     0.053 C 
BRANCH  11  12
ATOM     12  C   UNL     1     -12.905  18.891  -9.221  1.00  0.00     0.041 C 
ATOM     13  O   UNL     1     -12.921  19.883  -8.447  1.00  0.00    -0.550 OA
ATOM     14  O   UNL     1     -12.361  17.688  -8.788  1.00  0.00    -0.550 OA
ENDBRANCH  11  12
ENDBRANCH  10  11
ENDBRANCH   9  10
ENDBRANCH   8   9
ENDBRANCH   7   8
ENDBRANCH   6   7
ENDBRANCH   5   6
ENDBRANCH   4   5
ENDBRANCH   3   4
ENDBRANCH   2   3
ENDBRANCH   1   2
BRANCH   1  15
ATOM     15  C   UNL     1      -5.236  12.556 -17.056  1.00  0.00     0.000 C 
BRANCH  15  16
ATOM     16  C   UNL     1      -6.549  12.253 -17.798  1.00  0.00     0.000 C 
BRANCH  16  17
ATOM     17  C   UNL     1      -7.270  11.019 -17.231  1.00  0.00     0.000 C 
BRANCH  17  18
ATOM     18  C   UNL     1      -8.049  10.244 -18.310  1.00  0.00    -0.000 C 
BRANCH  18  19
ATOM     19  C   UNL     1      -8.262   8.768 -17.934  1.00  0.00    -0.000 C 
BRANCH  19  20
ATOM     20  C   UNL     1      -7.741   7.806 -19.013  1.00  0.00    -0.000 C 
BRANCH  20  21
ATOM     21  C   UNL     1      -7.670   6.367 -18.479  1.00  0.00    -0.000 C 
BRANCH  21  22
ATOM     22  C   UNL     1      -7.247   5.356 -19.558  1.00  0.00    -0.000 C 
BRANCH  22  23
ATOM     23  C   UNL     1      -8.447   4.660 -20.224  1.00  0.00    -0.000 C 
BRANCH  23  24
ATOM     24  C   UNL     1      -8.066   4.005 -21.569  1.00  0.00    -0.000 C 
BRANCH  24  25
ATOM     25  C   UNL     1      -9.097   4.247 -22.684  1.00  0.00    -0.003 C 
ATOM     26  C   UNL     1      -9.313   5.729 -22.987  1.00  0.00     0.004 C 
ENDBRANCH  24  25
ENDBRANCH  23  24
ENDBRANCH  22  23
ENDBRANCH  21  22
ENDBRANCH  20  21
ENDBRANCH  19  20
ENDBRANCH  18  19
ENDBRANCH  17  18
ENDBRANCH  16  17
ENDBRANCH  15  16
ENDBRANCH   1  15
TORSDOF 22
ENDMDL
MODEL 3
REMARK VINA RESULT:    16.816      9.209     10.354
REMARK INTER + INTRA:          37.728
REMARK INTER:                  38.005
REMARK INTRA:                  -0.278
REMARK UNBOUND:                -0.715
REMARK SMILES CCCCCCCCCCCCCCCCCCCCCCCC(=O)[O-]
REMARK SMILES IDX 13 1 14 2 15 3 16 4 17 5 18 6 19 7 20 8 21 9 22 10 23 11
REMARK SMILES IDX 24 12 25 13 26 14 12 15 11 16 10 17 9 18 8 19 7 20 6 21 5 22
REMARK SMILES IDX 4 23 3 24 2 25 1 26
REMARK H PARENT
REMARK Flexibility Score: inf
ROOT
ATOM      1  C   UNL     1     -10.773  19.428 -14.391  1.00  0.00     0.000 C 
ENDROOT
BRANCH   1   2
ATOM      2  C   UNL     1     -10.129  19.358 -15.787  1.00  0.00     0.000 C 
BRANCH   2   3
ATOM      3  C   UNL     1     -10.985  20.038 -16.867  1.00  0.00     0.000 C 
BRANCH   3   4
ATOM      4  C   UNL     1     -11.265  19.117 -18.066  1.00  0.00     0.000 C 
BRANCH   4   5
ATOM      5  C   UNL     1     -11.604  19.905 -19.351  1.00  0.00     0.000 C 
BRANCH   5   6
ATOM      6  C   UNL     1     -11.526  19.060 -20.636  1.00  0.00     0.000 C 
BRANCH   6   7
ATOM      7  C   UNL     1     -11.051  19.824 -21.886  1.00  0.00     0.000 C 
BRANCH   7   8
ATOM      8  C   UNL     1     -11.960  19.683 -23.125  1.00  0.00     0.000 C 
BRANCH   8   9
ATOM      9  C   UNL     1     -13.247  18.866 -22.904  1.00  0.00     0.000 C 
BRANCH   9  10
ATOM     10  C   UNL     1     -14.514  19.736 -22.899  1.00  0.00     0.006 C 
BRANCH  10  11
ATOM     11  C   UNL     1     -14.271  21.108 -22.255  1.00  0.00     0.053 C 
BRANCH  11  12
ATOM     12  C   UNL     1     -14.612  21.108 -20.797  1.00  0.00     0.041 C 
ATOM     13  O   UNL     1     -13.921  21.777 -19.984  1.00  0.00    -0.550 OA
ATOM     14  O   UNL     1     -15.673  20.343 -20.329  1.00  0.00    -0.550 OA
ENDBRANCH  11  12
ENDBRANCH  10  11
ENDBRANCH   9  10
ENDBRANCH   8   9
ENDBRANCH   7   8
ENDBRANCH   6   7
ENDBRANCH   5   6
ENDBRANCH   4   5
ENDBRANCH   3   4
ENDBRANCH   2   3
ENDBRANCH   1   2
BRANCH   1  15
ATOM     15  C   UNL     1     -12.140  18.729 -14.331  1.00  0.00     0.000 C 
BRANCH  15  16
ATOM     16  C   UNL     1     -13.177  19.523 -13.516  1.00  0.00     0.000 C 
BRANCH  16  17
ATOM     17  C   UNL     1     -12.765  19.683 -12.043  1.00  0.00     0.000 C 
BRANCH  17  18
ATOM     18  C   UNL     1     -13.544  18.742 -11.107  1.00  0.00    -0.000 C 
BRANCH  18  19
ATOM     19  C   UNL     1     -12.619  17.941 -10.176  1.00  0.00    -0.000 C 
BRANCH  19  20
ATOM     20  C   UNL     1     -12.778  18.343  -8.702  1.00  0.00    -0.000 C 
BRANCH  20  21
ATOM     21  C   UNL     1     -14.160  18.962  -8.446  1.00  0.00    -0.000 C 
BRANCH  21  22
ATOM     22  C   UNL     1     -14.327  19.461  -7.001  1.00  0.00    -0.000 C 
BRANCH  22  23
ATOM     23  C   UNL     1     -13.148  20.333  -6.533  1.00  0.00    -0.000 C 
BRANCH  23  24
ATOM     24  C   UNL     1     -12.042  20.441  -7.604  1.00  0.00    -0.000 C 
BRANCH  24  25
ATOM     25  C   UNL     1     -11.891  21.853  -8.192  1.00  0.00    -0.003 C 
ATOM     26  C   UNL     1     -11.092  21.877  -9.494  1.00  0.00     0.004 C 
ENDBRANCH  24  25
ENDBRANCH  23  24
ENDBRANCH  22  23
ENDBRANCH  21  22
ENDBRANCH  20  21
ENDBRANCH  19  20
ENDBRANCH  18  19
ENDBRANCH  17  18
ENDBRANCH  16  17
ENDBRANCH  15  16
ENDBRANCH   1  15
TORSDOF 22
ENDMDL
MODEL 4
REMARK VINA RESULT:    17.666      6.553     14.573
REMARK INTER + INTRA:          39.671
REMARK INTER:                  40.494
REMARK INTRA:                  -0.823
REMARK UNBOUND:                -0.715
REMARK SMILES CCCCCCCCCCCCCCCCCCCCCCCC(=O)[O-]
REMARK SMILES IDX 13 1 14 2 15 3 16 4 17 5 18 6 19 7 20 8 21 9 22 10 23 11
REMARK SMILES IDX 24 12 25 13 26 14 12 15 11 16 10 17 9 18 8 19 7 20 6 21 5 22
REMARK SMILES IDX 4 23 3 24 2 25 1 26
REMARK H PARENT
REMARK Flexibility Score: inf
ROOT
ATOM      1  C   UNL     1      -7.353  16.080 -15.113  1.00  0.00     0.000 C 
ENDROOT
BRANCH   1   2
ATOM      2  C   UNL     1      -8.447  16.320 -14.057  1.00  0.00     0.000 C 
BRANCH   2   3
ATOM      3  C   UNL     1      -8.951  17.772 -14.049  1.00  0.00     0.000 C 
BRANCH   3   4
ATOM      4  C   UNL     1     -10.485  17.866 -14.071  1.00  0.00     0.000 C 
BRANCH   4   5
ATOM      5  C   UNL     1     -10.986  19.314 -14.263  1.00  0.00     0.000 C 
BRANCH   5   6
ATOM      6  C   UNL     1     -12.288  19.627 -13.500  1.00  0.00     0.000 C 
BRANCH   6   7
ATOM      7  C   UNL     1     -12.580  18.696 -12.308  1.00  0.00     0.000 C 
BRANCH   7   8
ATOM      8  C   UNL     1     -13.135  19.397 -11.051  1.00  0.00     0.000 C 
BRANCH   8   9
ATOM      9  C   UNL     1     -13.536  18.456  -9.900  1.00  0.00     0.000 C 
BRANCH   9  10
ATOM     10  C   UNL     1     -12.710  18.687  -8.623  1.00  0.00     0.006 C 
BRANCH  10  11
ATOM     11  C   UNL     1     -13.298  19.803  -7.748  1.00  0.00     0.053 C 
BRANCH  11  12
ATOM     12  C   UNL     1     -12.328  20.928  -7.553  1.00  0.00     0.041 C 
ATOM     13  O   UNL     1     -12.266  21.526  -6.448  1.00  0.00    -0.550 OA
ATOM     14  O   UNL     1     -11.514  21.336  -8.603  1.00  0.00    -0.550 OA
ENDBRANCH  11  12
ENDBRANCH  10  11
ENDBRANCH   9  10
ENDBRANCH   8   9
ENDBRANCH   7   8
ENDBRANCH   6   7
ENDBRANCH   5   6
ENDBRANCH   4   5
ENDBRANCH   3   4
ENDBRANCH   2   3
ENDBRANCH   1   2
BRANCH   1  15
ATOM     15  C   UNL     1      -6.951  14.601 -15.227  1.00  0.00     0.000 C 
BRANCH  15  16
ATOM     16  C   UNL     1      -5.613  14.406 -15.962  1.00  0.00     0.000 C 
BRANCH  16  17
ATOM     17  C   UNL     1      -5.693  13.318 -17.046  1.00  0.00     0.000 C 
BRANCH  17  18
ATOM     18  C   UNL     1      -6.649  12.174 -16.663  1.00  0.00    -0.000 C 
BRANCH  18  19
ATOM     19  C   UNL     1      -7.065  11.326 -17.876  1.00  0.00    -0.000 C 
BRANCH  19  20
ATOM     20  C   UNL     1      -7.994  10.164 -17.489  1.00  0.00    -0.000 C 
BRANCH  20  21
ATOM     21  C   UNL     1      -8.140   9.167 -18.649  1.00  0.00    -0.000 C 
BRANCH  21  22
ATOM     22  C   UNL     1      -7.875   7.715 -18.218  1.00  0.00    -0.000 C 
BRANCH  22  23
ATOM     23  C   UNL     1      -7.340   6.842 -19.367  1.00  0.00    -0.000 C 
BRANCH  23  24
ATOM     24  C   UNL     1      -7.677   5.349 -19.168  1.00  0.00    -0.000 C 
BRANCH  24  25
ATOM     25  C   UNL     1      -8.546   4.760 -20.291  1.00  0.00    -0.003 C 
ATOM     26  C   UNL     1      -7.746   4.410 -21.545  1.00  0.00     0.004 C 
ENDBRANCH  24  25
ENDBRANCH  23  24
ENDBRANCH  22  23
ENDBRANCH  21  22
ENDBRANCH  20  21
ENDBRANCH  19  20
ENDBRANCH  18  19
ENDBRANCH  17  18
ENDBRANCH  16  17
ENDBRANCH  15  16
ENDBRANCH   1  15
TORSDOF 22
ENDMDL
MODEL 5
REMARK VINA RESULT:    18.282     10.145     13.735
REMARK INTER + INTRA:          41.080
REMARK INTER:                  39.422
REMARK INTRA:                   1.658
REMARK UNBOUND:                -0.715
REMARK SMILES CCCCCCCCCCCCCCCCCCCCCCCC(=O)[O-]
REMARK SMILES IDX 13 1 14 2 15 3 16 4 17 5 18 6 19 7 20 8 21 9 22 10 23 11
REMARK SMILES IDX 24 12 25 13 26 14 12 15 11 16 10 17 9 18 8 19 7 20 6 21 5 22
REMARK SMILES IDX 4 23 3 24 2 25 1 26
REMARK H PARENT
REMARK Flexibility Score: inf
ROOT
ATOM      1  C   UNL     1     -12.616  19.086 -13.948  1.00  0.00     0.000 C 
ENDROOT
BRANCH   1   2
ATOM      2  C   UNL     1     -12.865  20.044 -12.768  1.00  0.00     0.000 C 
BRANCH   2   3
ATOM      3  C   UNL     1     -12.897  19.316 -11.415  1.00  0.00     0.000 C 
BRANCH   3   4
ATOM      4  C   UNL     1     -13.282  17.834 -11.549  1.00  0.00     0.000 C 
BRANCH   4   5
ATOM      5  C   UNL     1     -12.114  16.885 -11.198  1.00  0.00     0.000 C 
BRANCH   5   6
ATOM      6  C   UNL     1     -12.027  16.538  -9.699  1.00  0.00     0.000 C 
BRANCH   6   7
ATOM      7  C   UNL     1     -11.846  17.748  -8.763  1.00  0.00     0.000 C 
BRANCH   7   8
ATOM      8  C   UNL     1     -12.895  17.869  -7.639  1.00  0.00     0.000 C 
BRANCH   8   9
ATOM      9  C   UNL     1     -14.236  18.501  -8.059  1.00  0.00     0.000 C 
BRANCH   9  10
ATOM     10  C   UNL     1     -14.083  19.942  -8.574  1.00  0.00     0.006 C 
BRANCH  10  11
ATOM     11  C   UNL     1     -12.614  20.318  -8.812  1.00  0.00     0.053 C 
BRANCH  11  12
ATOM     12  C   UNL     1     -12.068  21.163  -7.703  1.00  0.00     0.041 C 
ATOM     13  O   UNL     1     -10.891  21.606  -7.765  1.00  0.00    -0.550 OA
ATOM     14  O   UNL     1     -12.847  21.435  -6.585  1.00  0.00    -0.550 OA
ENDBRANCH  11  12
ENDBRANCH  10  11
ENDBRANCH   9  10
ENDBRANCH   8   9
ENDBRANCH   7   8
ENDBRANCH   6   7
ENDBRANCH   5   6
ENDBRANCH   4   5
ENDBRANCH   3   4
ENDBRANCH   2   3
ENDBRANCH   1   2
BRANCH   1  15
ATOM     15  C   UNL     1     -11.249  19.307 -14.614  1.00  0.00     0.000 C 
BRANCH  15  16
ATOM     16  C   UNL     1     -11.272  19.015 -16.125  1.00  0.00     0.000 C 
BRANCH  16  17
ATOM     17  C   UNL     1     -10.802  20.217 -16.962  1.00  0.00     0.000 C 
BRANCH  17  18
ATOM     18  C   UNL     1     -10.563  19.851 -18.437  1.00  0.00    -0.000 C 
BRANCH  18  19
ATOM     19  C   UNL     1     -11.809  19.244 -19.102  1.00  0.00    -0.000 C 
BRANCH  19  20
ATOM     20  C   UNL     1     -12.173  19.946 -20.419  1.00  0.00    -0.000 C 
BRANCH  20  21
ATOM     21  C   UNL     1     -11.345  19.388 -21.587  1.00  0.00    -0.000 C 
BRANCH  21  22
ATOM     22  C   UNL     1     -11.903  19.802 -22.959  1.00  0.00    -0.000 C 
BRANCH  22  23
ATOM     23  C   UNL     1     -13.434  19.674 -23.043  1.00  0.00    -0.000 C 
BRANCH  23  24
ATOM     24  C   UNL     1     -14.136  21.048 -22.988  1.00  0.00    -0.000 C 
BRANCH  24  25
ATOM     25  C   UNL     1     -15.205  21.149 -21.887  1.00  0.00    -0.003 C 
ATOM     26  C   UNL     1     -14.802  20.438 -20.596  1.00  0.00     0.004 C 
ENDBRANCH  24  25
ENDBRANCH  23  24
ENDBRANCH  22  23
ENDBRANCH  21  22
ENDBRANCH  20  21
ENDBRANCH  19  20
ENDBRANCH  18  19
ENDBRANCH  17  18
ENDBRANCH  16  17
ENDBRANCH  15  16
ENDBRANCH   1  15
TORSDOF 22
ENDMDL
MODEL 6
REMARK VINA RESULT:    18.375     10.076     12.997
REMARK INTER + INTRA:          41.293
REMARK INTER:                  42.851
REMARK INTRA:                  -1.559
REMARK UNBOUND:                -0.715
REMARK SMILES CCCCCCCCCCCCCCCCCCCCCCCC(=O)[O-]
REMARK SMILES IDX 13 1 14 2 15 3 16 4 17 5 18 6 19 7 20 8 21 9 22 10 23 11
REMARK SMILES IDX 24 12 25 13 26 14 12 15 11 16 10 17 9 18 8 19 7 20 6 21 5 22
REMARK SMILES IDX 4 23 3 24 2 25 1 26
REMARK H PARENT
REMARK Flexibility Score: inf
ROOT
ATOM      1  C   UNL     1     -11.311  19.963 -19.326  1.00  0.00     0.000 C 
ENDROOT
BRANCH   1   2
ATOM      2  C   UNL     1     -11.003  19.171 -18.042  1.00  0.00     0.000 C 
BRANCH   2   3
ATOM      3  C   UNL     1     -11.059  20.047 -16.781  1.00  0.00     0.000 C 
BRANCH   3   4
ATOM      4  C   UNL     1     -10.472  19.345 -15.546  1.00  0.00     0.000 C 
BRANCH   4   5
ATOM      5  C   UNL     1     -11.187  19.751 -14.238  1.00  0.00     0.000 C 
BRANCH   5   6
ATOM      6  C   UNL     1     -12.579  19.113 -14.069  1.00  0.00     0.000 C 
BRANCH   6   7
ATOM      7  C   UNL     1     -13.318  19.503 -12.775  1.00  0.00     0.000 C 
BRANCH   7   8
ATOM      8  C   UNL     1     -12.898  18.714 -11.518  1.00  0.00     0.000 C 
BRANCH   8   9
ATOM      9  C   UNL     1     -13.640  19.100 -10.224  1.00  0.00     0.000 C 
BRANCH   9  10
ATOM     10  C   UNL     1     -12.947  18.570  -8.957  1.00  0.00     0.006 C 
BRANCH  10  11
ATOM     11  C   UNL     1     -11.904  19.556  -8.413  1.00  0.00     0.053 C 
BRANCH  11  12
ATOM     12  C   UNL     1     -12.527  20.604  -7.544  1.00  0.00     0.041 C 
ATOM     13  O   UNL     1     -12.120  21.794  -7.595  1.00  0.00    -0.550 OA
ATOM     14  O   UNL     1     -13.537  20.261  -6.654  1.00  0.00    -0.550 OA
ENDBRANCH  11  12
ENDBRANCH  10  11
ENDBRANCH   9  10
ENDBRANCH   8   9
ENDBRANCH   7   8
ENDBRANCH   6   7
ENDBRANCH   5   6
ENDBRANCH   4   5
ENDBRANCH   3   4
ENDBRANCH   2   3
ENDBRANCH   1   2
BRANCH   1  15
ATOM     15  C   UNL     1     -11.619  19.052 -20.525  1.00  0.00     0.000 C 
BRANCH  15  16
ATOM     16  C   UNL     1     -11.193  19.675 -21.867  1.00  0.00     0.000 C 
BRANCH  16  17
ATOM     17  C   UNL     1     -12.330  19.670 -22.902  1.00  0.00     0.000 C 
BRANCH  17  18
ATOM     18  C   UNL     1     -12.978  21.056 -23.073  1.00  0.00    -0.000 C 
BRANCH  18  19
ATOM     19  C   UNL     1     -14.346  21.154 -22.377  1.00  0.00    -0.000 C 
BRANCH  19  20
ATOM     20  C   UNL     1     -14.250  20.945 -20.859  1.00  0.00    -0.000 C 
BRANCH  20  21
ATOM     21  C   UNL     1     -14.918  19.627 -20.441  1.00  0.00    -0.000 C 
BRANCH  21  22
ATOM     22  C   UNL     1     -14.824  19.368 -18.928  1.00  0.00    -0.000 C 
BRANCH  22  23
ATOM     23  C   UNL     1     -14.277  17.969 -18.595  1.00  0.00    -0.000 C 
BRANCH  23  24
ATOM     24  C   UNL     1     -14.637  17.529 -17.160  1.00  0.00    -0.000 C 
BRANCH  24  25
ATOM     25  C   UNL     1     -15.578  18.505 -16.436  1.00  0.00    -0.003 C 
ATOM     26  C   UNL     1     -16.688  17.800 -15.658  1.00  0.00     0.004 C 
ENDBRANCH  24  25
ENDBRANCH  23  24
ENDBRANCH  22  23
ENDBRANCH  21  22
ENDBRANCH  20  21
ENDBRANCH  19  20
ENDBRANCH  18  19
ENDBRANCH  17  18
ENDBRANCH  16  17
ENDBRANCH  15  16
ENDBRANCH   1  15
TORSDOF 22
ENDMDL
MODEL 7
REMARK VINA RESULT:    18.505      8.781     10.179
REMARK INTER + INTRA:          41.589
REMARK INTER:                  40.040
REMARK INTRA:                   1.548
REMARK UNBOUND:                -0.715
REMARK SMILES CCCCCCCCCCCCCCCCCCCCCCCC(=O)[O-]
REMARK SMILES IDX 13 1 14 2 15 3 16 4 17 5 18 6 19 7 20 8 21 9 22 10 23 11
REMARK SMILES IDX 24 12 25 13 26 14 12 15 11 16 10 17 9 18 8 19 7 20 6 21 5 22
REMARK SMILES IDX 4 23 3 24 2 25 1 26
REMARK H PARENT
REMARK Flexibility Score: inf
ROOT
ATOM      1  C   UNL     1     -10.896  19.071 -15.279  1.00  0.00     0.000 C 
ENDROOT
BRANCH   1   2
ATOM      2  C   UNL     1     -10.765  19.699 -16.678  1.00  0.00     0.000 C 
BRANCH   2   3
ATOM      3  C   UNL     1     -11.252  18.761 -17.794  1.00  0.00     0.000 C 
BRANCH   3   4
ATOM      4  C   UNL     1     -11.220  19.424 -19.181  1.00  0.00     0.000 C 
BRANCH   4   5
ATOM      5  C   UNL     1     -12.564  19.293 -19.930  1.00  0.00     0.000 C 
BRANCH   5   6
ATOM      6  C   UNL     1     -13.775  19.801 -19.125  1.00  0.00     0.000 C 
BRANCH   6   7
ATOM      7  C   UNL     1     -15.132  19.668 -19.842  1.00  0.00     0.000 C 
BRANCH   7   8
ATOM      8  C   UNL     1     -15.485  20.828 -20.796  1.00  0.00     0.000 C 
BRANCH   8   9
ATOM      9  C   UNL     1     -14.710  20.841 -22.127  1.00  0.00     0.000 C 
BRANCH   9  10
ATOM     10  C   UNL     1     -13.401  21.645 -22.049  1.00  0.00     0.006 C 
BRANCH  10  11
ATOM     11  C   UNL     1     -12.394  21.215 -23.125  1.00  0.00     0.053 C 
BRANCH  11  12
ATOM     12  C   UNL     1     -11.998  19.778 -22.974  1.00  0.00     0.041 C 
ATOM     13  O   UNL     1     -12.867  18.871 -23.043  1.00  0.00    -0.550 OA
ATOM     14  O   UNL     1     -10.672  19.443 -22.726  1.00  0.00    -0.550 OA
ENDBRANCH  11  12
ENDBRANCH  10  11
ENDBRANCH   9  10
ENDBRANCH   8   9
ENDBRANCH   7   8
ENDBRANCH   6   7
ENDBRANCH   5   6
ENDBRANCH   4   5
ENDBRANCH   3   4
ENDBRANCH   2   3
ENDBRANCH   1   2
BRANCH   1  15
ATOM     15  C   UNL     1     -12.354  18.779 -14.892  1.00  0.00     0.000 C 
BRANCH  15  16
ATOM     16  C   UNL     1     -12.907  19.782 -13.864  1.00  0.00     0.000 C 
BRANCH  16  17
ATOM     17  C   UNL     1     -12.183  19.692 -12.510  1.00  0.00     0.000 C 
BRANCH  17  18
ATOM     18  C   UNL     1     -12.881  18.731 -11.531  1.00  0.00    -0.000 C 
BRANCH  18  19
ATOM     19  C   UNL     1     -13.905  19.446 -10.635  1.00  0.00    -0.000 C 
BRANCH  19  20
ATOM     20  C   UNL     1     -14.368  18.573  -9.459  1.00  0.00    -0.000 C 
BRANCH  20  21
ATOM     21  C   UNL     1     -13.184  17.826  -8.828  1.00  0.00    -0.000 C 
BRANCH  21  22
ATOM     22  C   UNL     1     -12.176  18.773  -8.156  1.00  0.00    -0.000 C 
BRANCH  22  23
ATOM     23  C   UNL     1     -12.126  20.159  -8.821  1.00  0.00    -0.000 C 
BRANCH  23  24
ATOM     24  C   UNL     1     -11.733  21.269  -7.824  1.00  0.00    -0.000 C 
BRANCH  24  25
ATOM     25  C   UNL     1     -12.866  21.660  -6.860  1.00  0.00    -0.003 C 
ATOM     26  C   UNL     1     -13.454  20.465  -6.113  1.00  0.00     0.004 C 
ENDBRANCH  24  25
ENDBRANCH  23  24
ENDBRANCH  22  23
ENDBRANCH  21  22
ENDBRANCH  20  21
ENDBRANCH  19  20
ENDBRANCH  18  19
ENDBRANCH  17  18
ENDBRANCH  16  17
ENDBRANCH  15  16
ENDBRANCH   1  15
TORSDOF 22
ENDMDL
MODEL 8
REMARK VINA RESULT:    18.996      6.816     13.551
REMARK INTER + INTRA:          42.711
REMARK INTER:                  43.314
REMARK INTRA:                  -0.603
REMARK UNBOUND:                -0.715
REMARK SMILES CCCCCCCCCCCCCCCCCCCCCCCC(=O)[O-]
REMARK SMILES IDX 13 1 14 2 15 3 16 4 17 5 18 6 19 7 20 8 21 9 22 10 23 11
REMARK SMILES IDX 24 12 25 13 26 14 12 15 11 16 10 17 9 18 8 19 7 20 6 21 5 22
REMARK SMILES IDX 4 23 3 24 2 25 1 26
REMARK H PARENT
REMARK Flexibility Score: inf
ROOT
ATOM      1  C   UNL     1      -8.544  16.541 -13.776  1.00  0.00     0.000 C 
ENDROOT
BRANCH   1   2
ATOM      2  C   UNL     1      -9.208  17.929 -13.727  1.00  0.00     0.000 C 
BRANCH   2   3
ATOM      3  C   UNL     1     -10.729  17.864 -13.932  1.00  0.00     0.000 C 
BRANCH   3   4
ATOM      4  C   UNL     1     -11.279  19.091 -14.678  1.00  0.00     0.000 C 
BRANCH   4   5
ATOM      5  C   UNL     1     -11.978  20.093 -13.733  1.00  0.00     0.000 C 
BRANCH   5   6
ATOM      6  C   UNL     1     -13.057  19.452 -12.838  1.00  0.00     0.000 C 
BRANCH   6   7
ATOM      7  C   UNL     1     -12.661  19.293 -11.359  1.00  0.00     0.000 C 
BRANCH   7   8
ATOM      8  C   UNL     1     -13.476  18.245 -10.572  1.00  0.00     0.000 C 
BRANCH   8   9
ATOM      9  C   UNL     1     -12.728  17.575  -9.405  1.00  0.00     0.000 C 
BRANCH   9  10
ATOM     10  C   UNL     1     -12.201  18.587  -8.372  1.00  0.00     0.006 C 
BRANCH  10  11
ATOM     11  C   UNL     1     -13.027  19.880  -8.358  1.00  0.00     0.053 C 
BRANCH  11  12
ATOM     12  C   UNL     1     -12.313  20.990  -7.649  1.00  0.00     0.041 C 
ATOM     13  O   UNL     1     -12.633  21.298  -6.471  1.00  0.00    -0.550 OA
ATOM     14  O   UNL     1     -11.315  21.704  -8.300  1.00  0.00    -0.550 OA
ENDBRANCH  11  12
ENDBRANCH  10  11
ENDBRANCH   9  10
ENDBRANCH   8   9
ENDBRANCH   7   8
ENDBRANCH   6   7
ENDBRANCH   5   6
ENDBRANCH   4   5
ENDBRANCH   3   4
ENDBRANCH   2   3
ENDBRANCH   1   2
BRANCH   1  15
ATOM     15  C   UNL     1      -7.505  16.419 -14.902  1.00  0.00     0.000 C 
BRANCH  15  16
ATOM     16  C   UNL     1      -7.082  14.962 -15.161  1.00  0.00     0.000 C 
BRANCH  16  17
ATOM     17  C   UNL     1      -6.407  14.784 -16.531  1.00  0.00     0.000 C 
BRANCH  17  18
ATOM     18  C   UNL     1      -4.930  14.368 -16.411  1.00  0.00    -0.000 C 
BRANCH  18  19
ATOM     19  C   UNL     1      -4.747  12.841 -16.414  1.00  0.00    -0.000 C 
BRANCH  19  20
ATOM     20  C   UNL     1      -4.192  12.319 -17.748  1.00  0.00    -0.000 C 
BRANCH  20  21
ATOM     21  C   UNL     1      -5.302  12.219 -18.805  1.00  0.00    -0.000 C 
BRANCH  21  22
ATOM     22  C   UNL     1      -6.686  11.956 -18.188  1.00  0.00    -0.000 C 
BRANCH  22  23
ATOM     23  C   UNL     1      -7.468  10.855 -18.925  1.00  0.00    -0.000 C 
BRANCH  23  24
ATOM     24  C   UNL     1      -8.027   9.791 -17.957  1.00  0.00    -0.000 C 
BRANCH  24  25
ATOM     25  C   UNL     1      -8.740  10.387 -16.733  1.00  0.00    -0.003 C 
ATOM     26  C   UNL     1      -8.121   9.948 -15.407  1.00  0.00     0.004 C 
ENDBRANCH  24  25
ENDBRANCH  23  24
ENDBRANCH  22  23
ENDBRANCH  21  22
ENDBRANCH  20  21
ENDBRANCH  19  20
ENDBRANCH  18  19
ENDBRANCH  17  18
ENDBRANCH  16  17
ENDBRANCH  15  16
ENDBRANCH   1  15
TORSDOF 22
ENDMDL
