MODEL 1
REMARK VINA RESULT:   108.427      0.000      0.000
REMARK INTER + INTRA:         119.725
REMARK INTER:                 117.934
REMARK INTRA:                   1.791
REMARK UNBOUND:                 1.791
REMARK SMILES CC1(C)CC[C@@]2(C(=O)[O-])CC[C@]3(C)C(=CC[C@@H]4[C@]5(C)CC[C@H](O)C(C)(C)[C@@H]5CC[C@@]43C)[C@H]2C1
REMARK SMILES IDX 6 1 5 2 10 3 32 4 4 5 11 6 14 7 33 8 2 9 12 10 15 11 1 12
REMARK SMILES IDX 3 13 13 14 30 15 16 16 17 17 29 18 31 19 18 20 28 21 27 22
REMARK SMILES IDX 20 23 19 24 24 25 21 26 22 27 25 28 26 29 7 30 8 31 9 32
REMARK SMILES IDX 23 33
REMARK H PARENT 23 34
REMARK Flexibility Score: inf
ROOT
ATOM      1  C   UNL     1      10.093   7.675  13.307  1.00  0.00     0.017 C 
ATOM      2  C   UNL     1      10.975   8.450  12.284  1.00  0.00     0.014 C 
ATOM      3  C   UNL     1      10.191   8.414  14.711  1.00  0.00     0.014 C 
ATOM      4  C   UNL     1       8.618   7.530  12.694  1.00  0.00     0.028 C 
ATOM      5  C   UNL     1      11.125   7.705  10.936  1.00  0.00     0.007 C 
ATOM      6  C   UNL     1       8.942   9.140  15.269  1.00  0.00     0.013 C 
ATOM      7  C   UNL     1       7.598   8.437  13.415  1.00  0.00    -0.064 C 
ATOM      8  C   UNL     1       8.581   7.718  11.135  1.00  0.00     0.015 C 
ATOM      9  C   UNL     1       9.787   7.141  10.356  1.00  0.00    -0.035 C 
ATOM     10  C   UNL     1       7.599   8.448  14.939  1.00  0.00    -0.006 C 
ATOM     11  C   UNL     1       6.919   9.413  12.763  1.00  0.00    -0.027 C 
ATOM     12  C   UNL     1       9.758   5.596  10.374  1.00  0.00     0.011 C 
ATOM     13  C   UNL     1       9.659   7.577   8.875  1.00  0.00     0.011 C 
ATOM     14  C   UNL     1       7.634   6.983  15.491  1.00  0.00     0.017 C 
ATOM     15  C   UNL     1       6.265   9.190  15.503  1.00  0.00    -0.020 C 
ATOM     16  C   UNL     1       6.624  10.727  13.423  1.00  0.00     0.032 C 
ATOM     17  C   UNL     1       5.994  10.608  14.835  1.00  0.00     0.006 C 
ATOM     18  C   UNL     1       6.275   9.336  17.054  1.00  0.00     0.008 C 
ATOM     19  C   UNL     1       5.027   8.279  15.152  1.00  0.00     0.012 C 
ATOM     20  C   UNL     1       6.152  11.913  15.751  1.00  0.00    -0.025 C 
ATOM     21  C   UNL     1       5.194  10.281  17.581  1.00  0.00     0.005 C 
ATOM     22  C   UNL     1       5.262  11.765  17.069  1.00  0.00     0.003 C 
ATOM     23  C   UNL     1       7.641  12.203  16.119  1.00  0.00     0.010 C 
ATOM     24  C   UNL     1       5.628  13.110  14.894  1.00  0.00     0.012 C 
ATOM     25  C   UNL     1       5.537  12.844  18.226  1.00  0.00    -0.006 C 
ATOM     26  C   UNL     1       7.838  13.296  17.175  1.00  0.00     0.033 C 
ATOM     27  C   UNL     1       7.067  12.992  18.472  1.00  0.00     0.120 C 
ATOM     28  C   UNL     1       4.916  14.238  17.872  1.00  0.00     0.014 C 
ATOM     29  C   UNL     1       4.843  12.462  19.574  1.00  0.00     0.014 C 
ENDROOT
BRANCH   1  30
ATOM     30  C   UNL     1      10.728   6.296  13.532  1.00  0.00     0.048 C 
ATOM     31  O   UNL     1      11.125   5.957  14.683  1.00  0.00    -0.550 OA
ATOM     32  O   UNL     1      10.754   5.338  12.524  1.00  0.00    -0.550 OA
ENDBRANCH   1  30
BRANCH  27  33
ATOM     33  O   UNL     1       7.583  11.817  19.050  1.00  0.00    -0.393 OA
ATOM     34  H   UNL     1       7.356  11.844  20.014  1.00  0.00     0.210 HD
ENDBRANCH  27  33
TORSDOF 2
ENDMDL
MODEL 2
REMARK VINA RESULT:   110.413      1.728      7.912
REMARK INTER + INTRA:         121.886
REMARK INTER:                 121.890
REMARK INTRA:                  -0.004
REMARK UNBOUND:                 1.791
REMARK SMILES CC1(C)CC[C@@]2(C(=O)[O-])CC[C@]3(C)C(=CC[C@@H]4[C@]5(C)CC[C@H](O)C(C)(C)[C@@H]5CC[C@@]43C)[C@H]2C1
REMARK SMILES IDX 6 1 5 2 10 3 32 4 4 5 11 6 14 7 33 8 2 9 12 10 15 11 1 12
REMARK SMILES IDX 3 13 13 14 30 15 16 16 17 17 29 18 31 19 18 20 28 21 27 22
REMARK SMILES IDX 20 23 19 24 24 25 21 26 22 27 25 28 26 29 7 30 8 31 9 32
REMARK SMILES IDX 23 33
REMARK H PARENT 23 34
REMARK Flexibility Score: inf
ROOT
ATOM      1  C   UNL     1       8.859  10.544  16.547  1.00  0.00     0.017 C 
ATOM      2  C   UNL     1       7.605  10.292  17.435  1.00  0.00     0.014 C 
ATOM      3  C   UNL     1       9.592   9.153  16.311  1.00  0.00     0.014 C 
ATOM      4  C   UNL     1       8.392  11.321  15.224  1.00  0.00     0.028 C 
ATOM      5  C   UNL     1       6.930  11.602  17.905  1.00  0.00     0.007 C 
ATOM      6  C   UNL     1       9.595   8.534  14.892  1.00  0.00     0.013 C 
ATOM      7  C   UNL     1       8.433  10.417  13.973  1.00  0.00    -0.064 C 
ATOM      8  C   UNL     1       7.005  12.039  15.392  1.00  0.00     0.015 C 
ATOM      9  C   UNL     1       6.733  12.669  16.779  1.00  0.00    -0.035 C 
ATOM     10  C   UNL     1       9.677   9.567  13.743  1.00  0.00    -0.006 C 
ATOM     11  C   UNL     1       7.319  10.140  13.252  1.00  0.00    -0.027 C 
ATOM     12  C   UNL     1       7.629  13.909  16.998  1.00  0.00     0.011 C 
ATOM     13  C   UNL     1       5.266  13.164  16.807  1.00  0.00     0.011 C 
ATOM     14  C   UNL     1      10.967  10.433  13.932  1.00  0.00     0.017 C 
ATOM     15  C   UNL     1       9.673   8.950  12.238  1.00  0.00    -0.020 C 
ATOM     16  C   UNL     1       7.100   8.783  12.652  1.00  0.00     0.032 C 
ATOM     17  C   UNL     1       8.306   8.237  11.844  1.00  0.00     0.006 C 
ATOM     18  C   UNL     1      10.862   7.975  11.990  1.00  0.00     0.008 C 
ATOM     19  C   UNL     1       9.866  10.148  11.231  1.00  0.00     0.012 C 
ATOM     20  C   UNL     1       8.317   6.647  11.649  1.00  0.00    -0.025 C 
ATOM     21  C   UNL     1      10.720   7.160  10.704  1.00  0.00     0.005 C 
ATOM     22  C   UNL     1       9.454   6.234  10.607  1.00  0.00     0.003 C 
ATOM     23  C   UNL     1       8.501   5.884  12.999  1.00  0.00     0.010 C 
ATOM     24  C   UNL     1       6.914   6.271  11.073  1.00  0.00     0.012 C 
ATOM     25  C   UNL     1       9.796   4.666  10.527  1.00  0.00    -0.006 C 
ATOM     26  C   UNL     1       8.749   4.379  12.856  1.00  0.00     0.033 C 
ATOM     27  C   UNL     1       9.962   4.077  11.958  1.00  0.00     0.120 C 
ATOM     28  C   UNL     1       8.690   3.876   9.748  1.00  0.00     0.014 C 
ATOM     29  C   UNL     1      11.098   4.382   9.708  1.00  0.00     0.014 C 
ENDROOT
BRANCH   1  30
ATOM     30  C   UNL     1       9.852  11.391  17.355  1.00  0.00     0.048 C 
ATOM     31  O   UNL     1      10.302  12.472  16.879  1.00  0.00    -0.550 OA
ATOM     32  O   UNL     1      10.169  11.074  18.672  1.00  0.00    -0.550 OA
ENDBRANCH   1  30
BRANCH  27  33
ATOM     33  O   UNL     1      11.124   4.590  12.564  1.00  0.00    -0.393 OA
ATOM     34  H   UNL     1      10.929   5.526  12.821  1.00  0.00     0.210 HD
ENDBRANCH  27  33
TORSDOF 2
ENDMDL
