MODEL 1
REMARK VINA RESULT:     0.294      0.000      0.000
REMARK INTER + INTRA:          -0.016
REMARK INTER:                   0.389
REMARK INTRA:                  -0.405
REMARK UNBOUND:                -0.405
REMARK SMILES CC[C@@H](C=C[C@@H](C)[C@@H]1CC[C@@H]2[C@@H]3CC=C4C[C@@H](O)CC[C@]4(C)[C@H]3CC[C@@]21C)C(C)C
REMARK SMILES IDX 6 1 7 2 5 3 4 4 3 5 2 6 1 7 28 8 29 9 30 10 8 11 9 12 26 13
REMARK SMILES IDX 10 14 11 15 25 16 27 17 12 18 24 19 23 20 13 21 21 22 14 23
REMARK SMILES IDX 15 24 20 25 22 26 16 27 19 28 17 29 18 30
REMARK H PARENT 18 31
REMARK Flexibility Score: inf
ROOT
ATOM      1  C   UNL     1      28.198  33.494  22.782  1.00  0.00     0.012 C 
ATOM      2  C   UNL     1      28.781  34.387  23.883  1.00  0.00     0.012 C 
ENDROOT
BRANCH   1   3
ATOM      3  C   UNL     1      29.045  32.241  22.628  1.00  0.00    -0.028 C 
ATOM      4  C   UNL     1      29.062  31.206  23.492  1.00  0.00    -0.027 C 
BRANCH   4   5
ATOM      5  C   UNL     1      28.168  31.052  24.711  1.00  0.00     0.014 C 
BRANCH   5   6
ATOM      6  C   UNL     1      29.046  31.239  25.977  1.00  0.00     0.004 C 
ATOM      7  C   UNL     1      29.008  30.057  26.946  1.00  0.00     0.004 C 
ENDBRANCH   5   6
BRANCH   5   8
ATOM      8  C   UNL     1      27.390  29.698  24.605  1.00  0.00    -0.011 C 
ATOM      9  C   UNL     1      25.904  29.859  24.246  1.00  0.00     0.008 C 
ATOM     10  C   UNL     1      28.072  28.688  23.670  1.00  0.00     0.008 C 
ENDBRANCH   5   8
ENDBRANCH   4   5
ENDBRANCH   1   3
BRANCH   1  11
ATOM     11  C   UNL     1      27.893  34.276  21.453  1.00  0.00     0.002 C 
ATOM     12  C   UNL     1      29.124  34.440  20.546  1.00  0.00     0.005 C 
ATOM     13  C   UNL     1      27.179  35.670  21.446  1.00  0.00    -0.026 C 
ATOM     14  C   UNL     1      28.850  35.653  19.653  1.00  0.00     0.005 C 
ATOM     15  C   UNL     1      27.426  36.130  19.988  1.00  0.00    -0.001 C 
ATOM     16  C   UNL     1      27.837  36.677  22.430  1.00  0.00     0.007 C 
ATOM     17  C   UNL     1      25.655  35.543  21.713  1.00  0.00     0.012 C 
ATOM     18  C   UNL     1      27.130  37.641  19.712  1.00  0.00     0.000 C 
ATOM     19  C   UNL     1      27.373  38.116  22.200  1.00  0.00     0.005 C 
ATOM     20  C   UNL     1      27.727  38.602  20.770  1.00  0.00     0.003 C 
ATOM     21  C   UNL     1      27.595  38.052  18.306  1.00  0.00     0.031 C 
ATOM     22  C   UNL     1      27.309  40.106  20.501  1.00  0.00    -0.008 C 
ATOM     23  C   UNL     1      27.407  39.515  18.040  1.00  0.00    -0.027 C 
ATOM     24  C   UNL     1      27.421  40.456  19.007  1.00  0.00    -0.065 C 
ATOM     25  C   UNL     1      28.267  41.043  21.298  1.00  0.00     0.014 C 
ATOM     26  C   UNL     1      25.841  40.371  20.947  1.00  0.00     0.016 C 
ATOM     27  C   UNL     1      27.375  41.917  18.592  1.00  0.00     0.063 C 
ATOM     28  C   UNL     1      28.114  42.529  20.940  1.00  0.00     0.033 C 
ATOM     29  C   UNL     1      28.342  42.757  19.439  1.00  0.00     0.118 C 
BRANCH  29  30
ATOM     30  O   UNL     1      28.220  44.122  19.122  1.00  0.00    -0.393 OA
ATOM     31  H   UNL     1      27.252  44.328  19.048  1.00  0.00     0.210 HD
ENDBRANCH  29  30
ENDBRANCH   1  11
TORSDOF 6
ENDMDL
