MODEL 1
REMARK VINA RESULT:    -6.510      0.000      0.000
REMARK INTER + INTRA:          -7.958
REMARK INTER:                  -7.842
REMARK INTRA:                  -0.116
REMARK UNBOUND:                -0.116
REMARK SMILES Oc1cc(O)c2cc(O)c(-c3ccc(O)c(O)c3)[o+]c2c1.[Cl-]
REMARK SMILES IDX 10 1 19 2 20 3 21 4 2 5 3 6 4 7 6 8 7 9 8 10 11 11 12 12
REMARK SMILES IDX 13 13 14 14 18 15 16 16 15 17 17 19 9 21 1 23 5 25
REMARK H PARENT 15 18 17 20 9 22 1 24 5 26
REMARK Flexibility Score: inf
ROOT
ATOM      1  C   UNL     1      27.383  -2.257  35.491  1.00  0.00     0.402 A 
ATOM      2  O   UNL     1      26.698  -1.630  34.538  1.00  0.00    -0.202 OA
ATOM      3  C   UNL     1      25.711  -0.776  34.787  1.00  0.00     0.368 A 
ATOM      4  C   UNL     1      25.049  -0.170  33.718  1.00  0.00     0.162 A 
ATOM      5  C   UNL     1      24.007   0.728  33.951  1.00  0.00     0.128 A 
ATOM      6  C   UNL     1      23.621   1.023  35.263  1.00  0.00     0.093 A 
ATOM      7  C   UNL     1      24.269   0.428  36.353  1.00  0.00     0.136 A 
ATOM      8  C   UNL     1      25.331  -0.484  36.120  1.00  0.00     0.125 A 
ATOM      9  C   UNL     1      26.046  -1.117  37.150  1.00  0.00     0.078 A 
ATOM     10  C   UNL     1      27.085  -2.000  36.842  1.00  0.00     0.223 A 
ENDROOT
BRANCH   1  11
ATOM     11  C   UNL     1      28.455  -3.193  35.084  1.00  0.00     0.087 A 
ATOM     12  C   UNL     1      28.132  -4.316  34.307  1.00  0.00     0.022 A 
ATOM     13  C   UNL     1      29.124  -5.224  33.927  1.00  0.00     0.051 A 
ATOM     14  C   UNL     1      30.449  -5.033  34.332  1.00  0.00     0.157 A 
ATOM     15  C   UNL     1      29.784  -3.015  35.508  1.00  0.00     0.068 A 
ATOM     16  C   UNL     1      30.781  -3.926  35.130  1.00  0.00     0.158 A 
BRANCH  14  17
ATOM     17  O   UNL     1      31.418  -5.954  33.937  1.00  0.00    -0.504 OA
ATOM     18  H   UNL     1      31.199  -6.929  33.771  1.00  0.00     0.293 HD
ENDBRANCH  14  17
BRANCH  16  19
ATOM     19  O   UNL     1      32.097  -3.737  35.549  1.00  0.00    -0.504 OA
ATOM     20  H   UNL     1      32.575  -2.853  35.420  1.00  0.00     0.293 HD
ENDBRANCH  16  19
ENDBRANCH   1  11
BRANCH  10  21
ATOM     21  O   UNL     1      27.827  -2.591  37.865  1.00  0.00    -0.500 OA
ATOM     22  H   UNL     1      27.765  -2.268  38.824  1.00  0.00     0.294 HD
ENDBRANCH  10  21
BRANCH   5  23
ATOM     23  O   UNL     1      23.359   1.323  32.871  1.00  0.00    -0.507 OA
ATOM     24  H   UNL     1      23.168   2.318  32.849  1.00  0.00     0.293 HD
ENDBRANCH   5  23
BRANCH   7  25
ATOM     25  O   UNL     1      23.824   0.772  37.633  1.00  0.00    -0.507 OA
ATOM     26  H   UNL     1      23.822   1.711  38.004  1.00  0.00     0.293 HD
ENDBRANCH   7  25
TORSDOF 6
ENDMDL
MODEL 2
REMARK VINA RESULT:    -5.995      1.467      6.952
REMARK INTER + INTRA:          -7.337
REMARK INTER:                  -7.052
REMARK INTRA:                  -0.285
REMARK UNBOUND:                -0.116
REMARK SMILES Oc1cc(O)c2cc(O)c(-c3ccc(O)c(O)c3)[o+]c2c1.[Cl-]
REMARK SMILES IDX 10 1 19 2 20 3 21 4 2 5 3 6 4 7 6 8 7 9 8 10 11 11 12 12
REMARK SMILES IDX 13 13 14 14 18 15 16 16 15 17 17 19 9 21 1 23 5 25
REMARK H PARENT 15 18 17 20 9 22 1 24 5 26
REMARK Flexibility Score: inf
ROOT
ATOM      1  C   UNL     1      26.800  -1.936  35.213  1.00  0.00     0.402 A 
ATOM      2  O   UNL     1      27.033  -3.161  34.748  1.00  0.00    -0.202 OA
ATOM      3  C   UNL     1      28.229  -3.740  34.781  1.00  0.00     0.368 A 
ATOM      4  C   UNL     1      28.374  -5.030  34.265  1.00  0.00     0.162 A 
ATOM      5  C   UNL     1      29.619  -5.660  34.283  1.00  0.00     0.128 A 
ATOM      6  C   UNL     1      30.728  -4.997  34.820  1.00  0.00     0.093 A 
ATOM      7  C   UNL     1      30.609  -3.703  35.342  1.00  0.00     0.136 A 
ATOM      8  C   UNL     1      29.344  -3.060  35.328  1.00  0.00     0.125 A 
ATOM      9  C   UNL     1      29.127  -1.771  35.842  1.00  0.00     0.078 A 
ATOM     10  C   UNL     1      27.850  -1.204  35.797  1.00  0.00     0.223 A 
ENDROOT
BRANCH   1  11
ATOM     11  C   UNL     1      25.424  -1.398  35.111  1.00  0.00     0.087 A 
ATOM     12  C   UNL     1      24.965  -0.908  33.879  1.00  0.00     0.022 A 
ATOM     13  C   UNL     1      23.677  -0.377  33.764  1.00  0.00     0.051 A 
ATOM     14  C   UNL     1      22.837  -0.312  34.879  1.00  0.00     0.157 A 
ATOM     15  C   UNL     1      24.585  -1.312  36.236  1.00  0.00     0.068 A 
ATOM     16  C   UNL     1      23.293  -0.778  36.123  1.00  0.00     0.158 A 
BRANCH  14  17
ATOM     17  O   UNL     1      21.556   0.220  34.734  1.00  0.00    -0.504 OA
ATOM     18  H   UNL     1      20.758  -0.355  34.496  1.00  0.00     0.293 HD
ENDBRANCH  14  17
BRANCH  16  19
ATOM     19  O   UNL     1      22.466  -0.703  37.243  1.00  0.00    -0.504 OA
ATOM     20  H   UNL     1      22.133  -1.536  37.715  1.00  0.00     0.293 HD
ENDBRANCH  16  19
ENDBRANCH   1  11
BRANCH  10  21
ATOM     21  O   UNL     1      27.624   0.056  36.352  1.00  0.00    -0.500 OA
ATOM     22  H   UNL     1      27.727   0.227  37.345  1.00  0.00     0.294 HD
ENDBRANCH  10  21
BRANCH   5  23
ATOM     23  O   UNL     1      29.744  -6.947  33.765  1.00  0.00    -0.507 OA
ATOM     24  H   UNL     1      30.652  -7.372  33.615  1.00  0.00     0.293 HD
ENDBRANCH   5  23
BRANCH   7  25
ATOM     25  O   UNL     1      31.763  -3.107  35.857  1.00  0.00    -0.507 OA
ATOM     26  H   UNL     1      32.550  -2.810  35.298  1.00  0.00     0.293 HD
ENDBRANCH   7  25
TORSDOF 6
ENDMDL
MODEL 3
REMARK VINA RESULT:    -5.903      1.955      3.173
REMARK INTER + INTRA:          -7.227
REMARK INTER:                  -6.938
REMARK INTRA:                  -0.289
REMARK UNBOUND:                -0.116
REMARK SMILES Oc1cc(O)c2cc(O)c(-c3ccc(O)c(O)c3)[o+]c2c1.[Cl-]
REMARK SMILES IDX 10 1 19 2 20 3 21 4 2 5 3 6 4 7 6 8 7 9 8 10 11 11 12 12
REMARK SMILES IDX 13 13 14 14 18 15 16 16 15 17 17 19 9 21 1 23 5 25
REMARK H PARENT 15 18 17 20 9 22 1 24 5 26
REMARK Flexibility Score: inf
ROOT
ATOM      1  C   UNL     1      25.321  -1.144  34.687  1.00  0.00     0.402 A 
ATOM      2  O   UNL     1      25.367  -0.283  33.673  1.00  0.00    -0.202 OA
ATOM      3  C   UNL     1      24.352   0.506  33.337  1.00  0.00     0.368 A 
ATOM      4  C   UNL     1      24.495   1.375  32.254  1.00  0.00     0.162 A 
ATOM      5  C   UNL     1      23.445   2.212  31.877  1.00  0.00     0.128 A 
ATOM      6  C   UNL     1      22.239   2.180  32.587  1.00  0.00     0.093 A 
ATOM      7  C   UNL     1      22.070   1.317  33.677  1.00  0.00     0.136 A 
ATOM      8  C   UNL     1      23.137   0.466  34.065  1.00  0.00     0.125 A 
ATOM      9  C   UNL     1      23.063  -0.420  35.151  1.00  0.00     0.078 A 
ATOM     10  C   UNL     1      24.159  -1.225  35.476  1.00  0.00     0.223 A 
ENDROOT
BRANCH   1  11
ATOM     11  C   UNL     1      26.516  -1.975  34.955  1.00  0.00     0.087 A 
ATOM     12  C   UNL     1      27.366  -1.639  36.020  1.00  0.00     0.022 A 
ATOM     13  C   UNL     1      28.510  -2.398  36.280  1.00  0.00     0.051 A 
ATOM     14  C   UNL     1      28.832  -3.492  35.471  1.00  0.00     0.157 A 
ATOM     15  C   UNL     1      26.853  -3.064  34.130  1.00  0.00     0.068 A 
ATOM     16  C   UNL     1      28.003  -3.825  34.388  1.00  0.00     0.158 A 
BRANCH  14  17
ATOM     17  O   UNL     1      29.979  -4.232  35.756  1.00  0.00    -0.504 OA
ATOM     18  H   UNL     1      30.677  -4.434  35.052  1.00  0.00     0.293 HD
ENDBRANCH  14  17
BRANCH  16  19
ATOM     19  O   UNL     1      28.324  -4.906  33.568  1.00  0.00    -0.504 OA
ATOM     20  H   UNL     1      27.739  -5.172  32.784  1.00  0.00     0.293 HD
ENDBRANCH  16  19
ENDBRANCH   1  11
BRANCH  10  21
ATOM     21  O   UNL     1      24.103  -2.070  36.585  1.00  0.00    -0.500 OA
ATOM     22  H   UNL     1      23.700  -1.768  37.465  1.00  0.00     0.294 HD
ENDBRANCH  10  21
BRANCH   5  23
ATOM     23  O   UNL     1      23.607   3.073  30.794  1.00  0.00    -0.507 OA
ATOM     24  H   UNL     1      24.498   3.513  30.595  1.00  0.00     0.293 HD
ENDBRANCH   5  23
BRANCH   7  25
ATOM     25  O   UNL     1      20.836   1.342  34.333  1.00  0.00    -0.507 OA
ATOM     26  H   UNL     1      20.563   0.698  35.061  1.00  0.00     0.293 HD
ENDBRANCH   7  25
TORSDOF 6
ENDMDL
MODEL 4
REMARK VINA RESULT:    -5.668      3.934      6.624
REMARK INTER + INTRA:          -6.943
REMARK INTER:                  -6.607
REMARK INTRA:                  -0.336
REMARK UNBOUND:                -0.116
REMARK SMILES Oc1cc(O)c2cc(O)c(-c3ccc(O)c(O)c3)[o+]c2c1.[Cl-]
REMARK SMILES IDX 10 1 19 2 20 3 21 4 2 5 3 6 4 7 6 8 7 9 8 10 11 11 12 12
REMARK SMILES IDX 13 13 14 14 18 15 16 16 15 17 17 19 9 21 1 23 5 25
REMARK H PARENT 15 18 17 20 9 22 1 24 5 26
REMARK Flexibility Score: inf
ROOT
ATOM      1  C   UNL     1      22.445   1.215  34.854  1.00  0.00     0.402 A 
ATOM      2  O   UNL     1      22.515   1.681  36.099  1.00  0.00    -0.202 OA
ATOM      3  C   UNL     1      21.679   2.593  36.585  1.00  0.00     0.368 A 
ATOM      4  C   UNL     1      21.834   3.022  37.905  1.00  0.00     0.162 A 
ATOM      5  C   UNL     1      20.973   3.980  38.441  1.00  0.00     0.128 A 
ATOM      6  C   UNL     1      19.949   4.515  37.652  1.00  0.00     0.093 A 
ATOM      7  C   UNL     1      19.772   4.102  36.326  1.00  0.00     0.136 A 
ATOM      8  C   UNL     1      20.645   3.125  35.778  1.00  0.00     0.125 A 
ATOM      9  C   UNL     1      20.535   2.642  34.464  1.00  0.00     0.078 A 
ATOM     10  C   UNL     1      21.429   1.674  33.996  1.00  0.00     0.223 A 
ENDROOT
BRANCH   1  11
ATOM     11  C   UNL     1      23.441   0.206  34.428  1.00  0.00     0.087 A 
ATOM     12  C   UNL     1      24.563   0.614  33.689  1.00  0.00     0.022 A 
ATOM     13  C   UNL     1      25.506  -0.324  33.258  1.00  0.00     0.051 A 
ATOM     14  C   UNL     1      25.335  -1.682  33.544  1.00  0.00     0.157 A 
ATOM     15  C   UNL     1      23.261  -1.163  34.696  1.00  0.00     0.068 A 
ATOM     16  C   UNL     1      24.205  -2.105  34.263  1.00  0.00     0.158 A 
BRANCH  14  17
ATOM     17  O   UNL     1      26.293  -2.593  33.104  1.00  0.00    -0.504 OA
ATOM     18  H   UNL     1      26.943  -3.040  33.739  1.00  0.00     0.293 HD
ENDBRANCH  14  17
BRANCH  16  19
ATOM     19  O   UNL     1      24.020  -3.459  34.540  1.00  0.00    -0.504 OA
ATOM     20  H   UNL     1      24.138  -4.169  33.826  1.00  0.00     0.293 HD
ENDBRANCH  16  19
ENDBRANCH   1  11
BRANCH  10  21
ATOM     21  O   UNL     1      21.290   1.157  32.708  1.00  0.00    -0.500 OA
ATOM     22  H   UNL     1      20.709   0.350  32.518  1.00  0.00     0.294 HD
ENDBRANCH  10  21
BRANCH   5  23
ATOM     23  O   UNL     1      21.143   4.395  39.760  1.00  0.00    -0.507 OA
ATOM     24  H   UNL     1      21.379   5.354  39.988  1.00  0.00     0.293 HD
ENDBRANCH   5  23
BRANCH   7  25
ATOM     25  O   UNL     1      18.729   4.686  35.602  1.00  0.00    -0.507 OA
ATOM     26  H   UNL     1      17.749   4.552  35.805  1.00  0.00     0.293 HD
ENDBRANCH   7  25
TORSDOF 6
ENDMDL
MODEL 5
REMARK VINA RESULT:    -5.601      1.880      7.276
REMARK INTER + INTRA:          -6.862
REMARK INTER:                  -7.084
REMARK INTRA:                   0.222
REMARK UNBOUND:                -0.116
REMARK SMILES Oc1cc(O)c2cc(O)c(-c3ccc(O)c(O)c3)[o+]c2c1.[Cl-]
REMARK SMILES IDX 10 1 19 2 20 3 21 4 2 5 3 6 4 7 6 8 7 9 8 10 11 11 12 12
REMARK SMILES IDX 13 13 14 14 18 15 16 16 15 17 17 19 9 21 1 23 5 25
REMARK H PARENT 15 18 17 20 9 22 1 24 5 26
REMARK Flexibility Score: inf
ROOT
ATOM      1  C   UNL     1      27.606  -2.411  35.346  1.00  0.00     0.402 A 
ATOM      2  O   UNL     1      28.900  -2.365  35.652  1.00  0.00    -0.202 OA
ATOM      3  C   UNL     1      29.794  -3.231  35.183  1.00  0.00     0.368 A 
ATOM      4  C   UNL     1      31.131  -3.102  35.564  1.00  0.00     0.162 A 
ATOM      5  C   UNL     1      32.089  -3.998  35.089  1.00  0.00     0.128 A 
ATOM      6  C   UNL     1      31.709  -5.032  34.226  1.00  0.00     0.093 A 
ATOM      7  C   UNL     1      30.374  -5.183  33.829  1.00  0.00     0.136 A 
ATOM      8  C   UNL     1      29.397  -4.272  34.309  1.00  0.00     0.125 A 
ATOM      9  C   UNL     1      28.040  -4.338  33.953  1.00  0.00     0.078 A 
ATOM     10  C   UNL     1      27.136  -3.400  34.462  1.00  0.00     0.223 A 
ENDROOT
BRANCH   1  11
ATOM     11  C   UNL     1      26.709  -1.395  35.942  1.00  0.00     0.087 A 
ATOM     12  C   UNL     1      27.238  -0.161  36.349  1.00  0.00     0.022 A 
ATOM     13  C   UNL     1      26.414   0.805  36.932  1.00  0.00     0.051 A 
ATOM     14  C   UNL     1      25.054   0.548  37.132  1.00  0.00     0.157 A 
ATOM     15  C   UNL     1      25.345  -1.660  36.163  1.00  0.00     0.068 A 
ATOM     16  C   UNL     1      24.517  -0.692  36.750  1.00  0.00     0.158 A 
BRANCH  14  17
ATOM     17  O   UNL     1      24.256   1.532  37.713  1.00  0.00    -0.504 OA
ATOM     18  H   UNL     1      24.372   2.514  37.499  1.00  0.00     0.293 HD
ENDBRANCH  14  17
BRANCH  16  19
ATOM     19  O   UNL     1      23.166  -0.962  36.959  1.00  0.00    -0.504 OA
ATOM     20  H   UNL     1      22.549  -1.216  36.195  1.00  0.00     0.293 HD
ENDBRANCH  16  19
ENDBRANCH   1  11
BRANCH  10  21
ATOM     21  O   UNL     1      25.798  -3.435  34.071  1.00  0.00    -0.500 OA
ATOM     22  H   UNL     1      25.105  -2.823  34.486  1.00  0.00     0.294 HD
ENDBRANCH  10  21
BRANCH   5  23
ATOM     23  O   UNL     1      33.418  -3.853  35.480  1.00  0.00    -0.507 OA
ATOM     24  H   UNL     1      33.806  -2.947  35.716  1.00  0.00     0.293 HD
ENDBRANCH   5  23
BRANCH   7  25
ATOM     25  O   UNL     1      30.074  -6.242  32.969  1.00  0.00    -0.507 OA
ATOM     26  H   UNL     1      30.195  -7.218  33.200  1.00  0.00     0.293 HD
ENDBRANCH   7  25
TORSDOF 6
ENDMDL
MODEL 6
REMARK VINA RESULT:    -5.537      4.661      8.231
REMARK INTER + INTRA:          -6.786
REMARK INTER:                  -6.457
REMARK INTRA:                  -0.329
REMARK UNBOUND:                -0.116
REMARK SMILES Oc1cc(O)c2cc(O)c(-c3ccc(O)c(O)c3)[o+]c2c1.[Cl-]
REMARK SMILES IDX 10 1 19 2 20 3 21 4 2 5 3 6 4 7 6 8 7 9 8 10 11 11 12 12
REMARK SMILES IDX 13 13 14 14 18 15 16 16 15 17 17 19 9 21 1 23 5 25
REMARK H PARENT 15 18 17 20 9 22 1 24 5 26
REMARK Flexibility Score: inf
ROOT
ATOM      1  C   UNL     1      23.807   2.464  38.306  1.00  0.00     0.402 A 
ATOM      2  O   UNL     1      24.251   1.276  37.905  1.00  0.00    -0.202 OA
ATOM      3  C   UNL     1      23.754   0.626  36.857  1.00  0.00     0.368 A 
ATOM      4  C   UNL     1      24.285  -0.620  36.515  1.00  0.00     0.162 A 
ATOM      5  C   UNL     1      23.780  -1.325  35.422  1.00  0.00     0.128 A 
ATOM      6  C   UNL     1      22.737  -0.782  34.664  1.00  0.00     0.093 A 
ATOM      7  C   UNL     1      22.187   0.465  34.987  1.00  0.00     0.136 A 
ATOM      8  C   UNL     1      22.699   1.186  36.096  1.00  0.00     0.125 A 
ATOM      9  C   UNL     1      22.220   2.448  36.485  1.00  0.00     0.078 A 
ATOM     10  C   UNL     1      22.779   3.100  37.588  1.00  0.00     0.223 A 
ENDROOT
BRANCH   1  11
ATOM     11  C   UNL     1      24.437   3.081  39.496  1.00  0.00     0.087 A 
ATOM     12  C   UNL     1      25.713   3.654  39.382  1.00  0.00     0.022 A 
ATOM     13  C   UNL     1      26.335   4.225  40.495  1.00  0.00     0.051 A 
ATOM     14  C   UNL     1      25.700   4.218  41.741  1.00  0.00     0.157 A 
ATOM     15  C   UNL     1      23.809   3.056  40.754  1.00  0.00     0.068 A 
ATOM     16  C   UNL     1      24.433   3.627  41.874  1.00  0.00     0.158 A 
BRANCH  14  17
ATOM     17  O   UNL     1      26.344   4.797  42.834  1.00  0.00    -0.504 OA
ATOM     18  H   UNL     1      27.090   5.472  42.723  1.00  0.00     0.293 HD
ENDBRANCH  14  17
BRANCH  16  19
ATOM     19  O   UNL     1      23.800   3.603  43.115  1.00  0.00    -0.504 OA
ATOM     20  H   UNL     1      22.834   3.892  43.226  1.00  0.00     0.293 HD
ENDBRANCH  16  19
ENDBRANCH   1  11
BRANCH  10  21
ATOM     21  O   UNL     1      22.337   4.375  37.944  1.00  0.00    -0.500 OA
ATOM     22  H   UNL     1      22.337   4.689  38.908  1.00  0.00     0.294 HD
ENDBRANCH  10  21
BRANCH   5  23
ATOM     23  O   UNL     1      24.323  -2.565  35.095  1.00  0.00    -0.507 OA
ATOM     24  H   UNL     1      25.320  -2.739  35.147  1.00  0.00     0.293 HD
ENDBRANCH   5  23
BRANCH   7  25
ATOM     25  O   UNL     1      21.145   0.937  34.183  1.00  0.00    -0.507 OA
ATOM     26  H   UNL     1      21.227   1.707  33.536  1.00  0.00     0.293 HD
ENDBRANCH   7  25
TORSDOF 6
ENDMDL
MODEL 7
REMARK VINA RESULT:    -5.500      4.941      8.266
REMARK INTER + INTRA:          -6.741
REMARK INTER:                  -6.394
REMARK INTRA:                  -0.347
REMARK UNBOUND:                -0.116
REMARK SMILES Oc1cc(O)c2cc(O)c(-c3ccc(O)c(O)c3)[o+]c2c1.[Cl-]
REMARK SMILES IDX 10 1 19 2 20 3 21 4 2 5 3 6 4 7 6 8 7 9 8 10 11 11 12 12
REMARK SMILES IDX 13 13 14 14 18 15 16 16 15 17 17 19 9 21 1 23 5 25
REMARK H PARENT 15 18 17 20 9 22 1 24 5 26
REMARK Flexibility Score: inf
ROOT
ATOM      1  C   UNL     1      22.874   2.485  38.348  1.00  0.00     0.402 A 
ATOM      2  O   UNL     1      23.193   2.215  39.611  1.00  0.00    -0.202 OA
ATOM      3  C   UNL     1      22.892   3.017  40.628  1.00  0.00     0.368 A 
ATOM      4  C   UNL     1      23.272   2.648  41.920  1.00  0.00     0.162 A 
ATOM      5  C   UNL     1      22.972   3.471  43.006  1.00  0.00     0.128 A 
ATOM      6  C   UNL     1      22.288   4.674  42.800  1.00  0.00     0.093 A 
ATOM      7  C   UNL     1      21.896   5.067  41.514  1.00  0.00     0.136 A 
ATOM      8  C   UNL     1      22.197   4.231  40.408  1.00  0.00     0.125 A 
ATOM      9  C   UNL     1      21.832   4.537  39.086  1.00  0.00     0.078 A 
ATOM     10  C   UNL     1      22.160   3.660  38.048  1.00  0.00     0.223 A 
ENDROOT
BRANCH   1  11
ATOM     11  C   UNL     1      23.274   1.517  37.302  1.00  0.00     0.087 A 
ATOM     12  C   UNL     1      24.472   1.716  36.599  1.00  0.00     0.022 A 
ATOM     13  C   UNL     1      24.859   0.825  35.594  1.00  0.00     0.051 A 
ATOM     14  C   UNL     1      24.050  -0.267  35.266  1.00  0.00     0.157 A 
ATOM     15  C   UNL     1      22.451   0.430  36.956  1.00  0.00     0.068 A 
ATOM     16  C   UNL     1      22.837  -0.464  35.946  1.00  0.00     0.158 A 
BRANCH  14  17
ATOM     17  O   UNL     1      24.463  -1.140  34.261  1.00  0.00    -0.504 OA
ATOM     18  H   UNL     1      25.439  -1.363  34.110  1.00  0.00     0.293 HD
ENDBRANCH  14  17
BRANCH  16  19
ATOM     19  O   UNL     1      22.018  -1.542  35.615  1.00  0.00    -0.504 OA
ATOM     20  H   UNL     1      22.402  -2.428  35.309  1.00  0.00     0.293 HD
ENDBRANCH  16  19
ENDBRANCH   1  11
BRANCH  10  21
ATOM     21  O   UNL     1      21.754   3.939  36.742  1.00  0.00    -0.500 OA
ATOM     22  H   UNL     1      20.863   4.378  36.543  1.00  0.00     0.294 HD
ENDBRANCH  10  21
BRANCH   5  23
ATOM     23  O   UNL     1      23.358   3.086  44.288  1.00  0.00    -0.507 OA
ATOM     24  H   UNL     1      23.358   3.740  45.061  1.00  0.00     0.293 HD
ENDBRANCH   5  23
BRANCH   7  25
ATOM     25  O   UNL     1      21.220   6.284  41.390  1.00  0.00    -0.507 OA
ATOM     26  H   UNL     1      20.480   6.461  40.727  1.00  0.00     0.293 HD
ENDBRANCH   7  25
TORSDOF 6
ENDMDL
MODEL 8
REMARK VINA RESULT:    -5.397      3.967      7.885
REMARK INTER + INTRA:          -6.617
REMARK INTER:                  -6.324
REMARK INTRA:                  -0.294
REMARK UNBOUND:                -0.116
REMARK SMILES Oc1cc(O)c2cc(O)c(-c3ccc(O)c(O)c3)[o+]c2c1.[Cl-]
REMARK SMILES IDX 10 1 19 2 20 3 21 4 2 5 3 6 4 7 6 8 7 9 8 10 11 11 12 12
REMARK SMILES IDX 13 13 14 14 18 15 16 16 15 17 17 19 9 21 1 23 5 25
REMARK H PARENT 15 18 17 20 9 22 1 24 5 26
REMARK Flexibility Score: inf
ROOT
ATOM      1  C   UNL     1      25.324   1.956  38.210  1.00  0.00     0.402 A 
ATOM      2  O   UNL     1      24.235   1.369  37.720  1.00  0.00    -0.202 OA
ATOM      3  C   UNL     1      24.274   0.402  36.809  1.00  0.00     0.368 A 
ATOM      4  C   UNL     1      23.076  -0.151  36.352  1.00  0.00     0.162 A 
ATOM      5  C   UNL     1      23.087  -1.165  35.394  1.00  0.00     0.128 A 
ATOM      6  C   UNL     1      24.304  -1.631  34.887  1.00  0.00     0.093 A 
ATOM      7  C   UNL     1      25.520  -1.093  35.327  1.00  0.00     0.136 A 
ATOM      8  C   UNL     1      25.513  -0.063  36.304  1.00  0.00     0.125 A 
ATOM      9  C   UNL     1      26.681   0.525  36.814  1.00  0.00     0.078 A 
ATOM     10  C   UNL     1      26.595   1.533  37.779  1.00  0.00     0.223 A 
ENDROOT
BRANCH   1  11
ATOM     11  C   UNL     1      25.149   3.029  39.215  1.00  0.00     0.087 A 
ATOM     12  C   UNL     1      24.792   4.319  38.792  1.00  0.00     0.022 A 
ATOM     13  C   UNL     1      24.641   5.352  39.720  1.00  0.00     0.051 A 
ATOM     14  C   UNL     1      24.859   5.117  41.082  1.00  0.00     0.157 A 
ATOM     15  C   UNL     1      25.389   2.801  40.582  1.00  0.00     0.068 A 
ATOM     16  C   UNL     1      25.239   3.837  41.515  1.00  0.00     0.158 A 
BRANCH  14  17
ATOM     17  O   UNL     1      24.698   6.167  41.985  1.00  0.00    -0.504 OA
ATOM     18  H   UNL     1      25.183   6.191  42.873  1.00  0.00     0.293 HD
ENDBRANCH  14  17
BRANCH  16  19
ATOM     19  O   UNL     1      25.473   3.598  42.868  1.00  0.00    -0.504 OA
ATOM     20  H   UNL     1      26.243   3.019  43.182  1.00  0.00     0.293 HD
ENDBRANCH  16  19
ENDBRANCH   1  11
BRANCH  10  21
ATOM     21  O   UNL     1      27.757   2.083  38.322  1.00  0.00    -0.500 OA
ATOM     22  H   UNL     1      28.480   2.484  37.738  1.00  0.00     0.294 HD
ENDBRANCH  10  21
BRANCH   5  23
ATOM     23  O   UNL     1      21.881  -1.705  34.952  1.00  0.00    -0.507 OA
ATOM     24  H   UNL     1      21.500  -1.477  34.041  1.00  0.00     0.293 HD
ENDBRANCH   5  23
BRANCH   7  25
ATOM     25  O   UNL     1      26.693  -1.609  34.770  1.00  0.00    -0.507 OA
ATOM     26  H   UNL     1      27.380  -1.060  34.274  1.00  0.00     0.293 HD
ENDBRANCH   7  25
TORSDOF 6
ENDMDL
MODEL 9
REMARK VINA RESULT:    -5.300      2.524      4.439
REMARK INTER + INTRA:          -6.500
REMARK INTER:                  -6.158
REMARK INTRA:                  -0.343
REMARK UNBOUND:                -0.116
REMARK SMILES Oc1cc(O)c2cc(O)c(-c3ccc(O)c(O)c3)[o+]c2c1.[Cl-]
REMARK SMILES IDX 10 1 19 2 20 3 21 4 2 5 3 6 4 7 6 8 7 9 8 10 11 11 12 12
REMARK SMILES IDX 13 13 14 14 18 15 16 16 15 17 17 19 9 21 1 23 5 25
REMARK H PARENT 15 18 17 20 9 22 1 24 5 26
REMARK Flexibility Score: inf
ROOT
ATOM      1  C   UNL     1      23.885  -0.192  34.304  1.00  0.00     0.402 A 
ATOM      2  O   UNL     1      23.968   0.750  33.369  1.00  0.00    -0.202 OA
ATOM      3  C   UNL     1      22.980   1.596  33.095  1.00  0.00     0.368 A 
ATOM      4  C   UNL     1      23.161   2.551  32.092  1.00  0.00     0.162 A 
ATOM      5  C   UNL     1      22.139   3.449  31.781  1.00  0.00     0.128 A 
ATOM      6  C   UNL     1      20.927   3.393  32.477  1.00  0.00     0.093 A 
ATOM      7  C   UNL     1      20.720   2.445  33.486  1.00  0.00     0.136 A 
ATOM      8  C   UNL     1      21.758   1.532  33.807  1.00  0.00     0.125 A 
ATOM      9  C   UNL     1      21.645   0.558  34.812  1.00  0.00     0.078 A 
ATOM     10  C   UNL     1      22.713  -0.305  35.075  1.00  0.00     0.223 A 
ENDROOT
BRANCH   1  11
ATOM     11  C   UNL     1      25.052  -1.080  34.509  1.00  0.00     0.087 A 
ATOM     12  C   UNL     1      25.160  -2.262  33.759  1.00  0.00     0.022 A 
ATOM     13  C   UNL     1      26.242  -3.125  33.949  1.00  0.00     0.051 A 
ATOM     14  C   UNL     1      27.223  -2.830  34.901  1.00  0.00     0.157 A 
ATOM     15  C   UNL     1      26.029  -0.797  35.481  1.00  0.00     0.068 A 
ATOM     16  C   UNL     1      27.115  -1.663  35.674  1.00  0.00     0.158 A 
BRANCH  14  17
ATOM     17  O   UNL     1      28.293  -3.709  35.067  1.00  0.00    -0.504 OA
ATOM     18  H   UNL     1      28.183  -4.613  35.510  1.00  0.00     0.293 HD
ENDBRANCH  14  17
BRANCH  16  19
ATOM     19  O   UNL     1      28.081  -1.369  36.635  1.00  0.00    -0.504 OA
ATOM     20  H   UNL     1      29.069  -1.361  36.411  1.00  0.00     0.293 HD
ENDBRANCH  16  19
ENDBRANCH   1  11
BRANCH  10  21
ATOM     21  O   UNL     1      22.620  -1.240  36.106  1.00  0.00    -0.500 OA
ATOM     22  H   UNL     1      22.888  -1.014  37.057  1.00  0.00     0.294 HD
ENDBRANCH  10  21
BRANCH   5  23
ATOM     23  O   UNL     1      22.339   4.395  30.778  1.00  0.00    -0.507 OA
ATOM     24  H   UNL     1      23.268   4.641  30.458  1.00  0.00     0.293 HD
ENDBRANCH   5  23
BRANCH   7  25
ATOM     25  O   UNL     1      19.481   2.452  34.132  1.00  0.00    -0.507 OA
ATOM     26  H   UNL     1      18.939   1.624  34.336  1.00  0.00     0.293 HD
ENDBRANCH   7  25
TORSDOF 6
ENDMDL
