MODEL 1
REMARK VINA RESULT:    -5.285      0.000      0.000
REMARK INTER + INTRA:          -6.942
REMARK INTER:                  -7.757
REMARK INTRA:                   0.815
REMARK UNBOUND:                 0.815
REMARK SMILES O=c1c(O[C@H]2O[C@@H](CO)[C@H](O)[C@@H](O)[C@@H]2O)c(-c2ccc(O)c(O)c2)oc2cc(O)cc(O)c12
REMARK SMILES IDX 4 1 3 2 16 3 25 4 2 5 26 6 1 7 33 8 27 9 31 10 28 11 30 12
REMARK SMILES IDX 17 13 18 14 19 15 20 16 24 17 22 18 21 19 23 21 32 23 29 25
REMARK SMILES IDX 5 27 14 28 6 29 12 30 7 31 10 32 15 33 13 35 8 37 9 38 11 40
REMARK H PARENT 21 20 23 22 32 24 29 26 15 34 13 36 9 39 11 41
REMARK Flexibility Score: inf
ROOT
ATOM      1  O   UNL     1       3.377 -17.345   7.435  1.00  0.00    -0.454 OA
ENDROOT
BRANCH   1   2
ATOM      2  C   UNL     1       3.746 -15.983   7.322  1.00  0.00     0.214 A 
ATOM      3  C   UNL     1       4.381 -15.384   8.434  1.00  0.00     0.180 A 
ATOM      4  O   UNL     1       4.805 -14.125   8.371  1.00  0.00    -0.452 OA
ATOM      5  C   UNL     1       3.550 -15.190   6.166  1.00  0.00     0.239 A 
ATOM      6  C   UNL     1       4.648 -13.355   7.303  1.00  0.00     0.146 A 
ATOM      7  O   UNL     1       2.978 -15.668   5.152  1.00  0.00    -0.285 OA
ATOM      8  C   UNL     1       4.006 -13.853   6.147  1.00  0.00     0.111 A 
ATOM      9  C   UNL     1       5.124 -12.041   7.340  1.00  0.00     0.094 A 
ATOM     10  C   UNL     1       3.849 -12.998   5.027  1.00  0.00     0.134 A 
ATOM     11  C   UNL     1       4.971 -11.204   6.233  1.00  0.00     0.123 A 
ATOM     12  C   UNL     1       4.335 -11.683   5.082  1.00  0.00     0.093 A 
BRANCH   3  13
ATOM     13  C   UNL     1       4.613 -16.122   9.698  1.00  0.00     0.025 A 
ATOM     14  C   UNL     1       4.901 -15.446  10.898  1.00  0.00     0.016 A 
ATOM     15  C   UNL     1       5.128 -16.163  12.076  1.00  0.00     0.051 A 
ATOM     16  C   UNL     1       5.090 -17.565  12.068  1.00  0.00     0.157 A 
ATOM     17  C   UNL     1       4.599 -17.528   9.691  1.00  0.00     0.062 A 
ATOM     18  C   UNL     1       4.827 -18.250  10.869  1.00  0.00     0.158 A 
BRANCH  16  19
ATOM     19  O   UNL     1       5.318 -18.278  13.244  1.00  0.00    -0.504 OA
ATOM     20  H   UNL     1       5.612 -17.814  14.098  1.00  0.00     0.293 HD
ENDBRANCH  16  19
BRANCH  18  21
ATOM     21  O   UNL     1       4.787 -19.646  10.825  1.00  0.00    -0.504 OA
ATOM     22  H   UNL     1       5.510 -20.219  11.243  1.00  0.00     0.293 HD
ENDBRANCH  18  21
ENDBRANCH   3  13
BRANCH  10  23
ATOM     23  O   UNL     1       3.216 -13.441   3.864  1.00  0.00    -0.507 OA
ATOM     24  H   UNL     1       2.213 -13.561   3.815  1.00  0.00     0.293 HD
ENDBRANCH  10  23
BRANCH  11  25
ATOM     25  O   UNL     1       5.459  -9.901   6.285  1.00  0.00    -0.508 OA
ATOM     26  H   UNL     1       6.300  -9.633   5.791  1.00  0.00     0.293 HD
ENDBRANCH  11  25
ENDBRANCH   1   2
BRANCH   1  27
ATOM     27  C   UNL     1       3.405 -18.393   6.459  1.00  0.00     0.339 C 
ATOM     28  C   UNL     1       4.140 -19.647   6.996  1.00  0.00     0.214 C 
ATOM     29  O   UNL     1       3.968 -17.932   5.246  1.00  0.00    -0.332 OA
ATOM     30  C   UNL     1       4.796 -20.457   5.846  1.00  0.00     0.180 C 
ATOM     31  C   UNL     1       3.661 -18.823   4.182  1.00  0.00     0.179 C 
ATOM     32  C   UNL     1       4.029 -20.314   4.512  1.00  0.00     0.177 C 
BRANCH  28  33
ATOM     33  O   UNL     1       3.235 -20.471   7.686  1.00  0.00    -0.384 OA
ATOM     34  H   UNL     1       3.712 -21.325   7.876  1.00  0.00     0.211 HD
ENDBRANCH  28  33
BRANCH  30  35
ATOM     35  O   UNL     1       6.120 -20.025   5.650  1.00  0.00    -0.387 OA
ATOM     36  H   UNL     1       6.412 -20.378   4.766  1.00  0.00     0.211 HD
ENDBRANCH  30  35
BRANCH  31  37
ATOM     37  C   UNL     1       4.401 -18.331   2.931  1.00  0.00     0.191 C 
BRANCH  37  38
ATOM     38  O   UNL     1       4.393 -16.930   2.881  1.00  0.00    -0.394 OA
ATOM     39  H   UNL     1       3.686 -16.682   2.231  1.00  0.00     0.210 HD
ENDBRANCH  37  38
ENDBRANCH  31  37
BRANCH  32  40
ATOM     40  O   UNL     1       2.880 -21.125   4.509  1.00  0.00    -0.387 OA
ATOM     41  H   UNL     1       3.094 -21.960   4.019  1.00  0.00     0.211 HD
ENDBRANCH  32  40
ENDBRANCH   1  27
TORSDOF 12
ENDMDL
MODEL 2
REMARK VINA RESULT:    -3.585      7.058     13.555
REMARK INTER + INTRA:          -4.447
REMARK INTER:                  -3.868
REMARK INTRA:                  -0.579
REMARK UNBOUND:                 0.815
REMARK SMILES O=c1c(O[C@H]2O[C@@H](CO)[C@H](O)[C@@H](O)[C@@H]2O)c(-c2ccc(O)c(O)c2)oc2cc(O)cc(O)c12
REMARK SMILES IDX 4 1 3 2 16 3 25 4 2 5 26 6 1 7 33 8 27 9 31 10 28 11 30 12
REMARK SMILES IDX 17 13 18 14 19 15 20 16 24 17 22 18 21 19 23 21 32 23 29 25
REMARK SMILES IDX 5 27 14 28 6 29 12 30 7 31 10 32 15 33 13 35 8 37 9 38 11 40
REMARK H PARENT 21 20 23 22 32 24 29 26 15 34 13 36 9 39 11 41
REMARK Flexibility Score: inf
ROOT
ATOM      1  O   UNL     1       6.366  -4.590   4.308  1.00  0.00    -0.454 OA
ENDROOT
BRANCH   1   2
ATOM      2  C   UNL     1       6.277  -5.883   4.880  1.00  0.00     0.214 A 
ATOM      3  C   UNL     1       7.398  -6.356   5.601  1.00  0.00     0.180 A 
ATOM      4  O   UNL     1       7.357  -7.537   6.212  1.00  0.00    -0.452 OA
ATOM      5  C   UNL     1       5.139  -6.720   4.802  1.00  0.00     0.239 A 
ATOM      6  C   UNL     1       6.306  -8.343   6.170  1.00  0.00     0.146 A 
ATOM      7  O   UNL     1       4.119  -6.355   4.161  1.00  0.00    -0.285 OA
ATOM      8  C   UNL     1       5.144  -7.972   5.456  1.00  0.00     0.111 A 
ATOM      9  C   UNL     1       6.366  -9.569   6.840  1.00  0.00     0.094 A 
ATOM     10  C   UNL     1       4.043  -8.865   5.427  1.00  0.00     0.134 A 
ATOM     11  C   UNL     1       5.277 -10.442   6.812  1.00  0.00     0.123 A 
ATOM     12  C   UNL     1       4.121 -10.090   6.107  1.00  0.00     0.093 A 
BRANCH   3  13
ATOM     13  C   UNL     1       8.645  -5.565   5.723  1.00  0.00     0.025 A 
ATOM     14  C   UNL     1       9.907  -6.186   5.740  1.00  0.00     0.016 A 
ATOM     15  C   UNL     1      11.070  -5.421   5.866  1.00  0.00     0.051 A 
ATOM     16  C   UNL     1      10.988  -4.028   5.999  1.00  0.00     0.157 A 
ATOM     17  C   UNL     1       8.567  -4.170   5.879  1.00  0.00     0.062 A 
ATOM     18  C   UNL     1       9.730  -3.400   6.008  1.00  0.00     0.158 A 
BRANCH  16  19
ATOM     19  O   UNL     1      12.149  -3.267   6.126  1.00  0.00    -0.504 OA
ATOM     20  H   UNL     1      12.439  -2.888   7.022  1.00  0.00     0.293 HD
ENDBRANCH  16  19
BRANCH  18  21
ATOM     21  O   UNL     1       9.612  -2.014   6.142  1.00  0.00    -0.504 OA
ATOM     22  H   UNL     1      10.248  -1.473   6.716  1.00  0.00     0.293 HD
ENDBRANCH  18  21
ENDBRANCH   3  13
BRANCH  10  23
ATOM     23  O   UNL     1       2.875  -8.547   4.731  1.00  0.00    -0.507 OA
ATOM     24  H   UNL     1       2.076  -8.129   5.191  1.00  0.00     0.293 HD
ENDBRANCH  10  23
BRANCH  11  25
ATOM     25  O   UNL     1       5.352 -11.655   7.492  1.00  0.00    -0.508 OA
ATOM     26  H   UNL     1       5.396 -11.691   8.502  1.00  0.00     0.293 HD
ENDBRANCH  11  25
ENDBRANCH   1   2
BRANCH   1  27
ATOM     27  C   UNL     1       5.464  -3.481   4.392  1.00  0.00     0.339 C 
ATOM     28  C   UNL     1       6.213  -2.131   4.249  1.00  0.00     0.214 C 
ATOM     29  O   UNL     1       4.708  -3.539   5.586  1.00  0.00    -0.332 OA
ATOM     30  C   UNL     1       5.479  -0.992   5.006  1.00  0.00     0.180 C 
ATOM     31  C   UNL     1       3.577  -2.683   5.504  1.00  0.00     0.179 C 
ATOM     32  C   UNL     1       3.951  -1.219   5.077  1.00  0.00     0.177 C 
BRANCH  28  33
ATOM     33  O   UNL     1       6.324  -1.789   2.891  1.00  0.00    -0.384 OA
ATOM     34  H   UNL     1       7.173  -1.278   2.793  1.00  0.00     0.211 HD
ENDBRANCH  28  33
BRANCH  30  35
ATOM     35  O   UNL     1       5.977  -0.888   6.316  1.00  0.00    -0.387 OA
ATOM     36  H   UNL     1       6.080  -1.816   6.662  1.00  0.00     0.211 HD
ENDBRANCH  30  35
BRANCH  31  37
ATOM     37  C   UNL     1       2.875  -2.702   6.868  1.00  0.00     0.191 C 
BRANCH  37  38
ATOM     38  O   UNL     1       3.305  -1.620   7.651  1.00  0.00    -0.394 OA
ATOM     39  H   UNL     1       2.805  -1.682   8.505  1.00  0.00     0.210 HD
ENDBRANCH  37  38
ENDBRANCH  31  37
BRANCH  32  40
ATOM     40  O   UNL     1       3.341  -0.883   3.854  1.00  0.00    -0.387 OA
ATOM     41  H   UNL     1       3.829  -1.350   3.129  1.00  0.00     0.211 HD
ENDBRANCH  32  40
ENDBRANCH   1  27
TORSDOF 12
ENDMDL
MODEL 3
REMARK VINA RESULT:    -3.054      6.711     13.395
REMARK INTER + INTRA:          -3.668
REMARK INTER:                  -2.684
REMARK INTRA:                  -0.984
REMARK UNBOUND:                 0.815
REMARK SMILES O=c1c(O[C@H]2O[C@@H](CO)[C@H](O)[C@@H](O)[C@@H]2O)c(-c2ccc(O)c(O)c2)oc2cc(O)cc(O)c12
REMARK SMILES IDX 4 1 3 2 16 3 25 4 2 5 26 6 1 7 33 8 27 9 31 10 28 11 30 12
REMARK SMILES IDX 17 13 18 14 19 15 20 16 24 17 22 18 21 19 23 21 32 23 29 25
REMARK SMILES IDX 5 27 14 28 6 29 12 30 7 31 10 32 15 33 13 35 8 37 9 38 11 40
REMARK H PARENT 21 20 23 22 32 24 29 26 15 34 13 36 9 39 11 41
REMARK Flexibility Score: inf
ROOT
ATOM      1  O   UNL     1       6.711  -5.408   6.373  1.00  0.00    -0.454 OA
ENDROOT
BRANCH   1   2
ATOM      2  C   UNL     1       5.937  -6.519   5.961  1.00  0.00     0.214 A 
ATOM      3  C   UNL     1       4.808  -6.264   5.149  1.00  0.00     0.180 A 
ATOM      4  O   UNL     1       4.074  -7.269   4.680  1.00  0.00    -0.452 OA
ATOM      5  C   UNL     1       6.230  -7.867   6.282  1.00  0.00     0.239 A 
ATOM      6  C   UNL     1       4.323  -8.543   4.951  1.00  0.00     0.146 A 
ATOM      7  O   UNL     1       7.215  -8.150   7.013  1.00  0.00    -0.285 OA
ATOM      8  C   UNL     1       5.416  -8.902   5.772  1.00  0.00     0.111 A 
ATOM      9  C   UNL     1       3.486  -9.525   4.413  1.00  0.00     0.094 A 
ATOM     10  C   UNL     1       5.646 -10.274   6.046  1.00  0.00     0.134 A 
ATOM     11  C   UNL     1       3.720 -10.875   4.683  1.00  0.00     0.123 A 
ATOM     12  C   UNL     1       4.796 -11.246   5.497  1.00  0.00     0.093 A 
BRANCH   3  13
ATOM     13  C   UNL     1       4.404  -4.888   4.775  1.00  0.00     0.025 A 
ATOM     14  C   UNL     1       4.595  -4.399   3.470  1.00  0.00     0.016 A 
ATOM     15  C   UNL     1       4.217  -3.094   3.142  1.00  0.00     0.051 A 
ATOM     16  C   UNL     1       3.661  -2.253   4.117  1.00  0.00     0.157 A 
ATOM     17  C   UNL     1       3.867  -4.035   5.754  1.00  0.00     0.062 A 
ATOM     18  C   UNL     1       3.489  -2.726   5.430  1.00  0.00     0.158 A 
BRANCH  16  19
ATOM     19  O   UNL     1       3.285  -0.952   3.788  1.00  0.00    -0.504 OA
ATOM     20  H   UNL     1       2.356  -0.599   3.996  1.00  0.00     0.293 HD
ENDBRANCH  16  19
BRANCH  18  21
ATOM     21  O   UNL     1       2.942  -1.913   6.427  1.00  0.00    -0.504 OA
ATOM     22  H   UNL     1       3.270  -0.970   6.592  1.00  0.00     0.293 HD
ENDBRANCH  18  21
ENDBRANCH   3  13
BRANCH  10  23
ATOM     23  O   UNL     1       6.709 -10.679   6.856  1.00  0.00    -0.507 OA
ATOM     24  H   UNL     1       7.566 -11.049   6.466  1.00  0.00     0.293 HD
ENDBRANCH  10  23
BRANCH  11  25
ATOM     25  O   UNL     1       2.880 -11.840   4.133  1.00  0.00    -0.508 OA
ATOM     26  H   UNL     1       1.901 -11.892   4.383  1.00  0.00     0.293 HD
ENDBRANCH  11  25
ENDBRANCH   1   2
BRANCH   1  27
ATOM     27  C   UNL     1       7.496  -4.492   5.600  1.00  0.00     0.339 C 
ATOM     28  C   UNL     1       8.945  -5.008   5.412  1.00  0.00     0.214 C 
ATOM     29  O   UNL     1       7.468  -3.200   6.174  1.00  0.00    -0.332 OA
ATOM     30  C   UNL     1       9.948  -3.835   5.246  1.00  0.00     0.180 C 
ATOM     31  C   UNL     1       7.913  -2.228   5.238  1.00  0.00     0.179 C 
ATOM     32  C   UNL     1       9.299  -2.592   4.596  1.00  0.00     0.177 C 
BRANCH  28  33
ATOM     33  O   UNL     1       9.013  -5.840   4.282  1.00  0.00    -0.384 OA
ATOM     34  H   UNL     1       9.841  -5.588   3.790  1.00  0.00     0.211 HD
ENDBRANCH  28  33
BRANCH  30  35
ATOM     35  O   UNL     1      10.467  -3.466   6.499  1.00  0.00    -0.387 OA
ATOM     36  H   UNL     1      10.787  -2.527   6.415  1.00  0.00     0.211 HD
ENDBRANCH  30  35
BRANCH  31  37
ATOM     37  C   UNL     1       7.974  -0.875   5.960  1.00  0.00     0.191 C 
BRANCH  37  38
ATOM     38  O   UNL     1       7.841  -1.057   7.345  1.00  0.00    -0.394 OA
ATOM     39  H   UNL     1       6.868  -1.028   7.534  1.00  0.00     0.210 HD
ENDBRANCH  37  38
ENDBRANCH  31  37
BRANCH  32  40
ATOM     40  O   UNL     1       9.176  -2.764   3.205  1.00  0.00    -0.387 OA
ATOM     41  H   UNL     1       8.839  -3.682   3.038  1.00  0.00     0.211 HD
ENDBRANCH  32  40
ENDBRANCH   1  27
TORSDOF 12
ENDMDL
MODEL 4
REMARK VINA RESULT:    -2.863      6.822     12.985
REMARK INTER + INTRA:          -3.387
REMARK INTER:                  -2.290
REMARK INTRA:                  -1.097
REMARK UNBOUND:                 0.815
REMARK SMILES O=c1c(O[C@H]2O[C@@H](CO)[C@H](O)[C@@H](O)[C@@H]2O)c(-c2ccc(O)c(O)c2)oc2cc(O)cc(O)c12
REMARK SMILES IDX 4 1 3 2 16 3 25 4 2 5 26 6 1 7 33 8 27 9 31 10 28 11 30 12
REMARK SMILES IDX 17 13 18 14 19 15 20 16 24 17 22 18 21 19 23 21 32 23 29 25
REMARK SMILES IDX 5 27 14 28 6 29 12 30 7 31 10 32 15 33 13 35 8 37 9 38 11 40
REMARK H PARENT 21 20 23 22 32 24 29 26 15 34 13 36 9 39 11 41
REMARK Flexibility Score: inf
ROOT
ATOM      1  O   UNL     1       6.181  -5.588   6.663  1.00  0.00    -0.454 OA
ENDROOT
BRANCH   1   2
ATOM      2  C   UNL     1       5.507  -6.648   6.011  1.00  0.00     0.214 A 
ATOM      3  C   UNL     1       4.594  -6.309   4.985  1.00  0.00     0.180 A 
ATOM      4  O   UNL     1       3.973  -7.260   4.293  1.00  0.00    -0.452 OA
ATOM      5  C   UNL     1       5.702  -8.022   6.294  1.00  0.00     0.239 A 
ATOM      6  C   UNL     1       4.138  -8.555   4.523  1.00  0.00     0.146 A 
ATOM      7  O   UNL     1       6.492  -8.380   7.206  1.00  0.00    -0.285 OA
ATOM      8  C   UNL     1       5.012  -8.998   5.542  1.00  0.00     0.111 A 
ATOM      9  C   UNL     1       3.432  -9.476   3.744  1.00  0.00     0.094 A 
ATOM     10  C   UNL     1       5.157 -10.391   5.764  1.00  0.00     0.134 A 
ATOM     11  C   UNL     1       3.582 -10.846   3.963  1.00  0.00     0.123 A 
ATOM     12  C   UNL     1       4.441 -11.300   4.971  1.00  0.00     0.093 A 
BRANCH   3  13
ATOM     13  C   UNL     1       4.303  -4.901   4.627  1.00  0.00     0.025 A 
ATOM     14  C   UNL     1       4.540  -4.411   3.329  1.00  0.00     0.016 A 
ATOM     15  C   UNL     1       4.268  -3.076   3.017  1.00  0.00     0.051 A 
ATOM     16  C   UNL     1       3.775  -2.207   4.001  1.00  0.00     0.157 A 
ATOM     17  C   UNL     1       3.830  -4.019   5.615  1.00  0.00     0.062 A 
ATOM     18  C   UNL     1       3.559  -2.681   5.307  1.00  0.00     0.158 A 
BRANCH  16  19
ATOM     19  O   UNL     1       3.506  -0.876   3.687  1.00  0.00    -0.504 OA
ATOM     20  H   UNL     1       4.104  -0.347   3.060  1.00  0.00     0.293 HD
ENDBRANCH  16  19
BRANCH  18  21
ATOM     21  O   UNL     1       3.073  -1.839   6.312  1.00  0.00    -0.504 OA
ATOM     22  H   UNL     1       2.301  -1.204   6.154  1.00  0.00     0.293 HD
ENDBRANCH  18  21
ENDBRANCH   3  13
BRANCH  10  23
ATOM     23  O   UNL     1       6.003 -10.878   6.762  1.00  0.00    -0.507 OA
ATOM     24  H   UNL     1       5.676 -11.521   7.472  1.00  0.00     0.293 HD
ENDBRANCH  10  23
BRANCH  11  25
ATOM     25  O   UNL     1       2.876 -11.750   3.172  1.00  0.00    -0.508 OA
ATOM     26  H   UNL     1       3.083 -11.862   2.188  1.00  0.00     0.293 HD
ENDBRANCH  11  25
ENDBRANCH   1   2
BRANCH   1  27
ATOM     27  C   UNL     1       7.468  -5.015   6.405  1.00  0.00     0.339 C 
ATOM     28  C   UNL     1       7.348  -3.546   5.926  1.00  0.00     0.214 C 
ATOM     29  O   UNL     1       8.194  -5.810   5.487  1.00  0.00    -0.332 OA
ATOM     30  C   UNL     1       8.532  -3.151   5.005  1.00  0.00     0.180 C 
ATOM     31  C   UNL     1       9.574  -5.470   5.514  1.00  0.00     0.179 C 
ATOM     32  C   UNL     1       9.825  -3.930   5.337  1.00  0.00     0.177 C 
BRANCH  28  33
ATOM     33  O   UNL     1       7.316  -2.685   7.036  1.00  0.00    -0.384 OA
ATOM     34  H   UNL     1       6.488  -2.903   7.544  1.00  0.00     0.211 HD
ENDBRANCH  28  33
BRANCH  30  35
ATOM     35  O   UNL     1       8.196  -3.394   3.661  1.00  0.00    -0.387 OA
ATOM     36  H   UNL     1       7.298  -3.824   3.659  1.00  0.00     0.211 HD
ENDBRANCH  30  35
BRANCH  31  37
ATOM     37  C   UNL     1      10.277  -6.278   4.415  1.00  0.00     0.191 C 
BRANCH  37  38
ATOM     38  O   UNL     1      11.620  -6.494   4.755  1.00  0.00    -0.394 OA
ATOM     39  H   UNL     1      12.155  -5.936   4.134  1.00  0.00     0.210 HD
ENDBRANCH  37  38
ENDBRANCH  31  37
BRANCH  32  40
ATOM     40  O   UNL     1      10.452  -3.392   6.476  1.00  0.00    -0.387 OA
ATOM     41  H   UNL     1      10.166  -2.447   6.566  1.00  0.00     0.211 HD
ENDBRANCH  32  40
ENDBRANCH   1  27
TORSDOF 12
ENDMDL
MODEL 5
REMARK VINA RESULT:    -2.744      1.432      5.905
REMARK INTER + INTRA:          -3.212
REMARK INTER:                  -4.599
REMARK INTRA:                   1.387
REMARK UNBOUND:                 0.815
REMARK SMILES O=c1c(O[C@H]2O[C@@H](CO)[C@H](O)[C@@H](O)[C@@H]2O)c(-c2ccc(O)c(O)c2)oc2cc(O)cc(O)c12
REMARK SMILES IDX 4 1 3 2 16 3 25 4 2 5 26 6 1 7 33 8 27 9 31 10 28 11 30 12
REMARK SMILES IDX 17 13 18 14 19 15 20 16 24 17 22 18 21 19 23 21 32 23 29 25
REMARK SMILES IDX 5 27 14 28 6 29 12 30 7 31 10 32 15 33 13 35 8 37 9 38 11 40
REMARK H PARENT 21 20 23 22 32 24 29 26 15 34 13 36 9 39 11 41
REMARK Flexibility Score: inf
ROOT
ATOM      1  O   UNL     1       4.366 -17.094   5.570  1.00  0.00    -0.454 OA
ENDROOT
BRANCH   1   2
ATOM      2  C   UNL     1       4.408 -16.686   6.925  1.00  0.00     0.214 A 
ATOM      3  C   UNL     1       4.227 -15.310   7.198  1.00  0.00     0.180 A 
ATOM      4  O   UNL     1       4.197 -14.870   8.453  1.00  0.00    -0.452 OA
ATOM      5  C   UNL     1       4.591 -17.559   8.024  1.00  0.00     0.239 A 
ATOM      6  C   UNL     1       4.354 -15.658   9.506  1.00  0.00     0.146 A 
ATOM      7  O   UNL     1       4.771 -18.791   7.838  1.00  0.00    -0.285 OA
ATOM      8  C   UNL     1       4.564 -17.046   9.339  1.00  0.00     0.111 A 
ATOM      9  C   UNL     1       4.313 -15.095  10.785  1.00  0.00     0.094 A 
ATOM     10  C   UNL     1       4.737 -17.856  10.490  1.00  0.00     0.134 A 
ATOM     11  C   UNL     1       4.479 -15.898  11.914  1.00  0.00     0.123 A 
ATOM     12  C   UNL     1       4.691 -17.274  11.765  1.00  0.00     0.093 A 
BRANCH   3  13
ATOM     13  C   UNL     1       4.049 -14.311   6.117  1.00  0.00     0.025 A 
ATOM     14  C   UNL     1       3.512 -14.672   4.868  1.00  0.00     0.016 A 
ATOM     15  C   UNL     1       3.363 -13.716   3.859  1.00  0.00     0.051 A 
ATOM     16  C   UNL     1       3.767 -12.391   4.077  1.00  0.00     0.157 A 
ATOM     17  C   UNL     1       4.473 -12.987   6.323  1.00  0.00     0.062 A 
ATOM     18  C   UNL     1       4.327 -12.026   5.314  1.00  0.00     0.158 A 
BRANCH  16  19
ATOM     19  O   UNL     1       3.619 -11.439   3.070  1.00  0.00    -0.504 OA
ATOM     20  H   UNL     1       4.423 -11.015   2.618  1.00  0.00     0.293 HD
ENDBRANCH  16  19
BRANCH  18  21
ATOM     21  O   UNL     1       4.744 -10.715   5.563  1.00  0.00    -0.504 OA
ATOM     22  H   UNL     1       5.379 -10.226   4.944  1.00  0.00     0.293 HD
ENDBRANCH  18  21
ENDBRANCH   3  13
BRANCH  10  23
ATOM     23  O   UNL     1       4.953 -19.231  10.377  1.00  0.00    -0.507 OA
ATOM     24  H   UNL     1       4.743 -19.868  11.135  1.00  0.00     0.293 HD
ENDBRANCH  10  23
BRANCH  11  25
ATOM     25  O   UNL     1       4.428 -15.321  13.181  1.00  0.00    -0.508 OA
ATOM     26  H   UNL     1       5.149 -14.688  13.502  1.00  0.00     0.293 HD
ENDBRANCH  11  25
ENDBRANCH   1   2
BRANCH   1  27
ATOM     27  C   UNL     1       4.617 -18.378   4.985  1.00  0.00     0.339 C 
ATOM     28  C   UNL     1       3.296 -19.106   4.631  1.00  0.00     0.214 C 
ATOM     29  O   UNL     1       5.439 -19.160   5.830  1.00  0.00    -0.332 OA
ATOM     30  C   UNL     1       3.465 -20.648   4.685  1.00  0.00     0.180 C 
ATOM     31  C   UNL     1       5.993 -20.255   5.113  1.00  0.00     0.179 C 
ATOM     32  C   UNL     1       4.907 -21.095   4.351  1.00  0.00     0.177 C 
BRANCH  28  33
ATOM     33  O   UNL     1       2.875 -18.731   3.344  1.00  0.00    -0.384 OA
ATOM     34  H   UNL     1       1.892 -18.584   3.395  1.00  0.00     0.211 HD
ENDBRANCH  28  33
BRANCH  30  35
ATOM     35  O   UNL     1       3.136 -21.122   5.967  1.00  0.00    -0.387 OA
ATOM     36  H   UNL     1       3.905 -20.908   6.562  1.00  0.00     0.211 HD
ENDBRANCH  30  35
BRANCH  31  37
ATOM     37  C   UNL     1       6.768 -21.125   6.112  1.00  0.00     0.191 C 
BRANCH  37  38
ATOM     38  O   UNL     1       6.135 -21.110   7.363  1.00  0.00    -0.394 OA
ATOM     39  H   UNL     1       5.418 -20.428   7.301  1.00  0.00     0.210 HD
ENDBRANCH  37  38
ENDBRANCH  31  37
BRANCH  32  40
ATOM     40  O   UNL     1       5.130 -21.059   2.962  1.00  0.00    -0.387 OA
ATOM     41  H   UNL     1       6.101 -20.923   2.811  1.00  0.00     0.211 HD
ENDBRANCH  32  40
ENDBRANCH   1  27
TORSDOF 12
ENDMDL
MODEL 6
REMARK VINA RESULT:    -2.342      6.585     12.918
REMARK INTER + INTRA:          -2.622
REMARK INTER:                  -2.681
REMARK INTRA:                   0.059
REMARK UNBOUND:                 0.815
REMARK SMILES O=c1c(O[C@H]2O[C@@H](CO)[C@H](O)[C@@H](O)[C@@H]2O)c(-c2ccc(O)c(O)c2)oc2cc(O)cc(O)c12
REMARK SMILES IDX 4 1 3 2 16 3 25 4 2 5 26 6 1 7 33 8 27 9 31 10 28 11 30 12
REMARK SMILES IDX 17 13 18 14 19 15 20 16 24 17 22 18 21 19 23 21 32 23 29 25
REMARK SMILES IDX 5 27 14 28 6 29 12 30 7 31 10 32 15 33 13 35 8 37 9 38 11 40
REMARK H PARENT 21 20 23 22 32 24 29 26 15 34 13 36 9 39 11 41
REMARK Flexibility Score: inf
ROOT
ATOM      1  O   UNL     1       5.429  -5.533   3.919  1.00  0.00    -0.454 OA
ENDROOT
BRANCH   1   2
ATOM      2  C   UNL     1       5.518  -6.742   4.651  1.00  0.00     0.214 A 
ATOM      3  C   UNL     1       6.557  -6.852   5.604  1.00  0.00     0.180 A 
ATOM      4  O   UNL     1       6.660  -7.938   6.366  1.00  0.00    -0.452 OA
ATOM      5  C   UNL     1       4.627  -7.833   4.514  1.00  0.00     0.239 A 
ATOM      6  C   UNL     1       5.839  -8.975   6.273  1.00  0.00     0.146 A 
ATOM      7  O   UNL     1       3.693  -7.795   3.671  1.00  0.00    -0.285 OA
ATOM      8  C   UNL     1       4.782  -8.972   5.335  1.00  0.00     0.111 A 
ATOM      9  C   UNL     1       6.038 -10.073   7.116  1.00  0.00     0.094 A 
ATOM     10  C   UNL     1       3.929 -10.102   5.260  1.00  0.00     0.134 A 
ATOM     11  C   UNL     1       5.193 -11.181   7.040  1.00  0.00     0.123 A 
ATOM     12  C   UNL     1       4.143 -11.194   6.114  1.00  0.00     0.093 A 
BRANCH   3  13
ATOM     13  C   UNL     1       7.554  -5.775   5.809  1.00  0.00     0.025 A 
ATOM     14  C   UNL     1       7.167  -4.492   6.237  1.00  0.00     0.016 A 
ATOM     15  C   UNL     1       8.124  -3.488   6.413  1.00  0.00     0.051 A 
ATOM     16  C   UNL     1       9.476  -3.745   6.144  1.00  0.00     0.157 A 
ATOM     17  C   UNL     1       8.907  -6.022   5.520  1.00  0.00     0.062 A 
ATOM     18  C   UNL     1       9.868  -5.018   5.693  1.00  0.00     0.158 A 
BRANCH  16  19
ATOM     19  O   UNL     1      10.427  -2.742   6.319  1.00  0.00    -0.504 OA
ATOM     20  H   UNL     1      10.457  -1.927   5.714  1.00  0.00     0.293 HD
ENDBRANCH  16  19
BRANCH  18  21
ATOM     21  O   UNL     1      11.207  -5.306   5.412  1.00  0.00    -0.504 OA
ATOM     22  H   UNL     1      11.512  -5.600   4.493  1.00  0.00     0.293 HD
ENDBRANCH  18  21
ENDBRANCH   3  13
BRANCH  10  23
ATOM     23  O   UNL     1       2.875 -10.150   4.346  1.00  0.00    -0.507 OA
ATOM     24  H   UNL     1       2.829 -10.855   3.621  1.00  0.00     0.293 HD
ENDBRANCH  10  23
BRANCH  11  25
ATOM     25  O   UNL     1       5.401 -12.263   7.893  1.00  0.00    -0.508 OA
ATOM     26  H   UNL     1       6.081 -12.980   7.678  1.00  0.00     0.293 HD
ENDBRANCH  11  25
ENDBRANCH   1   2
BRANCH   1  27
ATOM     27  C   UNL     1       5.125  -4.206   4.364  1.00  0.00     0.339 C 
ATOM     28  C   UNL     1       3.597  -3.998   4.522  1.00  0.00     0.214 C 
ATOM     29  O   UNL     1       5.700  -3.245   3.501  1.00  0.00    -0.332 OA
ATOM     30  C   UNL     1       3.200  -2.515   4.297  1.00  0.00     0.180 C 
ATOM     31  C   UNL     1       5.729  -1.967   4.123  1.00  0.00     0.179 C 
ATOM     32  C   UNL     1       4.330  -1.535   4.690  1.00  0.00     0.177 C 
BRANCH  28  33
ATOM     33  O   UNL     1       3.192  -4.397   5.808  1.00  0.00    -0.384 OA
ATOM     34  H   UNL     1       2.198  -4.343   5.824  1.00  0.00     0.211 HD
ENDBRANCH  28  33
BRANCH  30  35
ATOM     35  O   UNL     1       2.875  -2.305   2.946  1.00  0.00    -0.387 OA
ATOM     36  H   UNL     1       2.975  -3.181   2.484  1.00  0.00     0.211 HD
ENDBRANCH  30  35
BRANCH  31  37
ATOM     37  C   UNL     1       6.248  -0.956   3.092  1.00  0.00     0.191 C 
BRANCH  37  38
ATOM     38  O   UNL     1       7.646  -1.018   3.012  1.00  0.00    -0.394 OA
ATOM     39  H   UNL     1       7.976  -0.108   3.229  1.00  0.00     0.210 HD
ENDBRANCH  37  38
ENDBRANCH  31  37
BRANCH  32  40
ATOM     40  O   UNL     1       4.385  -1.372   6.086  1.00  0.00    -0.387 OA
ATOM     41  H   UNL     1       4.334  -0.402   6.284  1.00  0.00     0.211 HD
ENDBRANCH  32  40
ENDBRANCH   1  27
TORSDOF 12
ENDMDL
