MODEL 1
REMARK VINA RESULT:     8.741      0.000      0.000
REMARK INTER + INTRA:          13.691
REMARK INTER:                  13.852
REMARK INTRA:                  -0.160
REMARK UNBOUND:                -0.160
REMARK SMILES CCCCCCCCCCCC(=O)[O-]
REMARK SMILES IDX 7 1 8 2 9 3 10 4 11 5 12 6 13 7 14 8 6 9 5 10 4 11 3 12 2 13
REMARK SMILES IDX 1 14
REMARK H PARENT
REMARK Flexibility Score: inf
ROOT
ATOM      1  C   UNL     1     -10.785  -1.109 -18.318  1.00  0.00     0.000 C 
ENDROOT
BRANCH   1   2
ATOM      2  C   UNL     1     -12.015  -1.647 -17.556  1.00  0.00     0.000 C 
BRANCH   2   3
ATOM      3  C   UNL     1     -12.920  -0.513 -17.044  1.00  0.00     0.000 C 
BRANCH   3   4
ATOM      4  C   UNL     1     -12.736   0.794 -17.830  1.00  0.00     0.006 C 
BRANCH   4   5
ATOM      5  C   UNL     1     -11.781   1.773 -17.134  1.00  0.00     0.053 C 
BRANCH   5   6
ATOM      6  C   UNL     1     -12.183   3.185 -17.417  1.00  0.00     0.041 C 
ATOM      7  O   UNL     1     -12.983   3.441 -18.355  1.00  0.00    -0.550 OA
ATOM      8  O   UNL     1     -11.636   4.225 -16.677  1.00  0.00    -0.550 OA
ENDBRANCH   5   6
ENDBRANCH   4   5
ENDBRANCH   3   4
ENDBRANCH   2   3
ENDBRANCH   1   2
BRANCH   1   9
ATOM      9  C   UNL     1      -9.574  -0.824 -17.413  1.00  0.00     0.000 C 
BRANCH   9  10
ATOM     10  C   UNL     1      -8.247  -1.302 -18.022  1.00  0.00    -0.000 C 
BRANCH  10  11
ATOM     11  C   UNL     1      -7.039  -0.505 -17.505  1.00  0.00    -0.000 C 
BRANCH  11  12
ATOM     12  C   UNL     1      -7.035  -0.358 -15.976  1.00  0.00    -0.000 C 
BRANCH  12  13
ATOM     13  C   UNL     1      -6.903  -1.725 -15.295  1.00  0.00    -0.003 C 
ATOM     14  C   UNL     1      -7.482  -1.697 -13.883  1.00  0.00     0.004 C 
ENDBRANCH  12  13
ENDBRANCH  11  12
ENDBRANCH  10  11
ENDBRANCH   9  10
ENDBRANCH   1   9
TORSDOF 10
ENDMDL
MODEL 2
REMARK VINA RESULT:     9.505      3.502      7.228
REMARK INTER + INTRA:          14.902
REMARK INTER:                  15.218
REMARK INTRA:                  -0.316
REMARK UNBOUND:                -0.160
REMARK SMILES CCCCCCCCCCCC(=O)[O-]
REMARK SMILES IDX 7 1 8 2 9 3 10 4 11 5 12 6 13 7 14 8 6 9 5 10 4 11 3 12 2 13
REMARK SMILES IDX 1 14
REMARK H PARENT
REMARK Flexibility Score: inf
ROOT
ATOM      1  C   UNL     1     -12.703   0.868 -17.135  1.00  0.00     0.000 C 
ENDROOT
BRANCH   1   2
ATOM      2  C   UNL     1     -12.373  -0.134 -18.263  1.00  0.00     0.000 C 
BRANCH   2   3
ATOM      3  C   UNL     1     -11.343  -1.187 -17.820  1.00  0.00     0.000 C 
BRANCH   3   4
ATOM      4  C   UNL     1     -10.044  -0.560 -17.291  1.00  0.00     0.006 C 
BRANCH   4   5
ATOM      5  C   UNL     1      -8.835  -1.493 -17.437  1.00  0.00     0.053 C 
BRANCH   5   6
ATOM      6  C   UNL     1      -7.646  -0.921 -16.732  1.00  0.00     0.041 C 
ATOM      7  O   UNL     1      -6.875  -0.125 -17.331  1.00  0.00    -0.550 OA
ATOM      8  O   UNL     1      -7.360  -1.304 -15.428  1.00  0.00    -0.550 OA
ENDBRANCH   5   6
ENDBRANCH   4   5
ENDBRANCH   3   4
ENDBRANCH   2   3
ENDBRANCH   1   2
BRANCH   1   9
ATOM      9  C   UNL     1     -12.463   2.336 -17.524  1.00  0.00     0.000 C 
BRANCH   9  10
ATOM     10  C   UNL     1     -13.455   2.843 -18.582  1.00  0.00    -0.000 C 
BRANCH  10  11
ATOM     11  C   UNL     1     -13.455   4.375 -18.706  1.00  0.00    -0.000 C 
BRANCH  11  12
ATOM     12  C   UNL     1     -14.854   4.948 -18.982  1.00  0.00    -0.000 C 
BRANCH  12  13
ATOM     13  C   UNL     1     -14.805   5.998 -20.097  1.00  0.00    -0.003 C 
ATOM     14  C   UNL     1     -15.243   7.368 -19.586  1.00  0.00     0.004 C 
ENDBRANCH  12  13
ENDBRANCH  11  12
ENDBRANCH  10  11
ENDBRANCH   9  10
ENDBRANCH   1   9
TORSDOF 10
ENDMDL
MODEL 3
REMARK VINA RESULT:     9.836      2.947      6.222
REMARK INTER + INTRA:          15.426
REMARK INTER:                  16.045
REMARK INTRA:                  -0.619
REMARK UNBOUND:                -0.160
REMARK SMILES CCCCCCCCCCCC(=O)[O-]
REMARK SMILES IDX 7 1 8 2 9 3 10 4 11 5 12 6 13 7 14 8 6 9 5 10 4 11 3 12 2 13
REMARK SMILES IDX 1 14
REMARK H PARENT
REMARK Flexibility Score: inf
ROOT
ATOM      1  C   UNL     1     -11.854  -1.406 -17.558  1.00  0.00     0.000 C 
ENDROOT
BRANCH   1   2
ATOM      2  C   UNL     1     -10.418  -1.871 -17.883  1.00  0.00     0.000 C 
BRANCH   2   3
ATOM      3  C   UNL     1      -9.357  -0.901 -17.333  1.00  0.00     0.000 C 
BRANCH   3   4
ATOM      4  C   UNL     1      -7.922  -1.378 -17.602  1.00  0.00     0.006 C 
BRANCH   4   5
ATOM      5  C   UNL     1      -6.886  -0.654 -16.731  1.00  0.00     0.053 C 
BRANCH   5   6
ATOM      6  C   UNL     1      -7.094  -0.988 -15.288  1.00  0.00     0.041 C 
ATOM      7  O   UNL     1      -6.884  -2.157 -14.870  1.00  0.00    -0.550 OA
ATOM      8  O   UNL     1      -7.568  -0.019 -14.412  1.00  0.00    -0.550 OA
ENDBRANCH   5   6
ENDBRANCH   4   5
ENDBRANCH   3   4
ENDBRANCH   2   3
ENDBRANCH   1   2
BRANCH   1   9
ATOM      9  C   UNL     1     -12.300  -0.173 -18.361  1.00  0.00     0.000 C 
BRANCH   9  10
ATOM     10  C   UNL     1     -12.856   0.950 -17.470  1.00  0.00    -0.000 C 
BRANCH  10  11
ATOM     11  C   UNL     1     -11.830   2.066 -17.216  1.00  0.00    -0.000 C 
BRANCH  11  12
ATOM     12  C   UNL     1     -12.417   3.470 -17.428  1.00  0.00    -0.000 C 
BRANCH  12  13
ATOM     13  C   UNL     1     -13.216   3.539 -18.734  1.00  0.00    -0.003 C 
ATOM     14  C   UNL     1     -14.440   4.438 -18.587  1.00  0.00     0.004 C 
ENDBRANCH  12  13
ENDBRANCH  11  12
ENDBRANCH  10  11
ENDBRANCH   9  10
ENDBRANCH   1   9
TORSDOF 10
ENDMDL
MODEL 4
REMARK VINA RESULT:     9.837      3.005      6.083
REMARK INTER + INTRA:          15.428
REMARK INTER:                  15.994
REMARK INTRA:                  -0.566
REMARK UNBOUND:                -0.160
REMARK SMILES CCCCCCCCCCCC(=O)[O-]
REMARK SMILES IDX 7 1 8 2 9 3 10 4 11 5 12 6 13 7 14 8 6 9 5 10 4 11 3 12 2 13
REMARK SMILES IDX 1 14
REMARK H PARENT
REMARK Flexibility Score: inf
ROOT
ATOM      1  C   UNL     1     -12.377   0.638 -17.163  1.00  0.00     0.000 C 
ENDROOT
BRANCH   1   2
ATOM      2  C   UNL     1     -12.353  -0.845 -17.592  1.00  0.00     0.000 C 
BRANCH   2   3
ATOM      3  C   UNL     1     -10.986  -1.261 -18.164  1.00  0.00     0.000 C 
BRANCH   3   4
ATOM      4  C   UNL     1      -9.809  -0.629 -17.405  1.00  0.00     0.006 C 
BRANCH   4   5
ATOM      5  C   UNL     1      -8.702  -1.641 -17.082  1.00  0.00     0.053 C 
BRANCH   5   6
ATOM      6  C   UNL     1      -7.483  -0.938 -16.577  1.00  0.00     0.041 C 
ATOM      7  O   UNL     1      -7.029  -1.198 -15.431  1.00  0.00    -0.550 OA
ATOM      8  O   UNL     1      -6.875   0.042 -17.351  1.00  0.00    -0.550 OA
ENDBRANCH   5   6
ENDBRANCH   4   5
ENDBRANCH   3   4
ENDBRANCH   2   3
ENDBRANCH   1   2
BRANCH   1   9
ATOM      9  C   UNL     1     -12.893   1.588 -18.257  1.00  0.00     0.000 C 
BRANCH   9  10
ATOM     10  C   UNL     1     -12.628   3.068 -17.936  1.00  0.00    -0.000 C 
BRANCH  10  11
ATOM     11  C   UNL     1     -11.702   3.253 -16.724  1.00  0.00    -0.000 C 
BRANCH  11  12
ATOM     12  C   UNL     1     -11.349   4.726 -16.466  1.00  0.00    -0.000 C 
BRANCH  12  13
ATOM     13  C   UNL     1     -12.617   5.573 -16.310  1.00  0.00    -0.003 C 
ATOM     14  C   UNL     1     -12.276   7.014 -15.940  1.00  0.00     0.004 C 
ENDBRANCH  12  13
ENDBRANCH  11  12
ENDBRANCH  10  11
ENDBRANCH   9  10
ENDBRANCH   1   9
TORSDOF 10
ENDMDL
MODEL 5
REMARK VINA RESULT:     9.919      1.423      2.584
REMARK INTER + INTRA:          15.558
REMARK INTER:                  16.064
REMARK INTRA:                  -0.506
REMARK UNBOUND:                -0.160
REMARK SMILES CCCCCCCCCCCC(=O)[O-]
REMARK SMILES IDX 7 1 8 2 9 3 10 4 11 5 12 6 13 7 14 8 6 9 5 10 4 11 3 12 2 13
REMARK SMILES IDX 1 14
REMARK H PARENT
REMARK Flexibility Score: inf
ROOT
ATOM      1  C   UNL     1     -12.563  -0.394 -17.028  1.00  0.00     0.000 C 
ENDROOT
BRANCH   1   2
ATOM      2  C   UNL     1     -12.772   0.936 -17.785  1.00  0.00     0.000 C 
BRANCH   2   3
ATOM      3  C   UNL     1     -11.904   2.070 -17.212  1.00  0.00     0.000 C 
BRANCH   3   4
ATOM      4  C   UNL     1     -12.471   3.464 -17.520  1.00  0.00     0.006 C 
BRANCH   4   5
ATOM      5  C   UNL     1     -13.210   3.519 -18.863  1.00  0.00     0.053 C 
BRANCH   5   6
ATOM      6  C   UNL     1     -14.537   4.188 -18.701  1.00  0.00     0.041 C 
ATOM      7  O   UNL     1     -15.467   3.611 -18.078  1.00  0.00    -0.550 OA
ATOM      8  O   UNL     1     -14.765   5.429 -19.281  1.00  0.00    -0.550 OA
ENDBRANCH   5   6
ENDBRANCH   4   5
ENDBRANCH   3   4
ENDBRANCH   2   3
ENDBRANCH   1   2
BRANCH   1   9
ATOM      9  C   UNL     1     -11.827  -1.464 -17.853  1.00  0.00     0.000 C 
BRANCH   9  10
ATOM     10  C   UNL     1     -10.445  -0.998 -18.338  1.00  0.00    -0.000 C 
BRANCH  10  11
ATOM     11  C   UNL     1      -9.486  -0.688 -17.179  1.00  0.00    -0.000 C 
BRANCH  11  12
ATOM     12  C   UNL     1      -8.166  -1.469 -17.276  1.00  0.00    -0.000 C 
BRANCH  12  13
ATOM     13  C   UNL     1      -7.052  -0.761 -16.496  1.00  0.00    -0.003 C 
ATOM     14  C   UNL     1      -7.037  -1.199 -15.034  1.00  0.00     0.004 C 
ENDBRANCH  12  13
ENDBRANCH  11  12
ENDBRANCH  10  11
ENDBRANCH   9  10
ENDBRANCH   1   9
TORSDOF 10
ENDMDL
MODEL 6
REMARK VINA RESULT:    10.302      2.529      3.715
REMARK INTER + INTRA:          16.164
REMARK INTER:                  16.468
REMARK INTRA:                  -0.304
REMARK UNBOUND:                -0.160
REMARK SMILES CCCCCCCCCCCC(=O)[O-]
REMARK SMILES IDX 7 1 8 2 9 3 10 4 11 5 12 6 13 7 14 8 6 9 5 10 4 11 3 12 2 13
REMARK SMILES IDX 1 14
REMARK H PARENT
REMARK Flexibility Score: inf
ROOT
ATOM      1  C   UNL     1     -12.586   1.063 -17.200  1.00  0.00     0.000 C 
ENDROOT
BRANCH   1   2
ATOM      2  C   UNL     1     -12.391   2.545 -17.585  1.00  0.00     0.000 C 
BRANCH   2   3
ATOM      3  C   UNL     1     -13.424   3.014 -18.625  1.00  0.00     0.000 C 
BRANCH   3   4
ATOM      4  C   UNL     1     -13.577   4.542 -18.663  1.00  0.00     0.006 C 
BRANCH   4   5
ATOM      5  C   UNL     1     -14.980   4.986 -19.094  1.00  0.00     0.053 C 
BRANCH   5   6
ATOM      6  C   UNL     1     -14.913   6.282 -19.837  1.00  0.00     0.041 C 
ATOM      7  O   UNL     1     -15.412   7.326 -19.339  1.00  0.00    -0.550 OA
ATOM      8  O   UNL     1     -14.343   6.329 -21.103  1.00  0.00    -0.550 OA
ENDBRANCH   5   6
ENDBRANCH   4   5
ENDBRANCH   3   4
ENDBRANCH   2   3
ENDBRANCH   1   2
BRANCH   1   9
ATOM      9  C   UNL     1     -12.079   0.077 -18.267  1.00  0.00     0.000 C 
BRANCH   9  10
ATOM     10  C   UNL     1     -11.111  -0.972 -17.698  1.00  0.00    -0.000 C 
BRANCH  10  11
ATOM     11  C   UNL     1      -9.786  -0.357 -17.220  1.00  0.00    -0.000 C 
BRANCH  11  12
ATOM     12  C   UNL     1      -8.633  -1.373 -17.200  1.00  0.00    -0.000 C 
BRANCH  12  13
ATOM     13  C   UNL     1      -7.327  -0.710 -16.747  1.00  0.00    -0.003 C 
ATOM     14  C   UNL     1      -6.899  -1.214 -15.372  1.00  0.00     0.004 C 
ENDBRANCH  12  13
ENDBRANCH  11  12
ENDBRANCH  10  11
ENDBRANCH   9  10
ENDBRANCH   1   9
TORSDOF 10
ENDMDL
MODEL 7
REMARK VINA RESULT:    10.502      0.948      1.923
REMARK INTER + INTRA:          16.482
REMARK INTER:                  16.622
REMARK INTRA:                  -0.140
REMARK UNBOUND:                -0.160
REMARK SMILES CCCCCCCCCCCC(=O)[O-]
REMARK SMILES IDX 7 1 8 2 9 3 10 4 11 5 12 6 13 7 14 8 6 9 5 10 4 11 3 12 2 13
REMARK SMILES IDX 1 14
REMARK H PARENT
REMARK Flexibility Score: inf
ROOT
ATOM      1  C   UNL     1     -11.285  -1.050 -18.755  1.00  0.00     0.000 C 
ENDROOT
BRANCH   1   2
ATOM      2  C   UNL     1     -12.454  -1.543 -17.874  1.00  0.00     0.000 C 
BRANCH   2   3
ATOM      3  C   UNL     1     -12.847  -0.508 -16.804  1.00  0.00     0.000 C 
BRANCH   3   4
ATOM      4  C   UNL     1     -13.003   0.908 -17.378  1.00  0.00     0.006 C 
BRANCH   4   5
ATOM      5  C   UNL     1     -11.779   1.793 -17.111  1.00  0.00     0.053 C 
BRANCH   5   6
ATOM      6  C   UNL     1     -12.089   3.222 -17.424  1.00  0.00     0.041 C 
ATOM      7  O   UNL     1     -11.661   4.142 -16.678  1.00  0.00    -0.550 OA
ATOM      8  O   UNL     1     -12.892   3.537 -18.512  1.00  0.00    -0.550 OA
ENDBRANCH   5   6
ENDBRANCH   4   5
ENDBRANCH   3   4
ENDBRANCH   2   3
ENDBRANCH   1   2
BRANCH   1   9
ATOM      9  C   UNL     1      -9.932  -1.686 -18.396  1.00  0.00     0.000 C 
BRANCH   9  10
ATOM     10  C   UNL     1      -9.396  -1.221 -17.033  1.00  0.00    -0.000 C 
BRANCH  10  11
ATOM     11  C   UNL     1      -7.997  -1.779 -16.727  1.00  0.00    -0.000 C 
BRANCH  11  12
ATOM     12  C   UNL     1      -7.059  -0.725 -16.117  1.00  0.00    -0.000 C 
BRANCH  12  13
ATOM     13  C   UNL     1      -6.880   0.464 -17.067  1.00  0.00    -0.003 C 
ATOM     14  C   UNL     1      -6.880   0.011 -18.525  1.00  0.00     0.004 C 
ENDBRANCH  12  13
ENDBRANCH  11  12
ENDBRANCH  10  11
ENDBRANCH   9  10
ENDBRANCH   1   9
TORSDOF 10
ENDMDL
