MODEL 1
REMARK VINA RESULT:    -4.389      0.000      0.000
REMARK INTER + INTRA:          -7.662
REMARK INTER:                  -6.955
REMARK INTRA:                  -0.707
REMARK UNBOUND:                -0.707
REMARK SMILES CCCCCCCCCCCC(=O)[O-]
REMARK SMILES IDX 7 1 8 2 9 3 10 4 11 5 12 6 13 7 14 8 6 9 5 10 4 11 3 12 2 13
REMARK SMILES IDX 1 14
REMARK H PARENT
REMARK Flexibility Score: inf
ROOT
ATOM      1  C   UNL     1      14.231 -12.189  22.311  1.00  0.00     0.000 C 
ENDROOT
BRANCH   1   2
ATOM      2  C   UNL     1      13.197 -11.060  22.171  1.00  0.00     0.000 C 
BRANCH   2   3
ATOM      3  C   UNL     1      13.062 -10.554  20.726  1.00  0.00     0.000 C 
BRANCH   3   4
ATOM      4  C   UNL     1      13.522  -9.096  20.610  1.00  0.00     0.006 C 
BRANCH   4   5
ATOM      5  C   UNL     1      14.012  -8.565  21.960  1.00  0.00     0.053 C 
BRANCH   5   6
ATOM      6  C   UNL     1      15.483  -8.301  21.916  1.00  0.00     0.041 C 
ATOM      7  O   UNL     1      16.299  -9.259  21.875  1.00  0.00    -0.550 OA
ATOM      8  O   UNL     1      15.954  -6.994  21.872  1.00  0.00    -0.550 OA
ENDBRANCH   5   6
ENDBRANCH   4   5
ENDBRANCH   3   4
ENDBRANCH   2   3
ENDBRANCH   1   2
BRANCH   1   9
ATOM      9  C   UNL     1      14.924 -12.188  23.685  1.00  0.00     0.000 C 
BRANCH   9  10
ATOM     10  C   UNL     1      16.420 -12.530  23.592  1.00  0.00    -0.000 C 
BRANCH  10  11
ATOM     11  C   UNL     1      16.855 -12.902  22.162  1.00  0.00    -0.000 C 
BRANCH  11  12
ATOM     12  C   UNL     1      17.977 -11.996  21.633  1.00  0.00    -0.000 C 
BRANCH  12  13
ATOM     13  C   UNL     1      19.149 -12.793  21.041  1.00  0.00    -0.003 C 
ATOM     14  C   UNL     1      20.186 -13.123  22.111  1.00  0.00     0.004 C 
ENDBRANCH  12  13
ENDBRANCH  11  12
ENDBRANCH  10  11
ENDBRANCH   9  10
ENDBRANCH   1   9
TORSDOF 10
ENDMDL
MODEL 2
REMARK VINA RESULT:    -4.179      1.235      2.201
REMARK INTER + INTRA:          -7.328
REMARK INTER:                  -6.781
REMARK INTRA:                  -0.547
REMARK UNBOUND:                -0.707
REMARK SMILES CCCCCCCCCCCC(=O)[O-]
REMARK SMILES IDX 7 1 8 2 9 3 10 4 11 5 12 6 13 7 14 8 6 9 5 10 4 11 3 12 2 13
REMARK SMILES IDX 1 14
REMARK H PARENT
REMARK Flexibility Score: inf
ROOT
ATOM      1  C   UNL     1      15.879 -12.525  23.462  1.00  0.00     0.000 C 
ENDROOT
BRANCH   1   2
ATOM      2  C   UNL     1      15.161 -11.282  22.910  1.00  0.00     0.000 C 
BRANCH   2   3
ATOM      3  C   UNL     1      13.646 -11.490  22.754  1.00  0.00     0.000 C 
BRANCH   3   4
ATOM      4  C   UNL     1      13.067 -10.536  21.703  1.00  0.00     0.006 C 
BRANCH   4   5
ATOM      5  C   UNL     1      14.179  -9.756  20.998  1.00  0.00     0.053 C 
BRANCH   5   6
ATOM      6  C   UNL     1      14.222  -8.344  21.490  1.00  0.00     0.041 C 
ATOM      7  O   UNL     1      13.168  -7.658  21.540  1.00  0.00    -0.550 OA
ATOM      8  O   UNL     1      15.419  -7.800  21.941  1.00  0.00    -0.550 OA
ENDBRANCH   5   6
ENDBRANCH   4   5
ENDBRANCH   3   4
ENDBRANCH   2   3
ENDBRANCH   1   2
BRANCH   1   9
ATOM      9  C   UNL     1      17.074 -12.951  22.591  1.00  0.00     0.000 C 
BRANCH   9  10
ATOM     10  C   UNL     1      17.500 -11.857  21.598  1.00  0.00    -0.000 C 
BRANCH  10  11
ATOM     11  C   UNL     1      18.917 -12.083  21.039  1.00  0.00    -0.000 C 
BRANCH  11  12
ATOM     12  C   UNL     1      19.711 -13.118  21.849  1.00  0.00    -0.000 C 
BRANCH  12  13
ATOM     13  C   UNL     1      21.190 -12.733  22.010  1.00  0.00    -0.003 C 
ATOM     14  C   UNL     1      21.890 -12.666  20.655  1.00  0.00     0.004 C 
ENDBRANCH  12  13
ENDBRANCH  11  12
ENDBRANCH  10  11
ENDBRANCH   9  10
ENDBRANCH   1   9
TORSDOF 10
ENDMDL
MODEL 3
REMARK VINA RESULT:    -4.013     14.659     16.150
REMARK INTER + INTRA:          -7.065
REMARK INTER:                  -5.702
REMARK INTRA:                  -1.363
REMARK UNBOUND:                -0.707
REMARK SMILES CCCCCCCCCCCC(=O)[O-]
REMARK SMILES IDX 7 1 8 2 9 3 10 4 11 5 12 6 13 7 14 8 6 9 5 10 4 11 3 12 2 13
REMARK SMILES IDX 1 14
REMARK H PARENT
REMARK Flexibility Score: inf
ROOT
ATOM      1  C   UNL     1       8.230  -5.214  36.868  1.00  0.00     0.000 C 
ENDROOT
BRANCH   1   2
ATOM      2  C   UNL     1       9.231  -4.047  36.907  1.00  0.00     0.000 C 
BRANCH   2   3
ATOM      3  C   UNL     1      10.573  -4.437  37.546  1.00  0.00     0.000 C 
BRANCH   3   4
ATOM      4  C   UNL     1      11.515  -5.057  36.507  1.00  0.00     0.006 C 
BRANCH   4   5
ATOM      5  C   UNL     1      12.005  -4.002  35.510  1.00  0.00     0.053 C 
BRANCH   5   6
ATOM      6  C   UNL     1      13.075  -3.157  36.126  1.00  0.00     0.041 C 
ATOM      7  O   UNL     1      12.907  -1.915  36.252  1.00  0.00    -0.550 OA
ATOM      8  O   UNL     1      14.238  -3.747  36.605  1.00  0.00    -0.550 OA
ENDBRANCH   5   6
ENDBRANCH   4   5
ENDBRANCH   3   4
ENDBRANCH   2   3
ENDBRANCH   1   2
BRANCH   1   9
ATOM      9  C   UNL     1       7.548  -5.361  35.496  1.00  0.00     0.000 C 
BRANCH   9  10
ATOM     10  C   UNL     1       8.344  -4.686  34.367  1.00  0.00    -0.000 C 
BRANCH  10  11
ATOM     11  C   UNL     1       9.066  -5.702  33.461  1.00  0.00    -0.000 C 
BRANCH  11  12
ATOM     12  C   UNL     1       8.353  -7.062  33.418  1.00  0.00    -0.000 C 
BRANCH  12  13
ATOM     13  C   UNL     1       9.289  -8.230  33.767  1.00  0.00    -0.003 C 
ATOM     14  C   UNL     1      10.634  -7.721  34.279  1.00  0.00     0.004 C 
ENDBRANCH  12  13
ENDBRANCH  11  12
ENDBRANCH  10  11
ENDBRANCH   9  10
ENDBRANCH   1   9
TORSDOF 10
ENDMDL
MODEL 4
REMARK VINA RESULT:    -4.006     14.307     15.957
REMARK INTER + INTRA:          -7.054
REMARK INTER:                  -5.470
REMARK INTRA:                  -1.584
REMARK UNBOUND:                -0.707
REMARK SMILES CCCCCCCCCCCC(=O)[O-]
REMARK SMILES IDX 7 1 8 2 9 3 10 4 11 5 12 6 13 7 14 8 6 9 5 10 4 11 3 12 2 13
REMARK SMILES IDX 1 14
REMARK H PARENT
REMARK Flexibility Score: inf
ROOT
ATOM      1  C   UNL     1       9.733  -7.852  36.172  1.00  0.00     0.000 C 
ENDROOT
BRANCH   1   2
ATOM      2  C   UNL     1      10.232  -6.856  37.231  1.00  0.00     0.000 C 
BRANCH   2   3
ATOM      3  C   UNL     1      11.424  -6.017  36.744  1.00  0.00     0.000 C 
BRANCH   3   4
ATOM      4  C   UNL     1      11.039  -4.538  36.621  1.00  0.00     0.006 C 
BRANCH   4   5
ATOM      5  C   UNL     1      11.830  -3.855  35.502  1.00  0.00     0.053 C 
BRANCH   5   6
ATOM      6  C   UNL     1      12.999  -3.110  36.066  1.00  0.00     0.041 C 
ATOM      7  O   UNL     1      12.921  -1.870  36.271  1.00  0.00    -0.550 OA
ATOM      8  O   UNL     1      14.159  -3.793  36.410  1.00  0.00    -0.550 OA
ENDBRANCH   5   6
ENDBRANCH   4   5
ENDBRANCH   3   4
ENDBRANCH   2   3
ENDBRANCH   1   2
BRANCH   1   9
ATOM      9  C   UNL     1      10.474  -7.708  34.831  1.00  0.00     0.000 C 
BRANCH   9  10
ATOM     10  C   UNL     1       9.565  -7.984  33.622  1.00  0.00    -0.000 C 
BRANCH  10  11
ATOM     11  C   UNL     1       8.535  -6.863  33.387  1.00  0.00    -0.000 C 
BRANCH  11  12
ATOM     12  C   UNL     1       9.180  -5.469  33.351  1.00  0.00    -0.000 C 
BRANCH  12  13
ATOM     13  C   UNL     1       8.315  -4.402  34.039  1.00  0.00    -0.003 C 
ATOM     14  C   UNL     1       7.589  -4.981  35.250  1.00  0.00     0.004 C 
ENDBRANCH  12  13
ENDBRANCH  11  12
ENDBRANCH  10  11
ENDBRANCH   9  10
ENDBRANCH   1   9
TORSDOF 10
ENDMDL
MODEL 5
REMARK VINA RESULT:    -3.932     13.885     15.373
REMARK INTER + INTRA:          -6.937
REMARK INTER:                  -5.527
REMARK INTRA:                  -1.410
REMARK UNBOUND:                -0.707
REMARK SMILES CCCCCCCCCCCC(=O)[O-]
REMARK SMILES IDX 7 1 8 2 9 3 10 4 11 5 12 6 13 7 14 8 6 9 5 10 4 11 3 12 2 13
REMARK SMILES IDX 1 14
REMARK H PARENT
REMARK Flexibility Score: inf
ROOT
ATOM      1  C   UNL     1      10.871  -7.567  36.564  1.00  0.00     0.000 C 
ENDROOT
BRANCH   1   2
ATOM      2  C   UNL     1       9.972  -6.400  37.004  1.00  0.00     0.000 C 
BRANCH   2   3
ATOM      3  C   UNL     1      10.300  -5.089  36.274  1.00  0.00     0.000 C 
BRANCH   3   4
ATOM      4  C   UNL     1      11.531  -5.255  35.375  1.00  0.00     0.006 C 
BRANCH   4   5
ATOM      5  C   UNL     1      12.017  -3.901  34.852  1.00  0.00     0.053 C 
BRANCH   5   6
ATOM      6  C   UNL     1      12.985  -3.286  35.811  1.00  0.00     0.041 C 
ATOM      7  O   UNL     1      14.023  -3.911  36.153  1.00  0.00    -0.550 OA
ATOM      8  O   UNL     1      12.768  -2.000  36.291  1.00  0.00    -0.550 OA
ENDBRANCH   5   6
ENDBRANCH   4   5
ENDBRANCH   3   4
ENDBRANCH   2   3
ENDBRANCH   1   2
BRANCH   1   9
ATOM      9  C   UNL     1      10.161  -8.929  36.659  1.00  0.00     0.000 C 
BRANCH   9  10
ATOM     10  C   UNL     1       9.679  -9.439  35.291  1.00  0.00    -0.000 C 
BRANCH  10  11
ATOM     11  C   UNL     1      10.513  -8.880  34.123  1.00  0.00    -0.000 C 
BRANCH  11  12
ATOM     12  C   UNL     1       9.640  -8.259  33.022  1.00  0.00    -0.000 C 
BRANCH  12  13
ATOM     13  C   UNL     1       8.569  -7.311  33.583  1.00  0.00    -0.003 C 
ATOM     14  C   UNL     1       8.740  -5.899  33.028  1.00  0.00     0.004 C 
ENDBRANCH  12  13
ENDBRANCH  11  12
ENDBRANCH  10  11
ENDBRANCH   9  10
ENDBRANCH   1   9
TORSDOF 10
ENDMDL
MODEL 6
REMARK VINA RESULT:    -3.931     13.935     15.383
REMARK INTER + INTRA:          -6.936
REMARK INTER:                  -5.641
REMARK INTRA:                  -1.296
REMARK UNBOUND:                -0.707
REMARK SMILES CCCCCCCCCCCC(=O)[O-]
REMARK SMILES IDX 7 1 8 2 9 3 10 4 11 5 12 6 13 7 14 8 6 9 5 10 4 11 3 12 2 13
REMARK SMILES IDX 1 14
REMARK H PARENT
REMARK Flexibility Score: inf
ROOT
ATOM      1  C   UNL     1       8.044  -5.845  34.535  1.00  0.00     0.000 C 
ENDROOT
BRANCH   1   2
ATOM      2  C   UNL     1       8.630  -4.469  34.893  1.00  0.00     0.000 C 
BRANCH   2   3
ATOM      3  C   UNL     1      10.088  -4.307  34.434  1.00  0.00     0.000 C 
BRANCH   3   4
ATOM      4  C   UNL     1      11.056  -4.490  35.609  1.00  0.00     0.006 C 
BRANCH   4   5
ATOM      5  C   UNL     1      12.510  -4.351  35.150  1.00  0.00     0.053 C 
BRANCH   5   6
ATOM      6  C   UNL     1      13.252  -3.404  36.038  1.00  0.00     0.041 C 
ATOM      7  O   UNL     1      14.303  -3.774  36.623  1.00  0.00    -0.550 OA
ATOM      8  O   UNL     1      12.809  -2.095  36.183  1.00  0.00    -0.550 OA
ENDBRANCH   5   6
ENDBRANCH   4   5
ENDBRANCH   3   4
ENDBRANCH   2   3
ENDBRANCH   1   2
BRANCH   1   9
ATOM      9  C   UNL     1       8.653  -6.429  33.249  1.00  0.00     0.000 C 
BRANCH   9  10
ATOM     10  C   UNL     1       8.792  -7.960  33.305  1.00  0.00    -0.000 C 
BRANCH  10  11
ATOM     11  C   UNL     1      10.230  -8.414  33.613  1.00  0.00    -0.000 C 
BRANCH  11  12
ATOM     12  C   UNL     1      10.351  -9.099  34.983  1.00  0.00    -0.000 C 
BRANCH  12  13
ATOM     13  C   UNL     1      10.782  -8.128  36.092  1.00  0.00    -0.003 C 
ATOM     14  C   UNL     1       9.646  -7.885  37.082  1.00  0.00     0.004 C 
ENDBRANCH  12  13
ENDBRANCH  11  12
ENDBRANCH  10  11
ENDBRANCH   9  10
ENDBRANCH   1   9
TORSDOF 10
ENDMDL
MODEL 7
REMARK VINA RESULT:    -3.929     15.248     16.328
REMARK INTER + INTRA:          -6.932
REMARK INTER:                  -6.255
REMARK INTRA:                  -0.677
REMARK UNBOUND:                -0.707
REMARK SMILES CCCCCCCCCCCC(=O)[O-]
REMARK SMILES IDX 7 1 8 2 9 3 10 4 11 5 12 6 13 7 14 8 6 9 5 10 4 11 3 12 2 13
REMARK SMILES IDX 1 14
REMARK H PARENT
REMARK Flexibility Score: inf
ROOT
ATOM      1  C   UNL     1      12.466  -5.630  38.954  1.00  0.00     0.000 C 
ENDROOT
BRANCH   1   2
ATOM      2  C   UNL     1      11.275  -5.988  38.049  1.00  0.00     0.000 C 
BRANCH   2   3
ATOM      3  C   UNL     1      10.936  -4.875  37.045  1.00  0.00     0.000 C 
BRANCH   3   4
ATOM      4  C   UNL     1      11.473  -5.213  35.649  1.00  0.00     0.006 C 
BRANCH   4   5
ATOM      5  C   UNL     1      12.080  -3.978  34.979  1.00  0.00     0.053 C 
BRANCH   5   6
ATOM      6  C   UNL     1      13.046  -3.303  35.901  1.00  0.00     0.041 C 
ATOM      7  O   UNL     1      14.105  -3.890  36.249  1.00  0.00    -0.550 OA
ATOM      8  O   UNL     1      12.802  -2.007  36.337  1.00  0.00    -0.550 OA
ENDBRANCH   5   6
ENDBRANCH   4   5
ENDBRANCH   3   4
ENDBRANCH   2   3
ENDBRANCH   1   2
BRANCH   1   9
ATOM      9  C   UNL     1      13.470  -6.787  39.093  1.00  0.00     0.000 C 
BRANCH   9  10
ATOM     10  C   UNL     1      12.960  -8.091  38.458  1.00  0.00    -0.000 C 
BRANCH  10  11
ATOM     11  C   UNL     1      13.883  -9.290  38.744  1.00  0.00    -0.000 C 
BRANCH  11  12
ATOM     12  C   UNL     1      15.367  -8.956  38.525  1.00  0.00    -0.000 C 
BRANCH  12  13
ATOM     13  C   UNL     1      16.203 -10.194  38.168  1.00  0.00    -0.003 C 
ATOM     14  C   UNL     1      17.301  -9.846  37.166  1.00  0.00     0.004 C 
ENDBRANCH  12  13
ENDBRANCH  11  12
ENDBRANCH  10  11
ENDBRANCH   9  10
ENDBRANCH   1   9
TORSDOF 10
ENDMDL
MODEL 8
REMARK VINA RESULT:    -3.885     15.651     16.547
REMARK INTER + INTRA:          -6.863
REMARK INTER:                  -5.760
REMARK INTRA:                  -1.102
REMARK UNBOUND:                -0.707
REMARK SMILES CCCCCCCCCCCC(=O)[O-]
REMARK SMILES IDX 7 1 8 2 9 3 10 4 11 5 12 6 13 7 14 8 6 9 5 10 4 11 3 12 2 13
REMARK SMILES IDX 1 14
REMARK H PARENT
REMARK Flexibility Score: inf
ROOT
ATOM      1  C   UNL     1      12.075 -10.637  38.037  1.00  0.00     0.000 C 
ENDROOT
BRANCH   1   2
ATOM      2  C   UNL     1      12.099  -9.288  38.774  1.00  0.00     0.000 C 
BRANCH   2   3
ATOM      3  C   UNL     1      13.380  -8.485  38.501  1.00  0.00     0.000 C 
BRANCH   3   4
ATOM      4  C   UNL     1      13.293  -7.087  39.125  1.00  0.00     0.006 C 
BRANCH   4   5
ATOM      5  C   UNL     1      11.913  -6.465  38.889  1.00  0.00     0.053 C 
BRANCH   5   6
ATOM      6  C   UNL     1      11.848  -5.831  37.536  1.00  0.00     0.041 C 
ATOM      7  O   UNL     1      11.210  -6.388  36.605  1.00  0.00    -0.550 OA
ATOM      8  O   UNL     1      12.453  -4.599  37.315  1.00  0.00    -0.550 OA
ENDBRANCH   5   6
ENDBRANCH   4   5
ENDBRANCH   3   4
ENDBRANCH   2   3
ENDBRANCH   1   2
BRANCH   1   9
ATOM      9  C   UNL     1      13.053 -11.659  38.644  1.00  0.00     0.000 C 
BRANCH   9  10
ATOM     10  C   UNL     1      13.923 -12.348  37.580  1.00  0.00    -0.000 C 
BRANCH  10  11
ATOM     11  C   UNL     1      15.430 -12.135  37.817  1.00  0.00    -0.000 C 
BRANCH  11  12
ATOM     12  C   UNL     1      15.714 -11.281  39.062  1.00  0.00    -0.000 C 
BRANCH  12  13
ATOM     13  C   UNL     1      16.686 -10.126  38.775  1.00  0.00    -0.003 C 
ATOM     14  C   UNL     1      16.866  -9.920  37.273  1.00  0.00     0.004 C 
ENDBRANCH  12  13
ENDBRANCH  11  12
ENDBRANCH  10  11
ENDBRANCH   9  10
ENDBRANCH   1   9
TORSDOF 10
ENDMDL
MODEL 9
REMARK VINA RESULT:    -3.840     15.412     16.501
REMARK INTER + INTRA:          -6.791
REMARK INTER:                  -6.111
REMARK INTRA:                  -0.680
REMARK UNBOUND:                -0.707
REMARK SMILES CCCCCCCCCCCC(=O)[O-]
REMARK SMILES IDX 7 1 8 2 9 3 10 4 11 5 12 6 13 7 14 8 6 9 5 10 4 11 3 12 2 13
REMARK SMILES IDX 1 14
REMARK H PARENT
REMARK Flexibility Score: inf
ROOT
ATOM      1  C   UNL     1      13.233  -8.008  38.790  1.00  0.00     0.000 C 
ENDROOT
BRANCH   1   2
ATOM      2  C   UNL     1      14.246  -6.851  38.792  1.00  0.00     0.000 C 
BRANCH   2   3
ATOM      3  C   UNL     1      13.600  -5.495  38.468  1.00  0.00     0.000 C 
BRANCH   3   4
ATOM      4  C   UNL     1      12.074  -5.620  38.386  1.00  0.00     0.006 C 
BRANCH   4   5
ATOM      5  C   UNL     1      11.473  -4.486  37.552  1.00  0.00     0.053 C 
BRANCH   5   6
ATOM      6  C   UNL     1      11.692  -4.736  36.093  1.00  0.00     0.041 C 
ATOM      7  O   UNL     1      11.224  -5.770  35.550  1.00  0.00    -0.550 OA
ATOM      8  O   UNL     1      12.373  -3.801  35.322  1.00  0.00    -0.550 OA
ENDBRANCH   5   6
ENDBRANCH   4   5
ENDBRANCH   3   4
ENDBRANCH   2   3
ENDBRANCH   1   2
BRANCH   1   9
ATOM      9  C   UNL     1      13.914  -9.388  38.766  1.00  0.00     0.000 C 
BRANCH   9  10
ATOM     10  C   UNL     1      15.406  -9.304  38.408  1.00  0.00    -0.000 C 
BRANCH  10  11
ATOM     11  C   UNL     1      16.200 -10.537  38.879  1.00  0.00    -0.000 C 
BRANCH  11  12
ATOM     12  C   UNL     1      15.309 -11.776  39.061  1.00  0.00    -0.000 C 
BRANCH  12  13
ATOM     13  C   UNL     1      15.209 -12.623  37.783  1.00  0.00    -0.003 C 
ATOM     14  C   UNL     1      13.757 -12.781  37.341  1.00  0.00     0.004 C 
ENDBRANCH  12  13
ENDBRANCH  11  12
ENDBRANCH  10  11
ENDBRANCH   9  10
ENDBRANCH   1   9
TORSDOF 10
ENDMDL
