MODEL 1
REMARK VINA RESULT:    -9.233      0.000      0.000
REMARK INTER + INTRA:         -17.029
REMARK INTER:                 -15.171
REMARK INTRA:                  -1.858
REMARK UNBOUND:                -1.858
REMARK SMILES C[C@@H]1O[C@@H](OC[C@H]2O[C@@H](Oc3c(-c4ccc(O)c(O)c4)oc4cc(O)cc(O)c4c3=O)[C@H](O)[C@H](O)[C@@H]2O)[C@H](O)[C@@H](O)[C@H]1O
REMARK SMILES IDX 7 1 36 2 34 3 32 4 9 5 8 6 6 7 5 8 4 9 1 10 2 11 42 12 3 13
REMARK SMILES IDX 40 14 38 15 43 16 41 18 39 20 37 22 35 24 10 26 11 27 12 28
REMARK SMILES IDX 30 29 21 30 29 31 31 32 22 33 27 34 23 35 26 36 24 37 13 38
REMARK SMILES IDX 20 39 14 40 18 41 15 42 16 43 19 44 17 46 28 48 25 50 33 52
REMARK H PARENT 43 17 41 19 39 21 37 23 35 25 19 45 17 47 28 49 25 51 33 53
REMARK Flexibility Score: inf
ROOT
ATOM      1  C   UNL     1     148.841 168.344 151.825  1.00  0.00     0.180 C 
ATOM      2  C   UNL     1     148.771 169.794 152.397  1.00  0.00     0.177 C 
ATOM      3  C   UNL     1     148.470 169.862 153.935  1.00  0.00     0.180 C 
ATOM      4  C   UNL     1     148.995 168.546 154.563  1.00  0.00     0.214 C 
ATOM      5  C   UNL     1     148.246 167.272 153.871  1.00  0.00     0.339 C 
ATOM      6  O   UNL     1     147.878 167.545 152.550  1.00  0.00    -0.332 OA
ENDROOT
BRANCH   1   7
ATOM      7  C   UNL     1     150.327 167.770 151.656  1.00  0.00     0.198 C 
BRANCH   7   8
ATOM      8  O   UNL     1     151.283 168.758 151.228  1.00  0.00    -0.347 OA
BRANCH   8   9
ATOM      9  C   UNL     1     152.619 168.984 151.810  1.00  0.00     0.281 C 
ATOM     10  C   UNL     1     155.148 170.299 152.314  1.00  0.00     0.041 C 
ATOM     11  C   UNL     1     154.943 168.880 151.577  1.00  0.00     0.150 C 
ATOM     12  C   UNL     1     155.123 167.702 152.623  1.00  0.00     0.174 C 
ATOM     13  O   UNL     1     153.704 168.680 150.903  1.00  0.00    -0.344 OA
ATOM     14  C   UNL     1     154.015 167.677 153.702  1.00  0.00     0.179 C 
ATOM     15  C   UNL     1     152.702 168.359 153.219  1.00  0.00     0.202 C 
BRANCH  12  16
ATOM     16  O   UNL     1     155.213 166.544 151.903  1.00  0.00    -0.388 OA
ATOM     17  H   UNL     1     155.142 165.689 152.480  1.00  0.00     0.211 HD
ENDBRANCH  12  16
BRANCH  14  18
ATOM     18  O   UNL     1     153.683 166.385 154.142  1.00  0.00    -0.387 OA
ATOM     19  H   UNL     1     154.275 165.717 153.674  1.00  0.00     0.211 HD
ENDBRANCH  14  18
BRANCH  15  20
ATOM     20  O   UNL     1     152.301 169.376 154.126  1.00  0.00    -0.385 OA
ATOM     21  H   UNL     1     151.651 169.926 153.592  1.00  0.00     0.211 HD
ENDBRANCH  15  20
ENDBRANCH   8   9
ENDBRANCH   7   8
ENDBRANCH   1   7
BRANCH   2  22
ATOM     22  O   UNL     1     147.937 170.715 151.655  1.00  0.00    -0.387 OA
ATOM     23  H   UNL     1     147.035 170.528 151.986  1.00  0.00     0.211 HD
ENDBRANCH   2  22
BRANCH   3  24
ATOM     24  O   UNL     1     147.097 170.076 154.176  1.00  0.00    -0.387 OA
ATOM     25  H   UNL     1     147.116 170.667 154.967  1.00  0.00     0.211 HD
ENDBRANCH   3  24
BRANCH   5  26
ATOM     26  O   UNL     1     148.675 165.828 153.895  1.00  0.00    -0.454 OA
BRANCH  26  27
ATOM     27  C   UNL     1     148.007 164.854 152.974  1.00  0.00     0.214 A 
ATOM     28  C   UNL     1     146.527 164.766 152.773  1.00  0.00     0.180 A 
ATOM     29  C   UNL     1     148.755 163.955 152.126  1.00  0.00     0.239 A 
ATOM     30  O   UNL     1     146.122 164.403 151.562  1.00  0.00    -0.452 OA
ATOM     31  C   UNL     1     148.154 163.330 151.057  1.00  0.00     0.111 A 
ATOM     32  O   UNL     1     149.997 163.761 152.274  1.00  0.00    -0.285 OA
ATOM     33  C   UNL     1     146.875 163.812 150.633  1.00  0.00     0.146 A 
ATOM     34  C   UNL     1     148.580 162.088 150.456  1.00  0.00     0.134 A 
ATOM     35  C   UNL     1     146.332 163.400 149.392  1.00  0.00     0.094 A 
ATOM     36  C   UNL     1     148.043 161.695 149.177  1.00  0.00     0.093 A 
ATOM     37  C   UNL     1     146.918 162.346 148.641  1.00  0.00     0.123 A 
BRANCH  28  38
ATOM     38  C   UNL     1     145.479 165.147 153.673  1.00  0.00     0.025 A 
ATOM     39  C   UNL     1     145.413 164.872 155.115  1.00  0.00     0.062 A 
ATOM     40  C   UNL     1     144.466 166.096 153.098  1.00  0.00     0.016 A 
ATOM     41  C   UNL     1     144.780 165.870 155.963  1.00  0.00     0.158 A 
ATOM     42  C   UNL     1     143.878 167.075 154.014  1.00  0.00     0.051 A 
ATOM     43  C   UNL     1     144.595 167.087 155.202  1.00  0.00     0.157 A 
BRANCH  41  44
ATOM     44  O   UNL     1     144.660 165.760 157.445  1.00  0.00    -0.504 OA
ATOM     45  H   UNL     1     143.867 165.873 158.069  1.00  0.00     0.293 HD
ENDBRANCH  41  44
BRANCH  43  46
ATOM     46  O   UNL     1     145.842 167.625 154.929  1.00  0.00    -0.504 OA
ATOM     47  H   UNL     1     146.628 167.312 155.573  1.00  0.00     0.293 HD
ENDBRANCH  43  46
ENDBRANCH  28  38
BRANCH  34  48
ATOM     48  O   UNL     1     149.362 161.164 151.234  1.00  0.00    -0.507 OA
ATOM     49  H   UNL     1     150.330 161.282 151.443  1.00  0.00     0.293 HD
ENDBRANCH  34  48
BRANCH  37  50
ATOM     50  O   UNL     1     146.425 161.932 147.389  1.00  0.00    -0.508 OA
ATOM     51  H   UNL     1     147.114 161.769 146.573  1.00  0.00     0.293 HD
ENDBRANCH  37  50
ENDBRANCH  26  27
ENDBRANCH   5  26
BRANCH   4  52
ATOM     52  O   UNL     1     148.772 168.635 156.000  1.00  0.00    -0.384 OA
ATOM     53  H   UNL     1     149.105 169.581 156.165  1.00  0.00     0.211 HD
ENDBRANCH   4  52
TORSDOF 16
ENDMDL
MODEL 2
REMARK VINA RESULT:    -8.907      1.093      1.368
REMARK INTER + INTRA:         -16.492
REMARK INTER:                 -14.082
REMARK INTRA:                  -2.411
REMARK UNBOUND:                -1.858
REMARK SMILES C[C@@H]1O[C@@H](OC[C@H]2O[C@@H](Oc3c(-c4ccc(O)c(O)c4)oc4cc(O)cc(O)c4c3=O)[C@H](O)[C@H](O)[C@@H]2O)[C@H](O)[C@@H](O)[C@H]1O
REMARK SMILES IDX 7 1 36 2 34 3 32 4 9 5 8 6 6 7 5 8 4 9 1 10 2 11 42 12 3 13
REMARK SMILES IDX 40 14 38 15 43 16 41 18 39 20 37 22 35 24 10 26 11 27 12 28
REMARK SMILES IDX 30 29 21 30 29 31 31 32 22 33 27 34 23 35 26 36 24 37 13 38
REMARK SMILES IDX 20 39 14 40 18 41 15 42 16 43 19 44 17 46 28 48 25 50 33 52
REMARK H PARENT 43 17 41 19 39 21 37 23 35 25 19 45 17 47 28 49 25 51 33 53
REMARK Flexibility Score: inf
ROOT
ATOM      1  C   UNL     1     148.906 168.042 150.878  1.00  0.00     0.180 C 
ATOM      2  C   UNL     1     148.593 169.556 150.663  1.00  0.00     0.177 C 
ATOM      3  C   UNL     1     148.020 170.277 151.934  1.00  0.00     0.180 C 
ATOM      4  C   UNL     1     148.553 169.514 153.173  1.00  0.00     0.214 C 
ATOM      5  C   UNL     1     148.067 167.958 153.110  1.00  0.00     0.339 C 
ATOM      6  O   UNL     1     147.914 167.519 151.790  1.00  0.00    -0.332 OA
ENDROOT
BRANCH   1   7
ATOM      7  C   UNL     1     150.447 167.719 151.169  1.00  0.00     0.198 C 
BRANCH   7   8
ATOM      8  O   UNL     1     151.306 168.871 151.076  1.00  0.00    -0.347 OA
BRANCH   8   9
ATOM      9  C   UNL     1     152.601 169.047 151.760  1.00  0.00     0.281 C 
ATOM     10  C   UNL     1     155.109 170.291 152.494  1.00  0.00     0.041 C 
ATOM     11  C   UNL     1     154.933 168.906 151.689  1.00  0.00     0.150 C 
ATOM     12  C   UNL     1     155.017 167.685 152.697  1.00  0.00     0.174 C 
ATOM     13  O   UNL     1     153.744 168.756 150.921  1.00  0.00    -0.344 OA
ATOM     14  C   UNL     1     153.835 167.641 153.693  1.00  0.00     0.179 C 
ATOM     15  C   UNL     1     152.572 168.367 153.144  1.00  0.00     0.202 C 
BRANCH  12  16
ATOM     16  O   UNL     1     155.139 166.554 151.941  1.00  0.00    -0.388 OA
ATOM     17  H   UNL     1     155.831 166.637 151.178  1.00  0.00     0.211 HD
ENDBRANCH  12  16
BRANCH  14  18
ATOM     18  O   UNL     1     153.449 166.340 154.057  1.00  0.00    -0.387 OA
ATOM     19  H   UNL     1     153.287 165.801 153.221  1.00  0.00     0.211 HD
ENDBRANCH  14  18
BRANCH  15  20
ATOM     20  O   UNL     1     152.125 169.357 154.060  1.00  0.00    -0.385 OA
ATOM     21  H   UNL     1     152.967 169.846 154.309  1.00  0.00     0.211 HD
ENDBRANCH  15  20
ENDBRANCH   8   9
ENDBRANCH   7   8
ENDBRANCH   1   7
BRANCH   2  22
ATOM     22  O   UNL     1     147.816 169.869 149.483  1.00  0.00    -0.387 OA
ATOM     23  H   UNL     1     147.236 169.088 149.375  1.00  0.00     0.211 HD
ENDBRANCH   2  22
BRANCH   3  24
ATOM     24  O   UNL     1     146.612 170.340 151.891  1.00  0.00    -0.387 OA
ATOM     25  H   UNL     1     146.445 170.584 150.949  1.00  0.00     0.211 HD
ENDBRANCH   3  24
BRANCH   5  26
ATOM     26  O   UNL     1     148.626 166.788 153.876  1.00  0.00    -0.454 OA
BRANCH  26  27
ATOM     27  C   UNL     1     148.431 165.403 153.338  1.00  0.00     0.214 A 
ATOM     28  C   UNL     1     147.099 164.734 153.201  1.00  0.00     0.180 A 
ATOM     29  C   UNL     1     149.525 164.613 152.821  1.00  0.00     0.239 A 
ATOM     30  O   UNL     1     146.970 163.891 152.184  1.00  0.00    -0.452 OA
ATOM     31  C   UNL     1     149.287 163.514 152.027  1.00  0.00     0.111 A 
ATOM     32  O   UNL     1     150.735 164.933 153.005  1.00  0.00    -0.285 OA
ATOM     33  C   UNL     1     147.971 163.349 151.489  1.00  0.00     0.146 A 
ATOM     34  C   UNL     1     150.171 162.385 151.862  1.00  0.00     0.134 A 
ATOM     35  C   UNL     1     147.733 162.405 150.462  1.00  0.00     0.094 A 
ATOM     36  C   UNL     1     149.937 161.447 150.792  1.00  0.00     0.093 A 
ATOM     37  C   UNL     1     148.718 161.451 150.091  1.00  0.00     0.123 A 
BRANCH  28  38
ATOM     38  C   UNL     1     145.897 164.979 153.943  1.00  0.00     0.025 A 
ATOM     39  C   UNL     1     145.709 164.824 155.392  1.00  0.00     0.062 A 
ATOM     40  C   UNL     1     144.802 165.652 153.166  1.00  0.00     0.016 A 
ATOM     41  C   UNL     1     144.802 165.747 156.056  1.00  0.00     0.158 A 
ATOM     42  C   UNL     1     143.934 166.572 153.904  1.00  0.00     0.051 A 
ATOM     43  C   UNL     1     144.487 166.832 155.150  1.00  0.00     0.157 A 
BRANCH  41  44
ATOM     44  O   UNL     1     144.526 165.747 157.520  1.00  0.00    -0.504 OA
ATOM     45  H   UNL     1     143.818 165.275 158.075  1.00  0.00     0.293 HD
ENDBRANCH  41  44
BRANCH  43  46
ATOM     46  O   UNL     1     145.635 167.580 154.948  1.00  0.00    -0.504 OA
ATOM     47  H   UNL     1     145.502 168.635 154.953  1.00  0.00     0.293 HD
ENDBRANCH  43  46
ENDBRANCH  28  38
BRANCH  34  48
ATOM     48  O   UNL     1     151.138 162.094 152.888  1.00  0.00    -0.507 OA
ATOM     49  H   UNL     1     151.688 161.264 152.924  1.00  0.00     0.293 HD
ENDBRANCH  34  48
BRANCH  37  50
ATOM     50  O   UNL     1     148.529 160.519 149.053  1.00  0.00    -0.508 OA
ATOM     51  H   UNL     1     148.953 160.712 148.079  1.00  0.00     0.293 HD
ENDBRANCH  37  50
ENDBRANCH  26  27
ENDBRANCH   5  26
BRANCH   4  52
ATOM     52  O   UNL     1     148.072 170.221 154.353  1.00  0.00    -0.384 OA
ATOM     53  H   UNL     1     148.961 170.446 154.791  1.00  0.00     0.211 HD
ENDBRANCH   4  52
TORSDOF 16
ENDMDL
MODEL 3
REMARK VINA RESULT:    -8.439      1.890      7.135
REMARK INTER + INTRA:         -15.724
REMARK INTER:                 -13.709
REMARK INTRA:                  -2.014
REMARK UNBOUND:                -1.858
REMARK SMILES C[C@@H]1O[C@@H](OC[C@H]2O[C@@H](Oc3c(-c4ccc(O)c(O)c4)oc4cc(O)cc(O)c4c3=O)[C@H](O)[C@H](O)[C@@H]2O)[C@H](O)[C@@H](O)[C@H]1O
REMARK SMILES IDX 7 1 36 2 34 3 32 4 9 5 8 6 6 7 5 8 4 9 1 10 2 11 42 12 3 13
REMARK SMILES IDX 40 14 38 15 43 16 41 18 39 20 37 22 35 24 10 26 11 27 12 28
REMARK SMILES IDX 30 29 21 30 29 31 31 32 22 33 27 34 23 35 26 36 24 37 13 38
REMARK SMILES IDX 20 39 14 40 18 41 15 42 16 43 19 44 17 46 28 48 25 50 33 52
REMARK H PARENT 43 17 41 19 39 21 37 23 35 25 19 45 17 47 28 49 25 51 33 53
REMARK Flexibility Score: inf
ROOT
ATOM      1  C   UNL     1     145.625 167.923 153.899  1.00  0.00     0.180 C 
ATOM      2  C   UNL     1     145.196 169.417 153.765  1.00  0.00     0.177 C 
ATOM      3  C   UNL     1     146.398 170.420 153.661  1.00  0.00     0.180 C 
ATOM      4  C   UNL     1     147.590 169.645 153.045  1.00  0.00     0.214 C 
ATOM      5  C   UNL     1     147.965 168.373 153.995  1.00  0.00     0.339 C 
ATOM      6  O   UNL     1     146.843 167.889 154.675  1.00  0.00    -0.332 OA
ENDROOT
BRANCH   1   7
ATOM      7  C   UNL     1     145.578 167.094 152.528  1.00  0.00     0.198 C 
BRANCH   7   8
ATOM      8  O   UNL     1     145.183 165.720 152.697  1.00  0.00    -0.347 OA
BRANCH   8   9
ATOM      9  C   UNL     1     146.025 164.536 152.445  1.00  0.00     0.281 C 
ATOM     10  C   UNL     1     147.435 162.069 152.996  1.00  0.00     0.041 C 
ATOM     11  C   UNL     1     148.106 163.489 152.632  1.00  0.00     0.150 C 
ATOM     12  C   UNL     1     148.419 163.550 151.078  1.00  0.00     0.174 C 
ATOM     13  O   UNL     1     147.366 164.656 152.974  1.00  0.00    -0.344 OA
ATOM     14  C   UNL     1     147.144 163.554 150.204  1.00  0.00     0.179 C 
ATOM     15  C   UNL     1     145.902 164.097 150.971  1.00  0.00     0.202 C 
BRANCH  12  16
ATOM     16  O   UNL     1     149.223 164.637 150.879  1.00  0.00    -0.388 OA
ATOM     17  H   UNL     1     148.856 165.303 150.180  1.00  0.00     0.211 HD
ENDBRANCH  12  16
BRANCH  14  18
ATOM     18  O   UNL     1     147.270 164.301 149.021  1.00  0.00    -0.387 OA
ATOM     19  H   UNL     1     147.625 163.703 148.292  1.00  0.00     0.211 HD
ENDBRANCH  14  18
BRANCH  15  20
ATOM     20  O   UNL     1     144.835 163.160 150.926  1.00  0.00    -0.385 OA
ATOM     21  H   UNL     1     144.640 163.072 149.943  1.00  0.00     0.211 HD
ENDBRANCH  15  20
ENDBRANCH   8   9
ENDBRANCH   7   8
ENDBRANCH   1   7
BRANCH   2  22
ATOM     22  O   UNL     1     144.211 169.869 154.723  1.00  0.00    -0.387 OA
ATOM     23  H   UNL     1     143.997 170.776 154.425  1.00  0.00     0.211 HD
ENDBRANCH   2  22
BRANCH   3  24
ATOM     24  O   UNL     1     146.699 170.984 154.918  1.00  0.00    -0.387 OA
ATOM     25  H   UNL     1     147.564 171.427 154.743  1.00  0.00     0.211 HD
ENDBRANCH   3  24
BRANCH   5  26
ATOM     26  O   UNL     1     148.786 167.164 153.630  1.00  0.00    -0.454 OA
BRANCH  26  27
ATOM     27  C   UNL     1     150.157 167.358 153.059  1.00  0.00     0.214 A 
ATOM     28  C   UNL     1     150.430 167.957 151.714  1.00  0.00     0.180 A 
ATOM     29  C   UNL     1     151.356 167.053 153.804  1.00  0.00     0.239 A 
ATOM     30  O   UNL     1     151.554 168.656 151.603  1.00  0.00    -0.452 OA
ATOM     31  C   UNL     1     152.577 167.554 153.412  1.00  0.00     0.111 A 
ATOM     32  O   UNL     1     151.333 166.386 154.879  1.00  0.00    -0.285 OA
ATOM     33  C   UNL     1     152.588 168.607 152.442  1.00  0.00     0.146 A 
ATOM     34  C   UNL     1     153.864 166.972 153.712  1.00  0.00     0.134 A 
ATOM     35  C   UNL     1     153.774 169.341 152.201  1.00  0.00     0.094 A 
ATOM     36  C   UNL     1     155.062 167.742 153.490  1.00  0.00     0.093 A 
ATOM     37  C   UNL     1     155.023 168.927 152.733  1.00  0.00     0.123 A 
BRANCH  28  38
ATOM     38  C   UNL     1     149.578 167.990 150.562  1.00  0.00     0.025 A 
ATOM     39  C   UNL     1     148.110 167.937 150.550  1.00  0.00     0.062 A 
ATOM     40  C   UNL     1     150.274 168.317 149.272  1.00  0.00     0.016 A 
ATOM     41  C   UNL     1     147.417 168.687 149.514  1.00  0.00     0.158 A 
ATOM     42  C   UNL     1     149.512 169.081 148.281  1.00  0.00     0.051 A 
ATOM     43  C   UNL     1     148.358 169.578 148.868  1.00  0.00     0.157 A 
BRANCH  41  44
ATOM     44  O   UNL     1     145.935 168.764 149.381  1.00  0.00    -0.504 OA
ATOM     45  H   UNL     1     145.335 168.922 148.578  1.00  0.00     0.293 HD
ENDBRANCH  41  44
BRANCH  43  46
ATOM     46  O   UNL     1     148.740 170.546 149.782  1.00  0.00    -0.504 OA
ATOM     47  H   UNL     1     149.492 171.220 149.449  1.00  0.00     0.293 HD
ENDBRANCH  43  46
ENDBRANCH  28  38
BRANCH  34  48
ATOM     48  O   UNL     1     153.945 165.569 154.020  1.00  0.00    -0.507 OA
ATOM     49  H   UNL     1     153.803 164.838 153.357  1.00  0.00     0.293 HD
ENDBRANCH  34  48
BRANCH  37  50
ATOM     50  O   UNL     1     156.216 169.649 152.540  1.00  0.00    -0.508 OA
ATOM     51  H   UNL     1     156.292 170.661 152.910  1.00  0.00     0.293 HD
ENDBRANCH  37  50
ENDBRANCH  26  27
ENDBRANCH   5  26
BRANCH   4  52
ATOM     52  O   UNL     1     148.686 170.593 152.892  1.00  0.00    -0.384 OA
ATOM     53  H   UNL     1     148.180 171.373 152.481  1.00  0.00     0.211 HD
ENDBRANCH   4  52
TORSDOF 16
ENDMDL
MODEL 4
REMARK VINA RESULT:    -7.906      2.375      5.967
REMARK INTER + INTRA:         -14.847
REMARK INTER:                 -12.212
REMARK INTRA:                  -2.635
REMARK UNBOUND:                -1.858
REMARK SMILES C[C@@H]1O[C@@H](OC[C@H]2O[C@@H](Oc3c(-c4ccc(O)c(O)c4)oc4cc(O)cc(O)c4c3=O)[C@H](O)[C@H](O)[C@@H]2O)[C@H](O)[C@@H](O)[C@H]1O
REMARK SMILES IDX 7 1 36 2 34 3 32 4 9 5 8 6 6 7 5 8 4 9 1 10 2 11 42 12 3 13
REMARK SMILES IDX 40 14 38 15 43 16 41 18 39 20 37 22 35 24 10 26 11 27 12 28
REMARK SMILES IDX 30 29 21 30 29 31 31 32 22 33 27 34 23 35 26 36 24 37 13 38
REMARK SMILES IDX 20 39 14 40 18 41 15 42 16 43 19 44 17 46 28 48 25 50 33 52
REMARK H PARENT 43 17 41 19 39 21 37 23 35 25 19 45 17 47 28 49 25 51 33 53
REMARK Flexibility Score: inf
ROOT
ATOM      1  C   UNL     1     144.144 165.976 154.802  1.00  0.00     0.180 C 
ATOM      2  C   UNL     1     144.667 166.511 156.171  1.00  0.00     0.177 C 
ATOM      3  C   UNL     1     146.195 166.251 156.418  1.00  0.00     0.180 C 
ATOM      4  C   UNL     1     146.877 166.173 155.029  1.00  0.00     0.214 C 
ATOM      5  C   UNL     1     146.208 164.968 154.157  1.00  0.00     0.339 C 
ATOM      6  O   UNL     1     144.870 164.761 154.505  1.00  0.00    -0.332 OA
ENDROOT
BRANCH   1   7
ATOM      7  C   UNL     1     144.031 167.088 153.654  1.00  0.00     0.198 C 
BRANCH   7   8
ATOM      8  O   UNL     1     144.345 168.418 154.107  1.00  0.00    -0.347 OA
BRANCH   8   9
ATOM      9  C   UNL     1     145.449 169.266 153.618  1.00  0.00     0.281 C 
ATOM     10  C   UNL     1     147.249 170.514 151.727  1.00  0.00     0.041 C 
ATOM     11  C   UNL     1     147.651 169.432 152.852  1.00  0.00     0.150 C 
ATOM     12  C   UNL     1     148.180 170.177 154.148  1.00  0.00     0.174 C 
ATOM     13  O   UNL     1     146.635 168.521 153.258  1.00  0.00    -0.344 OA
ATOM     14  C   UNL     1     147.084 171.003 154.861  1.00  0.00     0.179 C 
ATOM     15  C   UNL     1     145.652 170.473 154.558  1.00  0.00     0.202 C 
BRANCH  12  16
ATOM     16  O   UNL     1     148.755 169.227 154.944  1.00  0.00    -0.388 OA
ATOM     17  H   UNL     1     149.285 169.617 155.741  1.00  0.00     0.211 HD
ENDBRANCH  12  16
BRANCH  14  18
ATOM     18  O   UNL     1     147.230 171.052 156.257  1.00  0.00    -0.387 OA
ATOM     19  H   UNL     1     146.644 170.345 156.672  1.00  0.00     0.211 HD
ENDBRANCH  14  18
BRANCH  15  20
ATOM     20  O   UNL     1     144.830 171.513 154.048  1.00  0.00    -0.385 OA
ATOM     21  H   UNL     1     144.042 171.023 153.660  1.00  0.00     0.211 HD
ENDBRANCH  15  20
ENDBRANCH   8   9
ENDBRANCH   7   8
ENDBRANCH   1   7
BRANCH   2  22
ATOM     22  O   UNL     1     143.875 166.145 157.324  1.00  0.00    -0.387 OA
ATOM     23  H   UNL     1     142.958 166.346 157.049  1.00  0.00     0.211 HD
ENDBRANCH   2  22
BRANCH   3  24
ATOM     24  O   UNL     1     146.393 165.091 157.195  1.00  0.00    -0.387 OA
ATOM     25  H   UNL     1     147.243 164.742 156.830  1.00  0.00     0.211 HD
ENDBRANCH   3  24
BRANCH   5  26
ATOM     26  O   UNL     1     146.289 164.755 152.668  1.00  0.00    -0.454 OA
BRANCH  26  27
ATOM     27  C   UNL     1     147.518 164.125 152.087  1.00  0.00     0.214 A 
ATOM     28  C   UNL     1     148.795 164.860 151.821  1.00  0.00     0.180 A 
ATOM     29  C   UNL     1     147.602 162.710 151.805  1.00  0.00     0.239 A 
ATOM     30  O   UNL     1     149.913 164.157 151.954  1.00  0.00    -0.452 OA
ATOM     31  C   UNL     1     148.821 162.102 151.609  1.00  0.00     0.111 A 
ATOM     32  O   UNL     1     146.583 161.961 151.801  1.00  0.00    -0.285 OA
ATOM     33  C   UNL     1     149.998 162.826 151.980  1.00  0.00     0.146 A 
ATOM     34  C   UNL     1     149.048 160.890 150.857  1.00  0.00     0.134 A 
ATOM     35  C   UNL     1     151.248 162.166 152.057  1.00  0.00     0.094 A 
ATOM     36  C   UNL     1     150.314 160.210 150.969  1.00  0.00     0.093 A 
ATOM     37  C   UNL     1     151.418 160.844 151.566  1.00  0.00     0.123 A 
BRANCH  28  38
ATOM     38  C   UNL     1     148.984 166.258 151.569  1.00  0.00     0.025 A 
ATOM     39  C   UNL     1     150.044 167.117 152.113  1.00  0.00     0.062 A 
ATOM     40  C   UNL     1     148.120 166.825 150.478  1.00  0.00     0.016 A 
ATOM     41  C   UNL     1     150.543 168.190 151.268  1.00  0.00     0.158 A 
ATOM     42  C   UNL     1     148.695 167.899 149.666  1.00  0.00     0.051 A 
ATOM     43  C   UNL     1     150.056 167.992 149.919  1.00  0.00     0.157 A 
BRANCH  41  44
ATOM     44  O   UNL     1     151.635 169.127 151.656  1.00  0.00    -0.504 OA
ATOM     45  H   UNL     1     151.693 170.141 151.641  1.00  0.00     0.293 HD
ENDBRANCH  41  44
BRANCH  43  46
ATOM     46  O   UNL     1     150.654 166.855 149.401  1.00  0.00    -0.504 OA
ATOM     47  H   UNL     1     151.467 167.025 148.737  1.00  0.00     0.293 HD
ENDBRANCH  43  46
ENDBRANCH  28  38
BRANCH  34  48
ATOM     48  O   UNL     1     148.097 160.500 149.850  1.00  0.00    -0.507 OA
ATOM     49  H   UNL     1     147.664 161.132 149.210  1.00  0.00     0.293 HD
ENDBRANCH  34  48
BRANCH  37  50
ATOM     50  O   UNL     1     152.637 160.145 151.655  1.00  0.00    -0.508 OA
ATOM     51  H   UNL     1     152.664 159.180 152.141  1.00  0.00     0.293 HD
ENDBRANCH  37  50
ENDBRANCH  26  27
ENDBRANCH   5  26
BRANCH   4  52
ATOM     52  O   UNL     1     148.305 165.994 155.261  1.00  0.00    -0.384 OA
ATOM     53  H   UNL     1     148.664 166.317 154.367  1.00  0.00     0.211 HD
ENDBRANCH   4  52
TORSDOF 16
ENDMDL
MODEL 5
REMARK VINA RESULT:    -7.874      2.224      5.212
REMARK INTER + INTRA:         -14.796
REMARK INTER:                 -12.791
REMARK INTRA:                  -2.005
REMARK UNBOUND:                -1.858
REMARK SMILES C[C@@H]1O[C@@H](OC[C@H]2O[C@@H](Oc3c(-c4ccc(O)c(O)c4)oc4cc(O)cc(O)c4c3=O)[C@H](O)[C@H](O)[C@@H]2O)[C@H](O)[C@@H](O)[C@H]1O
REMARK SMILES IDX 7 1 36 2 34 3 32 4 9 5 8 6 6 7 5 8 4 9 1 10 2 11 42 12 3 13
REMARK SMILES IDX 40 14 38 15 43 16 41 18 39 20 37 22 35 24 10 26 11 27 12 28
REMARK SMILES IDX 30 29 21 30 29 31 31 32 22 33 27 34 23 35 26 36 24 37 13 38
REMARK SMILES IDX 20 39 14 40 18 41 15 42 16 43 19 44 17 46 28 48 25 50 33 52
REMARK H PARENT 43 17 41 19 39 21 37 23 35 25 19 45 17 47 28 49 25 51 33 53
REMARK Flexibility Score: inf
ROOT
ATOM      1  C   UNL     1     145.007 168.030 152.640  1.00  0.00     0.180 C 
ATOM      2  C   UNL     1     145.055 167.833 154.187  1.00  0.00     0.177 C 
ATOM      3  C   UNL     1     145.399 166.369 154.635  1.00  0.00     0.180 C 
ATOM      4  C   UNL     1     146.239 165.729 153.501  1.00  0.00     0.214 C 
ATOM      5  C   UNL     1     145.382 165.734 152.113  1.00  0.00     0.339 C 
ATOM      6  O   UNL     1     144.489 166.810 152.063  1.00  0.00    -0.332 OA
ENDROOT
BRANCH   1   7
ATOM      7  C   UNL     1     146.338 168.660 152.010  1.00  0.00     0.198 C 
BRANCH   7   8
ATOM      8  O   UNL     1     146.610 170.001 152.456  1.00  0.00    -0.347 OA
BRANCH   8   9
ATOM      9  C   UNL     1     147.840 170.462 153.127  1.00  0.00     0.281 C 
ATOM     10  C   UNL     1     150.169 172.100 153.650  1.00  0.00     0.041 C 
ATOM     11  C   UNL     1     150.175 170.561 153.169  1.00  0.00     0.150 C 
ATOM     12  C   UNL     1     150.320 169.607 154.428  1.00  0.00     0.174 C 
ATOM     13  O   UNL     1     149.052 170.119 152.414  1.00  0.00    -0.344 OA
ATOM     14  C   UNL     1     149.092 169.655 155.367  1.00  0.00     0.179 C 
ATOM     15  C   UNL     1     147.798 170.103 154.627  1.00  0.00     0.202 C 
BRANCH  12  16
ATOM     16  O   UNL     1     150.595 168.357 153.949  1.00  0.00    -0.388 OA
ATOM     17  H   UNL     1     150.412 167.602 154.629  1.00  0.00     0.211 HD
ENDBRANCH  12  16
BRANCH  14  18
ATOM     18  O   UNL     1     148.816 168.432 156.000  1.00  0.00    -0.387 OA
ATOM     19  H   UNL     1     148.260 168.606 156.822  1.00  0.00     0.211 HD
ENDBRANCH  14  18
BRANCH  15  20
ATOM     20  O   UNL     1     147.205 171.215 155.283  1.00  0.00    -0.385 OA
ATOM     21  H   UNL     1     147.731 172.000 154.939  1.00  0.00     0.211 HD
ENDBRANCH  15  20
ENDBRANCH   8   9
ENDBRANCH   7   8
ENDBRANCH   1   7
BRANCH   2  22
ATOM     22  O   UNL     1     143.920 168.356 154.916  1.00  0.00    -0.387 OA
ATOM     23  H   UNL     1     143.182 168.285 154.277  1.00  0.00     0.211 HD
ENDBRANCH   2  22
BRANCH   3  24
ATOM     24  O   UNL     1     144.229 165.640 154.931  1.00  0.00    -0.387 OA
ATOM     25  H   UNL     1     144.519 165.086 155.696  1.00  0.00     0.211 HD
ENDBRANCH   3  24
BRANCH   5  26
ATOM     26  O   UNL     1     145.901 165.556 150.711  1.00  0.00    -0.454 OA
BRANCH  26  27
ATOM     27  C   UNL     1     147.121 164.716 150.486  1.00  0.00     0.214 A 
ATOM     28  C   UNL     1     148.522 165.192 150.710  1.00  0.00     0.180 A 
ATOM     29  C   UNL     1     147.042 163.324 150.105  1.00  0.00     0.239 A 
ATOM     30  O   UNL     1     149.393 164.276 151.116  1.00  0.00    -0.452 OA
ATOM     31  C   UNL     1     148.131 162.493 150.242  1.00  0.00     0.111 A 
ATOM     32  O   UNL     1     145.965 162.793 149.706  1.00  0.00    -0.285 OA
ATOM     33  C   UNL     1     149.230 162.955 151.034  1.00  0.00     0.146 A 
ATOM     34  C   UNL     1     148.375 161.290 149.483  1.00  0.00     0.134 A 
ATOM     35  C   UNL     1     150.248 162.057 151.434  1.00  0.00     0.094 A 
ATOM     36  C   UNL     1     149.394 160.367 149.918  1.00  0.00     0.093 A 
ATOM     37  C   UNL     1     150.334 160.747 150.892  1.00  0.00     0.123 A 
BRANCH  28  38
ATOM     38  C   UNL     1     149.026 166.533 150.670  1.00  0.00     0.025 A 
ATOM     39  C   UNL     1     150.206 167.052 151.375  1.00  0.00     0.062 A 
ATOM     40  C   UNL     1     148.385 167.418 149.640  1.00  0.00     0.016 A 
ATOM     41  C   UNL     1     150.983 168.089 150.714  1.00  0.00     0.158 A 
ATOM     42  C   UNL     1     149.235 168.434 149.015  1.00  0.00     0.051 A 
ATOM     43  C   UNL     1     150.562 168.185 149.333  1.00  0.00     0.157 A 
BRANCH  41  44
ATOM     44  O   UNL     1     152.222 168.698 151.277  1.00  0.00    -0.504 OA
ATOM     45  H   UNL     1     152.763 168.484 152.109  1.00  0.00     0.293 HD
ENDBRANCH  41  44
BRANCH  43  46
ATOM     46  O   UNL     1     150.935 167.022 148.680  1.00  0.00    -0.504 OA
ATOM     47  H   UNL     1     150.523 166.124 149.072  1.00  0.00     0.293 HD
ENDBRANCH  43  46
ENDBRANCH  28  38
BRANCH  34  48
ATOM     48  O   UNL     1     147.753 161.135 148.194  1.00  0.00    -0.507 OA
ATOM     49  H   UNL     1     147.895 160.353 147.591  1.00  0.00     0.293 HD
ENDBRANCH  34  48
BRANCH  37  50
ATOM     50  O   UNL     1     151.313 159.817 151.289  1.00  0.00    -0.508 OA
ATOM     51  H   UNL     1     151.400 158.877 150.764  1.00  0.00     0.293 HD
ENDBRANCH  37  50
ENDBRANCH  26  27
ENDBRANCH   5  26
BRANCH   4  52
ATOM     52  O   UNL     1     146.611 164.390 153.945  1.00  0.00    -0.384 OA
ATOM     53  H   UNL     1     147.440 164.615 154.486  1.00  0.00     0.211 HD
ENDBRANCH   4  52
TORSDOF 16
ENDMDL
MODEL 6
REMARK VINA RESULT:    -7.782      2.345      4.927
REMARK INTER + INTRA:         -14.644
REMARK INTER:                 -11.633
REMARK INTRA:                  -3.010
REMARK UNBOUND:                -1.858
REMARK SMILES C[C@@H]1O[C@@H](OC[C@H]2O[C@@H](Oc3c(-c4ccc(O)c(O)c4)oc4cc(O)cc(O)c4c3=O)[C@H](O)[C@H](O)[C@@H]2O)[C@H](O)[C@@H](O)[C@H]1O
REMARK SMILES IDX 7 1 36 2 34 3 32 4 9 5 8 6 6 7 5 8 4 9 1 10 2 11 42 12 3 13
REMARK SMILES IDX 40 14 38 15 43 16 41 18 39 20 37 22 35 24 10 26 11 27 12 28
REMARK SMILES IDX 30 29 21 30 29 31 31 32 22 33 27 34 23 35 26 36 24 37 13 38
REMARK SMILES IDX 20 39 14 40 18 41 15 42 16 43 19 44 17 46 28 48 25 50 33 52
REMARK H PARENT 43 17 41 19 39 21 37 23 35 25 19 45 17 47 28 49 25 51 33 53
REMARK Flexibility Score: inf
ROOT
ATOM      1  C   UNL     1     150.329 166.877 153.879  1.00  0.00     0.180 C 
ATOM      2  C   UNL     1     150.349 168.157 152.986  1.00  0.00     0.177 C 
ATOM      3  C   UNL     1     149.796 167.933 151.535  1.00  0.00     0.180 C 
ATOM      4  C   UNL     1     148.788 166.758 151.605  1.00  0.00     0.214 C 
ATOM      5  C   UNL     1     149.543 165.422 152.160  1.00  0.00     0.339 C 
ATOM      6  O   UNL     1     150.597 165.745 153.020  1.00  0.00    -0.332 OA
ENDROOT
BRANCH   1   7
ATOM      7  C   UNL     1     149.083 166.788 154.882  1.00  0.00     0.198 C 
BRANCH   7   8
ATOM      8  O   UNL     1     148.530 168.071 155.231  1.00  0.00    -0.347 OA
BRANCH   8   9
ATOM      9  C   UNL     1     147.275 168.646 154.712  1.00  0.00     0.281 C 
ATOM     10  C   UNL     1     144.428 169.102 154.452  1.00  0.00     0.041 C 
ATOM     11  C   UNL     1     145.389 168.425 153.349  1.00  0.00     0.150 C 
ATOM     12  C   UNL     1     145.859 169.520 152.303  1.00  0.00     0.174 C 
ATOM     13  O   UNL     1     146.550 167.756 153.832  1.00  0.00    -0.344 OA
ATOM     14  C   UNL     1     146.779 170.596 152.926  1.00  0.00     0.179 C 
ATOM     15  C   UNL     1     147.517 170.080 154.196  1.00  0.00     0.202 C 
BRANCH  12  16
ATOM     16  O   UNL     1     146.430 168.851 151.257  1.00  0.00    -0.388 OA
ATOM     17  H   UNL     1     145.833 168.102 150.868  1.00  0.00     0.211 HD
ENDBRANCH  12  16
BRANCH  14  18
ATOM     18  O   UNL     1     147.753 171.089 152.042  1.00  0.00    -0.387 OA
ATOM     19  H   UNL     1     147.334 171.791 151.453  1.00  0.00     0.211 HD
ENDBRANCH  14  18
BRANCH  15  20
ATOM     20  O   UNL     1     147.279 170.942 155.300  1.00  0.00    -0.385 OA
ATOM     21  H   UNL     1     146.942 171.787 154.871  1.00  0.00     0.211 HD
ENDBRANCH  15  20
ENDBRANCH   8   9
ENDBRANCH   7   8
ENDBRANCH   1   7
BRANCH   2  22
ATOM     22  O   UNL     1     151.601 168.882 152.969  1.00  0.00    -0.387 OA
ATOM     23  H   UNL     1     152.213 168.276 152.505  1.00  0.00     0.211 HD
ENDBRANCH   2  22
BRANCH   3  24
ATOM     24  O   UNL     1     150.845 167.705 150.621  1.00  0.00    -0.387 OA
ATOM     25  H   UNL     1     150.352 167.490 149.792  1.00  0.00     0.211 HD
ENDBRANCH   3  24
BRANCH   5  26
ATOM     26  O   UNL     1     148.911 164.176 152.723  1.00  0.00    -0.454 OA
BRANCH  26  27
ATOM     27  C   UNL     1     148.567 163.050 151.796  1.00  0.00     0.214 A 
ATOM     28  C   UNL     1     147.217 162.851 151.181  1.00  0.00     0.180 A 
ATOM     29  C   UNL     1     149.549 162.091 151.347  1.00  0.00     0.239 A 
ATOM     30  O   UNL     1     147.201 162.307 149.970  1.00  0.00    -0.452 OA
ATOM     31  C   UNL     1     149.306 161.295 150.250  1.00  0.00     0.111 A 
ATOM     32  O   UNL     1     150.690 161.991 151.882  1.00  0.00    -0.285 OA
ATOM     33  C   UNL     1     148.207 161.642 149.401  1.00  0.00     0.146 A 
ATOM     34  C   UNL     1     149.912 160.011 149.988  1.00  0.00     0.134 A 
ATOM     35  C   UNL     1     148.070 161.038 148.129  1.00  0.00     0.094 A 
ATOM     36  C   UNL     1     149.792 159.421 148.678  1.00  0.00     0.093 A 
ATOM     37  C   UNL     1     148.870 159.929 147.745  1.00  0.00     0.123 A 
BRANCH  28  38
ATOM     38  C   UNL     1     145.941 163.288 151.666  1.00  0.00     0.025 A 
ATOM     39  C   UNL     1     145.642 163.820 153.003  1.00  0.00     0.062 A 
ATOM     40  C   UNL     1     144.869 163.393 150.619  1.00  0.00     0.016 A 
ATOM     41  C   UNL     1     144.615 164.845 153.105  1.00  0.00     0.158 A 
ATOM     42  C   UNL     1     143.875 164.454 150.790  1.00  0.00     0.051 A 
ATOM     43  C   UNL     1     144.299 165.330 151.779  1.00  0.00     0.157 A 
BRANCH  41  44
ATOM     44  O   UNL     1     144.216 165.510 154.378  1.00  0.00    -0.504 OA
ATOM     45  H   UNL     1     144.737 165.723 155.223  1.00  0.00     0.293 HD
ENDBRANCH  41  44
BRANCH  43  46
ATOM     46  O   UNL     1     145.401 166.010 151.288  1.00  0.00    -0.504 OA
ATOM     47  H   UNL     1     145.586 166.962 151.726  1.00  0.00     0.293 HD
ENDBRANCH  43  46
ENDBRANCH  28  38
BRANCH  34  48
ATOM     48  O   UNL     1     150.437 159.245 151.088  1.00  0.00    -0.507 OA
ATOM     49  H   UNL     1     151.107 159.587 151.743  1.00  0.00     0.293 HD
ENDBRANCH  34  48
BRANCH  37  50
ATOM     50  O   UNL     1     148.783 159.323 146.477  1.00  0.00    -0.508 OA
ATOM     51  H   UNL     1     149.632 158.779 146.088  1.00  0.00     0.293 HD
ENDBRANCH  37  50
ENDBRANCH  26  27
ENDBRANCH   5  26
BRANCH   4  52
ATOM     52  O   UNL     1     148.228 166.591 150.269  1.00  0.00    -0.384 OA
ATOM     53  H   UNL     1     148.915 167.112 149.731  1.00  0.00     0.211 HD
ENDBRANCH   4  52
TORSDOF 16
ENDMDL
MODEL 7
REMARK VINA RESULT:    -7.741      1.551      2.326
REMARK INTER + INTRA:         -14.576
REMARK INTER:                 -12.150
REMARK INTRA:                  -2.426
REMARK UNBOUND:                -1.858
REMARK SMILES C[C@@H]1O[C@@H](OC[C@H]2O[C@@H](Oc3c(-c4ccc(O)c(O)c4)oc4cc(O)cc(O)c4c3=O)[C@H](O)[C@H](O)[C@@H]2O)[C@H](O)[C@@H](O)[C@H]1O
REMARK SMILES IDX 7 1 36 2 34 3 32 4 9 5 8 6 6 7 5 8 4 9 1 10 2 11 42 12 3 13
REMARK SMILES IDX 40 14 38 15 43 16 41 18 39 20 37 22 35 24 10 26 11 27 12 28
REMARK SMILES IDX 30 29 21 30 29 31 31 32 22 33 27 34 23 35 26 36 24 37 13 38
REMARK SMILES IDX 20 39 14 40 18 41 15 42 16 43 19 44 17 46 28 48 25 50 33 52
REMARK H PARENT 43 17 41 19 39 21 37 23 35 25 19 45 17 47 28 49 25 51 33 53
REMARK Flexibility Score: inf
ROOT
ATOM      1  C   UNL     1     149.685 169.335 151.868  1.00  0.00     0.180 C 
ATOM      2  C   UNL     1     148.772 170.497 151.368  1.00  0.00     0.177 C 
ATOM      3  C   UNL     1     147.241 170.256 151.609  1.00  0.00     0.180 C 
ATOM      4  C   UNL     1     147.111 169.316 152.834  1.00  0.00     0.214 C 
ATOM      5  C   UNL     1     147.889 167.913 152.533  1.00  0.00     0.339 C 
ATOM      6  O   UNL     1     148.966 168.098 151.661  1.00  0.00    -0.332 OA
ENDROOT
BRANCH   1   7
ATOM      7  C   UNL     1     150.357 169.588 153.300  1.00  0.00     0.198 C 
BRANCH   7   8
ATOM      8  O   UNL     1     151.785 169.760 153.246  1.00  0.00    -0.347 OA
BRANCH   8   9
ATOM      9  C   UNL     1     152.788 168.683 153.141  1.00  0.00     0.281 C 
ATOM     10  C   UNL     1     154.001 166.087 153.549  1.00  0.00     0.041 C 
ATOM     11  C   UNL     1     154.550 167.494 154.113  1.00  0.00     0.150 C 
ATOM     12  C   UNL     1     155.651 168.073 153.129  1.00  0.00     0.174 C 
ATOM     13  O   UNL     1     153.585 168.516 154.337  1.00  0.00    -0.344 OA
ATOM     14  C   UNL     1     155.079 168.470 151.748  1.00  0.00     0.179 C 
ATOM     15  C   UNL     1     153.559 168.797 151.809  1.00  0.00     0.202 C 
BRANCH  12  16
ATOM     16  O   UNL     1     156.267 169.101 153.785  1.00  0.00    -0.388 OA
ATOM     17  H   UNL     1     157.273 169.190 153.567  1.00  0.00     0.211 HD
ENDBRANCH  12  16
BRANCH  14  18
ATOM     18  O   UNL     1     155.725 169.573 151.165  1.00  0.00    -0.387 OA
ATOM     19  H   UNL     1     155.775 169.434 150.169  1.00  0.00     0.211 HD
ENDBRANCH  14  18
BRANCH  15  20
ATOM     20  O   UNL     1     152.839 168.011 150.869  1.00  0.00    -0.385 OA
ATOM     21  H   UNL     1     153.447 167.985 150.069  1.00  0.00     0.211 HD
ENDBRANCH  15  20
ENDBRANCH   8   9
ENDBRANCH   7   8
ENDBRANCH   1   7
BRANCH   2  22
ATOM     22  O   UNL     1     149.030 170.954 150.020  1.00  0.00    -0.387 OA
ATOM     23  H   UNL     1     149.243 171.903 150.134  1.00  0.00     0.211 HD
ENDBRANCH   2  22
BRANCH   3  24
ATOM     24  O   UNL     1     146.620 169.740 150.452  1.00  0.00    -0.387 OA
ATOM     25  H   UNL     1     145.735 169.466 150.798  1.00  0.00     0.211 HD
ENDBRANCH   3  24
BRANCH   5  26
ATOM     26  O   UNL     1     148.332 166.875 153.530  1.00  0.00    -0.454 OA
BRANCH  26  27
ATOM     27  C   UNL     1     148.282 165.427 153.147  1.00  0.00     0.214 A 
ATOM     28  C   UNL     1     147.031 164.606 153.124  1.00  0.00     0.180 A 
ATOM     29  C   UNL     1     149.447 164.711 152.681  1.00  0.00     0.239 A 
ATOM     30  O   UNL     1     146.976 163.649 152.206  1.00  0.00    -0.452 OA
ATOM     31  C   UNL     1     149.317 163.513 152.015  1.00  0.00     0.111 A 
ATOM     32  O   UNL     1     150.617 165.178 152.791  1.00  0.00    -0.285 OA
ATOM     33  C   UNL     1     148.018 163.148 151.540  1.00  0.00     0.146 A 
ATOM     34  C   UNL     1     150.319 162.476 151.940  1.00  0.00     0.134 A 
ATOM     35  C   UNL     1     147.866 162.078 150.626  1.00  0.00     0.094 A 
ATOM     36  C   UNL     1     150.169 161.408 150.983  1.00  0.00     0.093 A 
ATOM     37  C   UNL     1     148.944 161.204 150.325  1.00  0.00     0.123 A 
BRANCH  28  38
ATOM     38  C   UNL     1     145.825 164.797 153.875  1.00  0.00     0.025 A 
ATOM     39  C   UNL     1     145.623 164.519 155.303  1.00  0.00     0.062 A 
ATOM     40  C   UNL     1     144.742 165.545 153.150  1.00  0.00     0.016 A 
ATOM     41  C   UNL     1     144.718 165.390 156.037  1.00  0.00     0.158 A 
ATOM     42  C   UNL     1     143.875 166.405 153.958  1.00  0.00     0.051 A 
ATOM     43  C   UNL     1     144.420 166.551 155.226  1.00  0.00     0.157 A 
BRANCH  41  44
ATOM     44  O   UNL     1     144.429 165.266 157.494  1.00  0.00    -0.504 OA
ATOM     45  H   UNL     1     144.607 164.518 158.157  1.00  0.00     0.293 HD
ENDBRANCH  41  44
BRANCH  43  46
ATOM     46  O   UNL     1     145.576 167.304 155.099  1.00  0.00    -0.504 OA
ATOM     47  H   UNL     1     146.473 166.748 154.971  1.00  0.00     0.293 HD
ENDBRANCH  43  46
ENDBRANCH  28  38
BRANCH  34  48
ATOM     48  O   UNL     1     151.333 162.405 152.960  1.00  0.00    -0.507 OA
ATOM     49  H   UNL     1     151.413 161.664 153.623  1.00  0.00     0.293 HD
ENDBRANCH  34  48
BRANCH  37  50
ATOM     50  O   UNL     1     148.839 160.149 149.398  1.00  0.00    -0.508 OA
ATOM     51  H   UNL     1     147.876 159.695 149.214  1.00  0.00     0.293 HD
ENDBRANCH  37  50
ENDBRANCH  26  27
ENDBRANCH   5  26
BRANCH   4  52
ATOM     52  O   UNL     1     145.688 169.142 153.095  1.00  0.00    -0.384 OA
ATOM     53  H   UNL     1     145.408 170.116 153.163  1.00  0.00     0.211 HD
ENDBRANCH   4  52
TORSDOF 16
ENDMDL
MODEL 8
REMARK VINA RESULT:    -7.729      2.386      7.557
REMARK INTER + INTRA:         -14.557
REMARK INTER:                 -12.492
REMARK INTRA:                  -2.065
REMARK UNBOUND:                -1.858
REMARK SMILES C[C@@H]1O[C@@H](OC[C@H]2O[C@@H](Oc3c(-c4ccc(O)c(O)c4)oc4cc(O)cc(O)c4c3=O)[C@H](O)[C@H](O)[C@@H]2O)[C@H](O)[C@@H](O)[C@H]1O
REMARK SMILES IDX 7 1 36 2 34 3 32 4 9 5 8 6 6 7 5 8 4 9 1 10 2 11 42 12 3 13
REMARK SMILES IDX 40 14 38 15 43 16 41 18 39 20 37 22 35 24 10 26 11 27 12 28
REMARK SMILES IDX 30 29 21 30 29 31 31 32 22 33 27 34 23 35 26 36 24 37 13 38
REMARK SMILES IDX 20 39 14 40 18 41 15 42 16 43 19 44 17 46 28 48 25 50 33 52
REMARK H PARENT 43 17 41 19 39 21 37 23 35 25 19 45 17 47 28 49 25 51 33 53
REMARK Flexibility Score: inf
ROOT
ATOM      1  C   UNL     1     145.835 168.762 153.661  1.00  0.00     0.180 C 
ATOM      2  C   UNL     1     145.652 170.258 154.064  1.00  0.00     0.177 C 
ATOM      3  C   UNL     1     146.996 171.003 154.384  1.00  0.00     0.180 C 
ATOM      4  C   UNL     1     148.115 170.297 153.577  1.00  0.00     0.214 C 
ATOM      5  C   UNL     1     148.195 168.726 154.011  1.00  0.00     0.339 C 
ATOM      6  O   UNL     1     146.949 168.240 154.421  1.00  0.00    -0.332 OA
ENDROOT
BRANCH   1   7
ATOM      7  C   UNL     1     145.805 168.493 152.082  1.00  0.00     0.198 C 
BRANCH   7   8
ATOM      8  O   UNL     1     144.867 167.475 151.687  1.00  0.00    -0.347 OA
BRANCH   8   9
ATOM      9  C   UNL     1     144.937 166.044 152.040  1.00  0.00     0.281 C 
ATOM     10  C   UNL     1     144.113 163.277 152.234  1.00  0.00     0.041 C 
ATOM     11  C   UNL     1     144.293 164.305 153.462  1.00  0.00     0.150 C 
ATOM     12  C   UNL     1     145.733 164.126 154.104  1.00  0.00     0.174 C 
ATOM     13  O   UNL     1     144.113 165.687 153.174  1.00  0.00    -0.344 OA
ATOM     14  C   UNL     1     146.876 164.546 153.151  1.00  0.00     0.179 C 
ATOM     15  C   UNL     1     146.407 165.575 152.081  1.00  0.00     0.202 C 
BRANCH  12  16
ATOM     16  O   UNL     1     145.727 164.809 155.287  1.00  0.00    -0.388 OA
ATOM     17  H   UNL     1     144.891 165.401 155.421  1.00  0.00     0.211 HD
ENDBRANCH  12  16
BRANCH  14  18
ATOM     18  O   UNL     1     147.987 165.098 153.809  1.00  0.00    -0.387 OA
ATOM     19  H   UNL     1     148.174 166.011 153.427  1.00  0.00     0.211 HD
ENDBRANCH  14  18
BRANCH  15  20
ATOM     20  O   UNL     1     146.709 165.110 150.773  1.00  0.00    -0.385 OA
ATOM     21  H   UNL     1     147.460 165.710 150.477  1.00  0.00     0.211 HD
ENDBRANCH  15  20
ENDBRANCH   8   9
ENDBRANCH   7   8
ENDBRANCH   1   7
BRANCH   2  22
ATOM     22  O   UNL     1     144.654 170.510 155.080  1.00  0.00    -0.387 OA
ATOM     23  H   UNL     1     144.559 169.646 155.531  1.00  0.00     0.211 HD
ENDBRANCH   2  22
BRANCH   3  24
ATOM     24  O   UNL     1     147.248 171.024 155.772  1.00  0.00    -0.387 OA
ATOM     25  H   UNL     1     147.966 171.699 155.841  1.00  0.00     0.211 HD
ENDBRANCH   3  24
BRANCH   5  26
ATOM     26  O   UNL     1     148.857 167.599 153.264  1.00  0.00    -0.454 OA
BRANCH  26  27
ATOM     27  C   UNL     1     150.330 167.668 152.995  1.00  0.00     0.214 A 
ATOM     28  C   UNL     1     150.954 168.545 151.955  1.00  0.00     0.180 A 
ATOM     29  C   UNL     1     151.295 166.940 153.786  1.00  0.00     0.239 A 
ATOM     30  O   UNL     1     152.165 169.012 152.234  1.00  0.00    -0.452 OA
ATOM     31  C   UNL     1     152.629 167.278 153.756  1.00  0.00     0.111 A 
ATOM     32  O   UNL     1     150.957 166.023 154.589  1.00  0.00    -0.285 OA
ATOM     33  C   UNL     1     152.989 168.532 153.167  1.00  0.00     0.146 A 
ATOM     34  C   UNL     1     153.731 166.395 154.057  1.00  0.00     0.134 A 
ATOM     35  C   UNL     1     154.291 169.056 153.344  1.00  0.00     0.094 A 
ATOM     36  C   UNL     1     155.047 166.944 154.266  1.00  0.00     0.093 A 
ATOM     37  C   UNL     1     155.334 168.274 153.909  1.00  0.00     0.123 A 
BRANCH  28  38
ATOM     38  C   UNL     1     150.368 169.059 150.752  1.00  0.00     0.025 A 
ATOM     39  C   UNL     1     150.757 168.733 149.373  1.00  0.00     0.062 A 
ATOM     40  C   UNL     1     149.104 169.845 150.952  1.00  0.00     0.016 A 
ATOM     41  C   UNL     1     149.708 168.699 148.367  1.00  0.00     0.158 A 
ATOM     42  C   UNL     1     148.092 169.755 149.897  1.00  0.00     0.051 A 
ATOM     43  C   UNL     1     148.420 168.724 149.028  1.00  0.00     0.157 A 
BRANCH  41  44
ATOM     44  O   UNL     1     149.928 168.355 146.934  1.00  0.00    -0.504 OA
ATOM     45  H   UNL     1     149.536 167.628 146.345  1.00  0.00     0.293 HD
ENDBRANCH  41  44
BRANCH  43  46
ATOM     46  O   UNL     1     148.260 167.533 149.717  1.00  0.00    -0.504 OA
ATOM     47  H   UNL     1     148.328 166.649 149.129  1.00  0.00     0.293 HD
ENDBRANCH  43  46
ENDBRANCH  28  38
BRANCH  34  48
ATOM     48  O   UNL     1     153.545 164.973 153.931  1.00  0.00    -0.507 OA
ATOM     49  H   UNL     1     153.169 164.389 154.647  1.00  0.00     0.293 HD
ENDBRANCH  34  48
BRANCH  37  50
ATOM     50  O   UNL     1     156.632 168.771 154.129  1.00  0.00    -0.508 OA
ATOM     51  H   UNL     1     157.288 168.938 153.287  1.00  0.00     0.293 HD
ENDBRANCH  37  50
ENDBRANCH  26  27
ENDBRANCH   5  26
BRANCH   4  52
ATOM     52  O   UNL     1     149.351 171.028 153.827  1.00  0.00    -0.384 OA
ATOM     53  H   UNL     1     149.859 170.797 152.977  1.00  0.00     0.211 HD
ENDBRANCH   4  52
TORSDOF 16
ENDMDL
MODEL 9
REMARK VINA RESULT:    -7.629      2.158      5.649
REMARK INTER + INTRA:         -14.393
REMARK INTER:                 -12.584
REMARK INTRA:                  -1.809
REMARK UNBOUND:                -1.858
REMARK SMILES C[C@@H]1O[C@@H](OC[C@H]2O[C@@H](Oc3c(-c4ccc(O)c(O)c4)oc4cc(O)cc(O)c4c3=O)[C@H](O)[C@H](O)[C@@H]2O)[C@H](O)[C@@H](O)[C@H]1O
REMARK SMILES IDX 7 1 36 2 34 3 32 4 9 5 8 6 6 7 5 8 4 9 1 10 2 11 42 12 3 13
REMARK SMILES IDX 40 14 38 15 43 16 41 18 39 20 37 22 35 24 10 26 11 27 12 28
REMARK SMILES IDX 30 29 21 30 29 31 31 32 22 33 27 34 23 35 26 36 24 37 13 38
REMARK SMILES IDX 20 39 14 40 18 41 15 42 16 43 19 44 17 46 28 48 25 50 33 52
REMARK H PARENT 43 17 41 19 39 21 37 23 35 25 19 45 17 47 28 49 25 51 33 53
REMARK Flexibility Score: inf
ROOT
ATOM      1  C   UNL     1     146.711 166.405 154.710  1.00  0.00     0.180 C 
ATOM      2  C   UNL     1     146.181 165.395 155.775  1.00  0.00     0.177 C 
ATOM      3  C   UNL     1     145.230 164.292 155.192  1.00  0.00     0.180 C 
ATOM      4  C   UNL     1     145.617 164.092 153.705  1.00  0.00     0.214 C 
ATOM      5  C   UNL     1     145.447 165.501 152.900  1.00  0.00     0.339 C 
ATOM      6  O   UNL     1     145.660 166.601 153.737  1.00  0.00    -0.332 OA
ENDROOT
BRANCH   1   7
ATOM      7  C   UNL     1     148.188 166.090 154.175  1.00  0.00     0.198 C 
BRANCH   7   8
ATOM      8  O   UNL     1     148.942 167.267 153.834  1.00  0.00    -0.347 OA
BRANCH   8   9
ATOM      9  C   UNL     1     148.430 168.650 153.805  1.00  0.00     0.281 C 
ATOM     10  C   UNL     1     146.562 170.836 154.139  1.00  0.00     0.041 C 
ATOM     11  C   UNL     1     147.134 170.278 152.740  1.00  0.00     0.150 C 
ATOM     12  C   UNL     1     148.377 171.151 152.282  1.00  0.00     0.174 C 
ATOM     13  O   UNL     1     147.525 168.910 152.706  1.00  0.00    -0.344 OA
ATOM     14  C   UNL     1     149.597 171.002 153.220  1.00  0.00     0.179 C 
ATOM     15  C   UNL     1     149.586 169.654 153.997  1.00  0.00     0.202 C 
BRANCH  12  16
ATOM     16  O   UNL     1     148.639 170.816 150.983  1.00  0.00    -0.388 OA
ATOM     17  H   UNL     1     148.801 169.806 150.839  1.00  0.00     0.211 HD
ENDBRANCH  12  16
BRANCH  14  18
ATOM     18  O   UNL     1     150.833 171.099 152.559  1.00  0.00    -0.387 OA
ATOM     19  H   UNL     1     150.936 170.312 151.939  1.00  0.00     0.211 HD
ENDBRANCH  14  18
BRANCH  15  20
ATOM     20  O   UNL     1     149.683 169.880 155.396  1.00  0.00    -0.385 OA
ATOM     21  H   UNL     1     150.572 169.478 155.639  1.00  0.00     0.211 HD
ENDBRANCH  15  20
ENDBRANCH   8   9
ENDBRANCH   7   8
ENDBRANCH   1   7
BRANCH   2  22
ATOM     22  O   UNL     1     145.630 165.988 156.973  1.00  0.00    -0.387 OA
ATOM     23  H   UNL     1     145.379 165.216 157.520  1.00  0.00     0.211 HD
ENDBRANCH   2  22
BRANCH   3  24
ATOM     24  O   UNL     1     143.875 164.645 155.365  1.00  0.00    -0.387 OA
ATOM     25  H   UNL     1     143.621 164.939 154.456  1.00  0.00     0.211 HD
ENDBRANCH   3  24
BRANCH   5  26
ATOM     26  O   UNL     1     146.033 165.873 151.564  1.00  0.00    -0.454 OA
BRANCH  26  27
ATOM     27  C   UNL     1     147.102 165.008 150.970  1.00  0.00     0.214 A 
ATOM     28  C   UNL     1     148.532 165.425 150.818  1.00  0.00     0.180 A 
ATOM     29  C   UNL     1     146.856 163.645 150.561  1.00  0.00     0.239 A 
ATOM     30  O   UNL     1     149.437 164.459 150.924  1.00  0.00    -0.452 OA
ATOM     31  C   UNL     1     147.900 162.772 150.351  1.00  0.00     0.111 A 
ATOM     32  O   UNL     1     145.687 163.173 150.452  1.00  0.00    -0.285 OA
ATOM     33  C   UNL     1     149.195 163.151 150.828  1.00  0.00     0.146 A 
ATOM     34  C   UNL     1     147.868 161.607 149.499  1.00  0.00     0.134 A 
ATOM     35  C   UNL     1     150.240 162.198 150.888  1.00  0.00     0.094 A 
ATOM     36  C   UNL     1     148.922 160.629 149.591  1.00  0.00     0.093 A 
ATOM     37  C   UNL     1     150.111 160.920 150.282  1.00  0.00     0.123 A 
BRANCH  28  38
ATOM     38  C   UNL     1     149.069 166.748 150.703  1.00  0.00     0.025 A 
ATOM     39  C   UNL     1     150.276 167.270 151.358  1.00  0.00     0.062 A 
ATOM     40  C   UNL     1     148.428 167.599 149.644  1.00  0.00     0.016 A 
ATOM     41  C   UNL     1     151.065 168.253 150.632  1.00  0.00     0.158 A 
ATOM     42  C   UNL     1     149.290 168.561 148.954  1.00  0.00     0.051 A 
ATOM     43  C   UNL     1     150.618 168.294 149.257  1.00  0.00     0.157 A 
BRANCH  41  44
ATOM     44  O   UNL     1     152.331 168.855 151.140  1.00  0.00    -0.504 OA
ATOM     45  H   UNL     1     152.684 168.993 152.082  1.00  0.00     0.293 HD
ENDBRANCH  41  44
BRANCH  43  46
ATOM     46  O   UNL     1     150.947 167.091 148.654  1.00  0.00    -0.504 OA
ATOM     47  H   UNL     1     151.015 167.112 147.593  1.00  0.00     0.293 HD
ENDBRANCH  43  46
ENDBRANCH  28  38
BRANCH  34  48
ATOM     48  O   UNL     1     146.909 161.548 148.427  1.00  0.00    -0.507 OA
ATOM     49  H   UNL     1     147.087 161.141 147.534  1.00  0.00     0.293 HD
ENDBRANCH  34  48
BRANCH  37  50
ATOM     50  O   UNL     1     151.117 159.936 150.348  1.00  0.00    -0.508 OA
ATOM     51  H   UNL     1     151.826 159.953 151.163  1.00  0.00     0.293 HD
ENDBRANCH  37  50
ENDBRANCH  26  27
ENDBRANCH   5  26
BRANCH   4  52
ATOM     52  O   UNL     1     144.774 163.024 153.181  1.00  0.00    -0.384 OA
ATOM     53  H   UNL     1     144.183 163.565 152.556  1.00  0.00     0.211 HD
ENDBRANCH   4  52
TORSDOF 16
ENDMDL
