MODEL 1
REMARK VINA RESULT:    -3.924      0.000      0.000
REMARK INTER + INTRA:         -11.087
REMARK INTER:                  -8.512
REMARK INTRA:                  -2.576
REMARK UNBOUND:                -2.576
REMARK SMILES CCCCCCCCCCCCCCCCCCCCCC(=O)[O-]
REMARK SMILES IDX 12 1 11 2 10 3 9 4 8 5 7 6 6 7 5 8 4 9 3 10 2 11 1 12 13 13
REMARK SMILES IDX 14 14 15 15 16 16 17 17 18 18 19 19 20 20 21 21 22 22 23 23
REMARK SMILES IDX 24 24
REMARK H PARENT
REMARK Flexibility Score: inf
ROOT
ATOM      1  C   UNL     1     -10.612 -69.660   6.756  1.00  0.00     0.000 C 
ENDROOT
BRANCH   1   2
ATOM      2  C   UNL     1     -11.358 -68.316   6.815  1.00  0.00     0.000 C 
BRANCH   2   3
ATOM      3  C   UNL     1     -10.471 -67.084   7.075  1.00  0.00     0.000 C 
BRANCH   3   4
ATOM      4  C   UNL     1     -10.218 -66.216   5.823  1.00  0.00    -0.000 C 
BRANCH   4   5
ATOM      5  C   UNL     1      -8.825 -65.560   5.835  1.00  0.00    -0.000 C 
BRANCH   5   6
ATOM      6  C   UNL     1      -8.217 -65.435   4.429  1.00  0.00    -0.000 C 
BRANCH   6   7
ATOM      7  C   UNL     1      -9.045 -66.157   3.358  1.00  0.00    -0.000 C 
BRANCH   7   8
ATOM      8  C   UNL     1      -8.146 -66.649   2.213  1.00  0.00    -0.000 C 
BRANCH   8   9
ATOM      9  C   UNL     1      -7.377 -65.506   1.532  1.00  0.00    -0.000 C 
BRANCH   9  10
ATOM     10  C   UNL     1      -7.012 -65.828   0.072  1.00  0.00    -0.000 C 
BRANCH  10  11
ATOM     11  C   UNL     1      -7.970 -65.167  -0.931  1.00  0.00    -0.003 C 
ATOM     12  C   UNL     1      -9.252 -64.659  -0.273  1.00  0.00     0.004 C 
ENDBRANCH  10  11
ENDBRANCH   9  10
ENDBRANCH   8   9
ENDBRANCH   7   8
ENDBRANCH   6   7
ENDBRANCH   5   6
ENDBRANCH   4   5
ENDBRANCH   3   4
ENDBRANCH   2   3
ENDBRANCH   1   2
BRANCH   1  13
ATOM     13  C   UNL     1      -9.085 -69.491   6.671  1.00  0.00     0.000 C 
BRANCH  13  14
ATOM     14  C   UNL     1      -8.563 -69.535   5.225  1.00  0.00     0.000 C 
BRANCH  14  15
ATOM     15  C   UNL     1      -7.065 -69.213   5.067  1.00  0.00     0.000 C 
BRANCH  15  16
ATOM     16  C   UNL     1      -6.209 -70.467   4.836  1.00  0.00     0.000 C 
BRANCH  16  17
ATOM     17  C   UNL     1      -5.780 -71.097   6.167  1.00  0.00     0.000 C 
BRANCH  17  18
ATOM     18  C   UNL     1      -6.029 -72.612   6.161  1.00  0.00     0.000 C 
BRANCH  18  19
ATOM     19  C   UNL     1      -6.714 -73.104   4.872  1.00  0.00     0.000 C 
BRANCH  19  20
ATOM     20  C   UNL     1      -7.881 -74.085   5.089  1.00  0.00     0.006 C 
BRANCH  20  21
ATOM     21  C   UNL     1      -8.943 -73.546   6.057  1.00  0.00     0.053 C 
BRANCH  21  22
ATOM     22  C   UNL     1     -10.157 -73.093   5.307  1.00  0.00     0.041 C 
ATOM     23  O   UNL     1     -10.039 -72.585   4.159  1.00  0.00    -0.550 OA
ATOM     24  O   UNL     1     -11.421 -73.265   5.858  1.00  0.00    -0.550 OA
ENDBRANCH  21  22
ENDBRANCH  20  21
ENDBRANCH  19  20
ENDBRANCH  18  19
ENDBRANCH  17  18
ENDBRANCH  16  17
ENDBRANCH  15  16
ENDBRANCH  14  15
ENDBRANCH  13  14
ENDBRANCH   1  13
TORSDOF 20
ENDMDL
MODEL 2
REMARK VINA RESULT:    -3.871      4.891      8.632
REMARK INTER + INTRA:         -10.972
REMARK INTER:                  -7.389
REMARK INTRA:                  -3.583
REMARK UNBOUND:                -2.576
REMARK SMILES CCCCCCCCCCCCCCCCCCCCCC(=O)[O-]
REMARK SMILES IDX 12 1 11 2 10 3 9 4 8 5 7 6 6 7 5 8 4 9 3 10 2 11 1 12 13 13
REMARK SMILES IDX 14 14 15 15 16 16 17 17 18 18 19 19 20 20 21 21 22 22 23 23
REMARK SMILES IDX 24 24
REMARK H PARENT
REMARK Flexibility Score: inf
ROOT
ATOM      1  C   UNL     1      -8.464 -64.923  -1.121  1.00  0.00     0.000 C 
ENDROOT
BRANCH   1   2
ATOM      2  C   UNL     1      -7.980 -65.917  -0.052  1.00  0.00     0.000 C 
BRANCH   2   3
ATOM      3  C   UNL     1      -9.010 -66.258   1.041  1.00  0.00     0.000 C 
BRANCH   3   4
ATOM      4  C   UNL     1      -8.518 -65.978   2.478  1.00  0.00    -0.000 C 
BRANCH   4   5
ATOM      5  C   UNL     1      -6.989 -65.815   2.553  1.00  0.00    -0.000 C 
BRANCH   5   6
ATOM      6  C   UNL     1      -6.558 -64.686   3.503  1.00  0.00    -0.000 C 
BRANCH   6   7
ATOM      7  C   UNL     1      -7.683 -63.678   3.774  1.00  0.00    -0.000 C 
BRANCH   7   8
ATOM      8  C   UNL     1      -7.706 -63.271   5.255  1.00  0.00    -0.000 C 
BRANCH   8   9
ATOM      9  C   UNL     1      -8.280 -64.372   6.161  1.00  0.00    -0.000 C 
BRANCH   9  10
ATOM     10  C   UNL     1      -9.737 -64.724   5.812  1.00  0.00    -0.000 C 
BRANCH  10  11
ATOM     11  C   UNL     1      -9.984 -66.240   5.786  1.00  0.00    -0.003 C 
ATOM     12  C   UNL     1      -8.716 -67.047   6.060  1.00  0.00     0.004 C 
ENDBRANCH  10  11
ENDBRANCH   9  10
ENDBRANCH   8   9
ENDBRANCH   7   8
ENDBRANCH   6   7
ENDBRANCH   5   6
ENDBRANCH   4   5
ENDBRANCH   3   4
ENDBRANCH   2   3
ENDBRANCH   1   2
BRANCH   1  13
ATOM     13  C   UNL     1      -7.548 -63.693  -1.250  1.00  0.00     0.000 C 
BRANCH  13  14
ATOM     14  C   UNL     1      -7.336 -62.969   0.090  1.00  0.00     0.000 C 
BRANCH  14  15
ATOM     15  C   UNL     1      -5.908 -62.438   0.320  1.00  0.00     0.000 C 
BRANCH  15  16
ATOM     16  C   UNL     1      -4.902 -63.555   0.633  1.00  0.00     0.000 C 
BRANCH  16  17
ATOM     17  C   UNL     1      -3.675 -63.469  -0.283  1.00  0.00     0.000 C 
BRANCH  17  18
ATOM     18  C   UNL     1      -3.619 -64.672  -1.237  1.00  0.00     0.000 C 
BRANCH  18  19
ATOM     19  C   UNL     1      -4.533 -65.830  -0.799  1.00  0.00     0.000 C 
BRANCH  19  20
ATOM     20  C   UNL     1      -5.032 -66.734  -1.942  1.00  0.00     0.006 C 
BRANCH  20  21
ATOM     21  C   UNL     1      -4.384 -66.400  -3.294  1.00  0.00     0.053 C 
BRANCH  21  22
ATOM     22  C   UNL     1      -4.361 -67.608  -4.177  1.00  0.00     0.041 C 
ATOM     23  O   UNL     1      -5.105 -68.593  -3.924  1.00  0.00    -0.550 OA
ATOM     24  O   UNL     1      -3.545 -67.633  -5.303  1.00  0.00    -0.550 OA
ENDBRANCH  21  22
ENDBRANCH  20  21
ENDBRANCH  19  20
ENDBRANCH  18  19
ENDBRANCH  17  18
ENDBRANCH  16  17
ENDBRANCH  15  16
ENDBRANCH  14  15
ENDBRANCH  13  14
ENDBRANCH   1  13
TORSDOF 20
ENDMDL
MODEL 3
REMARK VINA RESULT:    -3.816      1.233      3.055
REMARK INTER + INTRA:         -10.854
REMARK INTER:                  -8.423
REMARK INTRA:                  -2.431
REMARK UNBOUND:                -2.576
REMARK SMILES CCCCCCCCCCCCCCCCCCCCCC(=O)[O-]
REMARK SMILES IDX 12 1 11 2 10 3 9 4 8 5 7 6 6 7 5 8 4 9 3 10 2 11 1 12 13 13
REMARK SMILES IDX 14 14 15 15 16 16 17 17 18 18 19 19 20 20 21 21 22 22 23 23
REMARK SMILES IDX 24 24
REMARK H PARENT
REMARK Flexibility Score: inf
ROOT
ATOM      1  C   UNL     1     -10.046 -66.225   5.356  1.00  0.00     0.000 C 
ENDROOT
BRANCH   1   2
ATOM      2  C   UNL     1      -9.034 -65.078   5.193  1.00  0.00     0.000 C 
BRANCH   2   3
ATOM      3  C   UNL     1      -7.553 -65.490   5.308  1.00  0.00     0.000 C 
BRANCH   3   4
ATOM      4  C   UNL     1      -6.978 -66.132   4.026  1.00  0.00    -0.000 C 
BRANCH   4   5
ATOM      5  C   UNL     1      -7.666 -65.614   2.750  1.00  0.00    -0.000 C 
BRANCH   5   6
ATOM      6  C   UNL     1      -8.473 -66.703   2.026  1.00  0.00    -0.000 C 
BRANCH   6   7
ATOM      7  C   UNL     1      -9.227 -66.168   0.802  1.00  0.00    -0.000 C 
BRANCH   7   8
ATOM      8  C   UNL     1      -8.745 -64.754   0.441  1.00  0.00    -0.000 C 
BRANCH   8   9
ATOM      9  C   UNL     1      -8.139 -64.678  -0.969  1.00  0.00    -0.000 C 
BRANCH   9  10
ATOM     10  C   UNL     1      -6.612 -64.871  -0.966  1.00  0.00    -0.000 C 
BRANCH  10  11
ATOM     11  C   UNL     1      -6.204 -66.327  -1.235  1.00  0.00    -0.003 C 
ATOM     12  C   UNL     1      -4.811 -66.443  -1.854  1.00  0.00     0.004 C 
ENDBRANCH  10  11
ENDBRANCH   9  10
ENDBRANCH   8   9
ENDBRANCH   7   8
ENDBRANCH   6   7
ENDBRANCH   5   6
ENDBRANCH   4   5
ENDBRANCH   3   4
ENDBRANCH   2   3
ENDBRANCH   1   2
BRANCH   1  13
ATOM     13  C   UNL     1     -10.407 -66.497   6.827  1.00  0.00     0.000 C 
BRANCH  13  14
ATOM     14  C   UNL     1     -10.593 -67.995   7.125  1.00  0.00     0.000 C 
BRANCH  14  15
ATOM     15  C   UNL     1      -9.302 -68.832   7.064  1.00  0.00     0.000 C 
BRANCH  15  16
ATOM     16  C   UNL     1      -9.360 -69.938   6.001  1.00  0.00     0.000 C 
BRANCH  16  17
ATOM     17  C   UNL     1      -8.456 -69.608   4.807  1.00  0.00     0.000 C 
BRANCH  17  18
ATOM     18  C   UNL     1      -6.976 -69.640   5.216  1.00  0.00     0.000 C 
BRANCH  18  19
ATOM     19  C   UNL     1      -6.257 -70.927   4.773  1.00  0.00     0.000 C 
BRANCH  19  20
ATOM     20  C   UNL     1      -7.187 -72.067   4.317  1.00  0.00     0.006 C 
BRANCH  20  21
ATOM     21  C   UNL     1      -7.386 -73.144   5.392  1.00  0.00     0.053 C 
BRANCH  21  22
ATOM     22  C   UNL     1      -8.823 -73.557   5.462  1.00  0.00     0.041 C 
ATOM     23  O   UNL     1      -9.228 -74.283   6.409  1.00  0.00    -0.550 OA
ATOM     24  O   UNL     1      -9.725 -73.110   4.503  1.00  0.00    -0.550 OA
ENDBRANCH  21  22
ENDBRANCH  20  21
ENDBRANCH  19  20
ENDBRANCH  18  19
ENDBRANCH  17  18
ENDBRANCH  16  17
ENDBRANCH  15  16
ENDBRANCH  14  15
ENDBRANCH  13  14
ENDBRANCH   1  13
TORSDOF 20
ENDMDL
MODEL 4
REMARK VINA RESULT:    -3.800      5.264     10.372
REMARK INTER + INTRA:         -10.820
REMARK INTER:                  -7.388
REMARK INTRA:                  -3.432
REMARK UNBOUND:                -2.576
REMARK SMILES CCCCCCCCCCCCCCCCCCCCCC(=O)[O-]
REMARK SMILES IDX 12 1 11 2 10 3 9 4 8 5 7 6 6 7 5 8 4 9 3 10 2 11 1 12 13 13
REMARK SMILES IDX 14 14 15 15 16 16 17 17 18 18 19 19 20 20 21 21 22 22 23 23
REMARK SMILES IDX 24 24
REMARK H PARENT
REMARK Flexibility Score: inf
ROOT
ATOM      1  C   UNL     1      -4.741 -64.996  -2.880  1.00  0.00     0.000 C 
ENDROOT
BRANCH   1   2
ATOM      2  C   UNL     1      -4.502 -65.143  -1.368  1.00  0.00     0.000 C 
BRANCH   2   3
ATOM      3  C   UNL     1      -5.665 -65.773  -0.578  1.00  0.00     0.000 C 
BRANCH   3   4
ATOM      4  C   UNL     1      -6.415 -66.885  -1.343  1.00  0.00    -0.000 C 
BRANCH   4   5
ATOM      5  C   UNL     1      -7.906 -66.953  -0.967  1.00  0.00    -0.000 C 
BRANCH   5   6
ATOM      6  C   UNL     1      -8.505 -65.572  -0.659  1.00  0.00    -0.000 C 
BRANCH   6   7
ATOM      7  C   UNL     1      -9.229 -65.528   0.693  1.00  0.00    -0.000 C 
BRANCH   7   8
ATOM      8  C   UNL     1      -8.511 -66.412   1.725  1.00  0.00    -0.000 C 
BRANCH   8   9
ATOM      9  C   UNL     1      -7.500 -65.627   2.574  1.00  0.00    -0.000 C 
BRANCH   9  10
ATOM     10  C   UNL     1      -7.456 -66.109   4.035  1.00  0.00    -0.000 C 
BRANCH  10  11
ATOM     11  C   UNL     1      -8.397 -67.297   4.290  1.00  0.00    -0.003 C 
ATOM     12  C   UNL     1      -7.645 -68.574   4.663  1.00  0.00     0.004 C 
ENDBRANCH  10  11
ENDBRANCH   9  10
ENDBRANCH   8   9
ENDBRANCH   7   8
ENDBRANCH   6   7
ENDBRANCH   5   6
ENDBRANCH   4   5
ENDBRANCH   3   4
ENDBRANCH   2   3
ENDBRANCH   1   2
BRANCH   1  13
ATOM     13  C   UNL     1      -5.116 -63.561  -3.289  1.00  0.00     0.000 C 
BRANCH  13  14
ATOM     14  C   UNL     1      -6.630 -63.300  -3.214  1.00  0.00     0.000 C 
BRANCH  14  15
ATOM     15  C   UNL     1      -7.081 -62.446  -2.014  1.00  0.00     0.000 C 
BRANCH  15  16
ATOM     16  C   UNL     1      -5.907 -61.773  -1.289  1.00  0.00     0.000 C 
BRANCH  16  17
ATOM     17  C   UNL     1      -5.920 -62.099   0.210  1.00  0.00     0.000 C 
BRANCH  17  18
ATOM     18  C   UNL     1      -7.351 -62.358   0.702  1.00  0.00     0.000 C 
BRANCH  18  19
ATOM     19  C   UNL     1      -7.709 -61.553   1.964  1.00  0.00     0.000 C 
BRANCH  19  20
ATOM     20  C   UNL     1      -7.091 -60.144   2.033  1.00  0.00     0.006 C 
BRANCH  20  21
ATOM     21  C   UNL     1      -8.144 -59.027   2.009  1.00  0.00     0.053 C 
BRANCH  21  22
ATOM     22  C   UNL     1      -8.782 -58.936   0.658  1.00  0.00     0.041 C 
ATOM     23  O   UNL     1     -10.026 -58.769   0.554  1.00  0.00    -0.550 OA
ATOM     24  O   UNL     1      -7.997 -58.995  -0.489  1.00  0.00    -0.550 OA
ENDBRANCH  21  22
ENDBRANCH  20  21
ENDBRANCH  19  20
ENDBRANCH  18  19
ENDBRANCH  17  18
ENDBRANCH  16  17
ENDBRANCH  15  16
ENDBRANCH  14  15
ENDBRANCH  13  14
ENDBRANCH   1  13
TORSDOF 20
ENDMDL
MODEL 5
REMARK VINA RESULT:    -3.789      7.694     12.875
REMARK INTER + INTRA:         -10.795
REMARK INTER:                  -7.839
REMARK INTRA:                  -2.956
REMARK UNBOUND:                -2.576
REMARK SMILES CCCCCCCCCCCCCCCCCCCCCC(=O)[O-]
REMARK SMILES IDX 12 1 11 2 10 3 9 4 8 5 7 6 6 7 5 8 4 9 3 10 2 11 1 12 13 13
REMARK SMILES IDX 14 14 15 15 16 16 17 17 18 18 19 19 20 20 21 21 22 22 23 23
REMARK SMILES IDX 24 24
REMARK H PARENT
REMARK Flexibility Score: inf
ROOT
ATOM      1  C   UNL     1      -4.187 -65.965  -5.218  1.00  0.00     0.000 C 
ENDROOT
BRANCH   1   2
ATOM      2  C   UNL     1      -3.762 -66.319  -3.782  1.00  0.00     0.000 C 
BRANCH   2   3
ATOM      3  C   UNL     1      -4.740 -67.230  -3.015  1.00  0.00     0.000 C 
BRANCH   3   4
ATOM      4  C   UNL     1      -5.172 -66.672  -1.641  1.00  0.00    -0.000 C 
BRANCH   4   5
ATOM      5  C   UNL     1      -4.582 -65.278  -1.361  1.00  0.00    -0.000 C 
BRANCH   5   6
ATOM      6  C   UNL     1      -5.644 -64.264  -0.910  1.00  0.00    -0.000 C 
BRANCH   6   7
ATOM      7  C   UNL     1      -6.894 -64.278  -1.802  1.00  0.00    -0.000 C 
BRANCH   7   8
ATOM      8  C   UNL     1      -8.170 -64.349  -0.950  1.00  0.00    -0.000 C 
BRANCH   8   9
ATOM      9  C   UNL     1      -8.781 -65.758  -0.916  1.00  0.00    -0.000 C 
BRANCH   9  10
ATOM     10  C   UNL     1      -8.280 -66.590   0.278  1.00  0.00    -0.000 C 
BRANCH  10  11
ATOM     11  C   UNL     1      -8.496 -65.876   1.622  1.00  0.00    -0.003 C 
ATOM     12  C   UNL     1      -7.182 -65.521   2.317  1.00  0.00     0.004 C 
ENDBRANCH  10  11
ENDBRANCH   9  10
ENDBRANCH   8   9
ENDBRANCH   7   8
ENDBRANCH   6   7
ENDBRANCH   5   6
ENDBRANCH   4   5
ENDBRANCH   3   4
ENDBRANCH   2   3
ENDBRANCH   1   2
BRANCH   1  13
ATOM     13  C   UNL     1      -4.890 -64.600  -5.313  1.00  0.00     0.000 C 
BRANCH  13  14
ATOM     14  C   UNL     1      -5.470 -64.328  -6.712  1.00  0.00     0.000 C 
BRANCH  14  15
ATOM     15  C   UNL     1      -5.844 -65.589  -7.513  1.00  0.00     0.000 C 
BRANCH  15  16
ATOM     16  C   UNL     1      -5.230 -65.603  -8.921  1.00  0.00     0.000 C 
BRANCH  16  17
ATOM     17  C   UNL     1      -3.833 -66.238  -8.910  1.00  0.00     0.000 C 
BRANCH  17  18
ATOM     18  C   UNL     1      -2.808 -65.317  -9.587  1.00  0.00     0.000 C 
BRANCH  18  19
ATOM     19  C   UNL     1      -2.314 -64.187  -8.666  1.00  0.00     0.000 C 
BRANCH  19  20
ATOM     20  C   UNL     1      -1.461 -64.649  -7.469  1.00  0.00     0.006 C 
BRANCH  20  21
ATOM     21  C   UNL     1      -1.368 -63.594  -6.358  1.00  0.00     0.053 C 
BRANCH  21  22
ATOM     22  C   UNL     1       0.051 -63.421  -5.915  1.00  0.00     0.041 C 
ATOM     23  O   UNL     1       0.322 -62.683  -4.930  1.00  0.00    -0.550 OA
ATOM     24  O   UNL     1       1.072 -64.104  -6.565  1.00  0.00    -0.550 OA
ENDBRANCH  21  22
ENDBRANCH  20  21
ENDBRANCH  19  20
ENDBRANCH  18  19
ENDBRANCH  17  18
ENDBRANCH  16  17
ENDBRANCH  15  16
ENDBRANCH  14  15
ENDBRANCH  13  14
ENDBRANCH   1  13
TORSDOF 20
ENDMDL
MODEL 6
REMARK VINA RESULT:    -3.738      6.363     10.020
REMARK INTER + INTRA:         -10.685
REMARK INTER:                  -7.732
REMARK INTRA:                  -2.953
REMARK UNBOUND:                -2.576
REMARK SMILES CCCCCCCCCCCCCCCCCCCCCC(=O)[O-]
REMARK SMILES IDX 12 1 11 2 10 3 9 4 8 5 7 6 6 7 5 8 4 9 3 10 2 11 1 12 13 13
REMARK SMILES IDX 14 14 15 15 16 16 17 17 18 18 19 19 20 20 21 21 22 22 23 23
REMARK SMILES IDX 24 24
REMARK H PARENT
REMARK Flexibility Score: inf
ROOT
ATOM      1  C   UNL     1      -7.697 -64.167  -1.370  1.00  0.00     0.000 C 
ENDROOT
BRANCH   1   2
ATOM      2  C   UNL     1      -6.238 -64.493  -1.732  1.00  0.00     0.000 C 
BRANCH   2   3
ATOM      3  C   UNL     1      -5.616 -65.670  -0.955  1.00  0.00     0.000 C 
BRANCH   3   4
ATOM      4  C   UNL     1      -5.283 -66.896  -1.833  1.00  0.00    -0.000 C 
BRANCH   4   5
ATOM      5  C   UNL     1      -4.493 -66.515  -3.098  1.00  0.00    -0.000 C 
BRANCH   5   6
ATOM      6  C   UNL     1      -4.394 -67.670  -4.107  1.00  0.00    -0.000 C 
BRANCH   6   7
ATOM      7  C   UNL     1      -3.723 -67.253  -5.422  1.00  0.00    -0.000 C 
BRANCH   7   8
ATOM      8  C   UNL     1      -4.673 -66.394  -6.271  1.00  0.00    -0.000 C 
BRANCH   8   9
ATOM      9  C   UNL     1      -3.946 -65.254  -7.002  1.00  0.00    -0.000 C 
BRANCH   9  10
ATOM     10  C   UNL     1      -2.838 -64.616  -6.145  1.00  0.00    -0.000 C 
BRANCH  10  11
ATOM     11  C   UNL     1      -3.389 -63.592  -5.140  1.00  0.00    -0.003 C 
ATOM     12  C   UNL     1      -2.521 -63.472  -3.888  1.00  0.00     0.004 C 
ENDBRANCH  10  11
ENDBRANCH   9  10
ENDBRANCH   8   9
ENDBRANCH   7   8
ENDBRANCH   6   7
ENDBRANCH   5   6
ENDBRANCH   4   5
ENDBRANCH   3   4
ENDBRANCH   2   3
ENDBRANCH   1   2
BRANCH   1  13
ATOM     13  C   UNL     1      -8.553 -65.427  -1.150  1.00  0.00     0.000 C 
BRANCH  13  14
ATOM     14  C   UNL     1      -9.142 -65.504   0.269  1.00  0.00     0.000 C 
BRANCH  14  15
ATOM     15  C   UNL     1      -8.591 -66.650   1.137  1.00  0.00     0.000 C 
BRANCH  15  16
ATOM     16  C   UNL     1      -7.997 -66.157   2.465  1.00  0.00     0.000 C 
BRANCH  16  17
ATOM     17  C   UNL     1      -7.782 -64.639   2.446  1.00  0.00     0.000 C 
BRANCH  17  18
ATOM     18  C   UNL     1      -6.288 -64.299   2.337  1.00  0.00     0.000 C 
BRANCH  18  19
ATOM     19  C   UNL     1      -6.030 -62.911   1.724  1.00  0.00     0.000 C 
BRANCH  19  20
ATOM     20  C   UNL     1      -7.239 -61.956   1.745  1.00  0.00     0.006 C 
BRANCH  20  21
ATOM     21  C   UNL     1      -7.300 -61.041   0.514  1.00  0.00     0.053 C 
BRANCH  21  22
ATOM     22  C   UNL     1      -8.110 -59.818   0.808  1.00  0.00     0.041 C 
ATOM     23  O   UNL     1      -8.247 -58.923  -0.068  1.00  0.00    -0.550 OA
ATOM     24  O   UNL     1      -8.745 -59.682   2.037  1.00  0.00    -0.550 OA
ENDBRANCH  21  22
ENDBRANCH  20  21
ENDBRANCH  19  20
ENDBRANCH  18  19
ENDBRANCH  17  18
ENDBRANCH  16  17
ENDBRANCH  15  16
ENDBRANCH  14  15
ENDBRANCH  13  14
ENDBRANCH   1  13
TORSDOF 20
ENDMDL
MODEL 7
REMARK VINA RESULT:    -3.736      7.372     12.318
REMARK INTER + INTRA:         -10.679
REMARK INTER:                  -8.663
REMARK INTRA:                  -2.016
REMARK UNBOUND:                -2.576
REMARK SMILES CCCCCCCCCCCCCCCCCCCCCC(=O)[O-]
REMARK SMILES IDX 12 1 11 2 10 3 9 4 8 5 7 6 6 7 5 8 4 9 3 10 2 11 1 12 13 13
REMARK SMILES IDX 14 14 15 15 16 16 17 17 18 18 19 19 20 20 21 21 22 22 23 23
REMARK SMILES IDX 24 24
REMARK H PARENT
REMARK Flexibility Score: inf
ROOT
ATOM      1  C   UNL     1      -4.293 -65.497  -5.013  1.00  0.00     0.000 C 
ENDROOT
BRANCH   1   2
ATOM      2  C   UNL     1      -3.907 -65.890  -3.577  1.00  0.00     0.000 C 
BRANCH   2   3
ATOM      3  C   UNL     1      -4.729 -67.042  -2.969  1.00  0.00     0.000 C 
BRANCH   3   4
ATOM      4  C   UNL     1      -5.219 -66.773  -1.530  1.00  0.00    -0.000 C 
BRANCH   4   5
ATOM      5  C   UNL     1      -4.745 -65.411  -0.993  1.00  0.00    -0.000 C 
BRANCH   5   6
ATOM      6  C   UNL     1      -5.896 -64.560  -0.433  1.00  0.00    -0.000 C 
BRANCH   6   7
ATOM      7  C   UNL     1      -5.853 -64.438   1.097  1.00  0.00    -0.000 C 
BRANCH   7   8
ATOM      8  C   UNL     1      -6.955 -65.293   1.742  1.00  0.00    -0.000 C 
BRANCH   8   9
ATOM      9  C   UNL     1      -8.248 -65.318   0.911  1.00  0.00    -0.000 C 
BRANCH   9  10
ATOM     10  C   UNL     1      -8.756 -66.748   0.654  1.00  0.00    -0.000 C 
BRANCH  10  11
ATOM     11  C   UNL     1      -8.861 -67.073  -0.844  1.00  0.00    -0.003 C 
ATOM     12  C   UNL     1      -9.220 -68.536  -1.104  1.00  0.00     0.004 C 
ENDBRANCH  10  11
ENDBRANCH   9  10
ENDBRANCH   8   9
ENDBRANCH   7   8
ENDBRANCH   6   7
ENDBRANCH   5   6
ENDBRANCH   4   5
ENDBRANCH   3   4
ENDBRANCH   2   3
ENDBRANCH   1   2
BRANCH   1  13
ATOM     13  C   UNL     1      -3.644 -66.404  -6.074  1.00  0.00     0.000 C 
BRANCH  13  14
ATOM     14  C   UNL     1      -4.669 -66.985  -7.064  1.00  0.00     0.000 C 
BRANCH  14  15
ATOM     15  C   UNL     1      -4.318 -68.380  -7.615  1.00  0.00     0.000 C 
BRANCH  15  16
ATOM     16  C   UNL     1      -4.623 -68.520  -9.113  1.00  0.00     0.000 C 
BRANCH  16  17
ATOM     17  C   UNL     1      -6.050 -69.031  -9.344  1.00  0.00     0.000 C 
BRANCH  17  18
ATOM     18  C   UNL     1      -6.772 -68.182 -10.400  1.00  0.00     0.000 C 
BRANCH  18  19
ATOM     19  C   UNL     1      -6.299 -66.717 -10.419  1.00  0.00     0.000 C 
BRANCH  19  20
ATOM     20  C   UNL     1      -7.374 -65.682 -10.038  1.00  0.00     0.006 C 
BRANCH  20  21
ATOM     21  C   UNL     1      -7.655 -65.639  -8.530  1.00  0.00     0.053 C 
BRANCH  21  22
ATOM     22  C   UNL     1      -7.577 -64.234  -8.020  1.00  0.00     0.041 C 
ATOM     23  O   UNL     1      -8.483 -63.405  -8.304  1.00  0.00    -0.550 OA
ATOM     24  O   UNL     1      -6.523 -63.848  -7.200  1.00  0.00    -0.550 OA
ENDBRANCH  21  22
ENDBRANCH  20  21
ENDBRANCH  19  20
ENDBRANCH  18  19
ENDBRANCH  17  18
ENDBRANCH  16  17
ENDBRANCH  15  16
ENDBRANCH  14  15
ENDBRANCH  13  14
ENDBRANCH   1  13
TORSDOF 20
ENDMDL
MODEL 8
REMARK VINA RESULT:    -3.710      2.694      3.609
REMARK INTER + INTRA:         -10.623
REMARK INTER:                  -8.488
REMARK INTRA:                  -2.135
REMARK UNBOUND:                -2.576
REMARK SMILES CCCCCCCCCCCCCCCCCCCCCC(=O)[O-]
REMARK SMILES IDX 12 1 11 2 10 3 9 4 8 5 7 6 6 7 5 8 4 9 3 10 2 11 1 12 13 13
REMARK SMILES IDX 14 14 15 15 16 16 17 17 18 18 19 19 20 20 21 21 22 22 23 23
REMARK SMILES IDX 24 24
REMARK H PARENT
REMARK Flexibility Score: inf
ROOT
ATOM      1  C   UNL     1      -6.026 -68.834   5.636  1.00  0.00     0.000 C 
ENDROOT
BRANCH   1   2
ATOM      2  C   UNL     1      -7.063 -67.718   5.427  1.00  0.00     0.000 C 
BRANCH   2   3
ATOM      3  C   UNL     1      -8.130 -68.006   4.354  1.00  0.00     0.000 C 
BRANCH   3   4
ATOM      4  C   UNL     1      -8.533 -66.770   3.520  1.00  0.00    -0.000 C 
BRANCH   4   5
ATOM      5  C   UNL     1      -7.313 -66.022   2.952  1.00  0.00    -0.000 C 
BRANCH   5   6
ATOM      6  C   UNL     1      -7.634 -64.569   2.568  1.00  0.00    -0.000 C 
BRANCH   6   7
ATOM      7  C   UNL     1      -7.895 -64.397   1.066  1.00  0.00    -0.000 C 
BRANCH   7   8
ATOM      8  C   UNL     1      -6.719 -64.946   0.242  1.00  0.00    -0.000 C 
BRANCH   8   9
ATOM      9  C   UNL     1      -7.139 -66.083  -0.702  1.00  0.00    -0.000 C 
BRANCH   9  10
ATOM     10  C   UNL     1      -8.667 -66.215  -0.824  1.00  0.00    -0.000 C 
BRANCH  10  11
ATOM     11  C   UNL     1      -9.189 -67.543  -0.253  1.00  0.00    -0.003 C 
ATOM     12  C   UNL     1      -9.174 -68.672  -1.283  1.00  0.00     0.004 C 
ENDBRANCH  10  11
ENDBRANCH   9  10
ENDBRANCH   8   9
ENDBRANCH   7   8
ENDBRANCH   6   7
ENDBRANCH   5   6
ENDBRANCH   4   5
ENDBRANCH   3   4
ENDBRANCH   2   3
ENDBRANCH   1   2
BRANCH   1  13
ATOM     13  C   UNL     1      -6.470 -69.873   6.680  1.00  0.00     0.000 C 
BRANCH  13  14
ATOM     14  C   UNL     1      -6.672 -71.273   6.075  1.00  0.00     0.000 C 
BRANCH  14  15
ATOM     15  C   UNL     1      -6.675 -71.319   4.536  1.00  0.00     0.000 C 
BRANCH  15  16
ATOM     16  C   UNL     1      -7.860 -72.114   3.967  1.00  0.00     0.000 C 
BRANCH  16  17
ATOM     17  C   UNL     1      -9.020 -72.173   4.969  1.00  0.00     0.000 C 
BRANCH  17  18
ATOM     18  C   UNL     1      -9.473 -73.623   5.197  1.00  0.00     0.000 C 
BRANCH  18  19
ATOM     19  C   UNL     1      -8.764 -74.295   6.386  1.00  0.00     0.000 C 
BRANCH  19  20
ATOM     20  C   UNL     1      -7.914 -75.528   6.025  1.00  0.00     0.006 C 
BRANCH  20  21
ATOM     21  C   UNL     1      -7.714 -75.694   4.512  1.00  0.00     0.053 C 
BRANCH  21  22
ATOM     22  C   UNL     1      -6.411 -76.373   4.226  1.00  0.00     0.041 C 
ATOM     23  O   UNL     1      -6.263 -77.039   3.167  1.00  0.00    -0.550 OA
ATOM     24  O   UNL     1      -5.347 -76.240   5.110  1.00  0.00    -0.550 OA
ENDBRANCH  21  22
ENDBRANCH  20  21
ENDBRANCH  19  20
ENDBRANCH  18  19
ENDBRANCH  17  18
ENDBRANCH  16  17
ENDBRANCH  15  16
ENDBRANCH  14  15
ENDBRANCH  13  14
ENDBRANCH   1  13
TORSDOF 20
ENDMDL
MODEL 9
REMARK VINA RESULT:    -3.684      3.338      8.763
REMARK INTER + INTRA:         -10.568
REMARK INTER:                  -7.889
REMARK INTRA:                  -2.679
REMARK UNBOUND:                -2.576
REMARK SMILES CCCCCCCCCCCCCCCCCCCCCC(=O)[O-]
REMARK SMILES IDX 12 1 11 2 10 3 9 4 8 5 7 6 6 7 5 8 4 9 3 10 2 11 1 12 13 13
REMARK SMILES IDX 14 14 15 15 16 16 17 17 18 18 19 19 20 20 21 21 22 22 23 23
REMARK SMILES IDX 24 24
REMARK H PARENT
REMARK Flexibility Score: inf
ROOT
ATOM      1  C   UNL     1      -9.240 -72.201   4.289  1.00  0.00     0.000 C 
ENDROOT
BRANCH   1   2
ATOM      2  C   UNL     1      -8.555 -73.567   4.466  1.00  0.00     0.000 C 
BRANCH   2   3
ATOM      3  C   UNL     1      -8.309 -73.994   5.926  1.00  0.00     0.000 C 
BRANCH   3   4
ATOM      4  C   UNL     1      -6.912 -73.617   6.464  1.00  0.00    -0.000 C 
BRANCH   4   5
ATOM      5  C   UNL     1      -5.915 -73.296   5.336  1.00  0.00    -0.000 C 
BRANCH   5   6
ATOM      6  C   UNL     1      -4.692 -74.227   5.341  1.00  0.00    -0.000 C 
BRANCH   6   7
ATOM      7  C   UNL     1      -4.828 -75.378   6.347  1.00  0.00    -0.000 C 
BRANCH   7   8
ATOM      8  C   UNL     1      -4.152 -76.650   5.814  1.00  0.00    -0.000 C 
BRANCH   8   9
ATOM      9  C   UNL     1      -5.159 -77.765   5.490  1.00  0.00    -0.000 C 
BRANCH   9  10
ATOM     10  C   UNL     1      -6.601 -77.386   5.872  1.00  0.00    -0.000 C 
BRANCH  10  11
ATOM     11  C   UNL     1      -7.545 -77.371   4.659  1.00  0.00    -0.003 C 
ATOM     12  C   UNL     1      -6.900 -76.749   3.420  1.00  0.00     0.004 C 
ENDBRANCH  10  11
ENDBRANCH   9  10
ENDBRANCH   8   9
ENDBRANCH   7   8
ENDBRANCH   6   7
ENDBRANCH   5   6
ENDBRANCH   4   5
ENDBRANCH   3   4
ENDBRANCH   2   3
ENDBRANCH   1   2
BRANCH   1  13
ATOM     13  C   UNL     1      -9.813 -71.646   5.606  1.00  0.00     0.000 C 
BRANCH  13  14
ATOM     14  C   UNL     1      -9.174 -70.307   6.012  1.00  0.00     0.000 C 
BRANCH  14  15
ATOM     15  C   UNL     1      -7.807 -70.018   5.362  1.00  0.00     0.000 C 
BRANCH  15  16
ATOM     16  C   UNL     1      -7.793 -68.704   4.567  1.00  0.00     0.000 C 
BRANCH  16  17
ATOM     17  C   UNL     1      -8.770 -67.683   5.165  1.00  0.00     0.000 C 
BRANCH  17  18
ATOM     18  C   UNL     1      -8.847 -66.422   4.291  1.00  0.00     0.000 C 
BRANCH  18  19
ATOM     19  C   UNL     1      -7.889 -66.466   3.087  1.00  0.00     0.000 C 
BRANCH  19  20
ATOM     20  C   UNL     1      -8.576 -66.468   1.709  1.00  0.00     0.006 C 
BRANCH  20  21
ATOM     21  C   UNL     1      -7.966 -65.451   0.734  1.00  0.00     0.053 C 
BRANCH  21  22
ATOM     22  C   UNL     1      -8.544 -65.623  -0.636  1.00  0.00     0.041 C 
ATOM     23  O   UNL     1      -8.605 -64.644  -1.426  1.00  0.00    -0.550 OA
ATOM     24  O   UNL     1      -8.982 -66.875  -1.055  1.00  0.00    -0.550 OA
ENDBRANCH  21  22
ENDBRANCH  20  21
ENDBRANCH  19  20
ENDBRANCH  18  19
ENDBRANCH  17  18
ENDBRANCH  16  17
ENDBRANCH  15  16
ENDBRANCH  14  15
ENDBRANCH  13  14
ENDBRANCH   1  13
TORSDOF 20
ENDMDL
