MODEL 1
REMARK VINA RESULT:    -3.200      0.000      0.000
REMARK INTER + INTRA:         -10.752
REMARK INTER:                  -8.065
REMARK INTRA:                  -2.687
REMARK UNBOUND:                -2.687
REMARK SMILES CCCCCCCCCCCCCCCCCCCCCCCCCCCC(=O)[O-]
REMARK SMILES IDX 15 1 16 2 17 3 18 4 19 5 20 6 21 7 22 8 23 9 24 10 25 11
REMARK SMILES IDX 26 12 27 13 28 14 29 15 30 16 14 17 13 18 12 19 11 20 10 21
REMARK SMILES IDX 9 22 8 23 7 24 6 25 5 26 4 27 3 28 2 29 1 30
REMARK H PARENT
REMARK Flexibility Score: inf
ROOT
ATOM      1  C   UNL     1     -12.304  10.486   4.286  1.00  0.00     0.000 C 
ENDROOT
BRANCH   1   2
ATOM      2  C   UNL     1     -12.655   9.634   3.054  1.00  0.00     0.000 C 
BRANCH   2   3
ATOM      3  C   UNL     1     -13.982   8.875   3.208  1.00  0.00     0.000 C 
BRANCH   3   4
ATOM      4  C   UNL     1     -15.112   9.827   3.630  1.00  0.00     0.000 C 
BRANCH   4   5
ATOM      5  C   UNL     1     -16.440   9.520   2.920  1.00  0.00     0.000 C 
BRANCH   5   6
ATOM      6  C   UNL     1     -17.255  10.783   2.606  1.00  0.00     0.000 C 
BRANCH   6   7
ATOM      7  C   UNL     1     -18.065  10.600   1.313  1.00  0.00     0.000 C 
BRANCH   7   8
ATOM      8  C   UNL     1     -17.849   9.224   0.659  1.00  0.00     0.000 C 
BRANCH   8   9
ATOM      9  C   UNL     1     -17.133   9.322  -0.699  1.00  0.00     0.000 C 
BRANCH   9  10
ATOM     10  C   UNL     1     -15.640   9.678  -0.566  1.00  0.00     0.000 C 
BRANCH  10  11
ATOM     11  C   UNL     1     -14.754   9.252  -1.753  1.00  0.00     0.000 C 
BRANCH  11  12
ATOM     12  C   UNL     1     -14.005  10.432  -2.398  1.00  0.00     0.006 C 
BRANCH  12  13
ATOM     13  C   UNL     1     -14.714  10.953  -3.656  1.00  0.00     0.053 C 
BRANCH  13  14
ATOM     14  C   UNL     1     -13.739  11.397  -4.703  1.00  0.00     0.041 C 
ATOM     15  O   UNL     1     -14.041  12.325  -5.499  1.00  0.00    -0.550 OA
ATOM     16  O   UNL     1     -12.492  10.790  -4.795  1.00  0.00    -0.550 OA
ENDBRANCH  13  14
ENDBRANCH  12  13
ENDBRANCH  11  12
ENDBRANCH  10  11
ENDBRANCH   9  10
ENDBRANCH   8   9
ENDBRANCH   7   8
ENDBRANCH   6   7
ENDBRANCH   5   6
ENDBRANCH   4   5
ENDBRANCH   3   4
ENDBRANCH   2   3
ENDBRANCH   1   2
BRANCH   1  17
ATOM     17  C   UNL     1     -11.842   9.691   5.527  1.00  0.00     0.000 C 
BRANCH  17  18
ATOM     18  C   UNL     1     -12.608   9.991   6.828  1.00  0.00     0.000 C 
BRANCH  18  19
ATOM     19  C   UNL     1     -13.869   9.127   6.999  1.00  0.00     0.000 C 
BRANCH  19  20
ATOM     20  C   UNL     1     -15.136   9.964   7.257  1.00  0.00     0.000 C 
BRANCH  20  21
ATOM     21  C   UNL     1     -16.117   9.370   8.284  1.00  0.00     0.000 C 
BRANCH  21  22
ATOM     22  C   UNL     1     -16.854  10.445   9.101  1.00  0.00    -0.000 C 
BRANCH  22  23
ATOM     23  C   UNL     1     -16.927  10.099  10.604  1.00  0.00    -0.000 C 
BRANCH  23  24
ATOM     24  C   UNL     1     -17.116  11.323  11.523  1.00  0.00    -0.000 C 
BRANCH  24  25
ATOM     25  C   UNL     1     -17.197  11.008  13.026  1.00  0.00    -0.000 C 
BRANCH  25  26
ATOM     26  C   UNL     1     -15.871  10.570  13.683  1.00  0.00    -0.000 C 
BRANCH  26  27
ATOM     27  C   UNL     1     -14.649  11.427  13.281  1.00  0.00    -0.000 C 
BRANCH  27  28
ATOM     28  C   UNL     1     -13.504  10.646  12.602  1.00  0.00    -0.000 C 
BRANCH  28  29
ATOM     29  C   UNL     1     -13.901   9.287  11.991  1.00  0.00    -0.003 C 
ATOM     30  C   UNL     1     -13.173   8.980  10.681  1.00  0.00     0.004 C 
ENDBRANCH  28  29
ENDBRANCH  27  28
ENDBRANCH  26  27
ENDBRANCH  25  26
ENDBRANCH  24  25
ENDBRANCH  23  24
ENDBRANCH  22  23
ENDBRANCH  21  22
ENDBRANCH  20  21
ENDBRANCH  19  20
ENDBRANCH  18  19
ENDBRANCH  17  18
ENDBRANCH   1  17
TORSDOF 26
ENDMDL
MODEL 2
REMARK VINA RESULT:    -3.199      4.880     11.316
REMARK INTER + INTRA:         -10.748
REMARK INTER:                  -8.169
REMARK INTRA:                  -2.579
REMARK UNBOUND:                -2.687
REMARK SMILES CCCCCCCCCCCCCCCCCCCCCCCCCCCC(=O)[O-]
REMARK SMILES IDX 15 1 16 2 17 3 18 4 19 5 20 6 21 7 22 8 23 9 24 10 25 11
REMARK SMILES IDX 26 12 27 13 28 14 29 15 30 16 14 17 13 18 12 19 11 20 10 21
REMARK SMILES IDX 9 22 8 23 7 24 6 25 5 26 4 27 3 28 2 29 1 30
REMARK H PARENT
REMARK Flexibility Score: inf
ROOT
ATOM      1  C   UNL     1     -13.359   9.996   3.645  1.00  0.00     0.000 C 
ENDROOT
BRANCH   1   2
ATOM      2  C   UNL     1     -13.552  10.929   4.854  1.00  0.00     0.000 C 
BRANCH   2   3
ATOM      3  C   UNL     1     -12.331  10.966   5.785  1.00  0.00     0.000 C 
BRANCH   3   4
ATOM      4  C   UNL     1     -11.995   9.559   6.305  1.00  0.00     0.000 C 
BRANCH   4   5
ATOM      5  C   UNL     1     -13.194   8.876   6.980  1.00  0.00     0.000 C 
BRANCH   5   6
ATOM      6  C   UNL     1     -13.667   9.611   8.243  1.00  0.00     0.000 C 
BRANCH   6   7
ATOM      7  C   UNL     1     -15.196   9.539   8.372  1.00  0.00     0.000 C 
BRANCH   7   8
ATOM      8  C   UNL     1     -15.926  10.488   7.406  1.00  0.00     0.000 C 
BRANCH   8   9
ATOM      9  C   UNL     1     -17.369  10.042   7.117  1.00  0.00     0.000 C 
BRANCH   9  10
ATOM     10  C   UNL     1     -18.156   9.691   8.395  1.00  0.00     0.000 C 
BRANCH  10  11
ATOM     11  C   UNL     1     -19.081  10.804   8.924  1.00  0.00     0.000 C 
BRANCH  11  12
ATOM     12  C   UNL     1     -18.871  11.100  10.420  1.00  0.00     0.006 C 
BRANCH  12  13
ATOM     13  C   UNL     1     -17.417  10.877  10.859  1.00  0.00     0.053 C 
BRANCH  13  14
ATOM     14  C   UNL     1     -17.026  11.791  11.980  1.00  0.00     0.041 C 
ATOM     15  O   UNL     1     -15.903  11.668  12.536  1.00  0.00    -0.550 OA
ATOM     16  O   UNL     1     -17.899  12.786  12.404  1.00  0.00    -0.550 OA
ENDBRANCH  13  14
ENDBRANCH  12  13
ENDBRANCH  11  12
ENDBRANCH  10  11
ENDBRANCH   9  10
ENDBRANCH   8   9
ENDBRANCH   7   8
ENDBRANCH   6   7
ENDBRANCH   5   6
ENDBRANCH   4   5
ENDBRANCH   3   4
ENDBRANCH   2   3
ENDBRANCH   1   2
BRANCH   1  17
ATOM     17  C   UNL     1     -14.416   8.879   3.500  1.00  0.00     0.000 C 
BRANCH  17  18
ATOM     18  C   UNL     1     -15.684   9.266   2.717  1.00  0.00     0.000 C 
BRANCH  18  19
ATOM     19  C   UNL     1     -16.594  10.241   3.484  1.00  0.00     0.000 C 
BRANCH  19  20
ATOM     20  C   UNL     1     -18.020  10.307   2.905  1.00  0.00     0.000 C 
BRANCH  20  21
ATOM     21  C   UNL     1     -18.214  11.312   1.754  1.00  0.00     0.000 C 
BRANCH  21  22
ATOM     22  C   UNL     1     -18.850  10.678   0.505  1.00  0.00    -0.000 C 
BRANCH  22  23
ATOM     23  C   UNL     1     -18.128   9.386   0.065  1.00  0.00    -0.000 C 
BRANCH  23  24
ATOM     24  C   UNL     1     -17.519   9.457  -1.350  1.00  0.00    -0.000 C 
BRANCH  24  25
ATOM     25  C   UNL     1     -16.185  10.214  -1.453  1.00  0.00    -0.000 C 
BRANCH  25  26
ATOM     26  C   UNL     1     -16.209  11.477  -2.340  1.00  0.00    -0.000 C 
BRANCH  26  27
ATOM     27  C   UNL     1     -14.819  11.922  -2.849  1.00  0.00    -0.000 C 
BRANCH  27  28
ATOM     28  C   UNL     1     -13.721  10.840  -2.767  1.00  0.00    -0.000 C 
BRANCH  28  29
ATOM     29  C   UNL     1     -12.822  10.714  -4.014  1.00  0.00    -0.003 C 
ATOM     30  C   UNL     1     -13.370  11.463  -5.230  1.00  0.00     0.004 C 
ENDBRANCH  28  29
ENDBRANCH  27  28
ENDBRANCH  26  27
ENDBRANCH  25  26
ENDBRANCH  24  25
ENDBRANCH  23  24
ENDBRANCH  22  23
ENDBRANCH  21  22
ENDBRANCH  20  21
ENDBRANCH  19  20
ENDBRANCH  18  19
ENDBRANCH  17  18
ENDBRANCH   1  17
TORSDOF 26
ENDMDL
MODEL 3
REMARK VINA RESULT:    -3.123      1.068      2.396
REMARK INTER + INTRA:         -10.557
REMARK INTER:                  -8.132
REMARK INTRA:                  -2.425
REMARK UNBOUND:                -2.687
REMARK SMILES CCCCCCCCCCCCCCCCCCCCCCCCCCCC(=O)[O-]
REMARK SMILES IDX 15 1 16 2 17 3 18 4 19 5 20 6 21 7 22 8 23 9 24 10 25 11
REMARK SMILES IDX 26 12 27 13 28 14 29 15 30 16 14 17 13 18 12 19 11 20 10 21
REMARK SMILES IDX 9 22 8 23 7 24 6 25 5 26 4 27 3 28 2 29 1 30
REMARK H PARENT
REMARK Flexibility Score: inf
ROOT
ATOM      1  C   UNL     1     -12.570  10.714   4.754  1.00  0.00     0.000 C 
ENDROOT
BRANCH   1   2
ATOM      2  C   UNL     1     -12.209   9.417   4.007  1.00  0.00     0.000 C 
BRANCH   2   3
ATOM      3  C   UNL     1     -13.352   8.896   3.123  1.00  0.00     0.000 C 
BRANCH   3   4
ATOM      4  C   UNL     1     -14.718   9.325   3.683  1.00  0.00     0.000 C 
BRANCH   4   5
ATOM      5  C   UNL     1     -15.877   9.004   2.727  1.00  0.00     0.000 C 
BRANCH   5   6
ATOM      6  C   UNL     1     -16.819  10.197   2.508  1.00  0.00     0.000 C 
BRANCH   6   7
ATOM      7  C   UNL     1     -17.566  10.062   1.172  1.00  0.00     0.000 C 
BRANCH   7   8
ATOM      8  C   UNL     1     -16.960   8.990   0.251  1.00  0.00     0.000 C 
BRANCH   8   9
ATOM      9  C   UNL     1     -16.921   9.431  -1.222  1.00  0.00     0.000 C 
BRANCH   9  10
ATOM     10  C   UNL     1     -16.819  10.959  -1.388  1.00  0.00     0.000 C 
BRANCH  10  11
ATOM     11  C   UNL     1     -16.268  11.439  -2.746  1.00  0.00     0.000 C 
BRANCH  11  12
ATOM     12  C   UNL     1     -14.824  11.967  -2.656  1.00  0.00     0.006 C 
BRANCH  12  13
ATOM     13  C   UNL     1     -13.786  10.840  -2.741  1.00  0.00     0.053 C 
BRANCH  13  14
ATOM     14  C   UNL     1     -13.489  10.459  -4.159  1.00  0.00     0.041 C 
ATOM     15  O   UNL     1     -13.202  11.346  -5.007  1.00  0.00    -0.550 OA
ATOM     16  O   UNL     1     -13.522   9.124  -4.544  1.00  0.00    -0.550 OA
ENDBRANCH  13  14
ENDBRANCH  12  13
ENDBRANCH  11  12
ENDBRANCH  10  11
ENDBRANCH   9  10
ENDBRANCH   8   9
ENDBRANCH   7   8
ENDBRANCH   6   7
ENDBRANCH   5   6
ENDBRANCH   4   5
ENDBRANCH   3   4
ENDBRANCH   2   3
ENDBRANCH   1   2
BRANCH   1  17
ATOM     17  C   UNL     1     -12.330  10.684   6.279  1.00  0.00     0.000 C 
BRANCH  17  18
ATOM     18  C   UNL     1     -12.920   9.468   7.018  1.00  0.00     0.000 C 
BRANCH  18  19
ATOM     19  C   UNL     1     -14.372   9.687   7.478  1.00  0.00     0.000 C 
BRANCH  19  20
ATOM     20  C   UNL     1     -14.662   9.060   8.855  1.00  0.00     0.000 C 
BRANCH  20  21
ATOM     21  C   UNL     1     -13.466   9.026   9.824  1.00  0.00     0.000 C 
BRANCH  21  22
ATOM     22  C   UNL     1     -13.638   9.976  11.022  1.00  0.00    -0.000 C 
BRANCH  22  23
ATOM     23  C   UNL     1     -13.590   9.235  12.376  1.00  0.00    -0.000 C 
BRANCH  23  24
ATOM     24  C   UNL     1     -13.788  10.151  13.601  1.00  0.00    -0.000 C 
BRANCH  24  25
ATOM     25  C   UNL     1     -14.940  11.163  13.484  1.00  0.00    -0.000 C 
BRANCH  25  26
ATOM     26  C   UNL     1     -16.316  10.658  13.967  1.00  0.00    -0.000 C 
BRANCH  26  27
ATOM     27  C   UNL     1     -17.264  10.211  12.832  1.00  0.00    -0.000 C 
BRANCH  27  28
ATOM     28  C   UNL     1     -17.098  10.983  11.506  1.00  0.00    -0.000 C 
BRANCH  28  29
ATOM     29  C   UNL     1     -18.338  10.997  10.588  1.00  0.00    -0.003 C 
ATOM     30  C   UNL     1     -18.150  10.181   9.309  1.00  0.00     0.004 C 
ENDBRANCH  28  29
ENDBRANCH  27  28
ENDBRANCH  26  27
ENDBRANCH  25  26
ENDBRANCH  24  25
ENDBRANCH  23  24
ENDBRANCH  22  23
ENDBRANCH  21  22
ENDBRANCH  20  21
ENDBRANCH  19  20
ENDBRANCH  18  19
ENDBRANCH  17  18
ENDBRANCH   1  17
TORSDOF 26
ENDMDL
MODEL 4
REMARK VINA RESULT:    -3.111      1.645      2.717
REMARK INTER + INTRA:         -10.526
REMARK INTER:                  -7.926
REMARK INTRA:                  -2.600
REMARK UNBOUND:                -2.687
REMARK SMILES CCCCCCCCCCCCCCCCCCCCCCCCCCCC(=O)[O-]
REMARK SMILES IDX 15 1 16 2 17 3 18 4 19 5 20 6 21 7 22 8 23 9 24 10 25 11
REMARK SMILES IDX 26 12 27 13 28 14 29 15 30 16 14 17 13 18 12 19 11 20 10 21
REMARK SMILES IDX 9 22 8 23 7 24 6 25 5 26 4 27 3 28 2 29 1 30
REMARK H PARENT
REMARK Flexibility Score: inf
ROOT
ATOM      1  C   UNL     1     -13.184  10.325   3.964  1.00  0.00     0.000 C 
ENDROOT
BRANCH   1   2
ATOM      2  C   UNL     1     -14.124   9.218   3.454  1.00  0.00     0.000 C 
BRANCH   2   3
ATOM      3  C   UNL     1     -15.609   9.590   3.574  1.00  0.00     0.000 C 
BRANCH   3   4
ATOM      4  C   UNL     1     -16.399   9.096   2.352  1.00  0.00     0.000 C 
BRANCH   4   5
ATOM      5  C   UNL     1     -17.183  10.222   1.660  1.00  0.00     0.000 C 
BRANCH   5   6
ATOM      6  C   UNL     1     -17.461   9.933   0.178  1.00  0.00     0.000 C 
BRANCH   6   7
ATOM      7  C   UNL     1     -16.158   9.595  -0.564  1.00  0.00     0.000 C 
BRANCH   7   8
ATOM      8  C   UNL     1     -16.123  10.148  -1.998  1.00  0.00     0.000 C 
BRANCH   8   9
ATOM      9  C   UNL     1     -15.710  11.629  -2.051  1.00  0.00     0.000 C 
BRANCH   9  10
ATOM     10  C   UNL     1     -16.911  12.581  -2.206  1.00  0.00     0.000 C 
BRANCH  10  11
ATOM     11  C   UNL     1     -17.548  12.614  -3.610  1.00  0.00     0.000 C 
BRANCH  11  12
ATOM     12  C   UNL     1     -16.944  13.699  -4.519  1.00  0.00     0.006 C 
BRANCH  12  13
ATOM     13  C   UNL     1     -16.501  13.139  -5.878  1.00  0.00     0.053 C 
BRANCH  13  14
ATOM     14  C   UNL     1     -15.268  12.297  -5.759  1.00  0.00     0.041 C 
ATOM     15  O   UNL     1     -15.356  11.040  -5.755  1.00  0.00    -0.550 OA
ATOM     16  O   UNL     1     -14.019  12.900  -5.661  1.00  0.00    -0.550 OA
ENDBRANCH  13  14
ENDBRANCH  12  13
ENDBRANCH  11  12
ENDBRANCH  10  11
ENDBRANCH   9  10
ENDBRANCH   8   9
ENDBRANCH   7   8
ENDBRANCH   6   7
ENDBRANCH   5   6
ENDBRANCH   4   5
ENDBRANCH   3   4
ENDBRANCH   2   3
ENDBRANCH   1   2
BRANCH   1  17
ATOM     17  C   UNL     1     -12.047   9.846   4.894  1.00  0.00     0.000 C 
BRANCH  17  18
ATOM     18  C   UNL     1     -12.315  10.005   6.402  1.00  0.00     0.000 C 
BRANCH  18  19
ATOM     19  C   UNL     1     -13.183   8.876   6.983  1.00  0.00     0.000 C 
BRANCH  19  20
ATOM     20  C   UNL     1     -14.437   9.400   7.709  1.00  0.00     0.000 C 
BRANCH  20  21
ATOM     21  C   UNL     1     -15.046  10.686   7.118  1.00  0.00     0.000 C 
BRANCH  21  22
ATOM     22  C   UNL     1     -16.582  10.647   7.055  1.00  0.00    -0.000 C 
BRANCH  22  23
ATOM     23  C   UNL     1     -17.153   9.255   7.403  1.00  0.00    -0.000 C 
BRANCH  23  24
ATOM     24  C   UNL     1     -18.097   9.249   8.623  1.00  0.00    -0.000 C 
BRANCH  24  25
ATOM     25  C   UNL     1     -17.399   9.279   9.992  1.00  0.00    -0.000 C 
BRANCH  25  26
ATOM     26  C   UNL     1     -17.952  10.315  10.994  1.00  0.00    -0.000 C 
BRANCH  26  27
ATOM     27  C   UNL     1     -16.887  11.281  11.562  1.00  0.00    -0.000 C 
BRANCH  27  28
ATOM     28  C   UNL     1     -15.479  10.671  11.726  1.00  0.00    -0.000 C 
BRANCH  28  29
ATOM     29  C   UNL     1     -14.815  10.900  13.099  1.00  0.00    -0.003 C 
ATOM     30  C   UNL     1     -13.290  10.993  13.022  1.00  0.00     0.004 C 
ENDBRANCH  28  29
ENDBRANCH  27  28
ENDBRANCH  26  27
ENDBRANCH  25  26
ENDBRANCH  24  25
ENDBRANCH  23  24
ENDBRANCH  22  23
ENDBRANCH  21  22
ENDBRANCH  20  21
ENDBRANCH  19  20
ENDBRANCH  18  19
ENDBRANCH  17  18
ENDBRANCH   1  17
TORSDOF 26
ENDMDL
MODEL 5
REMARK VINA RESULT:    -2.970      4.723     11.196
REMARK INTER + INTRA:         -10.170
REMARK INTER:                  -7.558
REMARK INTRA:                  -2.613
REMARK UNBOUND:                -2.687
REMARK SMILES CCCCCCCCCCCCCCCCCCCCCCCCCCCC(=O)[O-]
REMARK SMILES IDX 15 1 16 2 17 3 18 4 19 5 20 6 21 7 22 8 23 9 24 10 25 11
REMARK SMILES IDX 26 12 27 13 28 14 29 15 30 16 14 17 13 18 12 19 11 20 10 21
REMARK SMILES IDX 9 22 8 23 7 24 6 25 5 26 4 27 3 28 2 29 1 30
REMARK H PARENT
REMARK Flexibility Score: inf
ROOT
ATOM      1  C   UNL     1     -14.028   9.466  -2.791  1.00  0.00     0.000 C 
ENDROOT
BRANCH   1   2
ATOM      2  C   UNL     1     -13.708   9.219  -1.306  1.00  0.00     0.000 C 
BRANCH   2   3
ATOM      3  C   UNL     1     -12.405   9.893  -0.853  1.00  0.00     0.000 C 
BRANCH   3   4
ATOM      4  C   UNL     1     -11.824   9.188   0.383  1.00  0.00     0.000 C 
BRANCH   4   5
ATOM      5  C   UNL     1     -12.892   8.875   1.443  1.00  0.00     0.000 C 
BRANCH   5   6
ATOM      6  C   UNL     1     -12.364   9.000   2.879  1.00  0.00     0.000 C 
BRANCH   6   7
ATOM      7  C   UNL     1     -13.507   9.327   3.852  1.00  0.00     0.000 C 
BRANCH   7   8
ATOM      8  C   UNL     1     -13.203  10.535   4.753  1.00  0.00     0.000 C 
BRANCH   8   9
ATOM      9  C   UNL     1     -14.476  11.181   5.325  1.00  0.00     0.000 C 
BRANCH   9  10
ATOM     10  C   UNL     1     -15.074  10.389   6.503  1.00  0.00     0.000 C 
BRANCH  10  11
ATOM     11  C   UNL     1     -16.318  11.021   7.157  1.00  0.00     0.000 C 
BRANCH  11  12
ATOM     12  C   UNL     1     -17.568  10.128   7.059  1.00  0.00     0.006 C 
BRANCH  12  13
ATOM     13  C   UNL     1     -18.517  10.321   8.250  1.00  0.00     0.053 C 
BRANCH  13  14
ATOM     14  C   UNL     1     -18.055   9.566   9.459  1.00  0.00     0.041 C 
ATOM     15  O   UNL     1     -18.888   9.165  10.313  1.00  0.00    -0.550 OA
ATOM     16  O   UNL     1     -16.702   9.299   9.638  1.00  0.00    -0.550 OA
ENDBRANCH  13  14
ENDBRANCH  12  13
ENDBRANCH  11  12
ENDBRANCH  10  11
ENDBRANCH   9  10
ENDBRANCH   8   9
ENDBRANCH   7   8
ENDBRANCH   6   7
ENDBRANCH   5   6
ENDBRANCH   4   5
ENDBRANCH   3   4
ENDBRANCH   2   3
ENDBRANCH   1   2
BRANCH   1  17
ATOM     17  C   UNL     1     -13.264  10.639  -3.443  1.00  0.00     0.000 C 
BRANCH  17  18
ATOM     18  C   UNL     1     -13.761  11.060  -4.838  1.00  0.00     0.000 C 
BRANCH  18  19
ATOM     19  C   UNL     1     -14.168  12.541  -4.913  1.00  0.00     0.000 C 
BRANCH  19  20
ATOM     20  C   UNL     1     -15.133  12.837  -6.077  1.00  0.00     0.000 C 
BRANCH  20  21
ATOM     21  C   UNL     1     -16.627  12.843  -5.705  1.00  0.00     0.000 C 
BRANCH  21  22
ATOM     22  C   UNL     1     -16.961  13.842  -4.583  1.00  0.00    -0.000 C 
BRANCH  22  23
ATOM     23  C   UNL     1     -17.728  13.186  -3.416  1.00  0.00    -0.000 C 
BRANCH  23  24
ATOM     24  C   UNL     1     -16.825  12.455  -2.401  1.00  0.00    -0.000 C 
BRANCH  24  25
ATOM     25  C   UNL     1     -17.085  10.946  -2.260  1.00  0.00    -0.000 C 
BRANCH  25  26
ATOM     26  C   UNL     1     -18.274  10.561  -1.355  1.00  0.00    -0.000 C 
BRANCH  26  27
ATOM     27  C   UNL     1     -17.965  10.618   0.158  1.00  0.00    -0.000 C 
BRANCH  27  28
ATOM     28  C   UNL     1     -16.838   9.672   0.627  1.00  0.00    -0.000 C 
BRANCH  28  29
ATOM     29  C   UNL     1     -16.845   9.329   2.130  1.00  0.00    -0.003 C 
ATOM     30  C   UNL     1     -17.052  10.551   3.027  1.00  0.00     0.004 C 
ENDBRANCH  28  29
ENDBRANCH  27  28
ENDBRANCH  26  27
ENDBRANCH  25  26
ENDBRANCH  24  25
ENDBRANCH  23  24
ENDBRANCH  22  23
ENDBRANCH  21  22
ENDBRANCH  20  21
ENDBRANCH  19  20
ENDBRANCH  18  19
ENDBRANCH  17  18
ENDBRANCH   1  17
TORSDOF 26
ENDMDL
MODEL 6
REMARK VINA RESULT:    -2.961      1.927      3.970
REMARK INTER + INTRA:         -10.149
REMARK INTER:                  -7.792
REMARK INTRA:                  -2.358
REMARK UNBOUND:                -2.687
REMARK SMILES CCCCCCCCCCCCCCCCCCCCCCCCCCCC(=O)[O-]
REMARK SMILES IDX 15 1 16 2 17 3 18 4 19 5 20 6 21 7 22 8 23 9 24 10 25 11
REMARK SMILES IDX 26 12 27 13 28 14 29 15 30 16 14 17 13 18 12 19 11 20 10 21
REMARK SMILES IDX 9 22 8 23 7 24 6 25 5 26 4 27 3 28 2 29 1 30
REMARK H PARENT
REMARK Flexibility Score: inf
ROOT
ATOM      1  C   UNL     1     -12.453   9.197   0.101  1.00  0.00     0.000 C 
ENDROOT
BRANCH   1   2
ATOM      2  C   UNL     1     -13.917   8.875  -0.246  1.00  0.00     0.000 C 
BRANCH   2   3
ATOM      3  C   UNL     1     -14.191   8.875  -1.757  1.00  0.00     0.000 C 
BRANCH   3   4
ATOM      4  C   UNL     1     -15.645   9.274  -2.052  1.00  0.00     0.000 C 
BRANCH   4   5
ATOM      5  C   UNL     1     -16.563   9.107  -0.831  1.00  0.00     0.000 C 
BRANCH   5   6
ATOM      6  C   UNL     1     -18.054   9.209  -1.186  1.00  0.00     0.000 C 
BRANCH   6   7
ATOM      7  C   UNL     1     -18.795  10.093  -0.171  1.00  0.00     0.000 C 
BRANCH   7   8
ATOM      8  C   UNL     1     -17.946  11.273   0.331  1.00  0.00     0.000 C 
BRANCH   8   9
ATOM      9  C   UNL     1     -18.666  12.624   0.182  1.00  0.00     0.000 C 
BRANCH   9  10
ATOM     10  C   UNL     1     -18.070  13.502  -0.935  1.00  0.00     0.000 C 
BRANCH  10  11
ATOM     11  C   UNL     1     -17.258  12.745  -2.004  1.00  0.00     0.000 C 
BRANCH  11  12
ATOM     12  C   UNL     1     -18.085  12.400  -3.255  1.00  0.00     0.006 C 
BRANCH  12  13
ATOM     13  C   UNL     1     -17.201  12.034  -4.455  1.00  0.00     0.053 C 
BRANCH  13  14
ATOM     14  C   UNL     1     -16.447  13.221  -4.975  1.00  0.00     0.041 C 
ATOM     15  O   UNL     1     -17.033  14.324  -5.135  1.00  0.00    -0.550 OA
ATOM     16  O   UNL     1     -15.095  13.109  -5.276  1.00  0.00    -0.550 OA
ENDBRANCH  13  14
ENDBRANCH  12  13
ENDBRANCH  11  12
ENDBRANCH  10  11
ENDBRANCH   9  10
ENDBRANCH   8   9
ENDBRANCH   7   8
ENDBRANCH   6   7
ENDBRANCH   5   6
ENDBRANCH   4   5
ENDBRANCH   3   4
ENDBRANCH   2   3
ENDBRANCH   1   2
BRANCH   1  17
ATOM     17  C   UNL     1     -12.036   8.884   1.555  1.00  0.00     0.000 C 
BRANCH  17  18
ATOM     18  C   UNL     1     -13.139   9.065   2.613  1.00  0.00     0.000 C 
BRANCH  18  19
ATOM     19  C   UNL     1     -12.729  10.006   3.758  1.00  0.00     0.000 C 
BRANCH  19  20
ATOM     20  C   UNL     1     -12.201   9.249   4.992  1.00  0.00     0.000 C 
BRANCH  20  21
ATOM     21  C   UNL     1     -12.147  10.073   6.292  1.00  0.00     0.000 C 
BRANCH  21  22
ATOM     22  C   UNL     1     -13.219   9.652   7.313  1.00  0.00    -0.000 C 
BRANCH  22  23
ATOM     23  C   UNL     1     -14.570   9.314   6.646  1.00  0.00    -0.000 C 
BRANCH  23  24
ATOM     24  C   UNL     1     -15.534  10.512   6.538  1.00  0.00    -0.000 C 
BRANCH  24  25
ATOM     25  C   UNL     1     -16.413  10.761   7.775  1.00  0.00    -0.000 C 
BRANCH  25  26
ATOM     26  C   UNL     1     -16.192   9.785   8.950  1.00  0.00    -0.000 C 
BRANCH  26  27
ATOM     27  C   UNL     1     -16.729  10.293  10.307  1.00  0.00    -0.000 C 
BRANCH  27  28
ATOM     28  C   UNL     1     -15.875   9.900  11.531  1.00  0.00    -0.000 C 
BRANCH  28  29
ATOM     29  C   UNL     1     -14.414  10.392  11.505  1.00  0.00    -0.003 C 
ATOM     30  C   UNL     1     -13.394   9.261  11.650  1.00  0.00     0.004 C 
ENDBRANCH  28  29
ENDBRANCH  27  28
ENDBRANCH  26  27
ENDBRANCH  25  26
ENDBRANCH  24  25
ENDBRANCH  23  24
ENDBRANCH  22  23
ENDBRANCH  21  22
ENDBRANCH  20  21
ENDBRANCH  19  20
ENDBRANCH  18  19
ENDBRANCH  17  18
ENDBRANCH   1  17
TORSDOF 26
ENDMDL
MODEL 7
REMARK VINA RESULT:    -2.961      4.658     11.562
REMARK INTER + INTRA:         -10.147
REMARK INTER:                  -7.869
REMARK INTRA:                  -2.278
REMARK UNBOUND:                -2.687
REMARK SMILES CCCCCCCCCCCCCCCCCCCCCCCCCCCC(=O)[O-]
REMARK SMILES IDX 15 1 16 2 17 3 18 4 19 5 20 6 21 7 22 8 23 9 24 10 25 11
REMARK SMILES IDX 26 12 27 13 28 14 29 15 30 16 14 17 13 18 12 19 11 20 10 21
REMARK SMILES IDX 9 22 8 23 7 24 6 25 5 26 4 27 3 28 2 29 1 30
REMARK H PARENT
REMARK Flexibility Score: inf
ROOT
ATOM      1  C   UNL     1     -13.209  11.366   5.888  1.00  0.00     0.000 C 
ENDROOT
BRANCH   1   2
ATOM      2  C   UNL     1     -14.717  11.435   6.189  1.00  0.00     0.000 C 
BRANCH   2   3
ATOM      3  C   UNL     1     -15.227  10.220   6.978  1.00  0.00     0.000 C 
BRANCH   3   4
ATOM      4  C   UNL     1     -16.762  10.152   6.949  1.00  0.00     0.000 C 
BRANCH   4   5
ATOM      5  C   UNL     1     -17.366   9.805   8.318  1.00  0.00     0.000 C 
BRANCH   5   6
ATOM      6  C   UNL     1     -18.683  10.544   8.595  1.00  0.00     0.000 C 
BRANCH   6   7
ATOM      7  C   UNL     1     -19.102  10.375  10.064  1.00  0.00     0.000 C 
BRANCH   7   8
ATOM      8  C   UNL     1     -18.788  11.611  10.924  1.00  0.00     0.000 C 
BRANCH   8   9
ATOM      9  C   UNL     1     -19.064  11.377  12.419  1.00  0.00     0.000 C 
BRANCH   9  10
ATOM     10  C   UNL     1     -18.701   9.953  12.880  1.00  0.00     0.000 C 
BRANCH  10  11
ATOM     11  C   UNL     1     -17.260   9.775  13.395  1.00  0.00     0.000 C 
BRANCH  11  12
ATOM     12  C   UNL     1     -16.203   9.892  12.282  1.00  0.00     0.006 C 
BRANCH  12  13
ATOM     13  C   UNL     1     -15.270  11.092  12.490  1.00  0.00     0.053 C 
BRANCH  13  14
ATOM     14  C   UNL     1     -13.827  10.698  12.409  1.00  0.00     0.041 C 
ATOM     15  O   UNL     1     -13.012  11.092  13.285  1.00  0.00    -0.550 OA
ATOM     16  O   UNL     1     -13.383   9.888  11.371  1.00  0.00    -0.550 OA
ENDBRANCH  13  14
ENDBRANCH  12  13
ENDBRANCH  11  12
ENDBRANCH  10  11
ENDBRANCH   9  10
ENDBRANCH   8   9
ENDBRANCH   7   8
ENDBRANCH   6   7
ENDBRANCH   5   6
ENDBRANCH   4   5
ENDBRANCH   3   4
ENDBRANCH   2   3
ENDBRANCH   1   2
BRANCH   1  17
ATOM     17  C   UNL     1     -12.572   9.967   6.030  1.00  0.00     0.000 C 
BRANCH  17  18
ATOM     18  C   UNL     1     -11.723   9.502   4.832  1.00  0.00     0.000 C 
BRANCH  18  19
ATOM     19  C   UNL     1     -12.485   9.552   3.497  1.00  0.00     0.000 C 
BRANCH  19  20
ATOM     20  C   UNL     1     -13.866   8.875   3.571  1.00  0.00     0.000 C 
BRANCH  20  21
ATOM     21  C   UNL     1     -15.002   9.622   2.846  1.00  0.00     0.000 C 
BRANCH  21  22
ATOM     22  C   UNL     1     -16.400   9.197   3.327  1.00  0.00    -0.000 C 
BRANCH  22  23
ATOM     23  C   UNL     1     -17.437   9.174   2.183  1.00  0.00    -0.000 C 
BRANCH  23  24
ATOM     24  C   UNL     1     -17.309  10.352   1.195  1.00  0.00    -0.000 C 
BRANCH  24  25
ATOM     25  C   UNL     1     -17.276   9.960  -0.291  1.00  0.00    -0.000 C 
BRANCH  25  26
ATOM     26  C   UNL     1     -15.935  10.211  -1.012  1.00  0.00    -0.000 C 
BRANCH  26  27
ATOM     27  C   UNL     1     -16.078  10.792  -2.437  1.00  0.00    -0.000 C 
BRANCH  27  28
ATOM     28  C   UNL     1     -15.359  12.138  -2.665  1.00  0.00    -0.000 C 
BRANCH  28  29
ATOM     29  C   UNL     1     -15.427  12.690  -4.103  1.00  0.00    -0.003 C 
ATOM     30  C   UNL     1     -16.858  12.918  -4.594  1.00  0.00     0.004 C 
ENDBRANCH  28  29
ENDBRANCH  27  28
ENDBRANCH  26  27
ENDBRANCH  25  26
ENDBRANCH  24  25
ENDBRANCH  23  24
ENDBRANCH  22  23
ENDBRANCH  21  22
ENDBRANCH  20  21
ENDBRANCH  19  20
ENDBRANCH  18  19
ENDBRANCH  17  18
ENDBRANCH   1  17
TORSDOF 26
ENDMDL
MODEL 8
REMARK VINA RESULT:    -2.959      4.591     11.562
REMARK INTER + INTRA:         -10.143
REMARK INTER:                  -7.866
REMARK INTRA:                  -2.277
REMARK UNBOUND:                -2.687
REMARK SMILES CCCCCCCCCCCCCCCCCCCCCCCCCCCC(=O)[O-]
REMARK SMILES IDX 15 1 16 2 17 3 18 4 19 5 20 6 21 7 22 8 23 9 24 10 25 11
REMARK SMILES IDX 26 12 27 13 28 14 29 15 30 16 14 17 13 18 12 19 11 20 10 21
REMARK SMILES IDX 9 22 8 23 7 24 6 25 5 26 4 27 3 28 2 29 1 30
REMARK H PARENT
REMARK Flexibility Score: inf
ROOT
ATOM      1  C   UNL     1     -12.377  10.716   5.024  1.00  0.00     0.000 C 
ENDROOT
BRANCH   1   2
ATOM      2  C   UNL     1     -12.442  10.557   6.554  1.00  0.00     0.000 C 
BRANCH   2   3
ATOM      3  C   UNL     1     -13.574   9.626   7.012  1.00  0.00     0.000 C 
BRANCH   3   4
ATOM      4  C   UNL     1     -14.938  10.327   6.905  1.00  0.00     0.000 C 
BRANCH   4   5
ATOM      5  C   UNL     1     -15.996   9.708   7.832  1.00  0.00     0.000 C 
BRANCH   5   6
ATOM      6  C   UNL     1     -16.129  10.454   9.168  1.00  0.00     0.000 C 
BRANCH   6   7
ATOM      7  C   UNL     1     -17.167   9.770  10.071  1.00  0.00     0.000 C 
BRANCH   7   8
ATOM      8  C   UNL     1     -18.509  10.521  10.118  1.00  0.00     0.000 C 
BRANCH   8   9
ATOM      9  C   UNL     1     -18.648  11.403  11.371  1.00  0.00     0.000 C 
BRANCH   9  10
ATOM     10  C   UNL     1     -17.305  11.650  12.083  1.00  0.00     0.000 C 
BRANCH  10  11
ATOM     11  C   UNL     1     -17.149  10.962  13.453  1.00  0.00     0.000 C 
BRANCH  11  12
ATOM     12  C   UNL     1     -15.679  10.791  13.877  1.00  0.00     0.006 C 
BRANCH  12  13
ATOM     13  C   UNL     1     -14.701  11.226  12.776  1.00  0.00     0.053 C 
BRANCH  13  14
ATOM     14  C   UNL     1     -13.577  10.250  12.610  1.00  0.00     0.041 C 
ATOM     15  O   UNL     1     -13.260   9.838  11.463  1.00  0.00    -0.550 OA
ATOM     16  O   UNL     1     -12.875   9.800  13.722  1.00  0.00    -0.550 OA
ENDBRANCH  13  14
ENDBRANCH  12  13
ENDBRANCH  11  12
ENDBRANCH  10  11
ENDBRANCH   9  10
ENDBRANCH   8   9
ENDBRANCH   7   8
ENDBRANCH   6   7
ENDBRANCH   5   6
ENDBRANCH   4   5
ENDBRANCH   3   4
ENDBRANCH   2   3
ENDBRANCH   1   2
BRANCH   1  17
ATOM     17  C   UNL     1     -12.046   9.427   4.241  1.00  0.00     0.000 C 
BRANCH  17  18
ATOM     18  C   UNL     1     -13.009   9.086   3.090  1.00  0.00     0.000 C 
BRANCH  18  19
ATOM     19  C   UNL     1     -14.459   8.876   3.557  1.00  0.00     0.000 C 
BRANCH  19  20
ATOM     20  C   UNL     1     -15.390  10.034   3.150  1.00  0.00     0.000 C 
BRANCH  20  21
ATOM     21  C   UNL     1     -16.813   9.968   3.738  1.00  0.00     0.000 C 
BRANCH  21  22
ATOM     22  C   UNL     1     -17.896   9.766   2.664  1.00  0.00    -0.000 C 
BRANCH  22  23
ATOM     23  C   UNL     1     -17.557  10.485   1.340  1.00  0.00    -0.000 C 
BRANCH  23  24
ATOM     24  C   UNL     1     -18.043   9.743   0.079  1.00  0.00    -0.000 C 
BRANCH  24  25
ATOM     25  C   UNL     1     -17.135   9.881  -1.154  1.00  0.00    -0.000 C 
BRANCH  25  26
ATOM     26  C   UNL     1     -15.633   9.631  -0.900  1.00  0.00    -0.000 C 
BRANCH  26  27
ATOM     27  C   UNL     1     -14.775   9.560  -2.183  1.00  0.00    -0.000 C 
BRANCH  27  28
ATOM     28  C   UNL     1     -13.855  10.777  -2.417  1.00  0.00    -0.000 C 
BRANCH  28  29
ATOM     29  C   UNL     1     -12.960  10.698  -3.671  1.00  0.00    -0.003 C 
ATOM     30  C   UNL     1     -13.241   9.469  -4.536  1.00  0.00     0.004 C 
ENDBRANCH  28  29
ENDBRANCH  27  28
ENDBRANCH  26  27
ENDBRANCH  25  26
ENDBRANCH  24  25
ENDBRANCH  23  24
ENDBRANCH  22  23
ENDBRANCH  21  22
ENDBRANCH  20  21
ENDBRANCH  19  20
ENDBRANCH  18  19
ENDBRANCH  17  18
ENDBRANCH   1  17
TORSDOF 26
ENDMDL
