MODEL 1
REMARK VINA RESULT:    -5.739      0.000      0.000
REMARK INTER + INTRA:          -9.969
REMARK INTER:                  -8.422
REMARK INTRA:                  -1.546
REMARK UNBOUND:                -1.546
REMARK SMILES O=c1c(O[C@@H]2O[C@@H](CO)[C@@H](O)[C@@H](O)[C@@H]2O)c(-c2ccc(O)c(O)c2)oc2cc(O)cc(O)c12
REMARK SMILES IDX 4 1 3 2 16 3 25 4 2 5 26 6 1 7 33 8 27 9 31 10 28 11 30 12
REMARK SMILES IDX 17 13 18 14 19 15 20 16 24 17 22 18 21 19 23 21 32 23 29 25
REMARK SMILES IDX 5 27 14 28 6 29 12 30 7 31 10 32 15 33 13 35 8 37 9 38 11 40
REMARK H PARENT 21 20 23 22 32 24 29 26 15 34 13 36 9 39 11 41
REMARK Flexibility Score: inf
ROOT
ATOM      1  O   UNL     1      -4.247  -0.755  10.657  1.00  0.00    -0.454 OA
ENDROOT
BRANCH   1   2
ATOM      2  C   UNL     1      -3.502   0.436  10.666  1.00  0.00     0.214 A 
ATOM      3  C   UNL     1      -4.165   1.658  10.871  1.00  0.00     0.180 A 
ATOM      4  O   UNL     1      -3.488   2.797  10.808  1.00  0.00    -0.452 OA
ATOM      5  C   UNL     1      -2.104   0.448  10.488  1.00  0.00     0.239 A 
ATOM      6  C   UNL     1      -2.180   2.862  10.598  1.00  0.00     0.146 A 
ATOM      7  O   UNL     1      -1.498  -0.646  10.376  1.00  0.00    -0.285 OA
ATOM      8  C   UNL     1      -1.405   1.680  10.454  1.00  0.00     0.111 A 
ATOM      9  C   UNL     1      -1.582   4.121  10.522  1.00  0.00     0.094 A 
ATOM     10  C   UNL     1       0.006   1.816  10.263  1.00  0.00     0.134 A 
ATOM     11  C   UNL     1      -0.210   4.241  10.295  1.00  0.00     0.123 A 
ATOM     12  C   UNL     1       0.573   3.094  10.168  1.00  0.00     0.093 A 
BRANCH   3  13
ATOM     13  C   UNL     1      -5.624   1.725  11.101  1.00  0.00     0.025 A 
ATOM     14  C   UNL     1      -6.165   1.708  12.399  1.00  0.00     0.016 A 
ATOM     15  C   UNL     1      -7.549   1.717  12.587  1.00  0.00     0.051 A 
ATOM     16  C   UNL     1      -8.410   1.745  11.482  1.00  0.00     0.157 A 
ATOM     17  C   UNL     1      -6.491   1.785   9.998  1.00  0.00     0.062 A 
ATOM     18  C   UNL     1      -7.879   1.782  10.185  1.00  0.00     0.158 A 
BRANCH  16  19
ATOM     19  O   UNL     1      -9.793   1.741  11.663  1.00  0.00    -0.504 OA
ATOM     20  H   UNL     1     -10.212   2.022  12.543  1.00  0.00     0.293 HD
ENDBRANCH  16  19
BRANCH  18  21
ATOM     21  O   UNL     1      -8.737   1.810   9.086  1.00  0.00    -0.504 OA
ATOM     22  H   UNL     1      -9.459   2.519   9.000  1.00  0.00     0.293 HD
ENDBRANCH  18  21
ENDBRANCH   3  13
BRANCH  10  23
ATOM     23  O   UNL     1       0.900   0.744  10.170  1.00  0.00    -0.507 OA
ATOM     24  H   UNL     1       1.447   0.367  10.921  1.00  0.00     0.293 HD
ENDBRANCH  10  23
BRANCH  11  25
ATOM     25  O   UNL     1       0.390   5.496  10.200  1.00  0.00    -0.508 OA
ATOM     26  H   UNL     1       1.115   5.788  10.846  1.00  0.00     0.293 HD
ENDBRANCH  11  25
ENDBRANCH   1   2
BRANCH   1  27
ATOM     27  C   UNL     1      -4.603  -1.506  11.827  1.00  0.00     0.339 C 
ATOM     28  C   UNL     1      -5.901  -2.311  11.587  1.00  0.00     0.214 C 
ATOM     29  O   UNL     1      -3.536  -2.351  12.236  1.00  0.00    -0.332 OA
ATOM     30  C   UNL     1      -5.665  -3.470  10.595  1.00  0.00     0.180 C 
ATOM     31  C   UNL     1      -3.244  -3.338  11.254  1.00  0.00     0.179 C 
ATOM     32  C   UNL     1      -4.441  -4.290  11.043  1.00  0.00     0.177 C 
BRANCH  28  33
ATOM     33  O   UNL     1      -6.944  -1.470  11.155  1.00  0.00    -0.384 OA
ATOM     34  H   UNL     1      -6.982  -1.508  10.165  1.00  0.00     0.211 HD
ENDBRANCH  28  33
BRANCH  30  35
ATOM     35  O   UNL     1      -6.799  -4.297  10.542  1.00  0.00    -0.387 OA
ATOM     36  H   UNL     1      -6.517  -5.156  10.118  1.00  0.00     0.211 HD
ENDBRANCH  30  35
BRANCH  31  37
ATOM     37  C   UNL     1      -1.992  -4.116  11.680  1.00  0.00     0.191 C 
BRANCH  37  38
ATOM     38  O   UNL     1      -2.089  -4.486  13.027  1.00  0.00    -0.394 OA
ATOM     39  H   UNL     1      -2.880  -5.091  13.099  1.00  0.00     0.210 HD
ENDBRANCH  37  38
ENDBRANCH  31  37
BRANCH  32  40
ATOM     40  O   UNL     1      -4.717  -4.973  12.243  1.00  0.00    -0.387 OA
ATOM     41  H   UNL     1      -3.963  -5.607  12.398  1.00  0.00     0.211 HD
ENDBRANCH  32  40
ENDBRANCH   1  27
TORSDOF 12
ENDMDL
MODEL 2
REMARK VINA RESULT:    -5.686      2.023      7.646
REMARK INTER + INTRA:          -9.891
REMARK INTER:                  -7.956
REMARK INTRA:                  -1.935
REMARK UNBOUND:                -1.546
REMARK SMILES O=c1c(O[C@@H]2O[C@@H](CO)[C@@H](O)[C@@H](O)[C@@H]2O)c(-c2ccc(O)c(O)c2)oc2cc(O)cc(O)c12
REMARK SMILES IDX 4 1 3 2 16 3 25 4 2 5 26 6 1 7 33 8 27 9 31 10 28 11 30 12
REMARK SMILES IDX 17 13 18 14 19 15 20 16 24 17 22 18 21 19 23 21 32 23 29 25
REMARK SMILES IDX 5 27 14 28 6 29 12 30 7 31 10 32 15 33 13 35 8 37 9 38 11 40
REMARK H PARENT 21 20 23 22 32 24 29 26 15 34 13 36 9 39 11 41
REMARK Flexibility Score: inf
ROOT
ATOM      1  O   UNL     1      -4.926   1.698  11.963  1.00  0.00    -0.454 OA
ENDROOT
BRANCH   1   2
ATOM      2  C   UNL     1      -4.845   0.297  12.036  1.00  0.00     0.214 A 
ATOM      3  C   UNL     1      -3.617  -0.334  11.773  1.00  0.00     0.180 A 
ATOM      4  O   UNL     1      -3.542  -1.658  11.765  1.00  0.00    -0.452 OA
ATOM      5  C   UNL     1      -5.955  -0.501  12.377  1.00  0.00     0.239 A 
ATOM      6  C   UNL     1      -4.569  -2.453  12.036  1.00  0.00     0.146 A 
ATOM      7  O   UNL     1      -7.035   0.061  12.682  1.00  0.00    -0.285 OA
ATOM      8  C   UNL     1      -5.835  -1.913  12.388  1.00  0.00     0.111 A 
ATOM      9  C   UNL     1      -4.376  -3.834  11.966  1.00  0.00     0.094 A 
ATOM     10  C   UNL     1      -6.894  -2.823  12.701  1.00  0.00     0.134 A 
ATOM     11  C   UNL     1      -5.428  -4.710  12.235  1.00  0.00     0.123 A 
ATOM     12  C   UNL     1      -6.674  -4.203  12.599  1.00  0.00     0.093 A 
BRANCH   3  13
ATOM     13  C   UNL     1      -2.399   0.437  11.444  1.00  0.00     0.025 A 
ATOM     14  C   UNL     1      -1.708   1.172  12.423  1.00  0.00     0.016 A 
ATOM     15  C   UNL     1      -0.591   1.936  12.074  1.00  0.00     0.051 A 
ATOM     16  C   UNL     1      -0.150   1.972  10.745  1.00  0.00     0.157 A 
ATOM     17  C   UNL     1      -1.934   0.452  10.119  1.00  0.00     0.062 A 
ATOM     18  C   UNL     1      -0.821   1.227   9.766  1.00  0.00     0.158 A 
BRANCH  16  19
ATOM     19  O   UNL     1       0.957   2.743  10.389  1.00  0.00    -0.504 OA
ATOM     20  H   UNL     1       1.660   3.006  11.071  1.00  0.00     0.293 HD
ENDBRANCH  16  19
BRANCH  18  21
ATOM     21  O   UNL     1      -0.381   1.264   8.444  1.00  0.00    -0.504 OA
ATOM     22  H   UNL     1      -0.995   1.567   7.694  1.00  0.00     0.293 HD
ENDBRANCH  18  21
ENDBRANCH   3  13
BRANCH  10  23
ATOM     23  O   UNL     1      -8.170  -2.437  13.123  1.00  0.00    -0.507 OA
ATOM     24  H   UNL     1      -8.983  -3.024  13.154  1.00  0.00     0.293 HD
ENDBRANCH  10  23
BRANCH  11  25
ATOM     25  O   UNL     1      -5.246  -6.090  12.150  1.00  0.00    -0.508 OA
ATOM     26  H   UNL     1      -5.370  -6.693  12.955  1.00  0.00     0.293 HD
ENDBRANCH  11  25
ENDBRANCH   1   2
BRANCH   1  27
ATOM     27  C   UNL     1      -5.125   2.444  10.753  1.00  0.00     0.339 C 
ATOM     28  C   UNL     1      -6.393   3.322  10.853  1.00  0.00     0.214 C 
ATOM     29  O   UNL     1      -3.977   3.222  10.439  1.00  0.00    -0.332 OA
ATOM     30  C   UNL     1      -6.190   4.486  11.848  1.00  0.00     0.180 C 
ATOM     31  C   UNL     1      -3.727   4.210  11.431  1.00  0.00     0.179 C 
ATOM     32  C   UNL     1      -4.884   5.230  11.510  1.00  0.00     0.177 C 
BRANCH  28  33
ATOM     33  O   UNL     1      -7.518   2.547  11.193  1.00  0.00    -0.384 OA
ATOM     34  H   UNL     1      -8.282   2.852  10.638  1.00  0.00     0.211 HD
ENDBRANCH  28  33
BRANCH  30  35
ATOM     35  O   UNL     1      -7.276   5.374  11.777  1.00  0.00    -0.387 OA
ATOM     36  H   UNL     1      -6.939   6.217  11.362  1.00  0.00     0.211 HD
ENDBRANCH  30  35
BRANCH  31  37
ATOM     37  C   UNL     1      -2.398   4.910  11.119  1.00  0.00     0.191 C 
BRANCH  37  38
ATOM     38  O   UNL     1      -2.093   4.783   9.758  1.00  0.00    -0.394 OA
ATOM     39  H   UNL     1      -1.628   3.906   9.652  1.00  0.00     0.210 HD
ENDBRANCH  37  38
ENDBRANCH  31  37
BRANCH  32  40
ATOM     40  O   UNL     1      -5.004   5.903  10.279  1.00  0.00    -0.387 OA
ATOM     41  H   UNL     1      -4.112   6.302  10.077  1.00  0.00     0.211 HD
ENDBRANCH  32  40
ENDBRANCH   1  27
TORSDOF 12
ENDMDL
MODEL 3
REMARK VINA RESULT:    -5.499      1.964      7.742
REMARK INTER + INTRA:          -9.618
REMARK INTER:                  -8.179
REMARK INTRA:                  -1.438
REMARK UNBOUND:                -1.546
REMARK SMILES O=c1c(O[C@@H]2O[C@@H](CO)[C@@H](O)[C@@H](O)[C@@H]2O)c(-c2ccc(O)c(O)c2)oc2cc(O)cc(O)c12
REMARK SMILES IDX 4 1 3 2 16 3 25 4 2 5 26 6 1 7 33 8 27 9 31 10 28 11 30 12
REMARK SMILES IDX 17 13 18 14 19 15 20 16 24 17 22 18 21 19 23 21 32 23 29 25
REMARK SMILES IDX 5 27 14 28 6 29 12 30 7 31 10 32 15 33 13 35 8 37 9 38 11 40
REMARK H PARENT 21 20 23 22 32 24 29 26 15 34 13 36 9 39 11 41
REMARK Flexibility Score: inf
ROOT
ATOM      1  O   UNL     1      -4.695   1.896  10.646  1.00  0.00    -0.454 OA
ENDROOT
BRANCH   1   2
ATOM      2  C   UNL     1      -4.615   0.567  11.091  1.00  0.00     0.214 A 
ATOM      3  C   UNL     1      -3.352  -0.030  11.246  1.00  0.00     0.180 A 
ATOM      4  O   UNL     1      -3.262  -1.307  11.594  1.00  0.00    -0.452 OA
ATOM      5  C   UNL     1      -5.762  -0.191  11.401  1.00  0.00     0.239 A 
ATOM      6  C   UNL     1      -4.313  -2.073  11.853  1.00  0.00     0.146 A 
ATOM      7  O   UNL     1      -6.888   0.360  11.333  1.00  0.00    -0.285 OA
ATOM      8  C   UNL     1      -5.631  -1.545  11.798  1.00  0.00     0.111 A 
ATOM      9  C   UNL     1      -4.094  -3.412  12.179  1.00  0.00     0.094 A 
ATOM     10  C   UNL     1      -6.721  -2.414  12.119  1.00  0.00     0.134 A 
ATOM     11  C   UNL     1      -5.169  -4.259  12.453  1.00  0.00     0.123 A 
ATOM     12  C   UNL     1      -6.470  -3.759  12.422  1.00  0.00     0.093 A 
BRANCH   3  13
ATOM     13  C   UNL     1      -2.101   0.710  10.976  1.00  0.00     0.025 A 
ATOM     14  C   UNL     1      -1.534   1.569  11.934  1.00  0.00     0.016 A 
ATOM     15  C   UNL     1      -0.381   2.298  11.633  1.00  0.00     0.051 A 
ATOM     16  C   UNL     1       0.221   2.178  10.373  1.00  0.00     0.157 A 
ATOM     17  C   UNL     1      -1.477   0.569   9.726  1.00  0.00     0.062 A 
ATOM     18  C   UNL     1      -0.327   1.309   9.419  1.00  0.00     0.158 A 
BRANCH  16  19
ATOM     19  O   UNL     1       1.364   2.914  10.063  1.00  0.00    -0.504 OA
ATOM     20  H   UNL     1       1.787   2.870   9.142  1.00  0.00     0.293 HD
ENDBRANCH  16  19
BRANCH  18  21
ATOM     21  O   UNL     1       0.272   1.190   8.166  1.00  0.00    -0.504 OA
ATOM     22  H   UNL     1       0.669   1.997   7.694  1.00  0.00     0.293 HD
ENDBRANCH  18  21
ENDBRANCH   3  13
BRANCH  10  23
ATOM     23  O   UNL     1      -8.061  -2.017  12.169  1.00  0.00    -0.507 OA
ATOM     24  H   UNL     1      -8.856  -2.608  12.014  1.00  0.00     0.293 HD
ENDBRANCH  10  23
BRANCH  11  25
ATOM     25  O   UNL     1      -4.958  -5.602  12.762  1.00  0.00    -0.508 OA
ATOM     26  H   UNL     1      -5.034  -6.328  12.058  1.00  0.00     0.293 HD
ENDBRANCH  11  25
ENDBRANCH   1   2
BRANCH   1  27
ATOM     27  C   UNL     1      -4.575   3.051  11.489  1.00  0.00     0.339 C 
ATOM     28  C   UNL     1      -4.137   4.286  10.670  1.00  0.00     0.214 C 
ATOM     29  O   UNL     1      -5.786   3.297  12.193  1.00  0.00    -0.332 OA
ATOM     30  C   UNL     1      -5.266   4.765   9.733  1.00  0.00     0.180 C 
ATOM     31  C   UNL     1      -6.851   3.613  11.305  1.00  0.00     0.179 C 
ATOM     32  C   UNL     1      -6.570   4.922  10.536  1.00  0.00     0.177 C 
BRANCH  28  33
ATOM     33  O   UNL     1      -2.952   4.023   9.955  1.00  0.00    -0.384 OA
ATOM     34  H   UNL     1      -2.995   4.516   9.096  1.00  0.00     0.211 HD
ENDBRANCH  28  33
BRANCH  30  35
ATOM     35  O   UNL     1      -4.917   5.992   9.146  1.00  0.00    -0.387 OA
ATOM     36  H   UNL     1      -5.410   6.054   8.280  1.00  0.00     0.211 HD
ENDBRANCH  30  35
BRANCH  31  37
ATOM     37  C   UNL     1      -8.157   3.715  12.104  1.00  0.00     0.191 C 
BRANCH  37  38
ATOM     38  O   UNL     1      -8.557   2.445  12.540  1.00  0.00    -0.394 OA
ATOM     39  H   UNL     1      -7.738   1.995  12.892  1.00  0.00     0.210 HD
ENDBRANCH  37  38
ENDBRANCH  31  37
BRANCH  32  40
ATOM     40  O   UNL     1      -6.463   5.990  11.447  1.00  0.00    -0.387 OA
ATOM     41  H   UNL     1      -5.572   5.908  11.889  1.00  0.00     0.211 HD
ENDBRANCH  32  40
ENDBRANCH   1  27
TORSDOF 12
ENDMDL
MODEL 4
REMARK VINA RESULT:    -5.480      1.786      6.297
REMARK INTER + INTRA:          -9.589
REMARK INTER:                  -8.058
REMARK INTRA:                  -1.530
REMARK UNBOUND:                -1.546
REMARK SMILES O=c1c(O[C@@H]2O[C@@H](CO)[C@@H](O)[C@@H](O)[C@@H]2O)c(-c2ccc(O)c(O)c2)oc2cc(O)cc(O)c12
REMARK SMILES IDX 4 1 3 2 16 3 25 4 2 5 26 6 1 7 33 8 27 9 31 10 28 11 30 12
REMARK SMILES IDX 17 13 18 14 19 15 20 16 24 17 22 18 21 19 23 21 32 23 29 25
REMARK SMILES IDX 5 27 14 28 6 29 12 30 7 31 10 32 15 33 13 35 8 37 9 38 11 40
REMARK H PARENT 21 20 23 22 32 24 29 26 15 34 13 36 9 39 11 41
REMARK Flexibility Score: inf
ROOT
ATOM      1  O   UNL     1      -2.657   0.653  11.171  1.00  0.00    -0.454 OA
ENDROOT
BRANCH   1   2
ATOM      2  C   UNL     1      -3.656  -0.325  11.309  1.00  0.00     0.214 A 
ATOM      3  C   UNL     1      -4.995   0.077  11.453  1.00  0.00     0.180 A 
ATOM      4  O   UNL     1      -5.940  -0.832  11.658  1.00  0.00    -0.452 OA
ATOM      5  C   UNL     1      -3.362  -1.704  11.294  1.00  0.00     0.239 A 
ATOM      6  C   UNL     1      -5.707  -2.137  11.697  1.00  0.00     0.146 A 
ATOM      7  O   UNL     1      -2.178  -2.069  11.093  1.00  0.00    -0.285 OA
ATOM      8  C   UNL     1      -4.399  -2.650  11.487  1.00  0.00     0.111 A 
ATOM      9  C   UNL     1      -6.779  -2.994  11.951  1.00  0.00     0.094 A 
ATOM     10  C   UNL     1      -4.219  -4.070  11.509  1.00  0.00     0.134 A 
ATOM     11  C   UNL     1      -6.582  -4.375  12.009  1.00  0.00     0.123 A 
ATOM     12  C   UNL     1      -5.311  -4.903  11.789  1.00  0.00     0.093 A 
BRANCH   3  13
ATOM     13  C   UNL     1      -5.387   1.502  11.442  1.00  0.00     0.025 A 
ATOM     14  C   UNL     1      -5.396   2.271  12.619  1.00  0.00     0.016 A 
ATOM     15  C   UNL     1      -5.823   3.601  12.590  1.00  0.00     0.051 A 
ATOM     16  C   UNL     1      -6.243   4.180  11.385  1.00  0.00     0.157 A 
ATOM     17  C   UNL     1      -5.779   2.096  10.232  1.00  0.00     0.062 A 
ATOM     18  C   UNL     1      -6.219   3.426  10.203  1.00  0.00     0.158 A 
BRANCH  16  19
ATOM     19  O   UNL     1      -6.683   5.503  11.352  1.00  0.00    -0.504 OA
ATOM     20  H   UNL     1      -7.340   5.859  12.038  1.00  0.00     0.293 HD
ENDBRANCH  16  19
BRANCH  18  21
ATOM     21  O   UNL     1      -6.637   4.004   9.005  1.00  0.00    -0.504 OA
ATOM     22  H   UNL     1      -7.605   4.275   8.862  1.00  0.00     0.293 HD
ENDBRANCH  18  21
ENDBRANCH   3  13
BRANCH  10  23
ATOM     23  O   UNL     1      -3.006  -4.717  11.256  1.00  0.00    -0.507 OA
ATOM     24  H   UNL     1      -2.447  -4.619  10.429  1.00  0.00     0.293 HD
ENDBRANCH  10  23
BRANCH  11  25
ATOM     25  O   UNL     1      -7.645  -5.235  12.280  1.00  0.00    -0.508 OA
ATOM     26  H   UNL     1      -8.409  -4.961  12.888  1.00  0.00     0.293 HD
ENDBRANCH  11  25
ENDBRANCH   1   2
BRANCH   1  27
ATOM     27  C   UNL     1      -2.228   1.216   9.923  1.00  0.00     0.339 C 
ATOM     28  C   UNL     1      -1.718   2.661  10.120  1.00  0.00     0.214 C 
ATOM     29  O   UNL     1      -1.245   0.397   9.304  1.00  0.00    -0.332 OA
ATOM     30  C   UNL     1      -0.379   2.681  10.888  1.00  0.00     0.180 C 
ATOM     31  C   UNL     1      -0.060   0.322  10.087  1.00  0.00     0.179 C 
ATOM     32  C   UNL     1       0.610   1.706  10.224  1.00  0.00     0.177 C 
BRANCH  28  33
ATOM     33  O   UNL     1      -2.689   3.457  10.758  1.00  0.00    -0.384 OA
ATOM     34  H   UNL     1      -2.345   3.702  11.656  1.00  0.00     0.211 HD
ENDBRANCH  28  33
BRANCH  30  35
ATOM     35  O   UNL     1       0.158   3.980  10.886  1.00  0.00    -0.387 OA
ATOM     36  H   UNL     1      -0.544   4.587  11.255  1.00  0.00     0.211 HD
ENDBRANCH  30  35
BRANCH  31  37
ATOM     37  C   UNL     1       0.899  -0.692   9.450  1.00  0.00     0.191 C 
BRANCH  37  38
ATOM     38  O   UNL     1       2.227  -0.322   9.697  1.00  0.00    -0.394 OA
ATOM     39  H   UNL     1       2.450   0.394   9.037  1.00  0.00     0.210 HD
ENDBRANCH  37  38
ENDBRANCH  31  37
BRANCH  32  40
ATOM     40  O   UNL     1       0.987   2.175   8.951  1.00  0.00    -0.387 OA
ATOM     41  H   UNL     1       1.503   1.444   8.512  1.00  0.00     0.211 HD
ENDBRANCH  32  40
ENDBRANCH   1  27
TORSDOF 12
ENDMDL
MODEL 5
REMARK VINA RESULT:    -5.349      2.083      6.025
REMARK INTER + INTRA:          -9.398
REMARK INTER:                  -7.969
REMARK INTRA:                  -1.428
REMARK UNBOUND:                -1.546
REMARK SMILES O=c1c(O[C@@H]2O[C@@H](CO)[C@@H](O)[C@@H](O)[C@@H]2O)c(-c2ccc(O)c(O)c2)oc2cc(O)cc(O)c12
REMARK SMILES IDX 4 1 3 2 16 3 25 4 2 5 26 6 1 7 33 8 27 9 31 10 28 11 30 12
REMARK SMILES IDX 17 13 18 14 19 15 20 16 24 17 22 18 21 19 23 21 32 23 29 25
REMARK SMILES IDX 5 27 14 28 6 29 12 30 7 31 10 32 15 33 13 35 8 37 9 38 11 40
REMARK H PARENT 21 20 23 22 32 24 29 26 15 34 13 36 9 39 11 41
REMARK Flexibility Score: inf
ROOT
ATOM      1  O   UNL     1      -5.731  -1.352  11.085  1.00  0.00    -0.454 OA
ENDROOT
BRANCH   1   2
ATOM      2  C   UNL     1      -6.307  -0.241  10.448  1.00  0.00     0.214 A 
ATOM      3  C   UNL     1      -5.539   0.922  10.271  1.00  0.00     0.180 A 
ATOM      4  O   UNL     1      -6.090   2.005   9.738  1.00  0.00    -0.452 OA
ATOM      5  C   UNL     1      -7.632  -0.256   9.967  1.00  0.00     0.239 A 
ATOM      6  C   UNL     1      -7.345   2.054   9.311  1.00  0.00     0.146 A 
ATOM      7  O   UNL     1      -8.298  -1.315  10.058  1.00  0.00    -0.285 OA
ATOM      8  C   UNL     1      -8.183   0.909   9.376  1.00  0.00     0.111 A 
ATOM      9  C   UNL     1      -7.824   3.261   8.797  1.00  0.00     0.094 A 
ATOM     10  C   UNL     1      -9.517   1.017   8.869  1.00  0.00     0.134 A 
ATOM     11  C   UNL     1      -9.139   3.364   8.342  1.00  0.00     0.123 A 
ATOM     12  C   UNL     1      -9.974   2.248   8.380  1.00  0.00     0.093 A 
BRANCH   3  13
ATOM     13  C   UNL     1      -4.131   1.003  10.716  1.00  0.00     0.025 A 
ATOM     14  C   UNL     1      -3.799   1.264  12.057  1.00  0.00     0.016 A 
ATOM     15  C   UNL     1      -2.461   1.389  12.440  1.00  0.00     0.051 A 
ATOM     16  C   UNL     1      -1.440   1.252  11.490  1.00  0.00     0.157 A 
ATOM     17  C   UNL     1      -3.103   0.835   9.774  1.00  0.00     0.062 A 
ATOM     18  C   UNL     1      -1.762   0.972  10.155  1.00  0.00     0.158 A 
BRANCH  16  19
ATOM     19  O   UNL     1      -0.103   1.389  11.865  1.00  0.00    -0.504 OA
ATOM     20  H   UNL     1       0.516   0.588  11.916  1.00  0.00     0.293 HD
ENDBRANCH  16  19
BRANCH  18  21
ATOM     21  O   UNL     1      -0.745   0.836   9.211  1.00  0.00    -0.504 OA
ATOM     22  H   UNL     1      -0.862   0.245   8.394  1.00  0.00     0.293 HD
ENDBRANCH  18  21
ENDBRANCH   3  13
BRANCH  10  23
ATOM     23  O   UNL     1     -10.429  -0.041   8.810  1.00  0.00    -0.507 OA
ATOM     24  H   UNL     1     -11.316  -0.028   8.342  1.00  0.00     0.293 HD
ENDBRANCH  10  23
BRANCH  11  25
ATOM     25  O   UNL     1      -9.628   4.570   7.843  1.00  0.00    -0.508 OA
ATOM     26  H   UNL     1      -9.114   5.437   7.952  1.00  0.00     0.293 HD
ENDBRANCH  11  25
ENDBRANCH   1   2
BRANCH   1  27
ATOM     27  C   UNL     1      -5.177  -2.489  10.407  1.00  0.00     0.339 C 
ATOM     28  C   UNL     1      -4.017  -3.103  11.224  1.00  0.00     0.214 C 
ATOM     29  O   UNL     1      -6.180  -3.454  10.123  1.00  0.00    -0.332 OA
ATOM     30  C   UNL     1      -4.538  -3.792  12.503  1.00  0.00     0.180 C 
ATOM     31  C   UNL     1      -6.743  -3.990  11.315  1.00  0.00     0.179 C 
ATOM     32  C   UNL     1      -5.684  -4.754  12.140  1.00  0.00     0.177 C 
BRANCH  28  33
ATOM     33  O   UNL     1      -3.042  -2.132  11.524  1.00  0.00    -0.384 OA
ATOM     34  H   UNL     1      -2.364  -2.549  12.116  1.00  0.00     0.211 HD
ENDBRANCH  28  33
BRANCH  30  35
ATOM     35  O   UNL     1      -3.498  -4.503  13.124  1.00  0.00    -0.387 OA
ATOM     36  H   UNL     1      -3.922  -5.205  13.694  1.00  0.00     0.211 HD
ENDBRANCH  30  35
BRANCH  31  37
ATOM     37  C   UNL     1      -7.919  -4.905  10.948  1.00  0.00     0.191 C 
BRANCH  37  38
ATOM     38  O   UNL     1      -7.618  -5.639   9.794  1.00  0.00    -0.394 OA
ATOM     39  H   UNL     1      -8.433  -5.611   9.219  1.00  0.00     0.210 HD
ENDBRANCH  37  38
ENDBRANCH  31  37
BRANCH  32  40
ATOM     40  O   UNL     1      -5.197  -5.841  11.389  1.00  0.00    -0.387 OA
ATOM     41  H   UNL     1      -4.603  -5.464  10.682  1.00  0.00     0.211 HD
ENDBRANCH  32  40
ENDBRANCH   1  27
TORSDOF 12
ENDMDL
MODEL 6
REMARK VINA RESULT:    -5.346      1.521      6.306
REMARK INTER + INTRA:          -9.393
REMARK INTER:                  -7.889
REMARK INTRA:                  -1.504
REMARK UNBOUND:                -1.546
REMARK SMILES O=c1c(O[C@@H]2O[C@@H](CO)[C@@H](O)[C@@H](O)[C@@H]2O)c(-c2ccc(O)c(O)c2)oc2cc(O)cc(O)c12
REMARK SMILES IDX 4 1 3 2 16 3 25 4 2 5 26 6 1 7 33 8 27 9 31 10 28 11 30 12
REMARK SMILES IDX 17 13 18 14 19 15 20 16 24 17 22 18 21 19 23 21 32 23 29 25
REMARK SMILES IDX 5 27 14 28 6 29 12 30 7 31 10 32 15 33 13 35 8 37 9 38 11 40
REMARK H PARENT 21 20 23 22 32 24 29 26 15 34 13 36 9 39 11 41
REMARK Flexibility Score: inf
ROOT
ATOM      1  O   UNL     1      -4.058   0.419  11.321  1.00  0.00    -0.454 OA
ENDROOT
BRANCH   1   2
ATOM      2  C   UNL     1      -4.800  -0.770  11.232  1.00  0.00     0.214 A 
ATOM      3  C   UNL     1      -6.197  -0.699  11.099  1.00  0.00     0.180 A 
ATOM      4  O   UNL     1      -6.919  -1.812  11.089  1.00  0.00    -0.452 OA
ATOM      5  C   UNL     1      -4.188  -2.039  11.258  1.00  0.00     0.239 A 
ATOM      6  C   UNL     1      -6.393  -3.028  11.156  1.00  0.00     0.146 A 
ATOM      7  O   UNL     1      -2.936  -2.107  11.303  1.00  0.00    -0.285 OA
ATOM      8  C   UNL     1      -4.985  -3.211  11.216  1.00  0.00     0.111 A 
ATOM      9  C   UNL     1      -7.256  -4.124  11.167  1.00  0.00     0.094 A 
ATOM     10  C   UNL     1      -4.478  -4.548  11.253  1.00  0.00     0.134 A 
ATOM     11  C   UNL     1      -6.750  -5.423  11.244  1.00  0.00     0.123 A 
ATOM     12  C   UNL     1      -5.372  -5.627  11.286  1.00  0.00     0.093 A 
BRANCH   3  13
ATOM     13  C   UNL     1      -6.909   0.595  11.028  1.00  0.00     0.025 A 
ATOM     14  C   UNL     1      -7.348   1.257  12.189  1.00  0.00     0.016 A 
ATOM     15  C   UNL     1      -8.066   2.451  12.091  1.00  0.00     0.051 A 
ATOM     16  C   UNL     1      -8.353   3.001  10.834  1.00  0.00     0.157 A 
ATOM     17  C   UNL     1      -7.172   1.166   9.773  1.00  0.00     0.062 A 
ATOM     18  C   UNL     1      -7.902   2.357   9.673  1.00  0.00     0.158 A 
BRANCH  16  19
ATOM     19  O   UNL     1      -9.080   4.186  10.730  1.00  0.00    -0.504 OA
ATOM     20  H   UNL     1      -9.345   4.717  11.552  1.00  0.00     0.293 HD
ENDBRANCH  16  19
BRANCH  18  21
ATOM     21  O   UNL     1      -8.187   2.905   8.423  1.00  0.00    -0.504 OA
ATOM     22  H   UNL     1      -8.108   2.350   7.576  1.00  0.00     0.293 HD
ENDBRANCH  18  21
ENDBRANCH   3  13
BRANCH  10  23
ATOM     23  O   UNL     1      -3.120  -4.880  11.249  1.00  0.00    -0.507 OA
ATOM     24  H   UNL     1      -2.554  -5.036  10.436  1.00  0.00     0.293 HD
ENDBRANCH  10  23
BRANCH  11  25
ATOM     25  O   UNL     1      -7.608  -6.522  11.274  1.00  0.00    -0.508 OA
ATOM     26  H   UNL     1      -7.520  -7.282  10.609  1.00  0.00     0.293 HD
ENDBRANCH  11  25
ENDBRANCH   1   2
BRANCH   1  27
ATOM     27  C   UNL     1      -3.693   1.243  10.204  1.00  0.00     0.339 C 
ATOM     28  C   UNL     1      -3.514   2.714  10.642  1.00  0.00     0.214 C 
ATOM     29  O   UNL     1      -2.527   0.746   9.562  1.00  0.00    -0.332 OA
ATOM     30  C   UNL     1      -2.253   2.887  11.516  1.00  0.00     0.180 C 
ATOM     31  C   UNL     1      -1.396   0.793  10.424  1.00  0.00     0.179 C 
ATOM     32  C   UNL     1      -1.044   2.246  10.808  1.00  0.00     0.177 C 
BRANCH  28  33
ATOM     33  O   UNL     1      -4.664   3.188  11.302  1.00  0.00    -0.384 OA
ATOM     34  H   UNL     1      -5.400   3.244  10.638  1.00  0.00     0.211 HD
ENDBRANCH  28  33
BRANCH  30  35
ATOM     35  O   UNL     1      -2.006   4.252  11.739  1.00  0.00    -0.387 OA
ATOM     36  H   UNL     1      -2.883   4.724  11.667  1.00  0.00     0.211 HD
ENDBRANCH  30  35
BRANCH  31  37
ATOM     37  C   UNL     1      -0.210   0.105   9.734  1.00  0.00     0.191 C 
BRANCH  37  38
ATOM     38  O   UNL     1       0.990   0.721  10.109  1.00  0.00    -0.394 OA
ATOM     39  H   UNL     1       1.063   1.555   9.565  1.00  0.00     0.210 HD
ENDBRANCH  37  38
ENDBRANCH  31  37
BRANCH  32  40
ATOM     40  O   UNL     1      -0.710   2.972   9.649  1.00  0.00    -0.387 OA
ATOM     41  H   UNL     1      -1.468   2.866   9.009  1.00  0.00     0.211 HD
ENDBRANCH  32  40
ENDBRANCH   1  27
TORSDOF 12
ENDMDL
MODEL 7
REMARK VINA RESULT:    -5.343      2.448      7.649
REMARK INTER + INTRA:          -9.389
REMARK INTER:                  -7.597
REMARK INTRA:                  -1.791
REMARK UNBOUND:                -1.546
REMARK SMILES O=c1c(O[C@@H]2O[C@@H](CO)[C@@H](O)[C@@H](O)[C@@H]2O)c(-c2ccc(O)c(O)c2)oc2cc(O)cc(O)c12
REMARK SMILES IDX 4 1 3 2 16 3 25 4 2 5 26 6 1 7 33 8 27 9 31 10 28 11 30 12
REMARK SMILES IDX 17 13 18 14 19 15 20 16 24 17 22 18 21 19 23 21 32 23 29 25
REMARK SMILES IDX 5 27 14 28 6 29 12 30 7 31 10 32 15 33 13 35 8 37 9 38 11 40
REMARK H PARENT 21 20 23 22 32 24 29 26 15 34 13 36 9 39 11 41
REMARK Flexibility Score: inf
ROOT
ATOM      1  O   UNL     1      -6.920  -0.063  10.634  1.00  0.00    -0.454 OA
ENDROOT
BRANCH   1   2
ATOM      2  C   UNL     1      -6.638  -1.341  11.145  1.00  0.00     0.214 A 
ATOM      3  C   UNL     1      -5.433  -1.553  11.836  1.00  0.00     0.180 A 
ATOM      4  O   UNL     1      -5.118  -2.770  12.260  1.00  0.00    -0.452 OA
ATOM      5  C   UNL     1      -7.532  -2.420  11.001  1.00  0.00     0.239 A 
ATOM      6  C   UNL     1      -5.906  -3.826  12.108  1.00  0.00     0.146 A 
ATOM      7  O   UNL     1      -8.642  -2.219  10.449  1.00  0.00    -0.285 OA
ATOM      8  C   UNL     1      -7.180  -3.703  11.490  1.00  0.00     0.111 A 
ATOM      9  C   UNL     1      -5.453  -5.064  12.569  1.00  0.00     0.094 A 
ATOM     10  C   UNL     1      -7.996  -4.873  11.386  1.00  0.00     0.134 A 
ATOM     11  C   UNL     1      -6.243  -6.205  12.425  1.00  0.00     0.123 A 
ATOM     12  C   UNL     1      -7.504  -6.104  11.838  1.00  0.00     0.093 A 
BRANCH   3  13
ATOM     13  C   UNL     1      -4.460  -0.462  12.060  1.00  0.00     0.025 A 
ATOM     14  C   UNL     1      -4.718   0.577  12.972  1.00  0.00     0.016 A 
ATOM     15  C   UNL     1      -3.806   1.624  13.124  1.00  0.00     0.051 A 
ATOM     16  C   UNL     1      -2.625   1.646  12.371  1.00  0.00     0.157 A 
ATOM     17  C   UNL     1      -3.261  -0.452  11.330  1.00  0.00     0.062 A 
ATOM     18  C   UNL     1      -2.351   0.604  11.474  1.00  0.00     0.158 A 
BRANCH  16  19
ATOM     19  O   UNL     1      -1.718   2.696  12.510  1.00  0.00    -0.504 OA
ATOM     20  H   UNL     1      -1.554   3.356  11.757  1.00  0.00     0.293 HD
ENDBRANCH  16  19
BRANCH  18  21
ATOM     21  O   UNL     1      -1.175   0.626  10.725  1.00  0.00    -0.504 OA
ATOM     22  H   UNL     1      -1.175   0.928   9.755  1.00  0.00     0.293 HD
ENDBRANCH  18  21
ENDBRANCH   3  13
BRANCH  10  23
ATOM     23  O   UNL     1      -9.293  -4.889  10.862  1.00  0.00    -0.507 OA
ATOM     24  H   UNL     1      -9.762  -4.116  10.429  1.00  0.00     0.293 HD
ENDBRANCH  10  23
BRANCH  11  25
ATOM     25  O   UNL     1      -5.789  -7.447  12.867  1.00  0.00    -0.508 OA
ATOM     26  H   UNL     1      -6.429  -8.158  13.201  1.00  0.00     0.293 HD
ENDBRANCH  11  25
ENDBRANCH   1   2
BRANCH   1  27
ATOM     27  C   UNL     1      -6.335   0.491   9.447  1.00  0.00     0.339 C 
ATOM     28  C   UNL     1      -7.415   0.751   8.373  1.00  0.00     0.214 C 
ATOM     29  O   UNL     1      -5.601   1.671   9.742  1.00  0.00    -0.332 OA
ATOM     30  C   UNL     1      -8.337   1.921   8.780  1.00  0.00     0.180 C 
ATOM     31  C   UNL     1      -6.446   2.703  10.238  1.00  0.00     0.179 C 
ATOM     32  C   UNL     1      -7.480   3.138   9.177  1.00  0.00     0.177 C 
BRANCH  28  33
ATOM     33  O   UNL     1      -8.156  -0.417   8.108  1.00  0.00    -0.384 OA
ATOM     34  H   UNL     1      -7.998  -0.675   7.163  1.00  0.00     0.211 HD
ENDBRANCH  28  33
BRANCH  30  35
ATOM     35  O   UNL     1      -9.182   2.262   7.710  1.00  0.00    -0.387 OA
ATOM     36  H   UNL     1      -8.631   2.226   6.878  1.00  0.00     0.211 HD
ENDBRANCH  30  35
BRANCH  31  37
ATOM     37  C   UNL     1      -5.582   3.890  10.682  1.00  0.00     0.191 C 
BRANCH  37  38
ATOM     38  O   UNL     1      -4.320   3.822  10.079  1.00  0.00    -0.394 OA
ATOM     39  H   UNL     1      -4.478   3.666   9.106  1.00  0.00     0.210 HD
ENDBRANCH  37  38
ENDBRANCH  31  37
BRANCH  32  40
ATOM     40  O   UNL     1      -6.811   3.658   8.053  1.00  0.00    -0.387 OA
ATOM     41  H   UNL     1      -6.039   4.189   8.393  1.00  0.00     0.211 HD
ENDBRANCH  32  40
ENDBRANCH   1  27
TORSDOF 12
ENDMDL
MODEL 8
REMARK VINA RESULT:    -5.321      1.951      6.953
REMARK INTER + INTRA:          -9.355
REMARK INTER:                  -7.408
REMARK INTRA:                  -1.947
REMARK UNBOUND:                -1.546
REMARK SMILES O=c1c(O[C@@H]2O[C@@H](CO)[C@@H](O)[C@@H](O)[C@@H]2O)c(-c2ccc(O)c(O)c2)oc2cc(O)cc(O)c12
REMARK SMILES IDX 4 1 3 2 16 3 25 4 2 5 26 6 1 7 33 8 27 9 31 10 28 11 30 12
REMARK SMILES IDX 17 13 18 14 19 15 20 16 24 17 22 18 21 19 23 21 32 23 29 25
REMARK SMILES IDX 5 27 14 28 6 29 12 30 7 31 10 32 15 33 13 35 8 37 9 38 11 40
REMARK H PARENT 21 20 23 22 32 24 29 26 15 34 13 36 9 39 11 41
REMARK Flexibility Score: inf
ROOT
ATOM      1  O   UNL     1      -4.671   0.277  10.804  1.00  0.00    -0.454 OA
ENDROOT
BRANCH   1   2
ATOM      2  C   UNL     1      -5.314  -0.971  10.845  1.00  0.00     0.214 A 
ATOM      3  C   UNL     1      -6.632  -1.080  10.369  1.00  0.00     0.180 A 
ATOM      4  O   UNL     1      -7.278  -2.234  10.469  1.00  0.00    -0.452 OA
ATOM      5  C   UNL     1      -4.676  -2.128  11.338  1.00  0.00     0.239 A 
ATOM      6  C   UNL     1      -6.737  -3.338  10.967  1.00  0.00     0.146 A 
ATOM      7  O   UNL     1      -3.476  -2.051  11.697  1.00  0.00    -0.285 OA
ATOM      8  C   UNL     1      -5.386  -3.353  11.406  1.00  0.00     0.111 A 
ATOM      9  C   UNL     1      -7.527  -4.485  11.049  1.00  0.00     0.094 A 
ATOM     10  C   UNL     1      -4.850  -4.583  11.902  1.00  0.00     0.134 A 
ATOM     11  C   UNL     1      -7.004  -5.669  11.572  1.00  0.00     0.123 A 
ATOM     12  C   UNL     1      -5.676  -5.712  11.993  1.00  0.00     0.093 A 
BRANCH   3  13
ATOM     13  C   UNL     1      -7.355   0.079   9.804  1.00  0.00     0.025 A 
ATOM     14  C   UNL     1      -7.162   0.486   8.472  1.00  0.00     0.016 A 
ATOM     15  C   UNL     1      -7.817   1.618   7.979  1.00  0.00     0.051 A 
ATOM     16  C   UNL     1      -8.672   2.355   8.808  1.00  0.00     0.157 A 
ATOM     17  C   UNL     1      -8.237   0.803  10.622  1.00  0.00     0.062 A 
ATOM     18  C   UNL     1      -8.884   1.944  10.132  1.00  0.00     0.158 A 
BRANCH  16  19
ATOM     19  O   UNL     1      -9.318   3.493   8.325  1.00  0.00    -0.504 OA
ATOM     20  H   UNL     1      -9.939   4.038   8.913  1.00  0.00     0.293 HD
ENDBRANCH  16  19
BRANCH  18  21
ATOM     21  O   UNL     1      -9.736   2.678  10.956  1.00  0.00    -0.504 OA
ATOM     22  H   UNL     1     -10.370   3.374  10.573  1.00  0.00     0.293 HD
ENDBRANCH  18  21
ENDBRANCH   3  13
BRANCH  10  23
ATOM     23  O   UNL     1      -3.523  -4.763  12.307  1.00  0.00    -0.507 OA
ATOM     24  H   UNL     1      -3.052  -5.642  12.407  1.00  0.00     0.293 HD
ENDBRANCH  10  23
BRANCH  11  25
ATOM     25  O   UNL     1      -7.793  -6.814  11.674  1.00  0.00    -0.508 OA
ATOM     26  H   UNL     1      -8.556  -6.875  12.339  1.00  0.00     0.293 HD
ENDBRANCH  11  25
ENDBRANCH   1   2
BRANCH   1  27
ATOM     27  C   UNL     1      -4.617   1.206  11.896  1.00  0.00     0.339 C 
ATOM     28  C   UNL     1      -3.155   1.583  12.225  1.00  0.00     0.214 C 
ATOM     29  O   UNL     1      -5.402   2.360  11.624  1.00  0.00    -0.332 OA
ATOM     30  C   UNL     1      -2.538   2.455  11.109  1.00  0.00     0.180 C 
ATOM     31  C   UNL     1      -4.895   3.086  10.511  1.00  0.00     0.179 C 
ATOM     32  C   UNL     1      -3.479   3.633  10.797  1.00  0.00     0.177 C 
BRANCH  28  33
ATOM     33  O   UNL     1      -2.379   0.433  12.465  1.00  0.00    -0.384 OA
ATOM     34  H   UNL     1      -2.901  -0.176  13.049  1.00  0.00     0.211 HD
ENDBRANCH  28  33
BRANCH  30  35
ATOM     35  O   UNL     1      -1.284   2.941  11.516  1.00  0.00    -0.387 OA
ATOM     36  H   UNL     1      -0.645   2.764  10.770  1.00  0.00     0.211 HD
ENDBRANCH  30  35
BRANCH  31  37
ATOM     37  C   UNL     1      -5.865   4.226  10.171  1.00  0.00     0.191 C 
BRANCH  37  38
ATOM     38  O   UNL     1      -5.260   5.126   9.285  1.00  0.00    -0.394 OA
ATOM     39  H   UNL     1      -5.977   5.442   8.667  1.00  0.00     0.210 HD
ENDBRANCH  37  38
ENDBRANCH  31  37
BRANCH  32  40
ATOM     40  O   UNL     1      -3.529   4.526  11.884  1.00  0.00    -0.387 OA
ATOM     41  H   UNL     1      -2.594   4.824  12.061  1.00  0.00     0.211 HD
ENDBRANCH  32  40
ENDBRANCH   1  27
TORSDOF 12
ENDMDL
MODEL 9
REMARK VINA RESULT:    -5.275      1.888      5.172
REMARK INTER + INTRA:          -9.289
REMARK INTER:                  -7.490
REMARK INTRA:                  -1.799
REMARK UNBOUND:                -1.546
REMARK SMILES O=c1c(O[C@@H]2O[C@@H](CO)[C@@H](O)[C@@H](O)[C@@H]2O)c(-c2ccc(O)c(O)c2)oc2cc(O)cc(O)c12
REMARK SMILES IDX 4 1 3 2 16 3 25 4 2 5 26 6 1 7 33 8 27 9 31 10 28 11 30 12
REMARK SMILES IDX 17 13 18 14 19 15 20 16 24 17 22 18 21 19 23 21 32 23 29 25
REMARK SMILES IDX 5 27 14 28 6 29 12 30 7 31 10 32 15 33 13 35 8 37 9 38 11 40
REMARK H PARENT 21 20 23 22 32 24 29 26 15 34 13 36 9 39 11 41
REMARK Flexibility Score: inf
ROOT
ATOM      1  O   UNL     1      -6.828  -0.472  10.896  1.00  0.00    -0.454 OA
ENDROOT
BRANCH   1   2
ATOM      2  C   UNL     1      -5.469  -0.120  10.857  1.00  0.00     0.214 A 
ATOM      3  C   UNL     1      -4.498  -1.114  11.067  1.00  0.00     0.180 A 
ATOM      4  O   UNL     1      -3.213  -0.786  11.108  1.00  0.00    -0.452 OA
ATOM      5  C   UNL     1      -5.042   1.198  10.602  1.00  0.00     0.239 A 
ATOM      6  C   UNL     1      -2.765   0.448  10.918  1.00  0.00     0.146 A 
ATOM      7  O   UNL     1      -5.903   2.074  10.342  1.00  0.00    -0.285 OA
ATOM      8  C   UNL     1      -3.660   1.512  10.624  1.00  0.00     0.111 A 
ATOM      9  C   UNL     1      -1.391   0.678  11.016  1.00  0.00     0.094 A 
ATOM     10  C   UNL     1      -3.112   2.813  10.396  1.00  0.00     0.134 A 
ATOM     11  C   UNL     1      -0.873   1.961  10.831  1.00  0.00     0.123 A 
ATOM     12  C   UNL     1      -1.731   3.016  10.524  1.00  0.00     0.093 A 
BRANCH   3  13
ATOM     13  C   UNL     1      -4.865  -2.526  11.306  1.00  0.00     0.025 A 
ATOM     14  C   UNL     1      -4.646  -3.142  12.551  1.00  0.00     0.016 A 
ATOM     15  C   UNL     1      -4.952  -4.493  12.733  1.00  0.00     0.051 A 
ATOM     16  C   UNL     1      -5.482  -5.245  11.676  1.00  0.00     0.157 A 
ATOM     17  C   UNL     1      -5.425  -3.276  10.259  1.00  0.00     0.062 A 
ATOM     18  C   UNL     1      -5.721  -4.633  10.437  1.00  0.00     0.158 A 
BRANCH  16  19
ATOM     19  O   UNL     1      -5.777  -6.597  11.848  1.00  0.00    -0.504 OA
ATOM     20  H   UNL     1      -5.103  -7.238  12.253  1.00  0.00     0.293 HD
ENDBRANCH  16  19
BRANCH  18  21
ATOM     21  O   UNL     1      -6.249  -5.382   9.386  1.00  0.00    -0.504 OA
ATOM     22  H   UNL     1      -5.649  -5.766   8.661  1.00  0.00     0.293 HD
ENDBRANCH  18  21
ENDBRANCH   3  13
BRANCH  10  23
ATOM     23  O   UNL     1      -3.863   3.937  10.036  1.00  0.00    -0.507 OA
ATOM     24  H   UNL     1      -4.315   4.570  10.668  1.00  0.00     0.293 HD
ENDBRANCH  10  23
BRANCH  11  25
ATOM     25  O   UNL     1       0.495   2.200  10.945  1.00  0.00    -0.508 OA
ATOM     26  H   UNL     1       1.058   2.456  10.141  1.00  0.00     0.293 HD
ENDBRANCH  11  25
ENDBRANCH   1   2
BRANCH   1  27
ATOM     27  C   UNL     1      -7.610  -0.590  12.093  1.00  0.00     0.339 C 
ATOM     28  C   UNL     1      -8.819   0.372  12.056  1.00  0.00     0.214 C 
ATOM     29  O   UNL     1      -8.021  -1.934  12.304  1.00  0.00    -0.332 OA
ATOM     30  C   UNL     1      -9.865  -0.085  11.016  1.00  0.00     0.180 C 
ATOM     31  C   UNL     1      -8.886  -2.385  11.268  1.00  0.00     0.179 C 
ATOM     32  C   UNL     1     -10.198  -1.572  11.240  1.00  0.00     0.177 C 
BRANCH  28  33
ATOM     33  O   UNL     1      -8.404   1.696  11.819  1.00  0.00    -0.384 OA
ATOM     34  H   UNL     1      -9.095   2.307  12.183  1.00  0.00     0.211 HD
ENDBRANCH  28  33
BRANCH  30  35
ATOM     35  O   UNL     1     -11.032   0.688  11.136  1.00  0.00    -0.387 OA
ATOM     36  H   UNL     1     -11.628   0.439  10.375  1.00  0.00     0.211 HD
ENDBRANCH  30  35
BRANCH  31  37
ATOM     37  C   UNL     1      -9.170  -3.880  11.466  1.00  0.00     0.191 C 
BRANCH  37  38
ATOM     38  O   UNL     1      -9.079  -4.555  10.242  1.00  0.00    -0.394 OA
ATOM     39  H   UNL     1      -9.594  -4.013   9.580  1.00  0.00     0.210 HD
ENDBRANCH  37  38
ENDBRANCH  31  37
BRANCH  32  40
ATOM     40  O   UNL     1     -10.886  -1.746  12.455  1.00  0.00    -0.387 OA
ATOM     41  H   UNL     1     -11.260  -0.857  12.709  1.00  0.00     0.211 HD
ENDBRANCH  32  40
ENDBRANCH   1  27
TORSDOF 12
ENDMDL
