MODEL 1
REMARK VINA RESULT:    -6.958      0.000      0.000
REMARK INTER + INTRA:          -8.443
REMARK INTER:                  -8.178
REMARK INTRA:                  -0.264
REMARK UNBOUND:                -0.264
REMARK SMILES O=c1cc(-c2ccc(O)c(O)c2)oc2cc(O)cc(O)c12
REMARK SMILES IDX 4 1 3 2 2 3 1 4 21 5 19 6 18 7 16 8 15 9 14 10 13 11 5 12
REMARK SMILES IDX 6 13 7 14 8 15 12 16 10 17 9 18 11 20 20 22 17 24
REMARK H PARENT 9 19 11 21 20 23 17 25
REMARK Flexibility Score: inf
ROOT
ATOM      1  C   UNL     1       8.219  16.096 -19.022  1.00  0.00     0.138 A 
ATOM      2  C   UNL     1       8.295  15.770 -20.383  1.00  0.00     0.100 A 
ATOM      3  C   UNL     1       8.672  14.480 -20.764  1.00  0.00     0.197 A 
ATOM      4  O   UNL     1       8.676  14.203 -21.991  1.00  0.00    -0.289 OA
ATOM      5  C   UNL     1       9.008  13.525 -19.775  1.00  0.00     0.107 A 
ATOM      6  C   UNL     1       9.438  12.190 -20.046  1.00  0.00     0.134 A 
ATOM      7  C   UNL     1       9.648  11.304 -18.982  1.00  0.00     0.093 A 
ATOM      8  C   UNL     1       9.500  11.718 -17.659  1.00  0.00     0.123 A 
ATOM      9  C   UNL     1       9.129  13.034 -17.381  1.00  0.00     0.094 A 
ATOM     10  C   UNL     1       8.878  13.933 -18.421  1.00  0.00     0.146 A 
ATOM     11  O   UNL     1       8.509  15.172 -18.114  1.00  0.00    -0.456 OA
ENDROOT
BRANCH   1  12
ATOM     12  C   UNL     1       7.827  17.453 -18.561  1.00  0.00     0.021 A 
ATOM     13  C   UNL     1       6.634  17.677 -17.847  1.00  0.00     0.016 A 
ATOM     14  C   UNL     1       6.297  18.963 -17.417  1.00  0.00     0.051 A 
ATOM     15  C   UNL     1       7.147  20.043 -17.685  1.00  0.00     0.157 A 
ATOM     16  C   UNL     1       8.681  18.541 -18.814  1.00  0.00     0.062 A 
ATOM     17  C   UNL     1       8.342  19.832 -18.383  1.00  0.00     0.158 A 
BRANCH  15  18
ATOM     18  O   UNL     1       6.813  21.328 -17.258  1.00  0.00    -0.504 OA
ATOM     19  H   UNL     1       5.994  21.807 -17.612  1.00  0.00     0.293 HD
ENDBRANCH  15  18
BRANCH  17  20
ATOM     20  O   UNL     1       9.187  20.908 -18.645  1.00  0.00    -0.504 OA
ATOM     21  H   UNL     1       9.751  21.330 -17.915  1.00  0.00     0.293 HD
ENDBRANCH  17  20
ENDBRANCH   1  12
BRANCH   6  22
ATOM     22  O   UNL     1       9.695  11.695 -21.328  1.00  0.00    -0.507 OA
ATOM     23  H   UNL     1       8.998  11.334 -21.960  1.00  0.00     0.293 HD
ENDBRANCH   6  22
BRANCH   8  24
ATOM     24  O   UNL     1       9.732  10.813 -16.625  1.00  0.00    -0.508 OA
ATOM     25  H   UNL     1       9.490   9.834 -16.715  1.00  0.00     0.293 HD
ENDBRANCH   8  24
TORSDOF 5
ENDMDL
MODEL 2
REMARK VINA RESULT:    -6.776      5.550     10.684
REMARK INTER + INTRA:          -8.228
REMARK INTER:                  -7.964
REMARK INTRA:                  -0.265
REMARK UNBOUND:                -0.264
REMARK SMILES O=c1cc(-c2ccc(O)c(O)c2)oc2cc(O)cc(O)c12
REMARK SMILES IDX 4 1 3 2 2 3 1 4 21 5 19 6 18 7 16 8 15 9 14 10 13 11 5 12
REMARK SMILES IDX 6 13 7 14 8 15 12 16 10 17 9 18 11 20 20 22 17 24
REMARK H PARENT 9 19 11 21 20 23 17 25
REMARK Flexibility Score: inf
ROOT
ATOM      1  C   UNL     1       7.333   8.271 -14.947  1.00  0.00     0.138 A 
ATOM      2  C   UNL     1       7.001   8.607 -13.628  1.00  0.00     0.100 A 
ATOM      3  C   UNL     1       7.344   9.864 -13.128  1.00  0.00     0.197 A 
ATOM      4  O   UNL     1       6.982  10.156 -11.959  1.00  0.00    -0.289 OA
ATOM      5  C   UNL     1       8.056  10.776 -13.944  1.00  0.00     0.107 A 
ATOM      6  C   UNL     1       8.489  12.072 -13.531  1.00  0.00     0.134 A 
ATOM      7  C   UNL     1       9.100  12.924 -14.460  1.00  0.00     0.093 A 
ATOM      8  C   UNL     1       9.346  12.507 -15.767  1.00  0.00     0.123 A 
ATOM      9  C   UNL     1       8.973  11.224 -16.168  1.00  0.00     0.094 A 
ATOM     10  C   UNL     1       8.330  10.363 -15.276  1.00  0.00     0.146 A 
ATOM     11  O   UNL     1       7.974   9.156 -15.703  1.00  0.00    -0.456 OA
ENDROOT
BRANCH   1  12
ATOM     12  C   UNL     1       6.995   6.947 -15.529  1.00  0.00     0.021 A 
ATOM     13  C   UNL     1       6.175   6.825 -16.667  1.00  0.00     0.016 A 
ATOM     14  C   UNL     1       5.882   5.566 -17.199  1.00  0.00     0.051 A 
ATOM     15  C   UNL     1       6.409   4.411 -16.609  1.00  0.00     0.157 A 
ATOM     16  C   UNL     1       7.531   5.782 -14.952  1.00  0.00     0.062 A 
ATOM     17  C   UNL     1       7.236   4.518 -15.485  1.00  0.00     0.158 A 
BRANCH  15  18
ATOM     18  O   UNL     1       6.119   3.154 -17.136  1.00  0.00    -0.504 OA
ATOM     19  H   UNL     1       6.785   2.653 -17.712  1.00  0.00     0.293 HD
ENDBRANCH  15  18
BRANCH  17  20
ATOM     20  O   UNL     1       7.762   3.367 -14.903  1.00  0.00    -0.504 OA
ATOM     21  H   UNL     1       8.754   3.272 -14.717  1.00  0.00     0.293 HD
ENDBRANCH  17  20
ENDBRANCH   1  12
BRANCH   6  22
ATOM     22  O   UNL     1       8.366  12.560 -12.227  1.00  0.00    -0.507 OA
ATOM     23  H   UNL     1       8.417  12.000 -11.390  1.00  0.00     0.293 HD
ENDBRANCH   6  22
BRANCH   8  24
ATOM     24  O   UNL     1       9.970  13.376 -16.660  1.00  0.00    -0.508 OA
ATOM     25  H   UNL     1      10.925  13.684 -16.519  1.00  0.00     0.293 HD
ENDBRANCH   8  24
TORSDOF 5
ENDMDL
MODEL 3
REMARK VINA RESULT:    -6.734      3.651      6.467
REMARK INTER + INTRA:          -8.180
REMARK INTER:                  -7.917
REMARK INTRA:                  -0.262
REMARK UNBOUND:                -0.264
REMARK SMILES O=c1cc(-c2ccc(O)c(O)c2)oc2cc(O)cc(O)c12
REMARK SMILES IDX 4 1 3 2 2 3 1 4 21 5 19 6 18 7 16 8 15 9 14 10 13 11 5 12
REMARK SMILES IDX 6 13 7 14 8 15 12 16 10 17 9 18 11 20 20 22 17 24
REMARK H PARENT 9 19 11 21 20 23 17 25
REMARK Flexibility Score: inf
ROOT
ATOM      1  C   UNL     1       9.676  11.533 -16.040  1.00  0.00     0.138 A 
ATOM      2  C   UNL     1      10.238  10.321 -16.463  1.00  0.00     0.100 A 
ATOM      3  C   UNL     1       9.908   9.138 -15.799  1.00  0.00     0.197 A 
ATOM      4  O   UNL     1      10.385   8.060 -16.237  1.00  0.00    -0.289 OA
ATOM      5  C   UNL     1       9.037   9.178 -14.683  1.00  0.00     0.107 A 
ATOM      6  C   UNL     1       8.655   8.040 -13.908  1.00  0.00     0.134 A 
ATOM      7  C   UNL     1       7.708   8.189 -12.887  1.00  0.00     0.093 A 
ATOM      8  C   UNL     1       7.174   9.438 -12.575  1.00  0.00     0.123 A 
ATOM      9  C   UNL     1       7.577  10.564 -13.292  1.00  0.00     0.094 A 
ATOM     10  C   UNL     1       8.494  10.445 -14.340  1.00  0.00     0.146 A 
ATOM     11  O   UNL     1       8.837  11.539 -15.011  1.00  0.00    -0.456 OA
ENDROOT
BRANCH   1  12
ATOM     12  C   UNL     1       9.996  12.822 -16.708  1.00  0.00     0.021 A 
ATOM     13  C   UNL     1      10.921  13.731 -16.159  1.00  0.00     0.016 A 
ATOM     14  C   UNL     1      11.209  14.931 -16.815  1.00  0.00     0.051 A 
ATOM     15  C   UNL     1      10.587  15.238 -18.031  1.00  0.00     0.157 A 
ATOM     16  C   UNL     1       9.386  13.133 -17.936  1.00  0.00     0.062 A 
ATOM     17  C   UNL     1       9.675  14.338 -18.593  1.00  0.00     0.158 A 
BRANCH  15  18
ATOM     18  O   UNL     1      10.872  16.435 -18.687  1.00  0.00    -0.504 OA
ATOM     19  H   UNL     1      10.322  16.749 -19.478  1.00  0.00     0.293 HD
ENDBRANCH  15  18
BRANCH  17  20
ATOM     20  O   UNL     1       9.060  14.646 -19.805  1.00  0.00    -0.504 OA
ATOM     21  H   UNL     1       9.409  15.385 -20.404  1.00  0.00     0.293 HD
ENDBRANCH  17  20
ENDBRANCH   1  12
BRANCH   6  22
ATOM     22  O   UNL     1       9.188   6.760 -14.082  1.00  0.00    -0.507 OA
ATOM     23  H   UNL     1       8.683   5.966 -14.444  1.00  0.00     0.293 HD
ENDBRANCH   6  22
BRANCH   8  24
ATOM     24  O   UNL     1       6.245   9.549 -11.542  1.00  0.00    -0.508 OA
ATOM     25  H   UNL     1       5.845  10.443 -11.283  1.00  0.00     0.293 HD
ENDBRANCH   8  24
TORSDOF 5
ENDMDL
MODEL 4
REMARK VINA RESULT:    -6.639      2.608      4.423
REMARK INTER + INTRA:          -8.068
REMARK INTER:                  -7.751
REMARK INTRA:                  -0.317
REMARK UNBOUND:                -0.264
REMARK SMILES O=c1cc(-c2ccc(O)c(O)c2)oc2cc(O)cc(O)c12
REMARK SMILES IDX 4 1 3 2 2 3 1 4 21 5 19 6 18 7 16 8 15 9 14 10 13 11 5 12
REMARK SMILES IDX 6 13 7 14 8 15 12 16 10 17 9 18 11 20 20 22 17 24
REMARK H PARENT 9 19 11 21 20 23 17 25
REMARK Flexibility Score: inf
ROOT
ATOM      1  C   UNL     1       9.049  13.299 -18.946  1.00  0.00     0.138 A 
ATOM      2  C   UNL     1       9.478  12.007 -19.281  1.00  0.00     0.100 A 
ATOM      3  C   UNL     1       9.656  11.056 -18.274  1.00  0.00     0.197 A 
ATOM      4  O   UNL     1       9.987   9.890 -18.613  1.00  0.00    -0.289 OA
ATOM      5  C   UNL     1       9.437  11.413 -16.922  1.00  0.00     0.107 A 
ATOM      6  C   UNL     1       9.619  10.537 -15.809  1.00  0.00     0.134 A 
ATOM      7  C   UNL     1       9.275  10.975 -14.524  1.00  0.00     0.093 A 
ATOM      8  C   UNL     1       8.812  12.272 -14.303  1.00  0.00     0.123 A 
ATOM      9  C   UNL     1       8.678  13.152 -15.377  1.00  0.00     0.094 A 
ATOM     10  C   UNL     1       8.979  12.735 -16.676  1.00  0.00     0.146 A 
ATOM     11  O   UNL     1       8.820  13.599 -17.673  1.00  0.00    -0.456 OA
ENDROOT
BRANCH   1  12
ATOM     12  C   UNL     1       8.847  14.350 -19.976  1.00  0.00     0.021 A 
ATOM     13  C   UNL     1       8.871  14.054 -21.352  1.00  0.00     0.016 A 
ATOM     14  C   UNL     1       8.668  15.062 -22.298  1.00  0.00     0.051 A 
ATOM     15  C   UNL     1       8.430  16.379 -21.886  1.00  0.00     0.157 A 
ATOM     16  C   UNL     1       8.595  15.673 -19.572  1.00  0.00     0.062 A 
ATOM     17  C   UNL     1       8.392  16.685 -20.521  1.00  0.00     0.158 A 
BRANCH  15  18
ATOM     18  O   UNL     1       8.228  17.388 -22.827  1.00  0.00    -0.504 OA
ATOM     19  H   UNL     1       8.999  17.934 -23.192  1.00  0.00     0.293 HD
ENDBRANCH  15  18
BRANCH  17  20
ATOM     20  O   UNL     1       8.152  17.996 -20.114  1.00  0.00    -0.504 OA
ATOM     21  H   UNL     1       8.102  18.247 -19.133  1.00  0.00     0.293 HD
ENDBRANCH  17  20
ENDBRANCH   1  12
BRANCH   6  22
ATOM     22  O   UNL     1      10.151   9.248 -15.906  1.00  0.00    -0.507 OA
ATOM     23  H   UNL     1      11.023   8.948 -15.499  1.00  0.00     0.293 HD
ENDBRANCH   6  22
BRANCH   8  24
ATOM     24  O   UNL     1       8.495  12.677 -13.009  1.00  0.00    -0.508 OA
ATOM     25  H   UNL     1       9.132  12.528 -12.236  1.00  0.00     0.293 HD
ENDBRANCH   8  24
TORSDOF 5
ENDMDL
MODEL 5
REMARK VINA RESULT:    -6.480      2.535      7.262
REMARK INTER + INTRA:          -7.881
REMARK INTER:                  -7.610
REMARK INTRA:                  -0.271
REMARK UNBOUND:                -0.264
REMARK SMILES O=c1cc(-c2ccc(O)c(O)c2)oc2cc(O)cc(O)c12
REMARK SMILES IDX 4 1 3 2 2 3 1 4 21 5 19 6 18 7 16 8 15 9 14 10 13 11 5 12
REMARK SMILES IDX 6 13 7 14 8 15 12 16 10 17 9 18 11 20 20 22 17 24
REMARK H PARENT 9 19 11 21 20 23 17 25
REMARK Flexibility Score: inf
ROOT
ATOM      1  C   UNL     1       9.525  11.889 -18.129  1.00  0.00     0.138 A 
ATOM      2  C   UNL     1       9.070  11.557 -19.413  1.00  0.00     0.100 A 
ATOM      3  C   UNL     1       8.864  12.566 -20.355  1.00  0.00     0.197 A 
ATOM      4  O   UNL     1       8.510  12.231 -21.515  1.00  0.00    -0.289 OA
ATOM      5  C   UNL     1       9.081  13.918 -19.996  1.00  0.00     0.107 A 
ATOM      6  C   UNL     1       8.871  15.034 -20.862  1.00  0.00     0.134 A 
ATOM      7  C   UNL     1       9.214  16.320 -20.426  1.00  0.00     0.093 A 
ATOM      8  C   UNL     1       9.704  16.538 -19.139  1.00  0.00     0.123 A 
ATOM      9  C   UNL     1       9.865  15.461 -18.266  1.00  0.00     0.094 A 
ATOM     10  C   UNL     1       9.565  14.162 -18.683  1.00  0.00     0.146 A 
ATOM     11  O   UNL     1       9.751  13.162 -17.827  1.00  0.00    -0.456 OA
ENDROOT
BRANCH   1  12
ATOM     12  C   UNL     1       9.758  10.856 -17.087  1.00  0.00     0.021 A 
ATOM     13  C   UNL     1      10.800   9.915 -17.196  1.00  0.00     0.016 A 
ATOM     14  C   UNL     1      11.002   8.961 -16.195  1.00  0.00     0.051 A 
ATOM     15  C   UNL     1      10.172   8.935 -15.067  1.00  0.00     0.157 A 
ATOM     16  C   UNL     1       8.939  10.830 -15.945  1.00  0.00     0.062 A 
ATOM     17  C   UNL     1       9.140   9.872 -14.941  1.00  0.00     0.158 A 
BRANCH  15  18
ATOM     18  O   UNL     1      10.370   7.984 -14.067  1.00  0.00    -0.504 OA
ATOM     19  H   UNL     1      10.984   8.162 -13.282  1.00  0.00     0.293 HD
ENDBRANCH  15  18
BRANCH  17  20
ATOM     20  O   UNL     1       8.319   9.846 -13.815  1.00  0.00    -0.504 OA
ATOM     21  H   UNL     1       7.537  10.484 -13.714  1.00  0.00     0.293 HD
ENDBRANCH  17  20
ENDBRANCH   1  12
BRANCH   6  22
ATOM     22  O   UNL     1       8.312  14.939 -22.140  1.00  0.00    -0.507 OA
ATOM     23  H   UNL     1       7.793  14.149 -22.489  1.00  0.00     0.293 HD
ENDBRANCH   6  22
BRANCH   8  24
ATOM     24  O   UNL     1      10.020  17.833 -18.734  1.00  0.00    -0.508 OA
ATOM     25  H   UNL     1      10.055  18.600 -19.394  1.00  0.00     0.293 HD
ENDBRANCH   8  24
TORSDOF 5
ENDMDL
MODEL 6
REMARK VINA RESULT:    -6.472      3.235      7.817
REMARK INTER + INTRA:          -7.871
REMARK INTER:                  -7.609
REMARK INTRA:                  -0.262
REMARK UNBOUND:                -0.264
REMARK SMILES O=c1cc(-c2ccc(O)c(O)c2)oc2cc(O)cc(O)c12
REMARK SMILES IDX 4 1 3 2 2 3 1 4 21 5 19 6 18 7 16 8 15 9 14 10 13 11 5 12
REMARK SMILES IDX 6 13 7 14 8 15 12 16 10 17 9 18 11 20 20 22 17 24
REMARK H PARENT 9 19 11 21 20 23 17 25
REMARK Flexibility Score: inf
ROOT
ATOM      1  C   UNL     1       9.789  11.913 -16.793  1.00  0.00     0.138 A 
ATOM      2  C   UNL     1      10.573  12.957 -16.284  1.00  0.00     0.100 A 
ATOM      3  C   UNL     1      10.664  14.159 -16.989  1.00  0.00     0.197 A 
ATOM      4  O   UNL     1      11.329  15.096 -16.478  1.00  0.00    -0.289 OA
ATOM      5  C   UNL     1       9.993  14.300 -18.228  1.00  0.00     0.107 A 
ATOM      6  C   UNL     1      10.040  15.466 -19.050  1.00  0.00     0.134 A 
ATOM      7  C   UNL     1       9.254  15.525 -20.209  1.00  0.00     0.093 A 
ATOM      8  C   UNL     1       8.471  14.442 -20.604  1.00  0.00     0.123 A 
ATOM      9  C   UNL     1       8.456  13.278 -19.835  1.00  0.00     0.094 A 
ATOM     10  C   UNL     1       9.201  13.201 -18.656  1.00  0.00     0.146 A 
ATOM     11  O   UNL     1       9.145  12.082 -17.942  1.00  0.00    -0.456 OA
ENDROOT
BRANCH   1  12
ATOM     12  C   UNL     1       9.661  10.612 -16.086  1.00  0.00     0.021 A 
ATOM     13  C   UNL     1      10.432   9.491 -16.452  1.00  0.00     0.016 A 
ATOM     14  C   UNL     1      10.296   8.283 -15.762  1.00  0.00     0.051 A 
ATOM     15  C   UNL     1       9.398   8.176 -14.694  1.00  0.00     0.157 A 
ATOM     16  C   UNL     1       8.771  10.499 -15.004  1.00  0.00     0.062 A 
ATOM     17  C   UNL     1       8.634   9.286 -14.313  1.00  0.00     0.158 A 
BRANCH  15  18
ATOM     18  O   UNL     1       9.260   6.972 -14.005  1.00  0.00    -0.504 OA
ATOM     19  H   UNL     1       8.348   6.602 -13.764  1.00  0.00     0.293 HD
ENDBRANCH  15  18
BRANCH  17  20
ATOM     20  O   UNL     1       7.744   9.177 -13.247  1.00  0.00    -0.504 OA
ATOM     21  H   UNL     1       7.699   9.881 -12.519  1.00  0.00     0.293 HD
ENDBRANCH  17  20
ENDBRANCH   1  12
BRANCH   6  22
ATOM     22  O   UNL     1      10.851  16.575 -18.792  1.00  0.00    -0.507 OA
ATOM     23  H   UNL     1      10.805  17.147 -17.964  1.00  0.00     0.293 HD
ENDBRANCH   6  22
BRANCH   8  24
ATOM     24  O   UNL     1       7.714  14.531 -21.771  1.00  0.00    -0.508 OA
ATOM     25  H   UNL     1       6.725  14.313 -21.779  1.00  0.00     0.293 HD
ENDBRANCH   8  24
TORSDOF 5
ENDMDL
MODEL 7
REMARK VINA RESULT:    -6.390      3.854      6.679
REMARK INTER + INTRA:          -7.774
REMARK INTER:                  -7.507
REMARK INTRA:                  -0.267
REMARK UNBOUND:                -0.264
REMARK SMILES O=c1cc(-c2ccc(O)c(O)c2)oc2cc(O)cc(O)c12
REMARK SMILES IDX 4 1 3 2 2 3 1 4 21 5 19 6 18 7 16 8 15 9 14 10 13 11 5 12
REMARK SMILES IDX 6 13 7 14 8 15 12 16 10 17 9 18 11 20 20 22 17 24
REMARK H PARENT 9 19 11 21 20 23 17 25
REMARK Flexibility Score: inf
ROOT
ATOM      1  C   UNL     1       9.095  12.311 -15.240  1.00  0.00     0.138 A 
ATOM      2  C   UNL     1       8.301  12.706 -14.155  1.00  0.00     0.100 A 
ATOM      3  C   UNL     1       7.753  11.739 -13.311  1.00  0.00     0.197 A 
ATOM      4  O   UNL     1       7.092  12.127 -12.314  1.00  0.00    -0.289 OA
ATOM      5  C   UNL     1       7.974  10.366 -13.579  1.00  0.00     0.107 A 
ATOM      6  C   UNL     1       7.438   9.290 -12.807  1.00  0.00     0.134 A 
ATOM      7  C   UNL     1       7.808   7.973 -13.111  1.00  0.00     0.093 A 
ATOM      8  C   UNL     1       8.644   7.690 -14.190  1.00  0.00     0.123 A 
ATOM      9  C   UNL     1       9.133   8.729 -14.981  1.00  0.00     0.094 A 
ATOM     10  C   UNL     1       8.811  10.056 -14.684  1.00  0.00     0.146 A 
ATOM     11  O   UNL     1       9.313  11.018 -15.451  1.00  0.00    -0.456 OA
ENDROOT
BRANCH   1  12
ATOM     12  C   UNL     1       9.699  13.298 -16.172  1.00  0.00     0.021 A 
ATOM     13  C   UNL     1      10.852  14.031 -15.829  1.00  0.00     0.016 A 
ATOM     14  C   UNL     1      11.404  14.946 -16.729  1.00  0.00     0.051 A 
ATOM     15  C   UNL     1      10.821  15.138 -17.988  1.00  0.00     0.157 A 
ATOM     16  C   UNL     1       9.129  13.488 -17.442  1.00  0.00     0.062 A 
ATOM     17  C   UNL     1       9.682  14.407 -18.346  1.00  0.00     0.158 A 
BRANCH  15  18
ATOM     18  O   UNL     1      11.369  16.050 -18.888  1.00  0.00    -0.504 OA
ATOM     19  H   UNL     1      11.581  17.002 -18.614  1.00  0.00     0.293 HD
ENDBRANCH  15  18
BRANCH  17  20
ATOM     20  O   UNL     1       9.107  14.598 -19.600  1.00  0.00    -0.504 OA
ATOM     21  H   UNL     1       9.021  13.837 -20.266  1.00  0.00     0.293 HD
ENDBRANCH  17  20
ENDBRANCH   1  12
BRANCH   6  22
ATOM     22  O   UNL     1       6.530   9.455 -11.757  1.00  0.00    -0.507 OA
ATOM     23  H   UNL     1       5.796  10.144 -11.729  1.00  0.00     0.293 HD
ENDBRANCH   6  22
BRANCH   8  24
ATOM     24  O   UNL     1       8.977   6.366 -14.471  1.00  0.00    -0.508 OA
ATOM     25  H   UNL     1       9.896   6.113 -14.812  1.00  0.00     0.293 HD
ENDBRANCH   8  24
TORSDOF 5
ENDMDL
MODEL 8
REMARK VINA RESULT:    -6.299      4.179      8.494
REMARK INTER + INTRA:          -7.669
REMARK INTER:                  -7.352
REMARK INTRA:                  -0.317
REMARK UNBOUND:                -0.264
REMARK SMILES O=c1cc(-c2ccc(O)c(O)c2)oc2cc(O)cc(O)c12
REMARK SMILES IDX 4 1 3 2 2 3 1 4 21 5 19 6 18 7 16 8 15 9 14 10 13 11 5 12
REMARK SMILES IDX 6 13 7 14 8 15 12 16 10 17 9 18 11 20 20 22 17 24
REMARK H PARENT 9 19 11 21 20 23 17 25
REMARK Flexibility Score: inf
ROOT
ATOM      1  C   UNL     1       8.204  11.039 -14.750  1.00  0.00     0.138 A 
ATOM      2  C   UNL     1       8.709  12.267 -14.303  1.00  0.00     0.100 A 
ATOM      3  C   UNL     1       9.212  13.184 -15.228  1.00  0.00     0.197 A 
ATOM      4  O   UNL     1       9.605  14.301 -14.801  1.00  0.00    -0.289 OA
ATOM      5  C   UNL     1       9.241  12.851 -16.604  1.00  0.00     0.107 A 
ATOM      6  C   UNL     1       9.762  13.693 -17.633  1.00  0.00     0.134 A 
ATOM      7  C   UNL     1       9.647  13.296 -18.972  1.00  0.00     0.093 A 
ATOM      8  C   UNL     1       9.085  12.067 -19.314  1.00  0.00     0.123 A 
ATOM      9  C   UNL     1       8.618  11.215 -18.312  1.00  0.00     0.094 A 
ATOM     10  C   UNL     1       8.687  11.596 -16.970  1.00  0.00     0.146 A 
ATOM     11  O   UNL     1       8.215  10.763 -16.049  1.00  0.00    -0.456 OA
ENDROOT
BRANCH   1  12
ATOM     12  C   UNL     1       7.660  10.025 -13.809  1.00  0.00     0.021 A 
ATOM     13  C   UNL     1       7.393  10.333 -12.461  1.00  0.00     0.016 A 
ATOM     14  C   UNL     1       6.872   9.362 -11.602  1.00  0.00     0.051 A 
ATOM     15  C   UNL     1       6.602   8.072 -12.076  1.00  0.00     0.157 A 
ATOM     16  C   UNL     1       7.374   8.731 -14.279  1.00  0.00     0.062 A 
ATOM     17  C   UNL     1       6.852   7.756 -13.416  1.00  0.00     0.158 A 
BRANCH  15  18
ATOM     18  O   UNL     1       6.084   7.100 -11.221  1.00  0.00    -0.504 OA
ATOM     19  H   UNL     1       6.616   6.747 -10.435  1.00  0.00     0.293 HD
ENDBRANCH  15  18
BRANCH  17  20
ATOM     20  O   UNL     1       6.580   6.472 -13.885  1.00  0.00    -0.504 OA
ATOM     21  H   UNL     1       6.020   5.819 -13.348  1.00  0.00     0.293 HD
ENDBRANCH  17  20
ENDBRANCH   1  12
BRANCH   6  22
ATOM     22  O   UNL     1      10.416  14.906 -17.398  1.00  0.00    -0.507 OA
ATOM     23  H   UNL     1      10.857  15.473 -18.105  1.00  0.00     0.293 HD
ENDBRANCH   6  22
BRANCH   8  24
ATOM     24  O   UNL     1       9.001  11.699 -20.655  1.00  0.00    -0.508 OA
ATOM     25  H   UNL     1       8.172  11.256 -21.032  1.00  0.00     0.293 HD
ENDBRANCH   8  24
TORSDOF 5
ENDMDL
MODEL 9
REMARK VINA RESULT:    -6.188      2.332      6.391
REMARK INTER + INTRA:          -7.538
REMARK INTER:                  -7.231
REMARK INTRA:                  -0.307
REMARK UNBOUND:                -0.264
REMARK SMILES O=c1cc(-c2ccc(O)c(O)c2)oc2cc(O)cc(O)c12
REMARK SMILES IDX 4 1 3 2 2 3 1 4 21 5 19 6 18 7 16 8 15 9 14 10 13 11 5 12
REMARK SMILES IDX 6 13 7 14 8 15 12 16 10 17 9 18 11 20 20 22 17 24
REMARK H PARENT 9 19 11 21 20 23 17 25
REMARK Flexibility Score: inf
ROOT
ATOM      1  C   UNL     1       8.375  13.033 -17.608  1.00  0.00     0.138 A 
ATOM      2  C   UNL     1       8.742  12.415 -18.812  1.00  0.00     0.100 A 
ATOM      3  C   UNL     1       8.882  13.184 -19.968  1.00  0.00     0.197 A 
ATOM      4  O   UNL     1       9.266  12.609 -21.019  1.00  0.00    -0.289 OA
ATOM      5  C   UNL     1       8.618  14.574 -19.925  1.00  0.00     0.107 A 
ATOM      6  C   UNL     1       8.695  15.452 -21.048  1.00  0.00     0.134 A 
ATOM      7  C   UNL     1       8.507  16.828 -20.862  1.00  0.00     0.093 A 
ATOM      8  C   UNL     1       8.189  17.349 -19.609  1.00  0.00     0.123 A 
ATOM      9  C   UNL     1       8.061  16.494 -18.514  1.00  0.00     0.094 A 
ATOM     10  C   UNL     1       8.276  15.122 -18.659  1.00  0.00     0.146 A 
ATOM     11  O   UNL     1       8.163  14.344 -17.588  1.00  0.00    -0.456 OA
ENDROOT
BRANCH   1  12
ATOM     12  C   UNL     1       8.208  12.263 -16.349  1.00  0.00     0.021 A 
ATOM     13  C   UNL     1       7.832  10.906 -16.355  1.00  0.00     0.016 A 
ATOM     14  C   UNL     1       7.693  10.204 -15.155  1.00  0.00     0.051 A 
ATOM     15  C   UNL     1       7.934  10.841 -13.932  1.00  0.00     0.157 A 
ATOM     16  C   UNL     1       8.461  12.891 -15.117  1.00  0.00     0.062 A 
ATOM     17  C   UNL     1       8.319  12.187 -13.912  1.00  0.00     0.158 A 
BRANCH  15  18
ATOM     18  O   UNL     1       7.794  10.144 -12.732  1.00  0.00    -0.504 OA
ATOM     19  H   UNL     1       7.389   9.216 -12.703  1.00  0.00     0.293 HD
ENDBRANCH  15  18
BRANCH  17  20
ATOM     20  O   UNL     1       8.562  12.817 -12.693  1.00  0.00    -0.504 OA
ATOM     21  H   UNL     1       9.470  12.772 -12.244  1.00  0.00     0.293 HD
ENDBRANCH  17  20
ENDBRANCH   1  12
BRANCH   6  22
ATOM     22  O   UNL     1       8.927  15.029 -22.360  1.00  0.00    -0.507 OA
ATOM     23  H   UNL     1       8.266  14.531 -22.934  1.00  0.00     0.293 HD
ENDBRANCH   6  22
BRANCH   8  24
ATOM     24  O   UNL     1       7.994  18.721 -19.465  1.00  0.00    -0.508 OA
ATOM     25  H   UNL     1       8.632  19.293 -18.924  1.00  0.00     0.293 HD
ENDBRANCH   8  24
TORSDOF 5
ENDMDL
