MODEL 1
REMARK VINA RESULT:    -3.156      0.000      0.000
REMARK INTER + INTRA:          -9.921
REMARK INTER:                  -6.846
REMARK INTRA:                  -3.075
REMARK UNBOUND:                -3.075
REMARK SMILES CCCCCCCCCCCCCCCCCCCCCC(=O)[O-]
REMARK SMILES IDX 12 1 11 2 10 3 9 4 8 5 7 6 6 7 5 8 4 9 3 10 2 11 1 12 13 13
REMARK SMILES IDX 14 14 15 15 16 16 17 17 18 18 19 19 20 20 21 21 22 22 23 23
REMARK SMILES IDX 24 24
REMARK H PARENT
REMARK Flexibility Score: inf
ROOT
ATOM      1  C   UNL     1     -17.470 -24.420  24.748  1.00  0.00     0.000 C 
ENDROOT
BRANCH   1   2
ATOM      2  C   UNL     1     -17.222 -23.253  23.774  1.00  0.00     0.000 C 
BRANCH   2   3
ATOM      3  C   UNL     1     -15.726 -22.938  23.602  1.00  0.00     0.000 C 
BRANCH   3   4
ATOM      4  C   UNL     1     -14.849 -24.199  23.681  1.00  0.00    -0.000 C 
BRANCH   4   5
ATOM      5  C   UNL     1     -13.635 -24.149  22.735  1.00  0.00    -0.000 C 
BRANCH   5   6
ATOM      6  C   UNL     1     -13.163 -22.736  22.344  1.00  0.00    -0.000 C 
BRANCH   6   7
ATOM      7  C   UNL     1     -12.714 -22.636  20.877  1.00  0.00    -0.000 C 
BRANCH   7   8
ATOM      8  C   UNL     1     -13.552 -21.635  20.061  1.00  0.00    -0.000 C 
BRANCH   8   9
ATOM      9  C   UNL     1     -13.915 -20.326  20.793  1.00  0.00    -0.000 C 
BRANCH   9  10
ATOM     10  C   UNL     1     -12.942 -19.154  20.560  1.00  0.00    -0.000 C 
BRANCH  10  11
ATOM     11  C   UNL     1     -12.974 -18.632  19.115  1.00  0.00    -0.003 C 
ATOM     12  C   UNL     1     -11.674 -18.958  18.385  1.00  0.00     0.004 C 
ENDBRANCH  10  11
ENDBRANCH   9  10
ENDBRANCH   8   9
ENDBRANCH   7   8
ENDBRANCH   6   7
ENDBRANCH   5   6
ENDBRANCH   4   5
ENDBRANCH   3   4
ENDBRANCH   2   3
ENDBRANCH   1   2
BRANCH   1  13
ATOM     13  C   UNL     1     -18.383 -24.021  25.928  1.00  0.00     0.000 C 
BRANCH  13  14
ATOM     14  C   UNL     1     -18.384 -22.511  26.233  1.00  0.00     0.000 C 
BRANCH  14  15
ATOM     15  C   UNL     1     -17.836 -22.126  27.621  1.00  0.00     0.000 C 
BRANCH  15  16
ATOM     16  C   UNL     1     -16.366 -22.519  27.878  1.00  0.00     0.000 C 
BRANCH  16  17
ATOM     17  C   UNL     1     -15.329 -21.719  27.071  1.00  0.00     0.000 C 
BRANCH  17  18
ATOM     18  C   UNL     1     -13.939 -22.377  27.070  1.00  0.00     0.000 C 
BRANCH  18  19
ATOM     19  C   UNL     1     -13.031 -21.835  25.955  1.00  0.00     0.000 C 
BRANCH  19  20
ATOM     20  C   UNL     1     -13.542 -20.503  25.376  1.00  0.00     0.006 C 
BRANCH  20  21
ATOM     21  C   UNL     1     -12.467 -19.779  24.555  1.00  0.00     0.053 C 
BRANCH  21  22
ATOM     22  C   UNL     1     -12.676 -18.296  24.555  1.00  0.00     0.041 C 
ATOM     23  O   UNL     1     -12.345 -17.609  23.552  1.00  0.00    -0.550 OA
ATOM     24  O   UNL     1     -13.207 -17.668  25.675  1.00  0.00    -0.550 OA
ENDBRANCH  21  22
ENDBRANCH  20  21
ENDBRANCH  19  20
ENDBRANCH  18  19
ENDBRANCH  17  18
ENDBRANCH  16  17
ENDBRANCH  15  16
ENDBRANCH  14  15
ENDBRANCH  13  14
ENDBRANCH   1  13
TORSDOF 20
ENDMDL
MODEL 2
REMARK VINA RESULT:    -3.101      3.197      5.907
REMARK INTER + INTRA:          -9.801
REMARK INTER:                  -6.366
REMARK INTRA:                  -3.436
REMARK UNBOUND:                -3.075
REMARK SMILES CCCCCCCCCCCCCCCCCCCCCC(=O)[O-]
REMARK SMILES IDX 12 1 11 2 10 3 9 4 8 5 7 6 6 7 5 8 4 9 3 10 2 11 1 12 13 13
REMARK SMILES IDX 14 14 15 15 16 16 17 17 18 18 19 19 20 20 21 21 22 22 23 23
REMARK SMILES IDX 24 24
REMARK H PARENT
REMARK Flexibility Score: inf
ROOT
ATOM      1  C   UNL     1     -12.887 -21.258  23.318  1.00  0.00     0.000 C 
ENDROOT
BRANCH   1   2
ATOM      2  C   UNL     1     -12.154 -20.169  22.513  1.00  0.00     0.000 C 
BRANCH   2   3
ATOM      3  C   UNL     1     -13.117 -19.134  21.909  1.00  0.00     0.000 C 
BRANCH   3   4
ATOM      4  C   UNL     1     -12.473 -18.329  20.767  1.00  0.00    -0.000 C 
BRANCH   4   5
ATOM      5  C   UNL     1     -12.929 -18.794  19.371  1.00  0.00    -0.000 C 
BRANCH   5   6
ATOM      6  C   UNL     1     -11.810 -19.329  18.457  1.00  0.00    -0.000 C 
BRANCH   6   7
ATOM      7  C   UNL     1     -11.950 -20.829  18.153  1.00  0.00    -0.000 C 
BRANCH   7   8
ATOM      8  C   UNL     1     -13.264 -21.429  18.685  1.00  0.00    -0.000 C 
BRANCH   8   9
ATOM      9  C   UNL     1     -13.104 -22.654  19.609  1.00  0.00    -0.000 C 
BRANCH   9  10
ATOM     10  C   UNL     1     -11.662 -22.948  20.063  1.00  0.00    -0.000 C 
BRANCH  10  11
ATOM     11  C   UNL     1     -11.594 -23.975  21.204  1.00  0.00    -0.003 C 
ATOM     12  C   UNL     1     -12.705 -25.014  21.075  1.00  0.00     0.004 C 
ENDBRANCH  10  11
ENDBRANCH   9  10
ENDBRANCH   8   9
ENDBRANCH   7   8
ENDBRANCH   6   7
ENDBRANCH   5   6
ENDBRANCH   4   5
ENDBRANCH   3   4
ENDBRANCH   2   3
ENDBRANCH   1   2
BRANCH   1  13
ATOM     13  C   UNL     1     -14.247 -21.640  22.695  1.00  0.00     0.000 C 
BRANCH  13  14
ATOM     14  C   UNL     1     -14.859 -22.930  23.276  1.00  0.00     0.000 C 
BRANCH  14  15
ATOM     15  C   UNL     1     -14.182 -23.451  24.558  1.00  0.00     0.000 C 
BRANCH  15  16
ATOM     16  C   UNL     1     -15.039 -23.353  25.838  1.00  0.00     0.000 C 
BRANCH  16  17
ATOM     17  C   UNL     1     -15.941 -22.110  25.923  1.00  0.00     0.000 C 
BRANCH  17  18
ATOM     18  C   UNL     1     -17.330 -22.421  26.507  1.00  0.00     0.000 C 
BRANCH  18  19
ATOM     19  C   UNL     1     -17.767 -23.872  26.247  1.00  0.00     0.000 C 
BRANCH  19  20
ATOM     20  C   UNL     1     -18.744 -23.989  25.063  1.00  0.00     0.006 C 
BRANCH  20  21
ATOM     21  C   UNL     1     -18.085 -24.621  23.830  1.00  0.00     0.053 C 
BRANCH  21  22
ATOM     22  C   UNL     1     -17.537 -25.982  24.132  1.00  0.00     0.041 C 
ATOM     23  O   UNL     1     -16.310 -26.220  23.981  1.00  0.00    -0.550 OA
ATOM     24  O   UNL     1     -18.389 -26.997  24.548  1.00  0.00    -0.550 OA
ENDBRANCH  21  22
ENDBRANCH  20  21
ENDBRANCH  19  20
ENDBRANCH  18  19
ENDBRANCH  17  18
ENDBRANCH  16  17
ENDBRANCH  15  16
ENDBRANCH  14  15
ENDBRANCH  13  14
ENDBRANCH   1  13
TORSDOF 20
ENDMDL
MODEL 3
REMARK VINA RESULT:    -3.097      3.002      6.042
REMARK INTER + INTRA:          -9.793
REMARK INTER:                  -6.700
REMARK INTRA:                  -3.093
REMARK UNBOUND:                -3.075
REMARK SMILES CCCCCCCCCCCCCCCCCCCCCC(=O)[O-]
REMARK SMILES IDX 12 1 11 2 10 3 9 4 8 5 7 6 6 7 5 8 4 9 3 10 2 11 1 12 13 13
REMARK SMILES IDX 14 14 15 15 16 16 17 17 18 18 19 19 20 20 21 21 22 22 23 23
REMARK SMILES IDX 24 24
REMARK H PARENT
REMARK Flexibility Score: inf
ROOT
ATOM      1  C   UNL     1     -12.472 -22.531  21.366  1.00  0.00     0.000 C 
ENDROOT
BRANCH   1   2
ATOM      2  C   UNL     1     -12.606 -22.772  19.851  1.00  0.00     0.000 C 
BRANCH   2   3
ATOM      3  C   UNL     1     -13.297 -21.604  19.127  1.00  0.00     0.000 C 
BRANCH   3   4
ATOM      4  C   UNL     1     -12.296 -20.687  18.403  1.00  0.00    -0.000 C 
BRANCH   4   5
ATOM      5  C   UNL     1     -12.457 -19.203  18.780  1.00  0.00    -0.000 C 
BRANCH   5   6
ATOM      6  C   UNL     1     -13.160 -18.937  20.125  1.00  0.00    -0.000 C 
BRANCH   6   7
ATOM      7  C   UNL     1     -12.316 -18.084  21.085  1.00  0.00    -0.000 C 
BRANCH   7   8
ATOM      8  C   UNL     1     -11.797 -18.880  22.297  1.00  0.00    -0.000 C 
BRANCH   8   9
ATOM      9  C   UNL     1     -12.833 -19.138  23.410  1.00  0.00    -0.000 C 
BRANCH   9  10
ATOM     10  C   UNL     1     -12.273 -19.788  24.690  1.00  0.00    -0.000 C 
BRANCH  10  11
ATOM     11  C   UNL     1     -11.116 -20.759  24.407  1.00  0.00    -0.003 C 
ATOM     12  C   UNL     1     -11.312 -22.077  25.151  1.00  0.00     0.004 C 
ENDBRANCH  10  11
ENDBRANCH   9  10
ENDBRANCH   8   9
ENDBRANCH   7   8
ENDBRANCH   6   7
ENDBRANCH   5   6
ENDBRANCH   4   5
ENDBRANCH   3   4
ENDBRANCH   2   3
ENDBRANCH   1   2
BRANCH   1  13
ATOM     13  C   UNL     1     -13.808 -22.117  22.019  1.00  0.00     0.000 C 
BRANCH  13  14
ATOM     14  C   UNL     1     -14.279 -23.071  23.134  1.00  0.00     0.000 C 
BRANCH  14  15
ATOM     15  C   UNL     1     -15.395 -22.514  24.038  1.00  0.00     0.000 C 
BRANCH  15  16
ATOM     16  C   UNL     1     -14.991 -22.275  25.509  1.00  0.00     0.000 C 
BRANCH  16  17
ATOM     17  C   UNL     1     -16.166 -22.071  26.480  1.00  0.00     0.000 C 
BRANCH  17  18
ATOM     18  C   UNL     1     -17.536 -22.195  25.792  1.00  0.00     0.000 C 
BRANCH  18  19
ATOM     19  C   UNL     1     -18.517 -23.073  26.585  1.00  0.00     0.000 C 
BRANCH  19  20
ATOM     20  C   UNL     1     -19.063 -24.247  25.752  1.00  0.00     0.006 C 
BRANCH  20  21
ATOM     21  C   UNL     1     -18.367 -24.361  24.390  1.00  0.00     0.053 C 
BRANCH  21  22
ATOM     22  C   UNL     1     -17.579 -25.629  24.276  1.00  0.00     0.041 C 
ATOM     23  O   UNL     1     -18.035 -26.603  23.620  1.00  0.00    -0.550 OA
ATOM     24  O   UNL     1     -16.354 -25.748  24.922  1.00  0.00    -0.550 OA
ENDBRANCH  21  22
ENDBRANCH  20  21
ENDBRANCH  19  20
ENDBRANCH  18  19
ENDBRANCH  17  18
ENDBRANCH  16  17
ENDBRANCH  15  16
ENDBRANCH  14  15
ENDBRANCH  13  14
ENDBRANCH   1  13
TORSDOF 20
ENDMDL
MODEL 4
REMARK VINA RESULT:    -3.059      3.038      6.723
REMARK INTER + INTRA:          -9.710
REMARK INTER:                  -6.666
REMARK INTRA:                  -3.044
REMARK UNBOUND:                -3.075
REMARK SMILES CCCCCCCCCCCCCCCCCCCCCC(=O)[O-]
REMARK SMILES IDX 12 1 11 2 10 3 9 4 8 5 7 6 6 7 5 8 4 9 3 10 2 11 1 12 13 13
REMARK SMILES IDX 14 14 15 15 16 16 17 17 18 18 19 19 20 20 21 21 22 22 23 23
REMARK SMILES IDX 24 24
REMARK H PARENT
REMARK Flexibility Score: inf
ROOT
ATOM      1  C   UNL     1     -12.512 -17.632  21.380  1.00  0.00     0.000 C 
ENDROOT
BRANCH   1   2
ATOM      2  C   UNL     1     -11.040 -17.645  20.928  1.00  0.00     0.000 C 
BRANCH   2   3
ATOM      3  C   UNL     1     -10.875 -17.256  19.449  1.00  0.00     0.000 C 
BRANCH   3   4
ATOM      4  C   UNL     1     -11.924 -17.927  18.545  1.00  0.00    -0.000 C 
BRANCH   4   5
ATOM      5  C   UNL     1     -11.394 -19.193  17.846  1.00  0.00    -0.000 C 
BRANCH   5   6
ATOM      6  C   UNL     1     -11.618 -20.511  18.612  1.00  0.00    -0.000 C 
BRANCH   6   7
ATOM      7  C   UNL     1     -13.040 -20.639  19.183  1.00  0.00    -0.000 C 
BRANCH   7   8
ATOM      8  C   UNL     1     -13.382 -22.074  19.625  1.00  0.00    -0.000 C 
BRANCH   8   9
ATOM      9  C   UNL     1     -12.169 -22.997  19.866  1.00  0.00    -0.000 C 
BRANCH   9  10
ATOM     10  C   UNL     1     -12.516 -24.440  20.279  1.00  0.00    -0.000 C 
BRANCH  10  11
ATOM     11  C   UNL     1     -12.304 -24.698  21.779  1.00  0.00    -0.003 C 
ATOM     12  C   UNL     1     -13.015 -25.974  22.222  1.00  0.00     0.004 C 
ENDBRANCH  10  11
ENDBRANCH   9  10
ENDBRANCH   8   9
ENDBRANCH   7   8
ENDBRANCH   6   7
ENDBRANCH   5   6
ENDBRANCH   4   5
ENDBRANCH   3   4
ENDBRANCH   2   3
ENDBRANCH   1   2
BRANCH   1  13
ATOM     13  C   UNL     1     -12.821 -18.732  22.418  1.00  0.00     0.000 C 
BRANCH  13  14
ATOM     14  C   UNL     1     -11.705 -19.785  22.563  1.00  0.00     0.000 C 
BRANCH  14  15
ATOM     15  C   UNL     1     -12.177 -21.172  23.039  1.00  0.00     0.000 C 
BRANCH  15  16
ATOM     16  C   UNL     1     -13.691 -21.293  23.310  1.00  0.00     0.000 C 
BRANCH  16  17
ATOM     17  C   UNL     1     -14.110 -22.535  24.116  1.00  0.00     0.000 C 
BRANCH  17  18
ATOM     18  C   UNL     1     -15.275 -23.301  23.467  1.00  0.00     0.000 C 
BRANCH  18  19
ATOM     19  C   UNL     1     -16.645 -22.850  23.997  1.00  0.00     0.000 C 
BRANCH  19  20
ATOM     20  C   UNL     1     -16.557 -22.230  25.404  1.00  0.00     0.006 C 
BRANCH  20  21
ATOM     21  C   UNL     1     -17.894 -22.302  26.152  1.00  0.00     0.053 C 
BRANCH  21  22
ATOM     22  C   UNL     1     -18.335 -23.718  26.360  1.00  0.00     0.041 C 
ATOM     23  O   UNL     1     -19.387 -24.142  25.812  1.00  0.00    -0.550 OA
ATOM     24  O   UNL     1     -17.603 -24.560  27.187  1.00  0.00    -0.550 OA
ENDBRANCH  21  22
ENDBRANCH  20  21
ENDBRANCH  19  20
ENDBRANCH  18  19
ENDBRANCH  17  18
ENDBRANCH  16  17
ENDBRANCH  15  16
ENDBRANCH  14  15
ENDBRANCH  13  14
ENDBRANCH   1  13
TORSDOF 20
ENDMDL
MODEL 5
REMARK VINA RESULT:    -3.048      1.335      5.108
REMARK INTER + INTRA:          -9.686
REMARK INTER:                  -6.576
REMARK INTRA:                  -3.109
REMARK UNBOUND:                -3.075
REMARK SMILES CCCCCCCCCCCCCCCCCCCCCC(=O)[O-]
REMARK SMILES IDX 12 1 11 2 10 3 9 4 8 5 7 6 6 7 5 8 4 9 3 10 2 11 1 12 13 13
REMARK SMILES IDX 14 14 15 15 16 16 17 17 18 18 19 19 20 20 21 21 22 22 23 23
REMARK SMILES IDX 24 24
REMARK H PARENT
REMARK Flexibility Score: inf
ROOT
ATOM      1  C   UNL     1     -18.398 -24.319  24.603  1.00  0.00     0.000 C 
ENDROOT
BRANCH   1   2
ATOM      2  C   UNL     1     -18.699 -24.083  26.094  1.00  0.00     0.000 C 
BRANCH   2   3
ATOM      3  C   UNL     1     -18.715 -22.590  26.463  1.00  0.00     0.000 C 
BRANCH   3   4
ATOM      4  C   UNL     1     -17.519 -22.192  27.345  1.00  0.00    -0.000 C 
BRANCH   4   5
ATOM      5  C   UNL     1     -16.896 -23.387  28.091  1.00  0.00    -0.000 C 
BRANCH   5   6
ATOM      6  C   UNL     1     -15.437 -23.708  27.717  1.00  0.00    -0.000 C 
BRANCH   6   7
ATOM      7  C   UNL     1     -14.735 -22.551  26.988  1.00  0.00    -0.000 C 
BRANCH   7   8
ATOM      8  C   UNL     1     -13.287 -22.887  26.585  1.00  0.00    -0.000 C 
BRANCH   8   9
ATOM      9  C   UNL     1     -12.594 -21.843  25.684  1.00  0.00    -0.000 C 
BRANCH   9  10
ATOM     10  C   UNL     1     -13.355 -20.513  25.518  1.00  0.00    -0.000 C 
BRANCH  10  11
ATOM     11  C   UNL     1     -12.727 -19.596  24.457  1.00  0.00    -0.003 C 
ATOM     12  C   UNL     1     -12.808 -18.132  24.880  1.00  0.00     0.004 C 
ENDBRANCH  10  11
ENDBRANCH   9  10
ENDBRANCH   8   9
ENDBRANCH   7   8
ENDBRANCH   6   7
ENDBRANCH   5   6
ENDBRANCH   4   5
ENDBRANCH   3   4
ENDBRANCH   2   3
ENDBRANCH   1   2
BRANCH   1  13
ATOM     13  C   UNL     1     -16.890 -24.227  24.282  1.00  0.00     0.000 C 
BRANCH  13  14
ATOM     14  C   UNL     1     -16.460 -22.869  23.693  1.00  0.00     0.000 C 
BRANCH  14  15
ATOM     15  C   UNL     1     -14.998 -22.802  23.213  1.00  0.00     0.000 C 
BRANCH  15  16
ATOM     16  C   UNL     1     -14.241 -24.147  23.222  1.00  0.00     0.000 C 
BRANCH  16  17
ATOM     17  C   UNL     1     -13.187 -24.307  22.114  1.00  0.00     0.000 C 
BRANCH  17  18
ATOM     18  C   UNL     1     -12.720 -22.959  21.537  1.00  0.00     0.000 C 
BRANCH  18  19
ATOM     19  C   UNL     1     -13.024 -22.824  20.036  1.00  0.00     0.000 C 
BRANCH  19  20
ATOM     20  C   UNL     1     -12.967 -21.363  19.553  1.00  0.00     0.006 C 
BRANCH  20  21
ATOM     21  C   UNL     1     -12.644 -20.390  20.694  1.00  0.00     0.053 C 
BRANCH  21  22
ATOM     22  C   UNL     1     -12.907 -18.969  20.300  1.00  0.00     0.041 C 
ATOM     23  O   UNL     1     -13.076 -18.667  19.089  1.00  0.00    -0.550 OA
ATOM     24  O   UNL     1     -12.933 -17.972  21.268  1.00  0.00    -0.550 OA
ENDBRANCH  21  22
ENDBRANCH  20  21
ENDBRANCH  19  20
ENDBRANCH  18  19
ENDBRANCH  17  18
ENDBRANCH  16  17
ENDBRANCH  15  16
ENDBRANCH  14  15
ENDBRANCH  13  14
ENDBRANCH   1  13
TORSDOF 20
ENDMDL
MODEL 6
REMARK VINA RESULT:    -3.040      3.424      6.429
REMARK INTER + INTRA:          -9.670
REMARK INTER:                  -7.277
REMARK INTRA:                  -2.393
REMARK UNBOUND:                -3.075
REMARK SMILES CCCCCCCCCCCCCCCCCCCCCC(=O)[O-]
REMARK SMILES IDX 12 1 11 2 10 3 9 4 8 5 7 6 6 7 5 8 4 9 3 10 2 11 1 12 13 13
REMARK SMILES IDX 14 14 15 15 16 16 17 17 18 18 19 19 20 20 21 21 22 22 23 23
REMARK SMILES IDX 24 24
REMARK H PARENT
REMARK Flexibility Score: inf
ROOT
ATOM      1  C   UNL     1     -13.124 -21.651  20.878  1.00  0.00     0.000 C 
ENDROOT
BRANCH   1   2
ATOM      2  C   UNL     1     -13.122 -22.301  19.482  1.00  0.00     0.000 C 
BRANCH   2   3
ATOM      3  C   UNL     1     -12.794 -21.295  18.365  1.00  0.00     0.000 C 
BRANCH   3   4
ATOM      4  C   UNL     1     -11.285 -21.015  18.253  1.00  0.00    -0.000 C 
BRANCH   4   5
ATOM      5  C   UNL     1     -10.973 -19.607  17.713  1.00  0.00    -0.000 C 
BRANCH   5   6
ATOM      6  C   UNL     1     -11.923 -18.493  18.192  1.00  0.00    -0.000 C 
BRANCH   6   7
ATOM      7  C   UNL     1     -11.707 -17.161  17.455  1.00  0.00    -0.000 C 
BRANCH   7   8
ATOM      8  C   UNL     1     -11.285 -17.351  15.986  1.00  0.00    -0.000 C 
BRANCH   8   9
ATOM      9  C   UNL     1     -11.980 -16.416  14.974  1.00  0.00    -0.000 C 
BRANCH   9  10
ATOM     10  C   UNL     1     -11.723 -14.912  15.188  1.00  0.00    -0.000 C 
BRANCH  10  11
ATOM     11  C   UNL     1     -12.609 -14.024  14.301  1.00  0.00    -0.003 C 
ATOM     12  C   UNL     1     -12.317 -14.261  12.822  1.00  0.00     0.004 C 
ENDBRANCH  10  11
ENDBRANCH   9  10
ENDBRANCH   8   9
ENDBRANCH   7   8
ENDBRANCH   6   7
ENDBRANCH   5   6
ENDBRANCH   4   5
ENDBRANCH   3   4
ENDBRANCH   2   3
ENDBRANCH   1   2
BRANCH   1  13
ATOM     13  C   UNL     1     -13.905 -20.319  20.910  1.00  0.00     0.000 C 
BRANCH  13  14
ATOM     14  C   UNL     1     -13.146 -19.168  21.598  1.00  0.00     0.000 C 
BRANCH  14  15
ATOM     15  C   UNL     1     -11.681 -19.477  21.957  1.00  0.00     0.000 C 
BRANCH  15  16
ATOM     16  C   UNL     1     -11.371 -19.528  23.468  1.00  0.00     0.000 C 
BRANCH  16  17
ATOM     17  C   UNL     1     -11.908 -20.770  24.199  1.00  0.00     0.000 C 
BRANCH  17  18
ATOM     18  C   UNL     1     -13.261 -20.517  24.887  1.00  0.00     0.000 C 
BRANCH  18  19
ATOM     19  C   UNL     1     -13.843 -21.788  25.526  1.00  0.00     0.000 C 
BRANCH  19  20
ATOM     20  C   UNL     1     -14.087 -22.906  24.495  1.00  0.00     0.006 C 
BRANCH  20  21
ATOM     21  C   UNL     1     -15.308 -22.621  23.611  1.00  0.00     0.053 C 
BRANCH  21  22
ATOM     22  C   UNL     1     -16.552 -23.241  24.170  1.00  0.00     0.041 C 
ATOM     23  O   UNL     1     -16.862 -24.424  23.867  1.00  0.00    -0.550 OA
ATOM     24  O   UNL     1     -17.386 -22.502  24.999  1.00  0.00    -0.550 OA
ENDBRANCH  21  22
ENDBRANCH  20  21
ENDBRANCH  19  20
ENDBRANCH  18  19
ENDBRANCH  17  18
ENDBRANCH  16  17
ENDBRANCH  15  16
ENDBRANCH  14  15
ENDBRANCH  13  14
ENDBRANCH   1  13
TORSDOF 20
ENDMDL
MODEL 7
REMARK VINA RESULT:    -3.025      2.155      6.481
REMARK INTER + INTRA:          -9.638
REMARK INTER:                  -6.594
REMARK INTRA:                  -3.044
REMARK UNBOUND:                -3.075
REMARK SMILES CCCCCCCCCCCCCCCCCCCCCC(=O)[O-]
REMARK SMILES IDX 12 1 11 2 10 3 9 4 8 5 7 6 6 7 5 8 4 9 3 10 2 11 1 12 13 13
REMARK SMILES IDX 14 14 15 15 16 16 17 17 18 18 19 19 20 20 21 21 22 22 23 23
REMARK SMILES IDX 24 24
REMARK H PARENT
REMARK Flexibility Score: inf
ROOT
ATOM      1  C   UNL     1     -13.221 -21.388  18.634  1.00  0.00     0.000 C 
ENDROOT
BRANCH   1   2
ATOM      2  C   UNL     1     -11.834 -20.870  18.211  1.00  0.00     0.000 C 
BRANCH   2   3
ATOM      3  C   UNL     1     -11.619 -19.392  18.579  1.00  0.00     0.000 C 
BRANCH   3   4
ATOM      4  C   UNL     1     -12.879 -18.750  19.185  1.00  0.00    -0.000 C 
BRANCH   4   5
ATOM      5  C   UNL     1     -12.745 -18.468  20.693  1.00  0.00    -0.000 C 
BRANCH   5   6
ATOM      6  C   UNL     1     -11.345 -18.716  21.288  1.00  0.00    -0.000 C 
BRANCH   6   7
ATOM      7  C   UNL     1     -11.358 -18.850  22.819  1.00  0.00    -0.000 C 
BRANCH   7   8
ATOM      8  C   UNL     1     -12.752 -18.612  23.430  1.00  0.00    -0.000 C 
BRANCH   8   9
ATOM      9  C   UNL     1     -12.755 -18.019  24.854  1.00  0.00    -0.000 C 
BRANCH   9  10
ATOM     10  C   UNL     1     -12.411 -19.014  25.979  1.00  0.00    -0.000 C 
BRANCH  10  11
ATOM     11  C   UNL     1     -13.329 -20.246  25.986  1.00  0.00    -0.003 C 
ATOM     12  C   UNL     1     -12.524 -21.531  25.808  1.00  0.00     0.004 C 
ENDBRANCH  10  11
ENDBRANCH   9  10
ENDBRANCH   8   9
ENDBRANCH   7   8
ENDBRANCH   6   7
ENDBRANCH   5   6
ENDBRANCH   4   5
ENDBRANCH   3   4
ENDBRANCH   2   3
ENDBRANCH   1   2
BRANCH   1  13
ATOM     13  C   UNL     1     -13.137 -22.534  19.664  1.00  0.00     0.000 C 
BRANCH  13  14
ATOM     14  C   UNL     1     -11.986 -22.378  20.678  1.00  0.00     0.000 C 
BRANCH  14  15
ATOM     15  C   UNL     1     -12.428 -22.248  22.148  1.00  0.00     0.000 C 
BRANCH  15  16
ATOM     16  C   UNL     1     -13.943 -22.051  22.364  1.00  0.00     0.000 C 
BRANCH  16  17
ATOM     17  C   UNL     1     -14.612 -23.099  23.269  1.00  0.00     0.000 C 
BRANCH  17  18
ATOM     18  C   UNL     1     -16.016 -22.676  23.734  1.00  0.00     0.000 C 
BRANCH  18  19
ATOM     19  C   UNL     1     -16.934 -23.878  24.004  1.00  0.00     0.000 C 
BRANCH  19  20
ATOM     20  C   UNL     1     -17.550 -23.843  25.415  1.00  0.00     0.006 C 
BRANCH  20  21
ATOM     21  C   UNL     1     -17.998 -22.431  25.815  1.00  0.00     0.053 C 
BRANCH  21  22
ATOM     22  C   UNL     1     -17.476 -22.047  27.164  1.00  0.00     0.041 C 
ATOM     23  O   UNL     1     -18.259 -21.599  28.044  1.00  0.00    -0.550 OA
ATOM     24  O   UNL     1     -16.118 -22.151  27.441  1.00  0.00    -0.550 OA
ENDBRANCH  21  22
ENDBRANCH  20  21
ENDBRANCH  19  20
ENDBRANCH  18  19
ENDBRANCH  17  18
ENDBRANCH  16  17
ENDBRANCH  15  16
ENDBRANCH  14  15
ENDBRANCH  13  14
ENDBRANCH   1  13
TORSDOF 20
ENDMDL
MODEL 8
REMARK VINA RESULT:    -3.023      2.690      5.720
REMARK INTER + INTRA:          -9.633
REMARK INTER:                  -6.118
REMARK INTRA:                  -3.515
REMARK UNBOUND:                -3.075
REMARK SMILES CCCCCCCCCCCCCCCCCCCCCC(=O)[O-]
REMARK SMILES IDX 12 1 11 2 10 3 9 4 8 5 7 6 6 7 5 8 4 9 3 10 2 11 1 12 13 13
REMARK SMILES IDX 14 14 15 15 16 16 17 17 18 18 19 19 20 20 21 21 22 22 23 23
REMARK SMILES IDX 24 24
REMARK H PARENT
REMARK Flexibility Score: inf
ROOT
ATOM      1  C   UNL     1     -13.137 -22.859  21.533  1.00  0.00     0.000 C 
ENDROOT
BRANCH   1   2
ATOM      2  C   UNL     1     -12.584 -22.683  20.107  1.00  0.00     0.000 C 
BRANCH   2   3
ATOM      3  C   UNL     1     -13.390 -21.663  19.284  1.00  0.00     0.000 C 
BRANCH   3   4
ATOM      4  C   UNL     1     -12.527 -20.481  18.810  1.00  0.00    -0.000 C 
BRANCH   4   5
ATOM      5  C   UNL     1     -13.132 -19.111  19.171  1.00  0.00    -0.000 C 
BRANCH   5   6
ATOM      6  C   UNL     1     -12.622 -18.492  20.486  1.00  0.00    -0.000 C 
BRANCH   6   7
ATOM      7  C   UNL     1     -11.245 -19.030  20.908  1.00  0.00    -0.000 C 
BRANCH   7   8
ATOM      8  C   UNL     1     -10.903 -18.716  22.377  1.00  0.00    -0.000 C 
BRANCH   8   9
ATOM      9  C   UNL     1     -11.863 -17.735  23.083  1.00  0.00    -0.000 C 
BRANCH   9  10
ATOM     10  C   UNL     1     -11.715 -17.663  24.615  1.00  0.00    -0.000 C 
BRANCH  10  11
ATOM     11  C   UNL     1     -12.985 -18.104  25.357  1.00  0.00    -0.003 C 
ATOM     12  C   UNL     1     -12.638 -18.859  26.638  1.00  0.00     0.004 C 
ENDBRANCH  10  11
ENDBRANCH   9  10
ENDBRANCH   8   9
ENDBRANCH   7   8
ENDBRANCH   6   7
ENDBRANCH   5   6
ENDBRANCH   4   5
ENDBRANCH   3   4
ENDBRANCH   2   3
ENDBRANCH   1   2
BRANCH   1  13
ATOM     13  C   UNL     1     -13.939 -21.630  22.012  1.00  0.00     0.000 C 
BRANCH  13  14
ATOM     14  C   UNL     1     -13.511 -21.108  23.398  1.00  0.00     0.000 C 
BRANCH  14  15
ATOM     15  C   UNL     1     -12.265 -21.789  23.993  1.00  0.00     0.000 C 
BRANCH  15  16
ATOM     16  C   UNL     1     -12.548 -22.813  25.113  1.00  0.00     0.000 C 
BRANCH  16  17
ATOM     17  C   UNL     1     -13.628 -22.389  26.123  1.00  0.00     0.000 C 
BRANCH  17  18
ATOM     18  C   UNL     1     -14.800 -23.382  26.194  1.00  0.00     0.000 C 
BRANCH  18  19
ATOM     19  C   UNL     1     -15.161 -23.966  24.818  1.00  0.00     0.000 C 
BRANCH  19  20
ATOM     20  C   UNL     1     -16.527 -23.471  24.309  1.00  0.00     0.006 C 
BRANCH  20  21
ATOM     21  C   UNL     1     -17.124 -22.387  25.217  1.00  0.00     0.053 C 
BRANCH  21  22
ATOM     22  C   UNL     1     -18.270 -22.912  26.025  1.00  0.00     0.041 C 
ATOM     23  O   UNL     1     -18.439 -22.527  27.213  1.00  0.00    -0.550 OA
ATOM     24  O   UNL     1     -19.135 -23.852  25.477  1.00  0.00    -0.550 OA
ENDBRANCH  21  22
ENDBRANCH  20  21
ENDBRANCH  19  20
ENDBRANCH  18  19
ENDBRANCH  17  18
ENDBRANCH  16  17
ENDBRANCH  15  16
ENDBRANCH  14  15
ENDBRANCH  13  14
ENDBRANCH   1  13
TORSDOF 20
ENDMDL
MODEL 9
REMARK VINA RESULT:    -3.001      1.528      6.945
REMARK INTER + INTRA:          -9.584
REMARK INTER:                  -6.852
REMARK INTRA:                  -2.732
REMARK UNBOUND:                -3.075
REMARK SMILES CCCCCCCCCCCCCCCCCCCCCC(=O)[O-]
REMARK SMILES IDX 12 1 11 2 10 3 9 4 8 5 7 6 6 7 5 8 4 9 3 10 2 11 1 12 13 13
REMARK SMILES IDX 14 14 15 15 16 16 17 17 18 18 19 19 20 20 21 21 22 22 23 23
REMARK SMILES IDX 24 24
REMARK H PARENT
REMARK Flexibility Score: inf
ROOT
ATOM      1  C   UNL     1     -14.520 -22.341  23.373  1.00  0.00     0.000 C 
ENDROOT
BRANCH   1   2
ATOM      2  C   UNL     1     -13.881 -22.387  24.773  1.00  0.00     0.000 C 
BRANCH   2   3
ATOM      3  C   UNL     1     -13.837 -21.005  25.448  1.00  0.00     0.000 C 
BRANCH   3   4
ATOM      4  C   UNL     1     -14.500 -21.009  26.836  1.00  0.00    -0.000 C 
BRANCH   4   5
ATOM      5  C   UNL     1     -15.348 -22.269  27.095  1.00  0.00    -0.000 C 
BRANCH   5   6
ATOM      6  C   UNL     1     -16.681 -22.025  27.827  1.00  0.00    -0.000 C 
BRANCH   6   7
ATOM      7  C   UNL     1     -17.865 -21.822  26.868  1.00  0.00    -0.000 C 
BRANCH   7   8
ATOM      8  C   UNL     1     -17.640 -22.475  25.492  1.00  0.00    -0.000 C 
BRANCH   8   9
ATOM      9  C   UNL     1     -18.383 -23.808  25.264  1.00  0.00    -0.000 C 
BRANCH   9  10
ATOM     10  C   UNL     1     -17.824 -24.683  24.126  1.00  0.00    -0.000 C 
BRANCH  10  11
ATOM     11  C   UNL     1     -16.415 -25.220  24.424  1.00  0.00    -0.003 C 
ATOM     12  C   UNL     1     -16.358 -25.878  25.800  1.00  0.00     0.004 C 
ENDBRANCH  10  11
ENDBRANCH   9  10
ENDBRANCH   8   9
ENDBRANCH   7   8
ENDBRANCH   6   7
ENDBRANCH   5   6
ENDBRANCH   4   5
ENDBRANCH   3   4
ENDBRANCH   2   3
ENDBRANCH   1   2
BRANCH   1  13
ATOM     13  C   UNL     1     -13.736 -23.173  22.337  1.00  0.00     0.000 C 
BRANCH  13  14
ATOM     14  C   UNL     1     -12.301 -22.668  22.088  1.00  0.00     0.000 C 
BRANCH  14  15
ATOM     15  C   UNL     1     -11.937 -22.448  20.607  1.00  0.00     0.000 C 
BRANCH  15  16
ATOM     16  C   UNL     1     -13.129 -22.467  19.628  1.00  0.00     0.000 C 
BRANCH  16  17
ATOM     17  C   UNL     1     -13.089 -21.385  18.534  1.00  0.00     0.000 C 
BRANCH  17  18
ATOM     18  C   UNL     1     -11.665 -20.875  18.254  1.00  0.00     0.000 C 
BRANCH  18  19
ATOM     19  C   UNL     1     -11.644 -19.407  17.799  1.00  0.00     0.000 C 
BRANCH  19  20
ATOM     20  C   UNL     1     -12.361 -18.473  18.791  1.00  0.00     0.006 C 
BRANCH  20  21
ATOM     21  C   UNL     1     -11.677 -18.453  20.164  1.00  0.00     0.053 C 
BRANCH  21  22
ATOM     22  C   UNL     1     -12.676 -18.395  21.278  1.00  0.00     0.041 C 
ATOM     23  O   UNL     1     -13.463 -19.359  21.476  1.00  0.00    -0.550 OA
ATOM     24  O   UNL     1     -12.760 -17.262  22.078  1.00  0.00    -0.550 OA
ENDBRANCH  21  22
ENDBRANCH  20  21
ENDBRANCH  19  20
ENDBRANCH  18  19
ENDBRANCH  17  18
ENDBRANCH  16  17
ENDBRANCH  15  16
ENDBRANCH  14  15
ENDBRANCH  13  14
ENDBRANCH   1  13
TORSDOF 20
ENDMDL
