MODEL 1
REMARK VINA RESULT:    -6.846      0.000      0.000
REMARK INTER + INTRA:          -8.271
REMARK INTER:                  -8.247
REMARK INTRA:                  -0.024
REMARK UNBOUND:                -0.024
REMARK SMILES O=c1c(O)c(-c2ccc(O)c(O)c2)oc2cc(O)cc(O)c12
REMARK SMILES IDX 5 1 3 2 2 3 1 4 22 5 20 6 19 7 17 8 16 9 15 10 14 11 6 12
REMARK SMILES IDX 7 13 8 14 9 15 13 16 11 17 10 18 12 20 4 22 21 24 18 26
REMARK H PARENT 10 19 12 21 4 23 21 25 18 27
REMARK Flexibility Score: inf
ROOT
ATOM      1  C   UNL     1       9.709 -13.514 -24.033  1.00  0.00     0.180 A 
ATOM      2  C   UNL     1       9.694 -13.573 -22.627  1.00  0.00     0.208 A 
ATOM      3  C   UNL     1      10.055 -14.771 -21.992  1.00  0.00     0.238 A 
ATOM      4  O   UNL     1      10.092 -14.802 -20.734  1.00  0.00    -0.285 OA
ATOM      5  C   UNL     1      10.414 -15.900 -22.768  1.00  0.00     0.111 A 
ATOM      6  C   UNL     1      10.758 -17.176 -22.231  1.00  0.00     0.134 A 
ATOM      7  C   UNL     1      11.222 -18.183 -23.086  1.00  0.00     0.093 A 
ATOM      8  C   UNL     1      11.291 -17.983 -24.464  1.00  0.00     0.123 A 
ATOM      9  C   UNL     1      10.899 -16.758 -25.007  1.00  0.00     0.094 A 
ATOM     10  C   UNL     1      10.467 -15.722 -24.176  1.00  0.00     0.146 A 
ATOM     11  O   UNL     1      10.113 -14.569 -24.731  1.00  0.00    -0.452 OA
ENDROOT
BRANCH   1  12
ATOM     12  C   UNL     1       9.317 -12.293 -24.774  1.00  0.00     0.025 A 
ATOM     13  C   UNL     1       8.291 -12.366 -25.729  1.00  0.00     0.016 A 
ATOM     14  C   UNL     1       7.889 -11.222 -26.424  1.00  0.00     0.051 A 
ATOM     15  C   UNL     1       8.495  -9.989 -26.166  1.00  0.00     0.157 A 
ATOM     16  C   UNL     1       9.910 -11.048 -24.499  1.00  0.00     0.062 A 
ATOM     17  C   UNL     1       9.507  -9.898 -25.196  1.00  0.00     0.158 A 
BRANCH  15  18
ATOM     18  O   UNL     1       8.075  -8.866 -26.878  1.00  0.00    -0.504 OA
ATOM     19  H   UNL     1       7.895  -8.897 -27.874  1.00  0.00     0.293 HD
ENDBRANCH  15  18
BRANCH  17  20
ATOM     20  O   UNL     1      10.105  -8.670 -24.923  1.00  0.00    -0.504 OA
ATOM     21  H   UNL     1      10.120  -7.923 -25.607  1.00  0.00     0.293 HD
ENDBRANCH  17  20
ENDBRANCH   1  12
BRANCH   2  22
ATOM     22  O   UNL     1       9.357 -12.441 -21.881  1.00  0.00    -0.502 OA
ATOM     23  H   UNL     1       8.397 -12.178 -21.692  1.00  0.00     0.293 HD
ENDBRANCH   2  22
BRANCH   6  24
ATOM     24  O   UNL     1      10.639 -17.512 -20.879  1.00  0.00    -0.507 OA
ATOM     25  H   UNL     1      11.384 -17.442 -20.201  1.00  0.00     0.293 HD
ENDBRANCH   6  24
BRANCH   8  26
ATOM     26  O   UNL     1      11.742 -19.012 -25.288  1.00  0.00    -0.508 OA
ATOM     27  H   UNL     1      11.500 -19.049 -26.271  1.00  0.00     0.293 HD
ENDBRANCH   8  26
TORSDOF 6
ENDMDL
MODEL 2
REMARK VINA RESULT:    -6.790      1.679      2.644
REMARK INTER + INTRA:          -8.203
REMARK INTER:                  -8.019
REMARK INTRA:                  -0.184
REMARK UNBOUND:                -0.024
REMARK SMILES O=c1c(O)c(-c2ccc(O)c(O)c2)oc2cc(O)cc(O)c12
REMARK SMILES IDX 5 1 3 2 2 3 1 4 22 5 20 6 19 7 17 8 16 9 15 10 14 11 6 12
REMARK SMILES IDX 7 13 8 14 9 15 13 16 11 17 10 18 12 20 4 22 21 24 18 26
REMARK H PARENT 10 19 12 21 4 23 21 25 18 27
REMARK Flexibility Score: inf
ROOT
ATOM      1  C   UNL     1       9.940 -15.400 -23.615  1.00  0.00     0.180 A 
ATOM      2  C   UNL     1       9.473 -16.067 -22.467  1.00  0.00     0.208 A 
ATOM      3  C   UNL     1       9.482 -17.470 -22.444  1.00  0.00     0.238 A 
ATOM      4  O   UNL     1       9.114 -18.060 -21.395  1.00  0.00    -0.285 OA
ATOM      5  C   UNL     1       9.944 -18.190 -23.573  1.00  0.00     0.111 A 
ATOM      6  C   UNL     1       9.959 -19.614 -23.674  1.00  0.00     0.134 A 
ATOM      7  C   UNL     1      10.559 -20.220 -24.785  1.00  0.00     0.093 A 
ATOM      8  C   UNL     1      11.082 -19.456 -25.827  1.00  0.00     0.123 A 
ATOM      9  C   UNL     1      11.017 -18.063 -25.767  1.00  0.00     0.094 A 
ATOM     10  C   UNL     1      10.459 -17.429 -24.655  1.00  0.00     0.146 A 
ATOM     11  O   UNL     1      10.426 -16.102 -24.631  1.00  0.00    -0.452 OA
ENDROOT
BRANCH   1  12
ATOM     12  C   UNL     1       9.937 -13.923 -23.723  1.00  0.00     0.025 A 
ATOM     13  C   UNL     1       9.049 -13.297 -24.611  1.00  0.00     0.016 A 
ATOM     14  C   UNL     1       9.014 -11.904 -24.713  1.00  0.00     0.051 A 
ATOM     15  C   UNL     1       9.853 -11.116 -23.920  1.00  0.00     0.157 A 
ATOM     16  C   UNL     1      10.765 -13.128 -22.910  1.00  0.00     0.062 A 
ATOM     17  C   UNL     1      10.731 -11.729 -23.010  1.00  0.00     0.158 A 
BRANCH  15  18
ATOM     18  O   UNL     1       9.798  -9.728 -24.046  1.00  0.00    -0.504 OA
ATOM     19  H   UNL     1       9.074  -9.266 -24.582  1.00  0.00     0.293 HD
ENDBRANCH  15  18
BRANCH  17  20
ATOM     20  O   UNL     1      11.560 -10.949 -22.206  1.00  0.00    -0.504 OA
ATOM     21  H   UNL     1      12.232 -11.366 -21.574  1.00  0.00     0.293 HD
ENDBRANCH  17  20
ENDBRANCH   1  12
BRANCH   2  22
ATOM     22  O   UNL     1       9.042 -15.336 -21.357  1.00  0.00    -0.502 OA
ATOM     23  H   UNL     1       8.992 -15.736 -20.427  1.00  0.00     0.293 HD
ENDBRANCH   2  22
BRANCH   6  24
ATOM     24  O   UNL     1       9.382 -20.470 -22.732  1.00  0.00    -0.507 OA
ATOM     25  H   UNL     1       8.423 -20.782 -22.751  1.00  0.00     0.293 HD
ENDBRANCH   6  24
BRANCH   8  26
ATOM     26  O   UNL     1      11.656 -20.093 -26.926  1.00  0.00    -0.508 OA
ATOM     27  H   UNL     1      11.130 -20.746 -27.495  1.00  0.00     0.293 HD
ENDBRANCH   8  26
TORSDOF 6
ENDMDL
MODEL 3
REMARK VINA RESULT:    -6.555      3.059      5.912
REMARK INTER + INTRA:          -7.921
REMARK INTER:                  -7.622
REMARK INTRA:                  -0.299
REMARK UNBOUND:                -0.024
REMARK SMILES O=c1c(O)c(-c2ccc(O)c(O)c2)oc2cc(O)cc(O)c12
REMARK SMILES IDX 5 1 3 2 2 3 1 4 22 5 20 6 19 7 17 8 16 9 15 10 14 11 6 12
REMARK SMILES IDX 7 13 8 14 9 15 13 16 11 17 10 18 12 20 4 22 21 24 18 26
REMARK H PARENT 10 19 12 21 4 23 21 25 18 27
REMARK Flexibility Score: inf
ROOT
ATOM      1  C   UNL     1      10.519 -16.599 -24.698  1.00  0.00     0.180 A 
ATOM      2  C   UNL     1       9.945 -17.486 -23.770  1.00  0.00     0.208 A 
ATOM      3  C   UNL     1       9.694 -17.037 -22.464  1.00  0.00     0.238 A 
ATOM      4  O   UNL     1       9.131 -17.818 -21.654  1.00  0.00    -0.285 OA
ATOM      5  C   UNL     1      10.033 -15.712 -22.097  1.00  0.00     0.111 A 
ATOM      6  C   UNL     1       9.861 -15.165 -20.791  1.00  0.00     0.134 A 
ATOM      7  C   UNL     1      10.110 -13.803 -20.574  1.00  0.00     0.093 A 
ATOM      8  C   UNL     1      10.587 -12.987 -21.598  1.00  0.00     0.123 A 
ATOM      9  C   UNL     1      10.818 -13.526 -22.866  1.00  0.00     0.094 A 
ATOM     10  C   UNL     1      10.544 -14.872 -23.121  1.00  0.00     0.146 A 
ATOM     11  O   UNL     1      10.766 -15.344 -24.342  1.00  0.00    -0.452 OA
ENDROOT
BRANCH   1  12
ATOM     12  C   UNL     1      10.836 -17.007 -26.086  1.00  0.00     0.025 A 
ATOM     13  C   UNL     1       9.825 -16.990 -27.059  1.00  0.00     0.016 A 
ATOM     14  C   UNL     1      10.107 -17.350 -28.379  1.00  0.00     0.051 A 
ATOM     15  C   UNL     1      11.403 -17.718 -28.751  1.00  0.00     0.157 A 
ATOM     16  C   UNL     1      12.145 -17.356 -26.465  1.00  0.00     0.062 A 
ATOM     17  C   UNL     1      12.430 -17.717 -27.791  1.00  0.00     0.158 A 
BRANCH  15  18
ATOM     18  O   UNL     1      11.653 -18.075 -30.075  1.00  0.00    -0.504 OA
ATOM     19  H   UNL     1      11.173 -17.635 -30.850  1.00  0.00     0.293 HD
ENDBRANCH  15  18
BRANCH  17  20
ATOM     20  O   UNL     1      13.728 -18.068 -28.157  1.00  0.00    -0.504 OA
ATOM     21  H   UNL     1      14.283 -17.485 -28.772  1.00  0.00     0.293 HD
ENDBRANCH  17  20
ENDBRANCH   1  12
BRANCH   2  22
ATOM     22  O   UNL     1       9.598 -18.783 -24.160  1.00  0.00    -0.502 OA
ATOM     23  H   UNL     1       8.686 -19.012 -24.536  1.00  0.00     0.293 HD
ENDBRANCH   2  22
BRANCH   6  24
ATOM     24  O   UNL     1       9.475 -15.913 -19.675  1.00  0.00    -0.507 OA
ATOM     25  H   UNL     1       9.205 -15.521 -18.785  1.00  0.00     0.293 HD
ENDBRANCH   6  24
BRANCH   8  26
ATOM     26  O   UNL     1      10.840 -11.641 -21.344  1.00  0.00    -0.508 OA
ATOM     27  H   UNL     1      10.900 -11.282 -20.397  1.00  0.00     0.293 HD
ENDBRANCH   8  26
TORSDOF 6
ENDMDL
MODEL 4
REMARK VINA RESULT:    -6.538      2.822      6.507
REMARK INTER + INTRA:          -7.900
REMARK INTER:                  -7.612
REMARK INTRA:                  -0.288
REMARK UNBOUND:                -0.024
REMARK SMILES O=c1c(O)c(-c2ccc(O)c(O)c2)oc2cc(O)cc(O)c12
REMARK SMILES IDX 5 1 3 2 2 3 1 4 22 5 20 6 19 7 17 8 16 9 15 10 14 11 6 12
REMARK SMILES IDX 7 13 8 14 9 15 13 16 11 17 10 18 12 20 4 22 21 24 18 26
REMARK H PARENT 10 19 12 21 4 23 21 25 18 27
REMARK Flexibility Score: inf
ROOT
ATOM      1  C   UNL     1       9.748 -16.693 -24.315  1.00  0.00     0.180 A 
ATOM      2  C   UNL     1       9.495 -15.380 -24.755  1.00  0.00     0.208 A 
ATOM      3  C   UNL     1       9.585 -14.325 -23.834  1.00  0.00     0.238 A 
ATOM      4  O   UNL     1       9.412 -13.148 -24.245  1.00  0.00    -0.285 OA
ATOM      5  C   UNL     1       9.911 -14.594 -22.482  1.00  0.00     0.111 A 
ATOM      6  C   UNL     1       9.989 -13.606 -21.456  1.00  0.00     0.134 A 
ATOM      7  C   UNL     1      10.448 -13.968 -20.183  1.00  0.00     0.093 A 
ATOM      8  C   UNL     1      10.766 -15.291 -19.882  1.00  0.00     0.123 A 
ATOM      9  C   UNL     1      10.635 -16.277 -20.862  1.00  0.00     0.094 A 
ATOM     10  C   UNL     1      10.216 -15.940 -22.151  1.00  0.00     0.146 A 
ATOM     11  O   UNL     1      10.115 -16.905 -23.057  1.00  0.00    -0.452 OA
ENDROOT
BRANCH   1  12
ATOM     12  C   UNL     1       9.649 -17.859 -25.222  1.00  0.00     0.025 A 
ATOM     13  C   UNL     1       8.384 -18.373 -25.550  1.00  0.00     0.016 A 
ATOM     14  C   UNL     1       8.266 -19.459 -26.421  1.00  0.00     0.051 A 
ATOM     15  C   UNL     1       9.405 -20.039 -26.987  1.00  0.00     0.157 A 
ATOM     16  C   UNL     1      10.792 -18.429 -25.810  1.00  0.00     0.062 A 
ATOM     17  C   UNL     1      10.675 -19.519 -26.685  1.00  0.00     0.158 A 
BRANCH  15  18
ATOM     18  O   UNL     1       9.255 -21.123 -27.850  1.00  0.00    -0.504 OA
ATOM     19  H   UNL     1       9.661 -22.029 -27.650  1.00  0.00     0.293 HD
ENDBRANCH  15  18
BRANCH  17  20
ATOM     20  O   UNL     1      11.814 -20.083 -27.258  1.00  0.00    -0.504 OA
ATOM     21  H   UNL     1      12.594 -20.395 -26.692  1.00  0.00     0.293 HD
ENDBRANCH  17  20
ENDBRANCH   1  12
BRANCH   2  22
ATOM     22  O   UNL     1       9.197 -15.135 -26.098  1.00  0.00    -0.502 OA
ATOM     23  H   UNL     1       8.612 -15.753 -26.647  1.00  0.00     0.293 HD
ENDBRANCH   2  22
BRANCH   6  24
ATOM     24  O   UNL     1       9.608 -12.272 -21.625  1.00  0.00    -0.507 OA
ATOM     25  H   UNL     1      10.220 -11.479 -21.505  1.00  0.00     0.293 HD
ENDBRANCH   6  24
BRANCH   8  26
ATOM     26  O   UNL     1      11.203 -15.619 -18.600  1.00  0.00    -0.508 OA
ATOM     27  H   UNL     1      11.207 -14.936 -17.850  1.00  0.00     0.293 HD
ENDBRANCH   8  26
TORSDOF 6
ENDMDL
MODEL 5
REMARK VINA RESULT:    -6.533      2.163      3.755
REMARK INTER + INTRA:          -7.894
REMARK INTER:                  -8.369
REMARK INTRA:                   0.475
REMARK UNBOUND:                -0.024
REMARK SMILES O=c1c(O)c(-c2ccc(O)c(O)c2)oc2cc(O)cc(O)c12
REMARK SMILES IDX 5 1 3 2 2 3 1 4 22 5 20 6 19 7 17 8 16 9 15 10 14 11 6 12
REMARK SMILES IDX 7 13 8 14 9 15 13 16 11 17 10 18 12 20 4 22 21 24 18 26
REMARK H PARENT 10 19 12 21 4 23 21 25 18 27
REMARK Flexibility Score: inf
ROOT
ATOM      1  C   UNL     1       9.114 -11.785 -24.457  1.00  0.00     0.180 A 
ATOM      2  C   UNL     1       8.670 -12.989 -25.034  1.00  0.00     0.208 A 
ATOM      3  C   UNL     1       8.795 -14.181 -24.303  1.00  0.00     0.238 A 
ATOM      4  O   UNL     1       8.347 -15.246 -24.802  1.00  0.00    -0.285 OA
ATOM      5  C   UNL     1       9.375 -14.158 -23.011  1.00  0.00     0.111 A 
ATOM      6  C   UNL     1       9.587 -15.312 -22.199  1.00  0.00     0.134 A 
ATOM      7  C   UNL     1      10.049 -15.156 -20.886  1.00  0.00     0.093 A 
ATOM      8  C   UNL     1      10.368 -13.897 -20.380  1.00  0.00     0.123 A 
ATOM      9  C   UNL     1      10.221 -12.767 -21.187  1.00  0.00     0.094 A 
ATOM     10  C   UNL     1       9.728 -12.887 -22.488  1.00  0.00     0.146 A 
ATOM     11  O   UNL     1       9.593 -11.787 -23.219  1.00  0.00    -0.452 OA
ENDROOT
BRANCH   1  12
ATOM     12  C   UNL     1       9.038 -10.492 -25.176  1.00  0.00     0.025 A 
ATOM     13  C   UNL     1       9.505  -9.326 -24.550  1.00  0.00     0.016 A 
ATOM     14  C   UNL     1       9.463  -8.099 -25.218  1.00  0.00     0.051 A 
ATOM     15  C   UNL     1       8.970  -8.022 -26.524  1.00  0.00     0.157 A 
ATOM     16  C   UNL     1       8.563 -10.417 -26.497  1.00  0.00     0.062 A 
ATOM     17  C   UNL     1       8.522  -9.186 -27.170  1.00  0.00     0.158 A 
BRANCH  15  18
ATOM     18  O   UNL     1       8.939  -6.784 -27.163  1.00  0.00    -0.504 OA
ATOM     19  H   UNL     1       9.763  -6.377 -27.589  1.00  0.00     0.293 HD
ENDBRANCH  15  18
BRANCH  17  20
ATOM     20  O   UNL     1       8.042  -9.118 -28.477  1.00  0.00    -0.504 OA
ATOM     21  H   UNL     1       7.139  -9.500 -28.731  1.00  0.00     0.293 HD
ENDBRANCH  17  20
ENDBRANCH   1  12
BRANCH   2  22
ATOM     22  O   UNL     1       8.081 -12.985 -26.301  1.00  0.00    -0.502 OA
ATOM     23  H   UNL     1       7.087 -12.842 -26.439  1.00  0.00     0.293 HD
ENDBRANCH   2  22
BRANCH   6  24
ATOM     24  O   UNL     1       9.387 -16.624 -22.638  1.00  0.00    -0.507 OA
ATOM     25  H   UNL     1       8.659 -16.912 -23.274  1.00  0.00     0.293 HD
ENDBRANCH   6  24
BRANCH   8  26
ATOM     26  O   UNL     1      10.841 -13.780 -19.074  1.00  0.00    -0.508 OA
ATOM     27  H   UNL     1      11.453 -14.478 -18.667  1.00  0.00     0.293 HD
ENDBRANCH   8  26
TORSDOF 6
ENDMDL
MODEL 6
REMARK VINA RESULT:    -6.481      2.087      7.225
REMARK INTER + INTRA:          -7.832
REMARK INTER:                  -8.262
REMARK INTRA:                   0.430
REMARK UNBOUND:                -0.024
REMARK SMILES O=c1c(O)c(-c2ccc(O)c(O)c2)oc2cc(O)cc(O)c12
REMARK SMILES IDX 5 1 3 2 2 3 1 4 22 5 20 6 19 7 17 8 16 9 15 10 14 11 6 12
REMARK SMILES IDX 7 13 8 14 9 15 13 16 11 17 10 18 12 20 4 22 21 24 18 26
REMARK H PARENT 10 19 12 21 4 23 21 25 18 27
REMARK Flexibility Score: inf
ROOT
ATOM      1  C   UNL     1       9.730 -12.921 -23.286  1.00  0.00     0.180 A 
ATOM      2  C   UNL     1       9.227 -13.587 -24.418  1.00  0.00     0.208 A 
ATOM      3  C   UNL     1       8.845 -12.833 -25.538  1.00  0.00     0.238 A 
ATOM      4  O   UNL     1       8.446 -13.439 -26.567  1.00  0.00    -0.285 OA
ATOM      5  C   UNL     1       8.956 -11.422 -25.509  1.00  0.00     0.111 A 
ATOM      6  C   UNL     1       8.561 -10.557 -26.573  1.00  0.00     0.134 A 
ATOM      7  C   UNL     1       8.838  -9.186 -26.487  1.00  0.00     0.093 A 
ATOM      8  C   UNL     1       9.434  -8.642 -25.351  1.00  0.00     0.123 A 
ATOM      9  C   UNL     1       9.770  -9.471 -24.278  1.00  0.00     0.094 A 
ATOM     10  C   UNL     1       9.540 -10.847 -24.350  1.00  0.00     0.146 A 
ATOM     11  O   UNL     1       9.884 -11.602 -23.314  1.00  0.00    -0.452 OA
ENDROOT
BRANCH   1  12
ATOM     12  C   UNL     1      10.130 -13.646 -22.058  1.00  0.00     0.025 A 
ATOM     13  C   UNL     1      10.266 -12.939 -20.853  1.00  0.00     0.016 A 
ATOM     14  C   UNL     1      10.620 -13.607 -19.677  1.00  0.00     0.051 A 
ATOM     15  C   UNL     1      10.830 -14.989 -19.685  1.00  0.00     0.157 A 
ATOM     16  C   UNL     1      10.319 -15.039 -22.060  1.00  0.00     0.062 A 
ATOM     17  C   UNL     1      10.674 -15.712 -20.880  1.00  0.00     0.158 A 
BRANCH  15  18
ATOM     18  O   UNL     1      11.186 -15.627 -18.497  1.00  0.00    -0.504 OA
ATOM     19  H   UNL     1      11.994 -16.234 -18.434  1.00  0.00     0.293 HD
ENDBRANCH  15  18
BRANCH  17  20
ATOM     20  O   UNL     1      10.868 -17.091 -20.892  1.00  0.00    -0.504 OA
ATOM     21  H   UNL     1      10.287 -17.714 -20.343  1.00  0.00     0.293 HD
ENDBRANCH  17  20
ENDBRANCH   1  12
BRANCH   2  22
ATOM     22  O   UNL     1       9.145 -14.983 -24.432  1.00  0.00    -0.502 OA
ATOM     23  H   UNL     1       9.758 -15.557 -24.999  1.00  0.00     0.293 HD
ENDBRANCH   2  22
BRANCH   6  24
ATOM     24  O   UNL     1       7.876 -10.984 -27.714  1.00  0.00    -0.507 OA
ATOM     25  H   UNL     1       7.643 -11.944 -27.919  1.00  0.00     0.293 HD
ENDBRANCH   6  24
BRANCH   8  26
ATOM     26  O   UNL     1       9.680  -7.272 -25.292  1.00  0.00    -0.508 OA
ATOM     27  H   UNL     1       8.983  -6.595 -25.581  1.00  0.00     0.293 HD
ENDBRANCH   8  26
TORSDOF 6
ENDMDL
MODEL 7
REMARK VINA RESULT:    -6.437      3.750      5.538
REMARK INTER + INTRA:          -7.778
REMARK INTER:                  -8.017
REMARK INTRA:                   0.238
REMARK UNBOUND:                -0.024
REMARK SMILES O=c1c(O)c(-c2ccc(O)c(O)c2)oc2cc(O)cc(O)c12
REMARK SMILES IDX 5 1 3 2 2 3 1 4 22 5 20 6 19 7 17 8 16 9 15 10 14 11 6 12
REMARK SMILES IDX 7 13 8 14 9 15 13 16 11 17 10 18 12 20 4 22 21 24 18 26
REMARK H PARENT 10 19 12 21 4 23 21 25 18 27
REMARK Flexibility Score: inf
ROOT
ATOM      1  C   UNL     1       9.720 -16.623 -23.099  1.00  0.00     0.180 A 
ATOM      2  C   UNL     1       9.207 -17.899 -22.804  1.00  0.00     0.208 A 
ATOM      3  C   UNL     1       8.898 -18.770 -23.860  1.00  0.00     0.238 A 
ATOM      4  O   UNL     1       8.492 -19.930 -23.589  1.00  0.00    -0.285 OA
ATOM      5  C   UNL     1       9.090 -18.350 -25.199  1.00  0.00     0.111 A 
ATOM      6  C   UNL     1       8.772 -19.135 -26.347  1.00  0.00     0.134 A 
ATOM      7  C   UNL     1       9.126 -18.670 -27.620  1.00  0.00     0.093 A 
ATOM      8  C   UNL     1       9.723 -17.423 -27.791  1.00  0.00     0.123 A 
ATOM      9  C   UNL     1       9.983 -16.620 -26.679  1.00  0.00     0.094 A 
ATOM     10  C   UNL     1       9.676 -17.072 -25.394  1.00  0.00     0.146 A 
ATOM     11  O   UNL     1       9.949 -16.283 -24.361  1.00  0.00    -0.452 OA
ENDROOT
BRANCH   1  12
ATOM     12  C   UNL     1      10.046 -15.641 -22.039  1.00  0.00     0.025 A 
ATOM     13  C   UNL     1       9.799 -14.277 -22.263  1.00  0.00     0.016 A 
ATOM     14  C   UNL     1      10.078 -13.336 -21.268  1.00  0.00     0.051 A 
ATOM     15  C   UNL     1      10.593 -13.742 -20.034  1.00  0.00     0.157 A 
ATOM     16  C   UNL     1      10.543 -16.051 -20.789  1.00  0.00     0.062 A 
ATOM     17  C   UNL     1      10.823 -15.107 -19.789  1.00  0.00     0.158 A 
BRANCH  15  18
ATOM     18  O   UNL     1      10.864 -12.780 -19.063  1.00  0.00    -0.504 OA
ATOM     19  H   UNL     1      11.679 -12.180 -19.113  1.00  0.00     0.293 HD
ENDBRANCH  15  18
BRANCH  17  20
ATOM     20  O   UNL     1      11.323 -15.520 -18.556  1.00  0.00    -0.504 OA
ATOM     21  H   UNL     1      10.719 -15.642 -17.752  1.00  0.00     0.293 HD
ENDBRANCH  17  20
ENDBRANCH   1  12
BRANCH   2  22
ATOM     22  O   UNL     1       9.046 -18.301 -21.475  1.00  0.00    -0.502 OA
ATOM     23  H   UNL     1       9.328 -17.722 -20.693  1.00  0.00     0.293 HD
ENDBRANCH   2  22
BRANCH   6  24
ATOM     24  O   UNL     1       8.093 -20.356 -26.295  1.00  0.00    -0.507 OA
ATOM     25  H   UNL     1       8.494 -21.223 -25.969  1.00  0.00     0.293 HD
ENDBRANCH   6  24
BRANCH   8  26
ATOM     26  O   UNL     1      10.046 -16.984 -29.074  1.00  0.00    -0.508 OA
ATOM     27  H   UNL     1       9.871 -17.559 -29.891  1.00  0.00     0.293 HD
ENDBRANCH   8  26
TORSDOF 6
ENDMDL
MODEL 8
REMARK VINA RESULT:    -6.305      3.750      5.485
REMARK INTER + INTRA:          -7.619
REMARK INTER:                  -7.511
REMARK INTRA:                  -0.108
REMARK UNBOUND:                -0.024
REMARK SMILES O=c1c(O)c(-c2ccc(O)c(O)c2)oc2cc(O)cc(O)c12
REMARK SMILES IDX 5 1 3 2 2 3 1 4 22 5 20 6 19 7 17 8 16 9 15 10 14 11 6 12
REMARK SMILES IDX 7 13 8 14 9 15 13 16 11 17 10 18 12 20 4 22 21 24 18 26
REMARK H PARENT 10 19 12 21 4 23 21 25 18 27
REMARK Flexibility Score: inf
ROOT
ATOM      1  C   UNL     1      10.302 -16.603 -23.368  1.00  0.00     0.180 A 
ATOM      2  C   UNL     1       9.384 -17.668 -23.353  1.00  0.00     0.208 A 
ATOM      3  C   UNL     1       9.304 -18.514 -24.471  1.00  0.00     0.238 A 
ATOM      4  O   UNL     1       8.520 -19.498 -24.431  1.00  0.00    -0.285 OA
ATOM      5  C   UNL     1      10.131 -18.275 -25.596  1.00  0.00     0.111 A 
ATOM      6  C   UNL     1      10.105 -19.044 -26.798  1.00  0.00     0.134 A 
ATOM      7  C   UNL     1      11.058 -18.799 -27.794  1.00  0.00     0.093 A 
ATOM      8  C   UNL     1      11.992 -17.773 -27.661  1.00  0.00     0.123 A 
ATOM      9  C   UNL     1      11.988 -16.975 -26.515  1.00  0.00     0.094 A 
ATOM     10  C   UNL     1      11.073 -17.219 -25.488  1.00  0.00     0.146 A 
ATOM     11  O   UNL     1      11.109 -16.444 -24.410  1.00  0.00    -0.452 OA
ENDROOT
BRANCH   1  12
ATOM     12  C   UNL     1      10.426 -15.655 -22.237  1.00  0.00     0.025 A 
ATOM     13  C   UNL     1      10.129 -14.298 -22.438  1.00  0.00     0.016 A 
ATOM     14  C   UNL     1      10.218 -13.390 -21.380  1.00  0.00     0.051 A 
ATOM     15  C   UNL     1      10.590 -13.824 -20.104  1.00  0.00     0.157 A 
ATOM     16  C   UNL     1      10.779 -16.095 -20.949  1.00  0.00     0.062 A 
ATOM     17  C   UNL     1      10.867 -15.184 -19.884  1.00  0.00     0.158 A 
BRANCH  15  18
ATOM     18  O   UNL     1      10.672 -12.895 -19.069  1.00  0.00    -0.504 OA
ATOM     19  H   UNL     1      11.432 -12.229 -19.004  1.00  0.00     0.293 HD
ENDBRANCH  15  18
BRANCH  17  20
ATOM     20  O   UNL     1      11.224 -15.627 -18.612  1.00  0.00    -0.504 OA
ATOM     21  H   UNL     1      11.883 -16.385 -18.479  1.00  0.00     0.293 HD
ENDBRANCH  17  20
ENDBRANCH   1  12
BRANCH   2  22
ATOM     22  O   UNL     1       8.593 -17.899 -22.225  1.00  0.00    -0.502 OA
ATOM     23  H   UNL     1       8.240 -18.818 -21.986  1.00  0.00     0.293 HD
ENDBRANCH   2  22
BRANCH   6  24
ATOM     24  O   UNL     1       9.156 -20.033 -27.072  1.00  0.00    -0.507 OA
ATOM     25  H   UNL     1       9.094 -20.919 -26.593  1.00  0.00     0.293 HD
ENDBRANCH   6  24
BRANCH   8  26
ATOM     26  O   UNL     1      12.915 -17.547 -28.680  1.00  0.00    -0.508 OA
ATOM     27  H   UNL     1      12.792 -17.943 -29.605  1.00  0.00     0.293 HD
ENDBRANCH   8  26
TORSDOF 6
ENDMDL
MODEL 9
REMARK VINA RESULT:    -6.148     16.253     18.742
REMARK INTER + INTRA:          -7.430
REMARK INTER:                  -7.122
REMARK INTRA:                  -0.308
REMARK UNBOUND:                -0.024
REMARK SMILES O=c1c(O)c(-c2ccc(O)c(O)c2)oc2cc(O)cc(O)c12
REMARK SMILES IDX 5 1 3 2 2 3 1 4 22 5 20 6 19 7 17 8 16 9 15 10 14 11 6 12
REMARK SMILES IDX 7 13 8 14 9 15 13 16 11 17 10 18 12 20 4 22 21 24 18 26
REMARK H PARENT 10 19 12 21 4 23 21 25 18 27
REMARK Flexibility Score: inf
ROOT
ATOM      1  C   UNL     1      24.281  -3.185 -28.109  1.00  0.00     0.180 A 
ATOM      2  C   UNL     1      23.516  -2.233 -28.808  1.00  0.00     0.208 A 
ATOM      3  C   UNL     1      22.615  -2.672 -29.790  1.00  0.00     0.238 A 
ATOM      4  O   UNL     1      21.895  -1.820 -30.374  1.00  0.00    -0.285 OA
ATOM      5  C   UNL     1      22.500  -4.054 -30.074  1.00  0.00     0.111 A 
ATOM      6  C   UNL     1      21.649  -4.607 -31.077  1.00  0.00     0.134 A 
ATOM      7  C   UNL     1      21.518  -5.998 -31.181  1.00  0.00     0.093 A 
ATOM      8  C   UNL     1      22.256  -6.854 -30.366  1.00  0.00     0.123 A 
ATOM      9  C   UNL     1      23.137  -6.324 -29.421  1.00  0.00     0.094 A 
ATOM     10  C   UNL     1      23.262  -4.941 -29.269  1.00  0.00     0.146 A 
ATOM     11  O   UNL     1      24.103  -4.477 -28.352  1.00  0.00    -0.452 OA
ENDROOT
BRANCH   1  12
ATOM     12  C   UNL     1      25.270  -2.796 -27.077  1.00  0.00     0.025 A 
ATOM     13  C   UNL     1      26.550  -2.379 -27.471  1.00  0.00     0.016 A 
ATOM     14  C   UNL     1      27.492  -1.987 -26.515  1.00  0.00     0.051 A 
ATOM     15  C   UNL     1      27.164  -1.992 -25.156  1.00  0.00     0.157 A 
ATOM     16  C   UNL     1      24.934  -2.781 -25.711  1.00  0.00     0.062 A 
ATOM     17  C   UNL     1      25.878  -2.386 -24.750  1.00  0.00     0.158 A 
BRANCH  15  18
ATOM     18  O   UNL     1      28.125  -1.599 -24.226  1.00  0.00    -0.504 OA
ATOM     19  H   UNL     1      28.363  -0.626 -24.077  1.00  0.00     0.293 HD
ENDBRANCH  15  18
BRANCH  17  20
ATOM     20  O   UNL     1      25.540  -2.381 -23.399  1.00  0.00    -0.504 OA
ATOM     21  H   UNL     1      25.926  -3.058 -22.752  1.00  0.00     0.293 HD
ENDBRANCH  17  20
ENDBRANCH   1  12
BRANCH   2  22
ATOM     22  O   UNL     1      23.630  -0.875 -28.497  1.00  0.00    -0.502 OA
ATOM     23  H   UNL     1      22.837  -0.313 -28.213  1.00  0.00     0.293 HD
ENDBRANCH   2  22
BRANCH   6  24
ATOM     24  O   UNL     1      20.936  -3.842 -32.005  1.00  0.00    -0.507 OA
ATOM     25  H   UNL     1      20.733  -2.859 -31.904  1.00  0.00     0.293 HD
ENDBRANCH   6  24
BRANCH   8  26
ATOM     26  O   UNL     1      22.113  -8.233 -30.508  1.00  0.00    -0.508 OA
ATOM     27  H   UNL     1      22.632  -8.750 -31.209  1.00  0.00     0.293 HD
ENDBRANCH   8  26
TORSDOF 6
ENDMDL
