MODEL 1
REMARK VINA RESULT:     0.000      0.000      0.000
REMARK INTER + INTRA:          -0.335
REMARK INTER:                   0.000
REMARK INTRA:                  -0.335
REMARK UNBOUND:                -0.335
REMARK SMILES O=c1c(O)c(-c2ccc(O)c(O)c2)oc2cc(O)cc(O)c12
REMARK SMILES IDX 5 1 3 2 2 3 1 4 22 5 20 6 19 7 17 8 16 9 15 10 14 11 6 12
REMARK SMILES IDX 7 13 8 14 9 15 13 16 11 17 10 18 12 20 4 22 21 24 18 26
REMARK H PARENT 10 19 12 21 4 23 21 25 18 27
REMARK Flexibility Score: inf
ROOT
ATOM      1  C   UNL     1      15.376  17.537  51.605  1.00  0.00     0.180 A 
ATOM      2  C   UNL     1      15.176  16.484  50.697  1.00  0.00     0.208 A 
ATOM      3  C   UNL     1      15.454  15.170  51.105  1.00  0.00     0.238 A 
ATOM      4  O   UNL     1      15.324  14.237  50.270  1.00  0.00    -0.285 OA
ATOM      5  C   UNL     1      15.913  14.924  52.422  1.00  0.00     0.111 A 
ATOM      6  C   UNL     1      16.188  13.628  52.954  1.00  0.00     0.134 A 
ATOM      7  C   UNL     1      16.763  13.513  54.226  1.00  0.00     0.093 A 
ATOM      8  C   UNL     1      17.011  14.643  55.010  1.00  0.00     0.123 A 
ATOM      9  C   UNL     1      16.691  15.907  54.521  1.00  0.00     0.094 A 
ATOM     10  C   UNL     1      16.151  16.057  53.242  1.00  0.00     0.146 A 
ATOM     11  O   UNL     1      15.870  17.281  52.811  1.00  0.00    -0.452 OA
ENDROOT
BRANCH   1  12
ATOM     12  C   UNL     1      15.081  18.946  51.256  1.00  0.00     0.025 A 
ATOM     13  C   UNL     1      13.808  19.499  51.464  1.00  0.00     0.016 A 
ATOM     14  C   UNL     1      13.559  20.836  51.149  1.00  0.00     0.051 A 
ATOM     15  C   UNL     1      14.575  21.650  50.637  1.00  0.00     0.157 A 
ATOM     16  C   UNL     1      16.108  19.766  50.763  1.00  0.00     0.062 A 
ATOM     17  C   UNL     1      15.868  21.109  50.444  1.00  0.00     0.158 A 
BRANCH  15  18
ATOM     18  O   UNL     1      14.260  22.977  50.338  1.00  0.00    -0.504 OA
ATOM     19  H   UNL     1      14.902  23.626  49.906  1.00  0.00     0.293 HD
ENDBRANCH  15  18
BRANCH  17  20
ATOM     20  O   UNL     1      16.934  21.860  49.946  1.00  0.00    -0.504 OA
ATOM     21  H   UNL     1      17.260  22.722  50.360  1.00  0.00     0.293 HD
ENDBRANCH  17  20
ENDBRANCH   1  12
BRANCH   2  22
ATOM     22  O   UNL     1      14.742  16.752  49.395  1.00  0.00    -0.502 OA
ATOM     23  H   UNL     1      15.379  16.805  48.609  1.00  0.00     0.293 HD
ENDBRANCH   2  22
BRANCH   6  24
ATOM     24  O   UNL     1      15.893  12.433  52.293  1.00  0.00    -0.507 OA
ATOM     25  H   UNL     1      16.218  12.193  51.368  1.00  0.00     0.293 HD
ENDBRANCH   6  24
BRANCH   8  26
ATOM     26  O   UNL     1      17.568  14.518  56.281  1.00  0.00    -0.508 OA
ATOM     27  H   UNL     1      18.493  14.874  56.491  1.00  0.00     0.293 HD
ENDBRANCH   8  26
TORSDOF 6
ENDMDL
MODEL 2
REMARK VINA RESULT:     0.000      6.045      9.503
REMARK INTER + INTRA:          -0.335
REMARK INTER:                   0.000
REMARK INTRA:                  -0.335
REMARK UNBOUND:                -0.335
REMARK SMILES O=c1c(O)c(-c2ccc(O)c(O)c2)oc2cc(O)cc(O)c12
REMARK SMILES IDX 5 1 3 2 2 3 1 4 22 5 20 6 19 7 17 8 16 9 15 10 14 11 6 12
REMARK SMILES IDX 7 13 8 14 9 15 13 16 11 17 10 18 12 20 4 22 21 24 18 26
REMARK H PARENT 10 19 12 21 4 23 21 25 18 27
REMARK Flexibility Score: inf
ROOT
ATOM      1  C   UNL     1      17.644  14.915  46.603  1.00  0.00     0.180 A 
ATOM      2  C   UNL     1      18.663  15.584  47.302  1.00  0.00     0.208 A 
ATOM      3  C   UNL     1      18.890  16.944  47.038  1.00  0.00     0.238 A 
ATOM      4  O   UNL     1      19.840  17.524  47.628  1.00  0.00    -0.285 OA
ATOM      5  C   UNL     1      18.086  17.622  46.090  1.00  0.00     0.111 A 
ATOM      6  C   UNL     1      18.203  19.009  45.773  1.00  0.00     0.134 A 
ATOM      7  C   UNL     1      17.443  19.543  44.725  1.00  0.00     0.093 A 
ATOM      8  C   UNL     1      16.524  18.756  44.027  1.00  0.00     0.123 A 
ATOM      9  C   UNL     1      16.361  17.416  44.370  1.00  0.00     0.094 A 
ATOM     10  C   UNL     1      17.130  16.846  45.386  1.00  0.00     0.146 A 
ATOM     11  O   UNL     1      16.950  15.561  45.673  1.00  0.00    -0.452 OA
ENDROOT
BRANCH   1  12
ATOM     12  C   UNL     1      17.327  13.489  46.845  1.00  0.00     0.025 A 
ATOM     13  C   UNL     1      16.401  13.102  47.826  1.00  0.00     0.016 A 
ATOM     14  C   UNL     1      16.101  11.752  48.020  1.00  0.00     0.051 A 
ATOM     15  C   UNL     1      16.705  10.766  47.234  1.00  0.00     0.157 A 
ATOM     16  C   UNL     1      17.918  12.502  46.039  1.00  0.00     0.062 A 
ATOM     17  C   UNL     1      17.623  11.146  46.227  1.00  0.00     0.158 A 
BRANCH  15  18
ATOM     18  O   UNL     1      16.365   9.434  47.482  1.00  0.00    -0.504 OA
ATOM     19  H   UNL     1      16.639   8.927  48.311  1.00  0.00     0.293 HD
ENDBRANCH  15  18
BRANCH  17  20
ATOM     20  O   UNL     1      18.259  10.221  45.396  1.00  0.00    -0.504 OA
ATOM     21  H   UNL     1      18.523   9.290  45.686  1.00  0.00     0.293 HD
ENDBRANCH  17  20
ENDBRANCH   1  12
BRANCH   2  22
ATOM     22  O   UNL     1      19.458  14.890  48.219  1.00  0.00    -0.502 OA
ATOM     23  H   UNL     1      20.316  15.276  48.595  1.00  0.00     0.293 HD
ENDBRANCH   2  22
BRANCH   6  24
ATOM     24  O   UNL     1      19.023  19.902  46.468  1.00  0.00    -0.507 OA
ATOM     25  H   UNL     1      19.950  19.689  46.804  1.00  0.00     0.293 HD
ENDBRANCH   6  24
BRANCH   8  26
ATOM     26  O   UNL     1      15.760  19.300  42.997  1.00  0.00    -0.508 OA
ATOM     27  H   UNL     1      16.119  19.373  42.052  1.00  0.00     0.293 HD
ENDBRANCH   8  26
TORSDOF 6
ENDMDL
MODEL 3
REMARK VINA RESULT:     0.000      3.537      6.632
REMARK INTER + INTRA:          -0.335
REMARK INTER:                   0.000
REMARK INTRA:                  -0.335
REMARK UNBOUND:                -0.335
REMARK SMILES O=c1c(O)c(-c2ccc(O)c(O)c2)oc2cc(O)cc(O)c12
REMARK SMILES IDX 5 1 3 2 2 3 1 4 22 5 20 6 19 7 17 8 16 9 15 10 14 11 6 12
REMARK SMILES IDX 7 13 8 14 9 15 13 16 11 17 10 18 12 20 4 22 21 24 18 26
REMARK H PARENT 10 19 12 21 4 23 21 25 18 27
REMARK Flexibility Score: inf
ROOT
ATOM      1  C   UNL     1      13.700  18.235  50.398  1.00  0.00     0.180 A 
ATOM      2  C   UNL     1      13.986  16.995  49.804  1.00  0.00     0.208 A 
ATOM      3  C   UNL     1      13.441  16.700  48.546  1.00  0.00     0.238 A 
ATOM      4  O   UNL     1      13.657  15.565  48.043  1.00  0.00    -0.285 OA
ATOM      5  C   UNL     1      12.627  17.655  47.889  1.00  0.00     0.111 A 
ATOM      6  C   UNL     1      12.054  17.477  46.593  1.00  0.00     0.134 A 
ATOM      7  C   UNL     1      11.160  18.434  46.098  1.00  0.00     0.093 A 
ATOM      8  C   UNL     1      10.869  19.592  46.822  1.00  0.00     0.123 A 
ATOM      9  C   UNL     1      11.470  19.802  48.061  1.00  0.00     0.094 A 
ATOM     10  C   UNL     1      12.338  18.849  48.598  1.00  0.00     0.146 A 
ATOM     11  O   UNL     1      12.880  19.083  49.787  1.00  0.00    -0.452 OA
ENDROOT
BRANCH   1  12
ATOM     12  C   UNL     1      14.259  18.629  51.712  1.00  0.00     0.025 A 
ATOM     13  C   UNL     1      15.497  19.283  51.813  1.00  0.00     0.016 A 
ATOM     14  C   UNL     1      15.994  19.665  53.060  1.00  0.00     0.051 A 
ATOM     15  C   UNL     1      15.263  19.417  54.227  1.00  0.00     0.157 A 
ATOM     16  C   UNL     1      13.514  18.398  52.879  1.00  0.00     0.062 A 
ATOM     17  C   UNL     1      14.004  18.778  54.135  1.00  0.00     0.158 A 
BRANCH  15  18
ATOM     18  O   UNL     1      15.817  19.820  55.443  1.00  0.00    -0.504 OA
ATOM     19  H   UNL     1      16.469  19.265  55.978  1.00  0.00     0.293 HD
ENDBRANCH  15  18
BRANCH  17  20
ATOM     20  O   UNL     1      13.212  18.505  55.253  1.00  0.00    -0.504 OA
ATOM     21  H   UNL     1      13.494  18.694  56.204  1.00  0.00     0.293 HD
ENDBRANCH  17  20
ENDBRANCH   1  12
BRANCH   2  22
ATOM     22  O   UNL     1      14.775  16.058  50.479  1.00  0.00    -0.502 OA
ATOM     23  H   UNL     1      14.411  15.165  50.792  1.00  0.00     0.293 HD
ENDBRANCH   2  22
BRANCH   6  24
ATOM     24  O   UNL     1      12.349  16.403  45.750  1.00  0.00    -0.507 OA
ATOM     25  H   UNL     1      13.057  16.414  45.031  1.00  0.00     0.293 HD
ENDBRANCH   6  24
BRANCH   8  26
ATOM     26  O   UNL     1       9.990  20.547  46.314  1.00  0.00    -0.508 OA
ATOM     27  H   UNL     1       9.576  21.255  46.909  1.00  0.00     0.293 HD
ENDBRANCH   8  26
TORSDOF 6
ENDMDL
MODEL 4
REMARK VINA RESULT:     0.000      2.767      6.606
REMARK INTER + INTRA:          -0.335
REMARK INTER:                   0.000
REMARK INTRA:                  -0.335
REMARK UNBOUND:                -0.335
REMARK SMILES O=c1c(O)c(-c2ccc(O)c(O)c2)oc2cc(O)cc(O)c12
REMARK SMILES IDX 5 1 3 2 2 3 1 4 22 5 20 6 19 7 17 8 16 9 15 10 14 11 6 12
REMARK SMILES IDX 7 13 8 14 9 15 13 16 11 17 10 18 12 20 4 22 21 24 18 26
REMARK H PARENT 10 19 12 21 4 23 21 25 18 27
REMARK Flexibility Score: inf
ROOT
ATOM      1  C   UNL     1      14.326  18.284  51.969  1.00  0.00     0.180 A 
ATOM      2  C   UNL     1      14.452  19.575  51.429  1.00  0.00     0.208 A 
ATOM      3  C   UNL     1      13.626  20.600  51.914  1.00  0.00     0.238 A 
ATOM      4  O   UNL     1      13.707  21.742  51.388  1.00  0.00    -0.285 OA
ATOM      5  C   UNL     1      12.694  20.326  52.945  1.00  0.00     0.111 A 
ATOM      6  C   UNL     1      11.834  21.299  53.539  1.00  0.00     0.134 A 
ATOM      7  C   UNL     1      10.861  20.889  54.458  1.00  0.00     0.093 A 
ATOM      8  C   UNL     1      10.760  19.553  54.853  1.00  0.00     0.123 A 
ATOM      9  C   UNL     1      11.634  18.607  54.322  1.00  0.00     0.094 A 
ATOM     10  C   UNL     1      12.591  18.979  53.377  1.00  0.00     0.146 A 
ATOM     11  O   UNL     1      13.397  18.044  52.888  1.00  0.00    -0.452 OA
ENDROOT
BRANCH   1  12
ATOM     12  C   UNL     1      15.179  17.157  51.527  1.00  0.00     0.025 A 
ATOM     13  C   UNL     1      16.414  16.892  52.139  1.00  0.00     0.016 A 
ATOM     14  C   UNL     1      17.191  15.810  51.721  1.00  0.00     0.051 A 
ATOM     15  C   UNL     1      16.747  14.965  50.699  1.00  0.00     0.157 A 
ATOM     16  C   UNL     1      14.721  16.297  50.516  1.00  0.00     0.062 A 
ATOM     17  C   UNL     1      15.494  15.210  50.090  1.00  0.00     0.158 A 
BRANCH  15  18
ATOM     18  O   UNL     1      17.573  13.903  50.324  1.00  0.00    -0.504 OA
ATOM     19  H   UNL     1      17.257  12.948  50.229  1.00  0.00     0.293 HD
ENDBRANCH  15  18
BRANCH  17  20
ATOM     20  O   UNL     1      14.979  14.406  49.070  1.00  0.00    -0.504 OA
ATOM     21  H   UNL     1      15.439  14.254  48.184  1.00  0.00     0.293 HD
ENDBRANCH  17  20
ENDBRANCH   1  12
BRANCH   2  22
ATOM     22  O   UNL     1      15.364  19.818  50.398  1.00  0.00    -0.502 OA
ATOM     23  H   UNL     1      15.266  19.409  49.476  1.00  0.00     0.293 HD
ENDBRANCH   2  22
BRANCH   6  24
ATOM     24  O   UNL     1      11.913  22.671  53.283  1.00  0.00    -0.507 OA
ATOM     25  H   UNL     1      12.003  23.383  53.993  1.00  0.00     0.293 HD
ENDBRANCH   6  24
BRANCH   8  26
ATOM     26  O   UNL     1       9.799  19.157  55.781  1.00  0.00    -0.508 OA
ATOM     27  H   UNL     1       9.699  19.625  56.674  1.00  0.00     0.293 HD
ENDBRANCH   8  26
TORSDOF 6
ENDMDL
MODEL 5
REMARK VINA RESULT:     0.000      2.783      7.014
REMARK INTER + INTRA:          -0.335
REMARK INTER:                   0.000
REMARK INTRA:                  -0.335
REMARK UNBOUND:                -0.335
REMARK SMILES O=c1c(O)c(-c2ccc(O)c(O)c2)oc2cc(O)cc(O)c12
REMARK SMILES IDX 5 1 3 2 2 3 1 4 22 5 20 6 19 7 17 8 16 9 15 10 14 11 6 12
REMARK SMILES IDX 7 13 8 14 9 15 13 16 11 17 10 18 12 20 4 22 21 24 18 26
REMARK H PARENT 10 19 12 21 4 23 21 25 18 27
REMARK Flexibility Score: inf
ROOT
ATOM      1  C   UNL     1      15.180  19.677  52.348  1.00  0.00     0.180 A 
ATOM      2  C   UNL     1      15.370  21.022  51.986  1.00  0.00     0.208 A 
ATOM      3  C   UNL     1      14.247  21.841  51.794  1.00  0.00     0.238 A 
ATOM      4  O   UNL     1      14.423  23.030  51.417  1.00  0.00    -0.285 OA
ATOM      5  C   UNL     1      12.948  21.311  51.982  1.00  0.00     0.111 A 
ATOM      6  C   UNL     1      11.740  22.062  51.853  1.00  0.00     0.134 A 
ATOM      7  C   UNL     1      10.507  21.403  51.933  1.00  0.00     0.093 A 
ATOM      8  C   UNL     1      10.437  20.034  52.203  1.00  0.00     0.123 A 
ATOM      9  C   UNL     1      11.609  19.305  52.388  1.00  0.00     0.094 A 
ATOM     10  C   UNL     1      12.855  19.927  52.279  1.00  0.00     0.146 A 
ATOM     11  O   UNL     1      13.948  19.192  52.452  1.00  0.00    -0.452 OA
ENDROOT
BRANCH   1  12
ATOM     12  C   UNL     1      16.315  18.758  52.593  1.00  0.00     0.025 A 
ATOM     13  C   UNL     1      16.894  18.635  53.865  1.00  0.00     0.016 A 
ATOM     14  C   UNL     1      17.948  17.744  54.077  1.00  0.00     0.051 A 
ATOM     15  C   UNL     1      18.435  16.952  53.033  1.00  0.00     0.157 A 
ATOM     16  C   UNL     1      16.787  17.948  51.548  1.00  0.00     0.062 A 
ATOM     17  C   UNL     1      17.844  17.052  51.751  1.00  0.00     0.158 A 
BRANCH  15  18
ATOM     18  O   UNL     1      19.494  16.085  53.310  1.00  0.00    -0.504 OA
ATOM     19  H   UNL     1      19.401  15.229  53.838  1.00  0.00     0.293 HD
ENDBRANCH  15  18
BRANCH  17  20
ATOM     20  O   UNL     1      18.269  16.288  50.662  1.00  0.00    -0.504 OA
ATOM     21  H   UNL     1      17.888  16.372  49.730  1.00  0.00     0.293 HD
ENDBRANCH  17  20
ENDBRANCH   1  12
BRANCH   2  22
ATOM     22  O   UNL     1      16.661  21.519  51.785  1.00  0.00    -0.502 OA
ATOM     23  H   UNL     1      17.256  21.199  51.029  1.00  0.00     0.293 HD
ENDBRANCH   2  22
BRANCH   6  24
ATOM     24  O   UNL     1      11.697  23.447  51.675  1.00  0.00    -0.507 OA
ATOM     25  H   UNL     1      12.108  23.939  50.896  1.00  0.00     0.293 HD
ENDBRANCH   6  24
BRANCH   8  26
ATOM     26  O   UNL     1       9.205  19.390  52.297  1.00  0.00    -0.508 OA
ATOM     27  H   UNL     1       8.479  19.531  51.604  1.00  0.00     0.293 HD
ENDBRANCH   8  26
TORSDOF 6
ENDMDL
MODEL 6
REMARK VINA RESULT:     0.000      3.738      6.576
REMARK INTER + INTRA:          -0.335
REMARK INTER:                   0.000
REMARK INTRA:                  -0.335
REMARK UNBOUND:                -0.335
REMARK SMILES O=c1c(O)c(-c2ccc(O)c(O)c2)oc2cc(O)cc(O)c12
REMARK SMILES IDX 5 1 3 2 2 3 1 4 22 5 20 6 19 7 17 8 16 9 15 10 14 11 6 12
REMARK SMILES IDX 7 13 8 14 9 15 13 16 11 17 10 18 12 20 4 22 21 24 18 26
REMARK H PARENT 10 19 12 21 4 23 21 25 18 27
REMARK Flexibility Score: inf
ROOT
ATOM      1  C   UNL     1      14.970  14.366  52.902  1.00  0.00     0.180 A 
ATOM      2  C   UNL     1      14.538  13.141  52.368  1.00  0.00     0.208 A 
ATOM      3  C   UNL     1      13.302  13.085  51.706  1.00  0.00     0.238 A 
ATOM      4  O   UNL     1      12.895  11.972  51.277  1.00  0.00    -0.285 OA
ATOM      5  C   UNL     1      12.519  14.258  51.574  1.00  0.00     0.111 A 
ATOM      6  C   UNL     1      11.268  14.323  50.888  1.00  0.00     0.134 A 
ATOM      7  C   UNL     1      10.520  15.506  50.933  1.00  0.00     0.093 A 
ATOM      8  C   UNL     1      11.006  16.643  51.581  1.00  0.00     0.123 A 
ATOM      9  C   UNL     1      12.252  16.605  52.202  1.00  0.00     0.094 A 
ATOM     10  C   UNL     1      13.006  15.430  52.206  1.00  0.00     0.146 A 
ATOM     11  O   UNL     1      14.184  15.434  52.819  1.00  0.00    -0.452 OA
ENDROOT
BRANCH   1  12
ATOM     12  C   UNL     1      16.273  14.511  53.590  1.00  0.00     0.025 A 
ATOM     13  C   UNL     1      17.443  14.829  52.882  1.00  0.00     0.016 A 
ATOM     14  C   UNL     1      18.656  14.983  53.556  1.00  0.00     0.051 A 
ATOM     15  C   UNL     1      18.725  14.837  54.946  1.00  0.00     0.157 A 
ATOM     16  C   UNL     1      16.336  14.386  54.988  1.00  0.00     0.062 A 
ATOM     17  C   UNL     1      17.548  14.538  55.672  1.00  0.00     0.158 A 
BRANCH  15  18
ATOM     18  O   UNL     1      19.969  14.999  55.558  1.00  0.00    -0.504 OA
ATOM     19  H   UNL     1      20.842  15.066  55.055  1.00  0.00     0.293 HD
ENDBRANCH  15  18
BRANCH  17  20
ATOM     20  O   UNL     1      17.536  14.388  57.060  1.00  0.00    -0.504 OA
ATOM     21  H   UNL     1      16.693  14.336  57.615  1.00  0.00     0.293 HD
ENDBRANCH  17  20
ENDBRANCH   1  12
BRANCH   2  22
ATOM     22  O   UNL     1      15.317  11.991  52.528  1.00  0.00    -0.502 OA
ATOM     23  H   UNL     1      14.929  11.057  52.460  1.00  0.00     0.293 HD
ENDBRANCH   2  22
BRANCH   6  24
ATOM     24  O   UNL     1      10.735  13.275  50.134  1.00  0.00    -0.507 OA
ATOM     25  H   UNL     1      10.380  12.412  50.518  1.00  0.00     0.293 HD
ENDBRANCH   6  24
BRANCH   8  26
ATOM     26  O   UNL     1      10.261  17.821  51.607  1.00  0.00    -0.508 OA
ATOM     27  H   UNL     1      10.385  18.510  52.338  1.00  0.00     0.293 HD
ENDBRANCH   8  26
TORSDOF 6
ENDMDL
MODEL 7
REMARK VINA RESULT:     0.000      3.963      4.896
REMARK INTER + INTRA:          -0.335
REMARK INTER:                   0.000
REMARK INTRA:                  -0.335
REMARK UNBOUND:                -0.335
REMARK SMILES O=c1c(O)c(-c2ccc(O)c(O)c2)oc2cc(O)cc(O)c12
REMARK SMILES IDX 5 1 3 2 2 3 1 4 22 5 20 6 19 7 17 8 16 9 15 10 14 11 6 12
REMARK SMILES IDX 7 13 8 14 9 15 13 16 11 17 10 18 12 20 4 22 21 24 18 26
REMARK H PARENT 10 19 12 21 4 23 21 25 18 27
REMARK Flexibility Score: inf
ROOT
ATOM      1  C   UNL     1      15.085  17.597  55.752  1.00  0.00     0.180 A 
ATOM      2  C   UNL     1      16.314  17.420  55.094  1.00  0.00     0.208 A 
ATOM      3  C   UNL     1      16.784  16.117  54.869  1.00  0.00     0.238 A 
ATOM      4  O   UNL     1      17.912  15.966  54.328  1.00  0.00    -0.285 OA
ATOM      5  C   UNL     1      16.012  15.007  55.289  1.00  0.00     0.111 A 
ATOM      6  C   UNL     1      16.375  13.642  55.077  1.00  0.00     0.134 A 
ATOM      7  C   UNL     1      15.600  12.626  55.651  1.00  0.00     0.093 A 
ATOM      8  C   UNL     1      14.442  12.923  56.373  1.00  0.00     0.123 A 
ATOM      9  C   UNL     1      14.049  14.250  56.535  1.00  0.00     0.094 A 
ATOM     10  C   UNL     1      14.820  15.286  56.005  1.00  0.00     0.146 A 
ATOM     11  O   UNL     1      14.416  16.538  56.192  1.00  0.00    -0.452 OA
ENDROOT
BRANCH   1  12
ATOM     12  C   UNL     1      14.511  18.939  56.003  1.00  0.00     0.025 A 
ATOM     13  C   UNL     1      13.678  19.565  55.062  1.00  0.00     0.016 A 
ATOM     14  C   UNL     1      13.130  20.821  55.331  1.00  0.00     0.051 A 
ATOM     15  C   UNL     1      13.388  21.469  56.544  1.00  0.00     0.157 A 
ATOM     16  C   UNL     1      14.754  19.577  57.230  1.00  0.00     0.062 A 
ATOM     17  C   UNL     1      14.208  20.837  57.508  1.00  0.00     0.158 A 
BRANCH  15  18
ATOM     18  O   UNL     1      12.813  22.725  56.749  1.00  0.00    -0.504 OA
ATOM     19  H   UNL     1      12.189  22.942  57.512  1.00  0.00     0.293 HD
ENDBRANCH  15  18
BRANCH  17  20
ATOM     20  O   UNL     1      14.503  21.415  58.744  1.00  0.00    -0.504 OA
ATOM     21  H   UNL     1      14.701  20.887  59.582  1.00  0.00     0.293 HD
ENDBRANCH  17  20
ENDBRANCH   1  12
BRANCH   2  22
ATOM     22  O   UNL     1      17.069  18.530  54.707  1.00  0.00    -0.502 OA
ATOM     23  H   UNL     1      17.702  18.509  53.915  1.00  0.00     0.293 HD
ENDBRANCH   2  22
BRANCH   6  24
ATOM     24  O   UNL     1      17.458  13.234  54.295  1.00  0.00    -0.507 OA
ATOM     25  H   UNL     1      18.425  13.294  54.576  1.00  0.00     0.293 HD
ENDBRANCH   6  24
BRANCH   8  26
ATOM     26  O   UNL     1      13.668  11.905  56.927  1.00  0.00    -0.508 OA
ATOM     27  H   UNL     1      13.233  12.006  57.836  1.00  0.00     0.293 HD
ENDBRANCH   8  26
TORSDOF 6
ENDMDL
MODEL 8
REMARK VINA RESULT:     0.000      8.026      9.024
REMARK INTER + INTRA:          -0.335
REMARK INTER:                   0.000
REMARK INTRA:                  -0.335
REMARK UNBOUND:                -0.335
REMARK SMILES O=c1c(O)c(-c2ccc(O)c(O)c2)oc2cc(O)cc(O)c12
REMARK SMILES IDX 5 1 3 2 2 3 1 4 22 5 20 6 19 7 17 8 16 9 15 10 14 11 6 12
REMARK SMILES IDX 7 13 8 14 9 15 13 16 11 17 10 18 12 20 4 22 21 24 18 26
REMARK H PARENT 10 19 12 21 4 23 21 25 18 27
REMARK Flexibility Score: inf
ROOT
ATOM      1  C   UNL     1       7.937  18.647  50.450  1.00  0.00     0.180 A 
ATOM      2  C   UNL     1       7.938  19.682  51.401  1.00  0.00     0.208 A 
ATOM      3  C   UNL     1       7.767  19.361  52.757  1.00  0.00     0.238 A 
ATOM      4  O   UNL     1       7.714  20.297  53.598  1.00  0.00    -0.285 OA
ATOM      5  C   UNL     1       7.612  18.009  53.147  1.00  0.00     0.111 A 
ATOM      6  C   UNL     1       7.471  17.567  54.497  1.00  0.00     0.134 A 
ATOM      7  C   UNL     1       7.194  16.219  54.756  1.00  0.00     0.093 A 
ATOM      8  C   UNL     1       7.117  15.287  53.718  1.00  0.00     0.123 A 
ATOM      9  C   UNL     1       7.312  15.700  52.402  1.00  0.00     0.094 A 
ATOM     10  C   UNL     1       7.555  17.043  52.110  1.00  0.00     0.146 A 
ATOM     11  O   UNL     1       7.724  17.396  50.841  1.00  0.00    -0.452 OA
ENDROOT
BRANCH   1  12
ATOM     12  C   UNL     1       8.137  18.904  49.006  1.00  0.00     0.025 A 
ATOM     13  C   UNL     1       9.421  18.925  48.438  1.00  0.00     0.016 A 
ATOM     14  C   UNL     1       9.584  19.145  47.069  1.00  0.00     0.051 A 
ATOM     15  C   UNL     1       8.474  19.335  46.239  1.00  0.00     0.157 A 
ATOM     16  C   UNL     1       7.021  19.071  48.171  1.00  0.00     0.062 A 
ATOM     17  C   UNL     1       7.174  19.294  46.797  1.00  0.00     0.158 A 
BRANCH  15  18
ATOM     18  O   UNL     1       8.705  19.555  44.880  1.00  0.00    -0.504 OA
ATOM     19  H   UNL     1       9.489  20.079  44.518  1.00  0.00     0.293 HD
ENDBRANCH  15  18
BRANCH  17  20
ATOM     20  O   UNL     1       6.019  19.464  46.032  1.00  0.00    -0.504 OA
ATOM     21  H   UNL     1       5.323  20.174  46.210  1.00  0.00     0.293 HD
ENDBRANCH  17  20
ENDBRANCH   1  12
BRANCH   2  22
ATOM     22  O   UNL     1       8.071  21.012  50.992  1.00  0.00    -0.502 OA
ATOM     23  H   UNL     1       7.323  21.689  51.089  1.00  0.00     0.293 HD
ENDBRANCH   2  22
BRANCH   6  24
ATOM     24  O   UNL     1       7.621  18.398  55.611  1.00  0.00    -0.507 OA
ATOM     25  H   UNL     1       8.432  18.414  56.211  1.00  0.00     0.293 HD
ENDBRANCH   6  24
BRANCH   8  26
ATOM     26  O   UNL     1       6.856  13.944  53.986  1.00  0.00    -0.508 OA
ATOM     27  H   UNL     1       7.258  13.476  54.789  1.00  0.00     0.293 HD
ENDBRANCH   8  26
TORSDOF 6
ENDMDL
MODEL 9
REMARK VINA RESULT:     0.000      3.802      5.790
REMARK INTER + INTRA:          -0.335
REMARK INTER:                   0.000
REMARK INTRA:                  -0.335
REMARK UNBOUND:                -0.335
REMARK SMILES O=c1c(O)c(-c2ccc(O)c(O)c2)oc2cc(O)cc(O)c12
REMARK SMILES IDX 5 1 3 2 2 3 1 4 22 5 20 6 19 7 17 8 16 9 15 10 14 11 6 12
REMARK SMILES IDX 7 13 8 14 9 15 13 16 11 17 10 18 12 20 4 22 21 24 18 26
REMARK H PARENT 10 19 12 21 4 23 21 25 18 27
REMARK Flexibility Score: inf
ROOT
ATOM      1  C   UNL     1      14.773  15.601  48.122  1.00  0.00     0.180 A 
ATOM      2  C   UNL     1      14.486  16.644  49.019  1.00  0.00     0.208 A 
ATOM      3  C   UNL     1      14.772  16.468  50.382  1.00  0.00     0.238 A 
ATOM      4  O   UNL     1      14.462  17.384  51.188  1.00  0.00    -0.285 OA
ATOM      5  C   UNL     1      15.357  15.258  50.829  1.00  0.00     0.111 A 
ATOM      6  C   UNL     1      15.725  14.988  52.182  1.00  0.00     0.134 A 
ATOM      7  C   UNL     1      16.174  13.708  52.531  1.00  0.00     0.093 A 
ATOM      8  C   UNL     1      16.331  12.711  51.566  1.00  0.00     0.123 A 
ATOM      9  C   UNL     1      16.030  12.984  50.234  1.00  0.00     0.094 A 
ATOM     10  C   UNL     1      15.545  14.239  49.860  1.00  0.00     0.146 A 
ATOM     11  O   UNL     1      15.260  14.454  48.581  1.00  0.00    -0.452 OA
ENDROOT
BRANCH   1  12
ATOM     12  C   UNL     1      14.524  15.721  46.667  1.00  0.00     0.025 A 
ATOM     13  C   UNL     1      15.496  16.241  45.799  1.00  0.00     0.016 A 
ATOM     14  C   UNL     1      15.247  16.323  44.428  1.00  0.00     0.051 A 
ATOM     15  C   UNL     1      14.034  15.877  43.894  1.00  0.00     0.157 A 
ATOM     16  C   UNL     1      13.313  15.253  46.132  1.00  0.00     0.062 A 
ATOM     17  C   UNL     1      13.054  15.332  44.757  1.00  0.00     0.158 A 
BRANCH  15  18
ATOM     18  O   UNL     1      13.845  15.992  42.515  1.00  0.00    -0.504 OA
ATOM     19  H   UNL     1      12.959  16.208  42.083  1.00  0.00     0.293 HD
ENDBRANCH  15  18
BRANCH  17  20
ATOM     20  O   UNL     1      11.824  14.857  44.299  1.00  0.00    -0.504 OA
ATOM     21  H   UNL     1      11.421  13.973  44.575  1.00  0.00     0.293 HD
ENDBRANCH  17  20
ENDBRANCH   1  12
BRANCH   2  22
ATOM     22  O   UNL     1      13.890  17.821  48.559  1.00  0.00    -0.502 OA
ATOM     23  H   UNL     1      14.430  18.602  48.203  1.00  0.00     0.293 HD
ENDBRANCH   2  22
BRANCH   6  24
ATOM     24  O   UNL     1      15.694  15.939  53.204  1.00  0.00    -0.507 OA
ATOM     25  H   UNL     1      15.885  15.745  54.176  1.00  0.00     0.293 HD
ENDBRANCH   6  24
BRANCH   8  26
ATOM     26  O   UNL     1      16.794  11.445  51.920  1.00  0.00    -0.508 OA
ATOM     27  H   UNL     1      16.556  10.623  51.378  1.00  0.00     0.293 HD
ENDBRANCH   8  26
TORSDOF 6
ENDMDL
