MODEL 1
REMARK VINA RESULT:    -3.043      0.000      0.000
REMARK INTER + INTRA:          -8.888
REMARK INTER:                  -5.890
REMARK INTRA:                  -2.999
REMARK UNBOUND:                -2.999
REMARK SMILES CCCCCCCCCCCCCCCCCC(=O)[O-]
REMARK SMILES IDX 10 1 11 2 12 3 13 4 14 5 15 6 16 7 17 8 18 9 19 10 20 11
REMARK SMILES IDX 9 12 8 13 7 14 6 15 5 16 4 17 3 18 2 19 1 20
REMARK H PARENT
REMARK Flexibility Score: inf
ROOT
ATOM      1  C   UNL     1      60.772  31.212  61.492  1.00  0.00     0.000 C 
ENDROOT
BRANCH   1   2
ATOM      2  C   UNL     1      61.987  30.378  61.932  1.00  0.00     0.000 C 
BRANCH   2   3
ATOM      3  C   UNL     1      61.869  28.903  61.519  1.00  0.00     0.000 C 
BRANCH   3   4
ATOM      4  C   UNL     1      63.186  28.344  60.951  1.00  0.00     0.000 C 
BRANCH   4   5
ATOM      5  C   UNL     1      64.285  29.413  60.840  1.00  0.00     0.000 C 
BRANCH   5   6
ATOM      6  C   UNL     1      65.177  29.295  59.589  1.00  0.00     0.000 C 
BRANCH   6   7
ATOM      7  C   UNL     1      66.521  30.051  59.707  1.00  0.00     0.006 C 
BRANCH   7   8
ATOM      8  C   UNL     1      67.753  29.135  59.630  1.00  0.00     0.053 C 
BRANCH   8   9
ATOM      9  C   UNL     1      67.823  28.191  60.793  1.00  0.00     0.041 C 
ATOM     10  O   UNL     1      67.866  26.948  60.597  1.00  0.00    -0.550 OA
ATOM     11  O   UNL     1      67.861  28.686  62.091  1.00  0.00    -0.550 OA
ENDBRANCH   8   9
ENDBRANCH   7   8
ENDBRANCH   6   7
ENDBRANCH   5   6
ENDBRANCH   4   5
ENDBRANCH   3   4
ENDBRANCH   2   3
ENDBRANCH   1   2
BRANCH   1  12
ATOM     12  C   UNL     1      60.246  30.818  60.101  1.00  0.00     0.000 C 
BRANCH  12  13
ATOM     13  C   UNL     1      60.862  31.596  58.923  1.00  0.00    -0.000 C 
BRANCH  13  14
ATOM     14  C   UNL     1      61.992  30.825  58.220  1.00  0.00    -0.000 C 
BRANCH  14  15
ATOM     15  C   UNL     1      63.135  31.741  57.745  1.00  0.00    -0.000 C 
BRANCH  15  16
ATOM     16  C   UNL     1      63.297  33.053  58.535  1.00  0.00    -0.000 C 
BRANCH  16  17
ATOM     17  C   UNL     1      64.223  32.967  59.764  1.00  0.00    -0.000 C 
BRANCH  17  18
ATOM     18  C   UNL     1      63.633  33.614  61.036  1.00  0.00    -0.000 C 
BRANCH  18  19
ATOM     19  C   UNL     1      62.386  34.459  60.740  1.00  0.00    -0.003 C 
ATOM     20  C   UNL     1      62.636  35.934  61.043  1.00  0.00     0.004 C 
ENDBRANCH  18  19
ENDBRANCH  17  18
ENDBRANCH  16  17
ENDBRANCH  15  16
ENDBRANCH  14  15
ENDBRANCH  13  14
ENDBRANCH  12  13
ENDBRANCH   1  12
TORSDOF 16
ENDMDL
MODEL 2
REMARK VINA RESULT:    -2.886      3.702      7.041
REMARK INTER + INTRA:          -8.584
REMARK INTER:                  -6.245
REMARK INTRA:                  -2.339
REMARK UNBOUND:                -2.999
REMARK SMILES CCCCCCCCCCCCCCCCCC(=O)[O-]
REMARK SMILES IDX 10 1 11 2 12 3 13 4 14 5 15 6 16 7 17 8 18 9 19 10 20 11
REMARK SMILES IDX 9 12 8 13 7 14 6 15 5 16 4 17 3 18 2 19 1 20
REMARK H PARENT
REMARK Flexibility Score: inf
ROOT
ATOM      1  C   UNL     1      63.207  32.995  59.484  1.00  0.00     0.000 C 
ENDROOT
BRANCH   1   2
ATOM      2  C   UNL     1      64.012  33.070  60.793  1.00  0.00     0.000 C 
BRANCH   2   3
ATOM      3  C   UNL     1      64.238  34.516  61.261  1.00  0.00     0.000 C 
BRANCH   3   4
ATOM      4  C   UNL     1      63.396  35.530  60.467  1.00  0.00     0.000 C 
BRANCH   4   5
ATOM      5  C   UNL     1      62.621  36.498  61.376  1.00  0.00     0.000 C 
BRANCH   5   6
ATOM      6  C   UNL     1      61.343  37.089  60.750  1.00  0.00     0.000 C 
BRANCH   6   7
ATOM      7  C   UNL     1      60.405  36.029  60.129  1.00  0.00     0.006 C 
BRANCH   7   8
ATOM      8  C   UNL     1      60.166  36.224  58.622  1.00  0.00     0.053 C 
BRANCH   8   9
ATOM      9  C   UNL     1      60.197  34.923  57.878  1.00  0.00     0.041 C 
ATOM     10  O   UNL     1      61.141  34.671  57.083  1.00  0.00    -0.550 OA
ATOM     11  O   UNL     1      59.195  33.981  58.078  1.00  0.00    -0.550 OA
ENDBRANCH   8   9
ENDBRANCH   7   8
ENDBRANCH   6   7
ENDBRANCH   5   6
ENDBRANCH   4   5
ENDBRANCH   3   4
ENDBRANCH   2   3
ENDBRANCH   1   2
BRANCH   1  12
ATOM     12  C   UNL     1      61.945  32.123  59.605  1.00  0.00     0.000 C 
BRANCH  12  13
ATOM     13  C   UNL     1      61.012  32.482  60.777  1.00  0.00    -0.000 C 
BRANCH  13  14
ATOM     14  C   UNL     1      60.799  31.313  61.754  1.00  0.00    -0.000 C 
BRANCH  14  15
ATOM     15  C   UNL     1      61.086  29.941  61.116  1.00  0.00    -0.000 C 
BRANCH  15  16
ATOM     16  C   UNL     1      62.268  29.166  61.731  1.00  0.00    -0.000 C 
BRANCH  16  17
ATOM     17  C   UNL     1      62.757  27.958  60.908  1.00  0.00    -0.000 C 
BRANCH  17  18
ATOM     18  C   UNL     1      63.915  28.290  59.942  1.00  0.00    -0.000 C 
BRANCH  18  19
ATOM     19  C   UNL     1      64.740  29.499  60.407  1.00  0.00    -0.003 C 
ATOM     20  C   UNL     1      66.109  29.065  60.923  1.00  0.00     0.004 C 
ENDBRANCH  18  19
ENDBRANCH  17  18
ENDBRANCH  16  17
ENDBRANCH  15  16
ENDBRANCH  14  15
ENDBRANCH  13  14
ENDBRANCH  12  13
ENDBRANCH   1  12
TORSDOF 16
ENDMDL
MODEL 3
REMARK VINA RESULT:    -2.881      3.188      5.524
REMARK INTER + INTRA:          -8.574
REMARK INTER:                  -5.538
REMARK INTRA:                  -3.037
REMARK UNBOUND:                -2.999
REMARK SMILES CCCCCCCCCCCCCCCCCC(=O)[O-]
REMARK SMILES IDX 10 1 11 2 12 3 13 4 14 5 15 6 16 7 17 8 18 9 19 10 20 11
REMARK SMILES IDX 9 12 8 13 7 14 6 15 5 16 4 17 3 18 2 19 1 20
REMARK H PARENT
REMARK Flexibility Score: inf
ROOT
ATOM      1  C   UNL     1      65.056  33.809  58.341  1.00  0.00     0.000 C 
ENDROOT
BRANCH   1   2
ATOM      2  C   UNL     1      64.244  32.594  57.859  1.00  0.00     0.000 C 
BRANCH   2   3
ATOM      3  C   UNL     1      64.224  31.454  58.888  1.00  0.00     0.000 C 
BRANCH   3   4
ATOM      4  C   UNL     1      64.475  31.952  60.322  1.00  0.00     0.000 C 
BRANCH   4   5
ATOM      5  C   UNL     1      63.875  31.020  61.387  1.00  0.00     0.000 C 
BRANCH   5   6
ATOM      6  C   UNL     1      62.788  30.059  60.867  1.00  0.00     0.000 C 
BRANCH   6   7
ATOM      7  C   UNL     1      61.454  30.147  61.643  1.00  0.00     0.006 C 
BRANCH   7   8
ATOM      8  C   UNL     1      60.211  29.981  60.753  1.00  0.00     0.053 C 
BRANCH   8   9
ATOM      9  C   UNL     1      59.610  28.614  60.882  1.00  0.00     0.041 C 
ATOM     10  O   UNL     1      58.381  28.439  60.668  1.00  0.00    -0.550 OA
ATOM     11  O   UNL     1      60.412  27.529  61.216  1.00  0.00    -0.550 OA
ENDBRANCH   8   9
ENDBRANCH   7   8
ENDBRANCH   6   7
ENDBRANCH   5   6
ENDBRANCH   4   5
ENDBRANCH   3   4
ENDBRANCH   2   3
ENDBRANCH   1   2
BRANCH   1  12
ATOM     12  C   UNL     1      64.386  35.152  58.001  1.00  0.00     0.000 C 
BRANCH  12  13
ATOM     13  C   UNL     1      64.478  36.226  59.101  1.00  0.00    -0.000 C 
BRANCH  13  14
ATOM     14  C   UNL     1      64.857  35.647  60.474  1.00  0.00    -0.000 C 
BRANCH  14  15
ATOM     15  C   UNL     1      63.637  35.425  61.387  1.00  0.00    -0.000 C 
BRANCH  15  16
ATOM     16  C   UNL     1      62.374  36.217  60.999  1.00  0.00    -0.000 C 
BRANCH  16  17
ATOM     17  C   UNL     1      61.161  35.357  60.592  1.00  0.00    -0.000 C 
BRANCH  17  18
ATOM     18  C   UNL     1      61.491  33.858  60.418  1.00  0.00    -0.000 C 
BRANCH  18  19
ATOM     19  C   UNL     1      60.809  33.245  59.186  1.00  0.00    -0.003 C 
ATOM     20  C   UNL     1      60.843  34.209  58.003  1.00  0.00     0.004 C 
ENDBRANCH  18  19
ENDBRANCH  17  18
ENDBRANCH  16  17
ENDBRANCH  15  16
ENDBRANCH  14  15
ENDBRANCH  13  14
ENDBRANCH  12  13
ENDBRANCH   1  12
TORSDOF 16
ENDMDL
MODEL 4
REMARK VINA RESULT:    -2.866      1.520      3.297
REMARK INTER + INTRA:          -8.545
REMARK INTER:                  -5.843
REMARK INTRA:                  -2.702
REMARK UNBOUND:                -2.999
REMARK SMILES CCCCCCCCCCCCCCCCCC(=O)[O-]
REMARK SMILES IDX 10 1 11 2 12 3 13 4 14 5 15 6 16 7 17 8 18 9 19 10 20 11
REMARK SMILES IDX 9 12 8 13 7 14 6 15 5 16 4 17 3 18 2 19 1 20
REMARK H PARENT
REMARK Flexibility Score: inf
ROOT
ATOM      1  C   UNL     1      61.860  31.353  58.252  1.00  0.00     0.000 C 
ENDROOT
BRANCH   1   2
ATOM      2  C   UNL     1      60.501  30.654  58.423  1.00  0.00     0.000 C 
BRANCH   2   3
ATOM      3  C   UNL     1      60.050  30.598  59.890  1.00  0.00     0.000 C 
BRANCH   3   4
ATOM      4  C   UNL     1      60.972  31.406  60.820  1.00  0.00     0.000 C 
BRANCH   4   5
ATOM      5  C   UNL     1      61.677  30.527  61.866  1.00  0.00     0.000 C 
BRANCH   5   6
ATOM      6  C   UNL     1      63.143  30.182  61.539  1.00  0.00     0.000 C 
BRANCH   6   7
ATOM      7  C   UNL     1      63.343  28.741  61.014  1.00  0.00     0.006 C 
BRANCH   7   8
ATOM      8  C   UNL     1      64.419  28.627  59.922  1.00  0.00     0.053 C 
BRANCH   8   9
ATOM      9  C   UNL     1      65.694  29.308  60.320  1.00  0.00     0.041 C 
ATOM     10  O   UNL     1      66.072  30.347  59.717  1.00  0.00    -0.550 OA
ATOM     11  O   UNL     1      66.454  28.807  61.370  1.00  0.00    -0.550 OA
ENDBRANCH   8   9
ENDBRANCH   7   8
ENDBRANCH   6   7
ENDBRANCH   5   6
ENDBRANCH   4   5
ENDBRANCH   3   4
ENDBRANCH   2   3
ENDBRANCH   1   2
BRANCH   1  12
ATOM     12  C   UNL     1      61.776  32.626  57.390  1.00  0.00     0.000 C 
BRANCH  12  13
ATOM     13  C   UNL     1      60.656  33.609  57.783  1.00  0.00    -0.000 C 
BRANCH  13  14
ATOM     14  C   UNL     1      61.186  35.000  58.165  1.00  0.00    -0.000 C 
BRANCH  14  15
ATOM     15  C   UNL     1      60.701  35.466  59.551  1.00  0.00    -0.000 C 
BRANCH  15  16
ATOM     16  C   UNL     1      61.530  34.951  60.744  1.00  0.00    -0.000 C 
BRANCH  16  17
ATOM     17  C   UNL     1      62.745  35.820  61.121  1.00  0.00    -0.000 C 
BRANCH  17  18
ATOM     18  C   UNL     1      64.039  35.013  61.357  1.00  0.00    -0.000 C 
BRANCH  18  19
ATOM     19  C   UNL     1      63.994  33.625  60.703  1.00  0.00    -0.003 C 
ATOM     20  C   UNL     1      64.685  33.635  59.342  1.00  0.00     0.004 C 
ENDBRANCH  18  19
ENDBRANCH  17  18
ENDBRANCH  16  17
ENDBRANCH  15  16
ENDBRANCH  14  15
ENDBRANCH  13  14
ENDBRANCH  12  13
ENDBRANCH   1  12
TORSDOF 16
ENDMDL
MODEL 5
REMARK VINA RESULT:    -2.858      4.127      6.952
REMARK INTER + INTRA:          -8.530
REMARK INTER:                  -5.458
REMARK INTRA:                  -3.072
REMARK UNBOUND:                -2.999
REMARK SMILES CCCCCCCCCCCCCCCCCC(=O)[O-]
REMARK SMILES IDX 10 1 11 2 12 3 13 4 14 5 15 6 16 7 17 8 18 9 19 10 20 11
REMARK SMILES IDX 9 12 8 13 7 14 6 15 5 16 4 17 3 18 2 19 1 20
REMARK H PARENT
REMARK Flexibility Score: inf
ROOT
ATOM      1  C   UNL     1      64.596  32.421  58.423  1.00  0.00     0.000 C 
ENDROOT
BRANCH   1   2
ATOM      2  C   UNL     1      63.910  33.728  58.856  1.00  0.00     0.000 C 
BRANCH   2   3
ATOM      3  C   UNL     1      64.275  34.136  60.291  1.00  0.00     0.000 C 
BRANCH   3   4
ATOM      4  C   UNL     1      63.058  34.643  61.086  1.00  0.00     0.000 C 
BRANCH   4   5
ATOM      5  C   UNL     1      62.427  35.900  60.465  1.00  0.00     0.000 C 
BRANCH   5   6
ATOM      6  C   UNL     1      60.922  36.074  60.746  1.00  0.00     0.000 C 
BRANCH   6   7
ATOM      7  C   UNL     1      60.050  36.118  59.471  1.00  0.00     0.006 C 
BRANCH   7   8
ATOM      8  C   UNL     1      60.449  35.074  58.415  1.00  0.00     0.053 C 
BRANCH   8   9
ATOM      9  C   UNL     1      59.357  34.844  57.414  1.00  0.00     0.041 C 
ATOM     10  O   UNL     1      59.075  33.674  57.042  1.00  0.00    -0.550 OA
ATOM     11  O   UNL     1      58.636  35.919  56.910  1.00  0.00    -0.550 OA
ENDBRANCH   8   9
ENDBRANCH   7   8
ENDBRANCH   6   7
ENDBRANCH   5   6
ENDBRANCH   4   5
ENDBRANCH   3   4
ENDBRANCH   2   3
ENDBRANCH   1   2
BRANCH   1  12
ATOM     12  C   UNL     1      63.628  31.429  57.752  1.00  0.00     0.000 C 
BRANCH  12  13
ATOM     13  C   UNL     1      62.143  31.837  57.789  1.00  0.00    -0.000 C 
BRANCH  13  14
ATOM     14  C   UNL     1      61.216  30.688  58.219  1.00  0.00    -0.000 C 
BRANCH  14  15
ATOM     15  C   UNL     1      60.173  31.121  59.265  1.00  0.00    -0.000 C 
BRANCH  15  16
ATOM     16  C   UNL     1      60.716  31.995  60.412  1.00  0.00    -0.000 C 
BRANCH  16  17
ATOM     17  C   UNL     1      60.815  31.294  61.780  1.00  0.00    -0.000 C 
BRANCH  17  18
ATOM     18  C   UNL     1      61.893  30.189  61.837  1.00  0.00    -0.000 C 
BRANCH  18  19
ATOM     19  C   UNL     1      63.295  30.719  61.505  1.00  0.00    -0.003 C 
ATOM     20  C   UNL     1      64.203  29.597  61.009  1.00  0.00     0.004 C 
ENDBRANCH  18  19
ENDBRANCH  17  18
ENDBRANCH  16  17
ENDBRANCH  15  16
ENDBRANCH  14  15
ENDBRANCH  13  14
ENDBRANCH  12  13
ENDBRANCH   1  12
TORSDOF 16
ENDMDL
MODEL 6
REMARK VINA RESULT:    -2.858      1.945      3.772
REMARK INTER + INTRA:          -8.529
REMARK INTER:                  -6.368
REMARK INTRA:                  -2.161
REMARK UNBOUND:                -2.999
REMARK SMILES CCCCCCCCCCCCCCCCCC(=O)[O-]
REMARK SMILES IDX 10 1 11 2 12 3 13 4 14 5 15 6 16 7 17 8 18 9 19 10 20 11
REMARK SMILES IDX 9 12 8 13 7 14 6 15 5 16 4 17 3 18 2 19 1 20
REMARK H PARENT
REMARK Flexibility Score: inf
ROOT
ATOM      1  C   UNL     1      62.175  32.542  60.152  1.00  0.00     0.000 C 
ENDROOT
BRANCH   1   2
ATOM      2  C   UNL     1      60.780  32.180  60.689  1.00  0.00     0.000 C 
BRANCH   2   3
ATOM      3  C   UNL     1      60.831  31.080  61.761  1.00  0.00     0.000 C 
BRANCH   3   4
ATOM      4  C   UNL     1      62.158  30.300  61.741  1.00  0.00     0.000 C 
BRANCH   4   5
ATOM      5  C   UNL     1      61.951  28.782  61.610  1.00  0.00     0.000 C 
BRANCH   5   6
ATOM      6  C   UNL     1      62.308  28.198  60.229  1.00  0.00     0.000 C 
BRANCH   6   7
ATOM      7  C   UNL     1      63.260  29.092  59.401  1.00  0.00     0.006 C 
BRANCH   7   8
ATOM      8  C   UNL     1      64.725  28.628  59.431  1.00  0.00     0.053 C 
BRANCH   8   9
ATOM      9  C   UNL     1      65.538  29.406  60.421  1.00  0.00     0.041 C 
ATOM     10  O   UNL     1      65.406  30.656  60.506  1.00  0.00    -0.550 OA
ATOM     11  O   UNL     1      66.425  28.748  61.265  1.00  0.00    -0.550 OA
ENDBRANCH   8   9
ENDBRANCH   7   8
ENDBRANCH   6   7
ENDBRANCH   5   6
ENDBRANCH   4   5
ENDBRANCH   3   4
ENDBRANCH   2   3
ENDBRANCH   1   2
BRANCH   1  12
ATOM     12  C   UNL     1      62.825  33.712  60.912  1.00  0.00     0.000 C 
BRANCH  12  13
ATOM     13  C   UNL     1      62.183  35.090  60.666  1.00  0.00    -0.000 C 
BRANCH  13  14
ATOM     14  C   UNL     1      62.993  36.247  61.273  1.00  0.00    -0.000 C 
BRANCH  14  15
ATOM     15  C   UNL     1      64.371  35.801  61.799  1.00  0.00    -0.000 C 
BRANCH  15  16
ATOM     16  C   UNL     1      65.578  36.289  60.974  1.00  0.00    -0.000 C 
BRANCH  16  17
ATOM     17  C   UNL     1      65.224  36.983  59.644  1.00  0.00    -0.000 C 
BRANCH  17  18
ATOM     18  C   UNL     1      65.740  36.235  58.396  1.00  0.00    -0.000 C 
BRANCH  18  19
ATOM     19  C   UNL     1      65.276  34.772  58.353  1.00  0.00    -0.003 C 
ATOM     20  C   UNL     1      64.050  34.609  57.460  1.00  0.00     0.004 C 
ENDBRANCH  18  19
ENDBRANCH  17  18
ENDBRANCH  16  17
ENDBRANCH  15  16
ENDBRANCH  14  15
ENDBRANCH  13  14
ENDBRANCH  12  13
ENDBRANCH   1  12
TORSDOF 16
ENDMDL
MODEL 7
REMARK VINA RESULT:    -2.853     10.837     13.563
REMARK INTER + INTRA:          -8.519
REMARK INTER:                  -6.045
REMARK INTRA:                  -2.475
REMARK UNBOUND:                -2.999
REMARK SMILES CCCCCCCCCCCCCCCCCC(=O)[O-]
REMARK SMILES IDX 10 1 11 2 12 3 13 4 14 5 15 6 16 7 17 8 18 9 19 10 20 11
REMARK SMILES IDX 9 12 8 13 7 14 6 15 5 16 4 17 3 18 2 19 1 20
REMARK H PARENT
REMARK Flexibility Score: inf
ROOT
ATOM      1  C   UNL     1      60.033  29.245  50.001  1.00  0.00     0.000 C 
ENDROOT
BRANCH   1   2
ATOM      2  C   UNL     1      58.557  29.676  50.054  1.00  0.00     0.000 C 
BRANCH   2   3
ATOM      3  C   UNL     1      58.058  29.889  51.492  1.00  0.00     0.000 C 
BRANCH   3   4
ATOM      4  C   UNL     1      56.655  29.299  51.720  1.00  0.00     0.000 C 
BRANCH   4   5
ATOM      5  C   UNL     1      55.932  28.963  50.406  1.00  0.00     0.000 C 
BRANCH   5   6
ATOM      6  C   UNL     1      54.408  28.778  50.535  1.00  0.00     0.000 C 
BRANCH   6   7
ATOM      7  C   UNL     1      53.852  27.584  49.726  1.00  0.00     0.006 C 
BRANCH   7   8
ATOM      8  C   UNL     1      54.677  26.296  49.881  1.00  0.00     0.053 C 
BRANCH   8   9
ATOM      9  C   UNL     1      54.506  25.683  51.239  1.00  0.00     0.041 C 
ATOM     10  O   UNL     1      55.425  25.774  52.095  1.00  0.00    -0.550 OA
ATOM     11  O   UNL     1      53.323  25.031  51.565  1.00  0.00    -0.550 OA
ENDBRANCH   8   9
ENDBRANCH   7   8
ENDBRANCH   6   7
ENDBRANCH   5   6
ENDBRANCH   4   5
ENDBRANCH   3   4
ENDBRANCH   2   3
ENDBRANCH   1   2
BRANCH   1  12
ATOM     12  C   UNL     1      60.210  27.718  49.934  1.00  0.00     0.000 C 
BRANCH  12  13
ATOM     13  C   UNL     1      58.974  26.936  49.450  1.00  0.00    -0.000 C 
BRANCH  13  14
ATOM     14  C   UNL     1      58.447  25.940  50.497  1.00  0.00    -0.000 C 
BRANCH  14  15
ATOM     15  C   UNL     1      59.096  26.128  51.881  1.00  0.00    -0.000 C 
BRANCH  15  16
ATOM     16  C   UNL     1      59.949  24.942  52.372  1.00  0.00    -0.000 C 
BRANCH  16  17
ATOM     17  C   UNL     1      61.459  25.060  52.087  1.00  0.00    -0.000 C 
BRANCH  17  18
ATOM     18  C   UNL     1      61.883  24.473  50.724  1.00  0.00    -0.000 C 
BRANCH  18  19
ATOM     19  C   UNL     1      61.597  22.968  50.618  1.00  0.00    -0.003 C 
ATOM     20  C   UNL     1      60.450  22.694  49.648  1.00  0.00     0.004 C 
ENDBRANCH  18  19
ENDBRANCH  17  18
ENDBRANCH  16  17
ENDBRANCH  15  16
ENDBRANCH  14  15
ENDBRANCH  13  14
ENDBRANCH  12  13
ENDBRANCH   1  12
TORSDOF 16
ENDMDL
MODEL 8
REMARK VINA RESULT:    -2.796      9.628     11.939
REMARK INTER + INTRA:          -8.410
REMARK INTER:                  -5.619
REMARK INTRA:                  -2.790
REMARK UNBOUND:                -2.999
REMARK SMILES CCCCCCCCCCCCCCCCCC(=O)[O-]
REMARK SMILES IDX 10 1 11 2 12 3 13 4 14 5 15 6 16 7 17 8 18 9 19 10 20 11
REMARK SMILES IDX 9 12 8 13 7 14 6 15 5 16 4 17 3 18 2 19 1 20
REMARK H PARENT
REMARK Flexibility Score: inf
ROOT
ATOM      1  C   UNL     1      54.951  29.959  51.834  1.00  0.00     0.000 C 
ENDROOT
BRANCH   1   2
ATOM      2  C   UNL     1      54.546  29.243  50.534  1.00  0.00     0.000 C 
BRANCH   2   3
ATOM      3  C   UNL     1      54.192  27.766  50.762  1.00  0.00     0.000 C 
BRANCH   3   4
ATOM      4  C   UNL     1      54.880  26.833  49.748  1.00  0.00     0.000 C 
BRANCH   4   5
ATOM      5  C   UNL     1      56.242  26.320  50.244  1.00  0.00     0.000 C 
BRANCH   5   6
ATOM      6  C   UNL     1      56.257  25.838  51.707  1.00  0.00     0.000 C 
BRANCH   6   7
ATOM      7  C   UNL     1      57.620  25.265  52.161  1.00  0.00     0.006 C 
BRANCH   7   8
ATOM      8  C   UNL     1      58.509  26.288  52.886  1.00  0.00     0.053 C 
BRANCH   8   9
ATOM      9  C   UNL     1      59.347  25.646  53.951  1.00  0.00     0.041 C 
ATOM     10  O   UNL     1      58.864  24.736  54.675  1.00  0.00    -0.550 OA
ATOM     11  O   UNL     1      60.668  26.038  54.128  1.00  0.00    -0.550 OA
ENDBRANCH   8   9
ENDBRANCH   7   8
ENDBRANCH   6   7
ENDBRANCH   5   6
ENDBRANCH   4   5
ENDBRANCH   3   4
ENDBRANCH   2   3
ENDBRANCH   1   2
BRANCH   1  12
ATOM     12  C   UNL     1      56.211  29.359  52.482  1.00  0.00     0.000 C 
BRANCH  12  13
ATOM     13  C   UNL     1      57.491  30.203  52.329  1.00  0.00    -0.000 C 
BRANCH  13  14
ATOM     14  C   UNL     1      58.548  29.533  51.436  1.00  0.00    -0.000 C 
BRANCH  14  15
ATOM     15  C   UNL     1      58.134  29.483  49.953  1.00  0.00    -0.000 C 
BRANCH  15  16
ATOM     16  C   UNL     1      59.150  28.810  49.011  1.00  0.00    -0.000 C 
BRANCH  16  17
ATOM     17  C   UNL     1      59.626  27.412  49.452  1.00  0.00    -0.000 C 
BRANCH  17  18
ATOM     18  C   UNL     1      61.132  27.343  49.783  1.00  0.00    -0.000 C 
BRANCH  18  19
ATOM     19  C   UNL     1      61.491  26.116  50.635  1.00  0.00    -0.003 C 
ATOM     20  C   UNL     1      60.693  24.891  50.198  1.00  0.00     0.004 C 
ENDBRANCH  18  19
ENDBRANCH  17  18
ENDBRANCH  16  17
ENDBRANCH  15  16
ENDBRANCH  14  15
ENDBRANCH  13  14
ENDBRANCH  12  13
ENDBRANCH   1  12
TORSDOF 16
ENDMDL
MODEL 9
REMARK VINA RESULT:    -2.772      2.846      5.369
REMARK INTER + INTRA:          -8.364
REMARK INTER:                  -5.421
REMARK INTRA:                  -2.943
REMARK UNBOUND:                -2.999
REMARK SMILES CCCCCCCCCCCCCCCCCC(=O)[O-]
REMARK SMILES IDX 10 1 11 2 12 3 13 4 14 5 15 6 16 7 17 8 18 9 19 10 20 11
REMARK SMILES IDX 9 12 8 13 7 14 6 15 5 16 4 17 3 18 2 19 1 20
REMARK H PARENT
REMARK Flexibility Score: inf
ROOT
ATOM      1  C   UNL     1      62.243  27.943  59.763  1.00  0.00     0.000 C 
ENDROOT
BRANCH   1   2
ATOM      2  C   UNL     1      61.333  29.163  59.987  1.00  0.00     0.000 C 
BRANCH   2   3
ATOM      3  C   UNL     1      61.464  29.741  61.404  1.00  0.00     0.000 C 
BRANCH   3   4
ATOM      4  C   UNL     1      60.799  31.123  61.538  1.00  0.00     0.000 C 
BRANCH   4   5
ATOM      5  C   UNL     1      61.723  32.271  61.096  1.00  0.00     0.000 C 
BRANCH   5   6
ATOM      6  C   UNL     1      61.053  33.332  60.203  1.00  0.00     0.000 C 
BRANCH   6   7
ATOM      7  C   UNL     1      61.982  34.510  59.828  1.00  0.00     0.006 C 
BRANCH   7   8
ATOM      8  C   UNL     1      62.609  35.212  61.044  1.00  0.00     0.053 C 
BRANCH   8   9
ATOM      9  C   UNL     1      64.105  35.243  60.962  1.00  0.00     0.041 C 
ATOM     10  O   UNL     1      64.691  34.835  59.924  1.00  0.00    -0.550 OA
ATOM     11  O   UNL     1      64.851  35.743  62.022  1.00  0.00    -0.550 OA
ENDBRANCH   8   9
ENDBRANCH   7   8
ENDBRANCH   6   7
ENDBRANCH   5   6
ENDBRANCH   4   5
ENDBRANCH   3   4
ENDBRANCH   2   3
ENDBRANCH   1   2
BRANCH   1  12
ATOM     12  C   UNL     1      63.259  27.736  60.900  1.00  0.00     0.000 C 
BRANCH  12  13
ATOM     13  C   UNL     1      64.737  27.740  60.466  1.00  0.00    -0.000 C 
BRANCH  13  14
ATOM     14  C   UNL     1      65.509  28.967  60.979  1.00  0.00    -0.000 C 
BRANCH  14  15
ATOM     15  C   UNL     1      65.789  30.002  59.873  1.00  0.00    -0.000 C 
BRANCH  15  16
ATOM     16  C   UNL     1      64.905  31.263  59.915  1.00  0.00    -0.000 C 
BRANCH  16  17
ATOM     17  C   UNL     1      64.127  31.561  58.619  1.00  0.00    -0.000 C 
BRANCH  17  18
ATOM     18  C   UNL     1      64.090  30.376  57.629  1.00  0.00    -0.000 C 
BRANCH  18  19
ATOM     19  C   UNL     1      62.771  30.305  56.847  1.00  0.00    -0.003 C 
ATOM     20  C   UNL     1      61.897  31.525  57.128  1.00  0.00     0.004 C 
ENDBRANCH  18  19
ENDBRANCH  17  18
ENDBRANCH  16  17
ENDBRANCH  15  16
ENDBRANCH  14  15
ENDBRANCH  13  14
ENDBRANCH  12  13
ENDBRANCH   1  12
TORSDOF 16
ENDMDL
