MODEL 1
REMARK VINA RESULT:    -5.772      0.000      0.000
REMARK INTER + INTRA:         -11.777
REMARK INTER:                 -10.496
REMARK INTRA:                  -1.281
REMARK UNBOUND:                -1.281
REMARK SMILES CCCCCCCCCCCCCCCC(=O)[O-]
REMARK SMILES IDX 9 1 10 2 11 3 12 4 13 5 14 6 15 7 16 8 17 9 18 10 8 11 7 12
REMARK SMILES IDX 6 13 5 14 4 15 3 16 2 17 1 18
REMARK H PARENT
REMARK Flexibility Score: inf
ROOT
ATOM      1  C   UNL     1     -24.346 -31.094  25.057  1.00  0.00     0.000 C 
ENDROOT
BRANCH   1   2
ATOM      2  C   UNL     1     -24.192 -32.570  25.469  1.00  0.00     0.000 C 
BRANCH   2   3
ATOM      3  C   UNL     1     -25.477 -33.147  26.081  1.00  0.00     0.000 C 
BRANCH   3   4
ATOM      4  C   UNL     1     -26.685 -32.209  25.908  1.00  0.00     0.000 C 
BRANCH   4   5
ATOM      5  C   UNL     1     -27.890 -32.913  25.263  1.00  0.00     0.000 C 
BRANCH   5   6
ATOM      6  C   UNL     1     -27.582 -33.437  23.850  1.00  0.00     0.006 C 
BRANCH   6   7
ATOM      7  C   UNL     1     -27.153 -32.314  22.897  1.00  0.00     0.053 C 
BRANCH   7   8
ATOM      8  C   UNL     1     -28.287 -31.385  22.590  1.00  0.00     0.041 C 
ATOM      9  O   UNL     1     -28.268 -30.199  23.012  1.00  0.00    -0.550 OA
ATOM     10  O   UNL     1     -29.382 -31.840  21.864  1.00  0.00    -0.550 OA
ENDBRANCH   7   8
ENDBRANCH   6   7
ENDBRANCH   5   6
ENDBRANCH   4   5
ENDBRANCH   3   4
ENDBRANCH   2   3
ENDBRANCH   1   2
BRANCH   1  11
ATOM     11  C   UNL     1     -23.036 -30.485  24.533  1.00  0.00     0.000 C 
BRANCH  11  12
ATOM     12  C   UNL     1     -22.281 -31.432  23.585  1.00  0.00    -0.000 C 
BRANCH  12  13
ATOM     13  C   UNL     1     -20.757 -31.245  23.655  1.00  0.00    -0.000 C 
BRANCH  13  14
ATOM     14  C   UNL     1     -20.335 -30.210  24.713  1.00  0.00    -0.000 C 
BRANCH  14  15
ATOM     15  C   UNL     1     -18.849 -29.830  24.603  1.00  0.00    -0.000 C 
BRANCH  15  16
ATOM     16  C   UNL     1     -18.449 -29.420  23.176  1.00  0.00    -0.000 C 
BRANCH  16  17
ATOM     17  C   UNL     1     -17.030 -29.881  22.807  1.00  0.00    -0.003 C 
ATOM     18  C   UNL     1     -16.645 -31.199  23.476  1.00  0.00     0.004 C 
ENDBRANCH  16  17
ENDBRANCH  15  16
ENDBRANCH  14  15
ENDBRANCH  13  14
ENDBRANCH  12  13
ENDBRANCH  11  12
ENDBRANCH   1  11
TORSDOF 14
ENDMDL
MODEL 2
REMARK VINA RESULT:    -5.664      1.311      1.669
REMARK INTER + INTRA:         -11.580
REMARK INTER:                 -10.305
REMARK INTRA:                  -1.275
REMARK UNBOUND:                -1.281
REMARK SMILES CCCCCCCCCCCCCCCC(=O)[O-]
REMARK SMILES IDX 9 1 10 2 11 3 12 4 13 5 14 6 15 7 16 8 17 9 18 10 8 11 7 12
REMARK SMILES IDX 6 13 5 14 4 15 3 16 2 17 1 18
REMARK H PARENT
REMARK Flexibility Score: inf
ROOT
ATOM      1  C   UNL     1     -24.442 -30.584  25.007  1.00  0.00     0.000 C 
ENDROOT
BRANCH   1   2
ATOM      2  C   UNL     1     -23.937 -32.025  25.209  1.00  0.00     0.000 C 
BRANCH   2   3
ATOM      3  C   UNL     1     -25.005 -32.941  25.826  1.00  0.00     0.000 C 
BRANCH   3   4
ATOM      4  C   UNL     1     -26.325 -32.202  26.107  1.00  0.00     0.000 C 
BRANCH   4   5
ATOM      5  C   UNL     1     -27.532 -32.874  25.434  1.00  0.00     0.000 C 
BRANCH   5   6
ATOM      6  C   UNL     1     -27.976 -32.146  24.153  1.00  0.00     0.006 C 
BRANCH   6   7
ATOM      7  C   UNL     1     -27.228 -32.649  22.912  1.00  0.00     0.053 C 
BRANCH   7   8
ATOM      8  C   UNL     1     -26.499 -31.540  22.217  1.00  0.00     0.041 C 
ATOM      9  O   UNL     1     -27.069 -30.436  22.013  1.00  0.00    -0.550 OA
ATOM     10  O   UNL     1     -25.201 -31.738  21.764  1.00  0.00    -0.550 OA
ENDBRANCH   7   8
ENDBRANCH   6   7
ENDBRANCH   5   6
ENDBRANCH   4   5
ENDBRANCH   3   4
ENDBRANCH   2   3
ENDBRANCH   1   2
BRANCH   1  11
ATOM     11  C   UNL     1     -23.451 -29.712  24.220  1.00  0.00     0.000 C 
BRANCH  11  12
ATOM     12  C   UNL     1     -22.456 -28.976  25.134  1.00  0.00    -0.000 C 
BRANCH  12  13
ATOM     13  C   UNL     1     -21.059 -29.616  25.121  1.00  0.00    -0.000 C 
BRANCH  13  14
ATOM     14  C   UNL     1     -20.656 -30.133  23.728  1.00  0.00    -0.000 C 
BRANCH  14  15
ATOM     15  C   UNL     1     -19.430 -31.059  23.777  1.00  0.00    -0.000 C 
BRANCH  15  16
ATOM     16  C   UNL     1     -18.114 -30.285  23.968  1.00  0.00    -0.000 C 
BRANCH  16  17
ATOM     17  C   UNL     1     -16.885 -31.093  23.523  1.00  0.00    -0.003 C 
ATOM     18  C   UNL     1     -16.044 -30.360  22.480  1.00  0.00     0.004 C 
ENDBRANCH  16  17
ENDBRANCH  15  16
ENDBRANCH  14  15
ENDBRANCH  13  14
ENDBRANCH  12  13
ENDBRANCH  11  12
ENDBRANCH   1  11
TORSDOF 14
ENDMDL
MODEL 3
REMARK VINA RESULT:    -5.586      1.630      2.121
REMARK INTER + INTRA:         -11.439
REMARK INTER:                 -10.572
REMARK INTRA:                  -0.867
REMARK UNBOUND:                -1.281
REMARK SMILES CCCCCCCCCCCCCCCC(=O)[O-]
REMARK SMILES IDX 9 1 10 2 11 3 12 4 13 5 14 6 15 7 16 8 17 9 18 10 8 11 7 12
REMARK SMILES IDX 6 13 5 14 4 15 3 16 2 17 1 18
REMARK H PARENT
REMARK Flexibility Score: inf
ROOT
ATOM      1  C   UNL     1     -23.460 -31.685  24.982  1.00  0.00     0.000 C 
ENDROOT
BRANCH   1   2
ATOM      2  C   UNL     1     -24.994 -31.755  24.864  1.00  0.00     0.000 C 
BRANCH   2   3
ATOM      3  C   UNL     1     -25.612 -32.777  25.830  1.00  0.00     0.000 C 
BRANCH   3   4
ATOM      4  C   UNL     1     -27.143 -32.861  25.699  1.00  0.00     0.000 C 
BRANCH   4   5
ATOM      5  C   UNL     1     -27.617 -32.756  24.241  1.00  0.00     0.000 C 
BRANCH   5   6
ATOM      6  C   UNL     1     -28.433 -31.479  23.976  1.00  0.00     0.006 C 
BRANCH   6   7
ATOM      7  C   UNL     1     -29.042 -30.903  25.261  1.00  0.00     0.053 C 
BRANCH   7   8
ATOM      8  C   UNL     1     -28.640 -29.476  25.473  1.00  0.00     0.041 C 
ATOM      9  O   UNL     1     -29.442 -28.662  26.001  1.00  0.00    -0.550 OA
ATOM     10  O   UNL     1     -27.389 -29.036  25.055  1.00  0.00    -0.550 OA
ENDBRANCH   7   8
ENDBRANCH   6   7
ENDBRANCH   5   6
ENDBRANCH   4   5
ENDBRANCH   3   4
ENDBRANCH   2   3
ENDBRANCH   1   2
BRANCH   1  11
ATOM     11  C   UNL     1     -22.792 -31.144  23.708  1.00  0.00     0.000 C 
BRANCH  11  12
ATOM     12  C   UNL     1     -21.880 -32.184  23.032  1.00  0.00    -0.000 C 
BRANCH  12  13
ATOM     13  C   UNL     1     -20.387 -31.872  23.224  1.00  0.00    -0.000 C 
BRANCH  13  14
ATOM     14  C   UNL     1     -20.150 -30.576  24.020  1.00  0.00    -0.000 C 
BRANCH  14  15
ATOM     15  C   UNL     1     -18.657 -30.300  24.263  1.00  0.00    -0.000 C 
BRANCH  15  16
ATOM     16  C   UNL     1     -17.747 -31.325  23.564  1.00  0.00    -0.000 C 
BRANCH  16  17
ATOM     17  C   UNL     1     -16.400 -30.722  23.137  1.00  0.00    -0.003 C 
ATOM     18  C   UNL     1     -16.409 -30.224  21.692  1.00  0.00     0.004 C 
ENDBRANCH  16  17
ENDBRANCH  15  16
ENDBRANCH  14  15
ENDBRANCH  13  14
ENDBRANCH  12  13
ENDBRANCH  11  12
ENDBRANCH   1  11
TORSDOF 14
ENDMDL
MODEL 4
REMARK VINA RESULT:    -5.569      3.665      8.012
REMARK INTER + INTRA:         -11.408
REMARK INTER:                  -9.777
REMARK INTRA:                  -1.631
REMARK UNBOUND:                -1.281
REMARK SMILES CCCCCCCCCCCCCCCC(=O)[O-]
REMARK SMILES IDX 9 1 10 2 11 3 12 4 13 5 14 6 15 7 16 8 17 9 18 10 8 11 7 12
REMARK SMILES IDX 6 13 5 14 4 15 3 16 2 17 1 18
REMARK H PARENT
REMARK Flexibility Score: inf
ROOT
ATOM      1  C   UNL     1     -24.304 -32.462  25.866  1.00  0.00     0.000 C 
ENDROOT
BRANCH   1   2
ATOM      2  C   UNL     1     -23.902 -31.946  24.472  1.00  0.00     0.000 C 
BRANCH   2   3
ATOM      3  C   UNL     1     -23.349 -30.514  24.512  1.00  0.00     0.000 C 
BRANCH   3   4
ATOM      4  C   UNL     1     -21.816 -30.477  24.648  1.00  0.00     0.000 C 
BRANCH   4   5
ATOM      5  C   UNL     1     -21.109 -31.323  23.578  1.00  0.00     0.000 C 
BRANCH   5   6
ATOM      6  C   UNL     1     -19.576 -31.254  23.688  1.00  0.00     0.006 C 
BRANCH   6   7
ATOM      7  C   UNL     1     -19.106 -30.008  24.450  1.00  0.00     0.053 C 
BRANCH   7   8
ATOM      8  C   UNL     1     -18.557 -28.967  23.524  1.00  0.00     0.041 C 
ATOM      9  O   UNL     1     -19.021 -27.797  23.537  1.00  0.00    -0.550 OA
ATOM     10  O   UNL     1     -17.553 -29.298  22.621  1.00  0.00    -0.550 OA
ENDBRANCH   7   8
ENDBRANCH   6   7
ENDBRANCH   5   6
ENDBRANCH   4   5
ENDBRANCH   3   4
ENDBRANCH   2   3
ENDBRANCH   1   2
BRANCH   1  11
ATOM     11  C   UNL     1     -25.587 -33.308  25.839  1.00  0.00     0.000 C 
BRANCH  11  12
ATOM     12  C   UNL     1     -26.760 -32.625  26.564  1.00  0.00    -0.000 C 
BRANCH  12  13
ATOM     13  C   UNL     1     -26.927 -31.152  26.158  1.00  0.00    -0.000 C 
BRANCH  13  14
ATOM     14  C   UNL     1     -28.360 -30.820  25.705  1.00  0.00    -0.000 C 
BRANCH  14  15
ATOM     15  C   UNL     1     -28.631 -31.247  24.253  1.00  0.00    -0.000 C 
BRANCH  15  16
ATOM     16  C   UNL     1     -27.418 -31.019  23.336  1.00  0.00    -0.000 C 
BRANCH  16  17
ATOM     17  C   UNL     1     -27.024 -32.283  22.554  1.00  0.00    -0.003 C 
ATOM     18  C   UNL     1     -27.960 -33.459  22.827  1.00  0.00     0.004 C 
ENDBRANCH  16  17
ENDBRANCH  15  16
ENDBRANCH  14  15
ENDBRANCH  13  14
ENDBRANCH  12  13
ENDBRANCH  11  12
ENDBRANCH   1  11
TORSDOF 14
ENDMDL
MODEL 5
REMARK VINA RESULT:    -5.536      4.116      8.057
REMARK INTER + INTRA:         -11.348
REMARK INTER:                  -9.753
REMARK INTRA:                  -1.595
REMARK UNBOUND:                -1.281
REMARK SMILES CCCCCCCCCCCCCCCC(=O)[O-]
REMARK SMILES IDX 9 1 10 2 11 3 12 4 13 5 14 6 15 7 16 8 17 9 18 10 8 11 7 12
REMARK SMILES IDX 6 13 5 14 4 15 3 16 2 17 1 18
REMARK H PARENT
REMARK Flexibility Score: inf
ROOT
ATOM      1  C   UNL     1     -23.303 -31.368  21.991  1.00  0.00     0.000 C 
ENDROOT
BRANCH   1   2
ATOM      2  C   UNL     1     -22.341 -31.771  23.124  1.00  0.00     0.000 C 
BRANCH   2   3
ATOM      3  C   UNL     1     -22.443 -30.839  24.341  1.00  0.00     0.000 C 
BRANCH   3   4
ATOM      4  C   UNL     1     -21.105 -30.156  24.674  1.00  0.00     0.000 C 
BRANCH   4   5
ATOM      5  C   UNL     1     -19.912 -30.818  23.966  1.00  0.00     0.000 C 
BRANCH   5   6
ATOM      6  C   UNL     1     -18.560 -30.240  24.420  1.00  0.00     0.006 C 
BRANCH   6   7
ATOM      7  C   UNL     1     -17.375 -30.941  23.744  1.00  0.00     0.053 C 
BRANCH   7   8
ATOM      8  C   UNL     1     -16.968 -30.248  22.481  1.00  0.00     0.041 C 
ATOM      9  O   UNL     1     -17.165 -29.012  22.343  1.00  0.00    -0.550 OA
ATOM     10  O   UNL     1     -16.401 -30.975  21.440  1.00  0.00    -0.550 OA
ENDBRANCH   7   8
ENDBRANCH   6   7
ENDBRANCH   5   6
ENDBRANCH   4   5
ENDBRANCH   3   4
ENDBRANCH   2   3
ENDBRANCH   1   2
BRANCH   1  11
ATOM     11  C   UNL     1     -23.951 -29.994  22.224  1.00  0.00     0.000 C 
BRANCH  11  12
ATOM     12  C   UNL     1     -25.473 -30.085  22.430  1.00  0.00    -0.000 C 
BRANCH  12  13
ATOM     13  C   UNL     1     -26.036 -31.465  22.054  1.00  0.00    -0.000 C 
BRANCH  13  14
ATOM     14  C   UNL     1     -26.809 -32.125  23.210  1.00  0.00    -0.000 C 
BRANCH  14  15
ATOM     15  C   UNL     1     -27.069 -31.154  24.373  1.00  0.00    -0.000 C 
BRANCH  15  16
ATOM     16  C   UNL     1     -26.325 -31.559  25.657  1.00  0.00    -0.000 C 
BRANCH  16  17
ATOM     17  C   UNL     1     -25.895 -33.035  25.648  1.00  0.00    -0.003 C 
ATOM     18  C   UNL     1     -24.492 -33.243  26.217  1.00  0.00     0.004 C 
ENDBRANCH  16  17
ENDBRANCH  15  16
ENDBRANCH  14  15
ENDBRANCH  13  14
ENDBRANCH  12  13
ENDBRANCH  11  12
ENDBRANCH   1  11
TORSDOF 14
ENDMDL
MODEL 6
REMARK VINA RESULT:    -5.523      1.950      3.017
REMARK INTER + INTRA:         -11.325
REMARK INTER:                 -10.276
REMARK INTRA:                  -1.049
REMARK UNBOUND:                -1.281
REMARK SMILES CCCCCCCCCCCCCCCC(=O)[O-]
REMARK SMILES IDX 9 1 10 2 11 3 12 4 13 5 14 6 15 7 16 8 17 9 18 10 8 11 7 12
REMARK SMILES IDX 6 13 5 14 4 15 3 16 2 17 1 18
REMARK H PARENT
REMARK Flexibility Score: inf
ROOT
ATOM      1  C   UNL     1     -24.516 -31.639  22.574  1.00  0.00     0.000 C 
ENDROOT
BRANCH   1   2
ATOM      2  C   UNL     1     -25.593 -30.904  21.752  1.00  0.00     0.000 C 
BRANCH   2   3
ATOM      3  C   UNL     1     -26.888 -30.680  22.548  1.00  0.00     0.000 C 
BRANCH   3   4
ATOM      4  C   UNL     1     -27.997 -31.673  22.161  1.00  0.00     0.000 C 
BRANCH   4   5
ATOM      5  C   UNL     1     -27.722 -33.095  22.675  1.00  0.00     0.000 C 
BRANCH   5   6
ATOM      6  C   UNL     1     -27.867 -33.210  24.202  1.00  0.00     0.006 C 
BRANCH   6   7
ATOM      7  C   UNL     1     -26.508 -33.229  24.913  1.00  0.00     0.053 C 
BRANCH   7   8
ATOM      8  C   UNL     1     -26.561 -32.517  26.230  1.00  0.00     0.041 C 
ATOM      9  O   UNL     1     -26.533 -33.170  27.306  1.00  0.00    -0.550 OA
ATOM     10  O   UNL     1     -26.678 -31.132  26.268  1.00  0.00    -0.550 OA
ENDBRANCH   7   8
ENDBRANCH   6   7
ENDBRANCH   5   6
ENDBRANCH   4   5
ENDBRANCH   3   4
ENDBRANCH   2   3
ENDBRANCH   1   2
BRANCH   1  11
ATOM     11  C   UNL     1     -23.889 -30.749  23.659  1.00  0.00     0.000 C 
BRANCH  11  12
ATOM     12  C   UNL     1     -22.582 -31.335  24.220  1.00  0.00    -0.000 C 
BRANCH  12  13
ATOM     13  C   UNL     1     -21.722 -32.003  23.135  1.00  0.00    -0.000 C 
BRANCH  13  14
ATOM     14  C   UNL     1     -20.217 -31.742  23.329  1.00  0.00    -0.000 C 
BRANCH  14  15
ATOM     15  C   UNL     1     -19.941 -30.529  24.231  1.00  0.00    -0.000 C 
BRANCH  15  16
ATOM     16  C   UNL     1     -18.470 -30.082  24.186  1.00  0.00    -0.000 C 
BRANCH  16  17
ATOM     17  C   UNL     1     -17.540 -31.175  23.635  1.00  0.00    -0.003 C 
ATOM     18  C   UNL     1     -16.353 -30.603  22.861  1.00  0.00     0.004 C 
ENDBRANCH  16  17
ENDBRANCH  15  16
ENDBRANCH  14  15
ENDBRANCH  13  14
ENDBRANCH  12  13
ENDBRANCH  11  12
ENDBRANCH   1  11
TORSDOF 14
ENDMDL
MODEL 7
REMARK VINA RESULT:    -5.515      2.039      3.749
REMARK INTER + INTRA:         -11.310
REMARK INTER:                  -9.516
REMARK INTRA:                  -1.794
REMARK UNBOUND:                -1.281
REMARK SMILES CCCCCCCCCCCCCCCC(=O)[O-]
REMARK SMILES IDX 9 1 10 2 11 3 12 4 13 5 14 6 15 7 16 8 17 9 18 10 8 11 7 12
REMARK SMILES IDX 6 13 5 14 4 15 3 16 2 17 1 18
REMARK H PARENT
REMARK Flexibility Score: inf
ROOT
ATOM      1  C   UNL     1     -26.676 -31.952  25.992  1.00  0.00     0.000 C 
ENDROOT
BRANCH   1   2
ATOM      2  C   UNL     1     -27.850 -32.267  25.047  1.00  0.00     0.000 C 
BRANCH   2   3
ATOM      3  C   UNL     1     -27.458 -33.248  23.931  1.00  0.00     0.000 C 
BRANCH   3   4
ATOM      4  C   UNL     1     -27.515 -32.606  22.534  1.00  0.00     0.000 C 
BRANCH   4   5
ATOM      5  C   UNL     1     -26.275 -31.751  22.227  1.00  0.00     0.000 C 
BRANCH   5   6
ATOM      6  C   UNL     1     -26.613 -30.259  22.058  1.00  0.00     0.006 C 
BRANCH   6   7
ATOM      7  C   UNL     1     -26.176 -29.426  23.269  1.00  0.00     0.053 C 
BRANCH   7   8
ATOM      8  C   UNL     1     -25.343 -28.250  22.862  1.00  0.00     0.041 C 
ATOM      9  O   UNL     1     -25.687 -27.537  21.882  1.00  0.00    -0.550 OA
ATOM     10  O   UNL     1     -24.166 -27.961  23.543  1.00  0.00    -0.550 OA
ENDBRANCH   7   8
ENDBRANCH   6   7
ENDBRANCH   5   6
ENDBRANCH   4   5
ENDBRANCH   3   4
ENDBRANCH   2   3
ENDBRANCH   1   2
BRANCH   1  11
ATOM     11  C   UNL     1     -25.802 -33.182  26.284  1.00  0.00     0.000 C 
BRANCH  11  12
ATOM     12  C   UNL     1     -24.327 -32.962  25.905  1.00  0.00    -0.000 C 
BRANCH  12  13
ATOM     13  C   UNL     1     -24.101 -31.634  25.163  1.00  0.00    -0.000 C 
BRANCH  13  14
ATOM     14  C   UNL     1     -22.979 -31.725  24.113  1.00  0.00    -0.000 C 
BRANCH  14  15
ATOM     15  C   UNL     1     -21.898 -30.651  24.313  1.00  0.00    -0.000 C 
BRANCH  15  16
ATOM     16  C   UNL     1     -20.518 -31.102  23.806  1.00  0.00    -0.000 C 
BRANCH  16  17
ATOM     17  C   UNL     1     -19.380 -30.203  24.316  1.00  0.00    -0.003 C 
ATOM     18  C   UNL     1     -19.785 -29.375  25.535  1.00  0.00     0.004 C 
ENDBRANCH  16  17
ENDBRANCH  15  16
ENDBRANCH  14  15
ENDBRANCH  13  14
ENDBRANCH  12  13
ENDBRANCH  11  12
ENDBRANCH   1  11
TORSDOF 14
ENDMDL
MODEL 8
REMARK VINA RESULT:    -5.494      3.401      7.057
REMARK INTER + INTRA:         -11.271
REMARK INTER:                  -9.024
REMARK INTRA:                  -2.247
REMARK UNBOUND:                -1.281
REMARK SMILES CCCCCCCCCCCCCCCC(=O)[O-]
REMARK SMILES IDX 9 1 10 2 11 3 12 4 13 5 14 6 15 7 16 8 17 9 18 10 8 11 7 12
REMARK SMILES IDX 6 13 5 14 4 15 3 16 2 17 1 18
REMARK H PARENT
REMARK Flexibility Score: inf
ROOT
ATOM      1  C   UNL     1     -26.803 -32.034  26.013  1.00  0.00     0.000 C 
ENDROOT
BRANCH   1   2
ATOM      2  C   UNL     1     -25.887 -33.215  26.386  1.00  0.00     0.000 C 
BRANCH   2   3
ATOM      3  C   UNL     1     -24.447 -33.023  25.884  1.00  0.00     0.000 C 
BRANCH   3   4
ATOM      4  C   UNL     1     -24.256 -31.694  25.134  1.00  0.00     0.000 C 
BRANCH   4   5
ATOM      5  C   UNL     1     -23.222 -31.799  24.001  1.00  0.00     0.000 C 
BRANCH   5   6
ATOM      6  C   UNL     1     -22.500 -30.467  23.734  1.00  0.00     0.006 C 
BRANCH   6   7
ATOM      7  C   UNL     1     -21.274 -30.282  24.637  1.00  0.00     0.053 C 
BRANCH   7   8
ATOM      8  C   UNL     1     -19.998 -30.554  23.902  1.00  0.00     0.041 C 
ATOM      9  O   UNL     1     -19.721 -31.721  23.521  1.00  0.00    -0.550 OA
ATOM     10  O   UNL     1     -19.098 -29.521  23.665  1.00  0.00    -0.550 OA
ENDBRANCH   7   8
ENDBRANCH   6   7
ENDBRANCH   5   6
ENDBRANCH   4   5
ENDBRANCH   3   4
ENDBRANCH   2   3
ENDBRANCH   1   2
BRANCH   1  11
ATOM     11  C   UNL     1     -27.940 -32.443  25.062  1.00  0.00     0.000 C 
BRANCH  11  12
ATOM     12  C   UNL     1     -27.439 -33.265  23.862  1.00  0.00    -0.000 C 
BRANCH  12  13
ATOM     13  C   UNL     1     -27.722 -32.576  22.517  1.00  0.00    -0.000 C 
BRANCH  13  14
ATOM     14  C   UNL     1     -26.635 -31.556  22.134  1.00  0.00    -0.000 C 
BRANCH  14  15
ATOM     15  C   UNL     1     -27.110 -30.103  22.298  1.00  0.00    -0.000 C 
BRANCH  15  16
ATOM     16  C   UNL     1     -26.035 -29.198  22.925  1.00  0.00    -0.000 C 
BRANCH  16  17
ATOM     17  C   UNL     1     -26.390 -28.768  24.357  1.00  0.00    -0.003 C 
ATOM     18  C   UNL     1     -27.897 -28.723  24.603  1.00  0.00     0.004 C 
ENDBRANCH  16  17
ENDBRANCH  15  16
ENDBRANCH  14  15
ENDBRANCH  13  14
ENDBRANCH  12  13
ENDBRANCH  11  12
ENDBRANCH   1  11
TORSDOF 14
ENDMDL
MODEL 9
REMARK VINA RESULT:    -5.461      4.274      8.994
REMARK INTER + INTRA:         -11.212
REMARK INTER:                 -10.332
REMARK INTRA:                  -0.880
REMARK UNBOUND:                -1.281
REMARK SMILES CCCCCCCCCCCCCCCC(=O)[O-]
REMARK SMILES IDX 9 1 10 2 11 3 12 4 13 5 14 6 15 7 16 8 17 9 18 10 8 11 7 12
REMARK SMILES IDX 6 13 5 14 4 15 3 16 2 17 1 18
REMARK H PARENT
REMARK Flexibility Score: inf
ROOT
ATOM      1  C   UNL     1     -22.090 -30.263  24.751  1.00  0.00     0.000 C 
ENDROOT
BRANCH   1   2
ATOM      2  C   UNL     1     -20.616 -29.877  24.973  1.00  0.00     0.000 C 
BRANCH   2   3
ATOM      3  C   UNL     1     -19.667 -30.596  24.002  1.00  0.00     0.000 C 
BRANCH   3   4
ATOM      4  C   UNL     1     -18.189 -30.262  24.266  1.00  0.00     0.000 C 
BRANCH   4   5
ATOM      5  C   UNL     1     -17.230 -31.263  23.602  1.00  0.00     0.000 C 
BRANCH   5   6
ATOM      6  C   UNL     1     -16.251 -30.587  22.627  1.00  0.00     0.006 C 
BRANCH   6   7
ATOM      7  C   UNL     1     -16.633 -30.829  21.161  1.00  0.00     0.053 C 
BRANCH   7   8
ATOM      8  C   UNL     1     -16.463 -29.593  20.333  1.00  0.00     0.041 C 
ATOM      9  O   UNL     1     -16.681 -28.458  20.834  1.00  0.00    -0.550 OA
ATOM     10  O   UNL     1     -16.096 -29.696  18.997  1.00  0.00    -0.550 OA
ENDBRANCH   7   8
ENDBRANCH   6   7
ENDBRANCH   5   6
ENDBRANCH   4   5
ENDBRANCH   3   4
ENDBRANCH   2   3
ENDBRANCH   1   2
BRANCH   1  11
ATOM     11  C   UNL     1     -22.258 -31.405  23.735  1.00  0.00     0.000 C 
BRANCH  11  12
ATOM     12  C   UNL     1     -23.646 -32.064  23.811  1.00  0.00    -0.000 C 
BRANCH  12  13
ATOM     13  C   UNL     1     -24.425 -31.653  25.071  1.00  0.00    -0.000 C 
BRANCH  13  14
ATOM     14  C   UNL     1     -25.094 -32.850  25.771  1.00  0.00    -0.000 C 
BRANCH  14  15
ATOM     15  C   UNL     1     -26.629 -32.764  25.743  1.00  0.00    -0.000 C 
BRANCH  15  16
ATOM     16  C   UNL     1     -27.214 -33.135  24.369  1.00  0.00    -0.000 C 
BRANCH  16  17
ATOM     17  C   UNL     1     -27.800 -31.921  23.631  1.00  0.00    -0.003 C 
ATOM     18  C   UNL     1     -27.491 -31.935  22.135  1.00  0.00     0.004 C 
ENDBRANCH  16  17
ENDBRANCH  15  16
ENDBRANCH  14  15
ENDBRANCH  13  14
ENDBRANCH  12  13
ENDBRANCH  11  12
ENDBRANCH   1  11
TORSDOF 14
ENDMDL
