MODEL 1
REMARK VINA RESULT:    -4.944      0.000      0.000
REMARK INTER + INTRA:         -11.005
REMARK INTER:                  -9.279
REMARK INTRA:                  -1.725
REMARK UNBOUND:                -1.725
REMARK SMILES CCCCCCCCC=CCCCCCCCC(=O)[O-]
REMARK SMILES IDX 10 1 9 2 11 3 12 4 13 5 14 6 15 7 16 8 17 9 18 10 19 11
REMARK SMILES IDX 20 12 8 13 7 14 6 15 5 16 4 17 3 18 2 19 1 20
REMARK H PARENT
REMARK Flexibility Score: inf
ROOT
ATOM      1  C   UNL     1       4.985   6.391  21.085  1.00  0.00    -0.031 C 
ATOM      2  C   UNL     1       5.121   5.295  21.846  1.00  0.00    -0.031 C 
ENDROOT
BRANCH   1   3
ATOM      3  C   UNL     1       5.691   7.675  21.421  1.00  0.00     0.027 C 
BRANCH   3   4
ATOM      4  C   UNL     1       7.113   7.689  20.847  1.00  0.00     0.004 C 
BRANCH   4   5
ATOM      5  C   UNL     1       8.032   8.598  21.673  1.00  0.00     0.000 C 
BRANCH   5   6
ATOM      6  C   UNL     1       7.492  10.035  21.711  1.00  0.00     0.000 C 
BRANCH   6   7
ATOM      7  C   UNL     1       7.930  10.800  22.971  1.00  0.00     0.000 C 
BRANCH   7   8
ATOM      8  C   UNL     1       6.875  11.808  23.450  1.00  0.00     0.006 C 
BRANCH   8   9
ATOM      9  C   UNL     1       6.187  12.486  22.262  1.00  0.00     0.053 C 
BRANCH   9  10
ATOM     10  C   UNL     1       5.383  13.662  22.720  1.00  0.00     0.041 C 
ATOM     11  O   UNL     1       5.403  14.736  22.065  1.00  0.00    -0.550 OA
ATOM     12  O   UNL     1       4.650  13.586  23.898  1.00  0.00    -0.550 OA
ENDBRANCH   9  10
ENDBRANCH   8   9
ENDBRANCH   7   8
ENDBRANCH   6   7
ENDBRANCH   5   6
ENDBRANCH   4   5
ENDBRANCH   3   4
ENDBRANCH   1   3
BRANCH   2  13
ATOM     13  C   UNL     1       4.430   4.005  21.497  1.00  0.00     0.027 C 
BRANCH  13  14
ATOM     14  C   UNL     1       5.448   2.927  21.098  1.00  0.00     0.004 C 
BRANCH  14  15
ATOM     15  C   UNL     1       5.886   3.043  19.629  1.00  0.00     0.000 C 
BRANCH  15  16
ATOM     16  C   UNL     1       7.300   3.625  19.480  1.00  0.00     0.000 C 
BRANCH  16  17
ATOM     17  C   UNL     1       7.316   4.776  18.462  1.00  0.00    -0.000 C 
BRANCH  17  18
ATOM     18  C   UNL     1       5.934   5.033  17.839  1.00  0.00    -0.000 C 
BRANCH  18  19
ATOM     19  C   UNL     1       6.009   5.894  16.569  1.00  0.00    -0.003 C 
ATOM     20  C   UNL     1       6.365   7.339  16.905  1.00  0.00     0.004 C 
ENDBRANCH  18  19
ENDBRANCH  17  18
ENDBRANCH  16  17
ENDBRANCH  15  16
ENDBRANCH  14  15
ENDBRANCH  13  14
ENDBRANCH   2  13
TORSDOF 15
ENDMDL
MODEL 2
REMARK VINA RESULT:    -4.903      4.926      7.150
REMARK INTER + INTRA:         -10.929
REMARK INTER:                  -8.203
REMARK INTRA:                  -2.726
REMARK UNBOUND:                -1.725
REMARK SMILES CCCCCCCCC=CCCCCCCCC(=O)[O-]
REMARK SMILES IDX 10 1 9 2 11 3 12 4 13 5 14 6 15 7 16 8 17 9 18 10 19 11
REMARK SMILES IDX 20 12 8 13 7 14 6 15 5 16 4 17 3 18 2 19 1 20
REMARK H PARENT
REMARK Flexibility Score: inf
ROOT
ATOM      1  C   UNL     1       6.341   5.180  15.343  1.00  0.00    -0.031 C 
ATOM      2  C   UNL     1       7.643   4.878  15.459  1.00  0.00    -0.031 C 
ENDROOT
BRANCH   1   3
ATOM      3  C   UNL     1       5.607   5.927  16.422  1.00  0.00     0.027 C 
BRANCH   3   4
ATOM      4  C   UNL     1       6.577   6.734  17.293  1.00  0.00     0.004 C 
BRANCH   4   5
ATOM      5  C   UNL     1       6.486   6.304  18.763  1.00  0.00     0.000 C 
BRANCH   5   6
ATOM      6  C   UNL     1       7.739   5.524  19.186  1.00  0.00     0.000 C 
BRANCH   6   7
ATOM      7  C   UNL     1       7.481   4.014  19.321  1.00  0.00     0.000 C 
BRANCH   7   8
ATOM      8  C   UNL     1       5.988   3.660  19.266  1.00  0.00     0.006 C 
BRANCH   8   9
ATOM      9  C   UNL     1       5.625   2.649  20.358  1.00  0.00     0.053 C 
BRANCH   9  10
ATOM     10  C   UNL     1       4.838   3.309  21.445  1.00  0.00     0.041 C 
ATOM     11  O   UNL     1       4.380   4.470  21.281  1.00  0.00    -0.550 OA
ATOM     12  O   UNL     1       4.650   2.661  22.660  1.00  0.00    -0.550 OA
ENDBRANCH   9  10
ENDBRANCH   8   9
ENDBRANCH   7   8
ENDBRANCH   6   7
ENDBRANCH   5   6
ENDBRANCH   4   5
ENDBRANCH   3   4
ENDBRANCH   1   3
BRANCH   2  13
ATOM     13  C   UNL     1       8.381   4.150  14.370  1.00  0.00     0.027 C 
BRANCH  13  14
ATOM     14  C   UNL     1       9.566   3.358  14.944  1.00  0.00     0.004 C 
BRANCH  14  15
ATOM     15  C   UNL     1       9.698   3.513  16.467  1.00  0.00     0.000 C 
BRANCH  15  16
ATOM     16  C   UNL     1      11.013   4.192  16.879  1.00  0.00     0.000 C 
BRANCH  16  17
ATOM     17  C   UNL     1      10.807   5.699  17.100  1.00  0.00    -0.000 C 
BRANCH  17  18
ATOM     18  C   UNL     1      11.498   6.554  16.027  1.00  0.00    -0.000 C 
BRANCH  18  19
ATOM     19  C   UNL     1      10.499   7.278  15.112  1.00  0.00    -0.003 C 
ATOM     20  C   UNL     1      10.684   6.859  13.657  1.00  0.00     0.004 C 
ENDBRANCH  18  19
ENDBRANCH  17  18
ENDBRANCH  16  17
ENDBRANCH  15  16
ENDBRANCH  14  15
ENDBRANCH  13  14
ENDBRANCH   2  13
TORSDOF 15
ENDMDL
MODEL 3
REMARK VINA RESULT:    -4.834      4.443      7.214
REMARK INTER + INTRA:         -10.797
REMARK INTER:                  -8.246
REMARK INTRA:                  -2.551
REMARK UNBOUND:                -1.725
REMARK SMILES CCCCCCCCC=CCCCCCCCC(=O)[O-]
REMARK SMILES IDX 10 1 9 2 11 3 12 4 13 5 14 6 15 7 16 8 17 9 18 10 19 11
REMARK SMILES IDX 20 12 8 13 7 14 6 15 5 16 4 17 3 18 2 19 1 20
REMARK H PARENT
REMARK Flexibility Score: inf
ROOT
ATOM      1  C   UNL     1       6.436   5.023  18.523  1.00  0.00    -0.031 C 
ATOM      2  C   UNL     1       7.419   4.445  19.230  1.00  0.00    -0.031 C 
ENDROOT
BRANCH   1   3
ATOM      3  C   UNL     1       6.511   6.464  18.102  1.00  0.00     0.027 C 
BRANCH   3   4
ATOM      4  C   UNL     1       6.081   6.634  16.640  1.00  0.00     0.004 C 
BRANCH   4   5
ATOM      5  C   UNL     1       5.710   5.284  16.014  1.00  0.00     0.000 C 
BRANCH   5   6
ATOM      6  C   UNL     1       6.815   4.795  15.067  1.00  0.00     0.000 C 
BRANCH   6   7
ATOM      7  C   UNL     1       8.125   5.585  15.226  1.00  0.00     0.000 C 
BRANCH   7   8
ATOM      8  C   UNL     1       9.255   4.745  15.838  1.00  0.00     0.006 C 
BRANCH   8   9
ATOM      9  C   UNL     1      10.126   5.595  16.768  1.00  0.00     0.053 C 
BRANCH   9  10
ATOM     10  C   UNL     1      11.169   6.329  15.986  1.00  0.00     0.041 C 
ATOM     11  O   UNL     1      12.315   5.830  15.834  1.00  0.00    -0.550 OA
ATOM     12  O   UNL     1      10.892   7.587  15.466  1.00  0.00    -0.550 OA
ENDBRANCH   9  10
ENDBRANCH   8   9
ENDBRANCH   7   8
ENDBRANCH   6   7
ENDBRANCH   5   6
ENDBRANCH   4   5
ENDBRANCH   3   4
ENDBRANCH   1   3
BRANCH   2  13
ATOM     13  C   UNL     1       7.351   2.998  19.633  1.00  0.00     0.027 C 
BRANCH  13  14
ATOM     14  C   UNL     1       5.906   2.581  19.944  1.00  0.00     0.004 C 
BRANCH  14  15
ATOM     15  C   UNL     1       5.512   2.856  21.403  1.00  0.00     0.000 C 
BRANCH  15  16
ATOM     16  C   UNL     1       4.269   3.752  21.520  1.00  0.00     0.000 C 
BRANCH  16  17
ATOM     17  C   UNL     1       4.668   5.215  21.764  1.00  0.00    -0.000 C 
BRANCH  17  18
ATOM     18  C   UNL     1       5.999   5.347  22.522  1.00  0.00    -0.000 C 
BRANCH  18  19
ATOM     19  C   UNL     1       6.734   6.658  22.204  1.00  0.00    -0.003 C 
ATOM     20  C   UNL     1       5.824   7.631  21.459  1.00  0.00     0.004 C 
ENDBRANCH  18  19
ENDBRANCH  17  18
ENDBRANCH  16  17
ENDBRANCH  15  16
ENDBRANCH  14  15
ENDBRANCH  13  14
ENDBRANCH   2  13
TORSDOF 15
ENDMDL
MODEL 4
REMARK VINA RESULT:    -4.832      5.010      7.731
REMARK INTER + INTRA:         -10.794
REMARK INTER:                  -8.477
REMARK INTRA:                  -2.317
REMARK UNBOUND:                -1.725
REMARK SMILES CCCCCCCCC=CCCCCCCCC(=O)[O-]
REMARK SMILES IDX 10 1 9 2 11 3 12 4 13 5 14 6 15 7 16 8 17 9 18 10 19 11
REMARK SMILES IDX 20 12 8 13 7 14 6 15 5 16 4 17 3 18 2 19 1 20
REMARK H PARENT
REMARK Flexibility Score: inf
ROOT
ATOM      1  C   UNL     1       8.194   5.893  15.583  1.00  0.00    -0.031 C 
ATOM      2  C   UNL     1       9.282   5.327  16.127  1.00  0.00    -0.031 C 
ENDROOT
BRANCH   1   3
ATOM      3  C   UNL     1       6.890   5.153  15.479  1.00  0.00     0.027 C 
BRANCH   3   4
ATOM      4  C   UNL     1       5.872   5.682  16.496  1.00  0.00     0.004 C 
BRANCH   4   5
ATOM      5  C   UNL     1       6.204   7.122  16.910  1.00  0.00     0.000 C 
BRANCH   5   6
ATOM      6  C   UNL     1       6.248   7.258  18.439  1.00  0.00     0.000 C 
BRANCH   6   7
ATOM      7  C   UNL     1       6.808   6.004  19.130  1.00  0.00     0.000 C 
BRANCH   7   8
ATOM      8  C   UNL     1       5.915   5.509  20.277  1.00  0.00     0.006 C 
BRANCH   8   9
ATOM      9  C   UNL     1       5.633   4.009  20.143  1.00  0.00     0.053 C 
BRANCH   9  10
ATOM     10  C   UNL     1       5.920   3.303  21.429  1.00  0.00     0.041 C 
ATOM     11  O   UNL     1       5.378   2.194  21.678  1.00  0.00    -0.550 OA
ATOM     12  O   UNL     1       6.750   3.891  22.376  1.00  0.00    -0.550 OA
ENDBRANCH   9  10
ENDBRANCH   8   9
ENDBRANCH   7   8
ENDBRANCH   6   7
ENDBRANCH   5   6
ENDBRANCH   4   5
ENDBRANCH   3   4
ENDBRANCH   1   3
BRANCH   2  13
ATOM     13  C   UNL     1      10.580   6.076  16.249  1.00  0.00     0.027 C 
BRANCH  13  14
ATOM     14  C   UNL     1      10.757   7.062  15.084  1.00  0.00     0.004 C 
BRANCH  14  15
ATOM     15  C   UNL     1      11.374   6.403  13.841  1.00  0.00     0.000 C 
BRANCH  15  16
ATOM     16  C   UNL     1      10.515   6.598  12.582  1.00  0.00     0.000 C 
BRANCH  16  17
ATOM     17  C   UNL     1      10.174   5.246  11.936  1.00  0.00    -0.000 C 
BRANCH  17  18
ATOM     18  C   UNL     1       8.685   4.887  12.068  1.00  0.00    -0.000 C 
BRANCH  18  19
ATOM     19  C   UNL     1       8.464   3.454  12.574  1.00  0.00    -0.003 C 
ATOM     20  C   UNL     1       9.665   2.965  13.379  1.00  0.00     0.004 C 
ENDBRANCH  18  19
ENDBRANCH  17  18
ENDBRANCH  16  17
ENDBRANCH  15  16
ENDBRANCH  14  15
ENDBRANCH  13  14
ENDBRANCH   2  13
TORSDOF 15
ENDMDL
MODEL 5
REMARK VINA RESULT:    -4.808      3.160      5.422
REMARK INTER + INTRA:         -10.750
REMARK INTER:                  -8.315
REMARK INTRA:                  -2.435
REMARK UNBOUND:                -1.725
REMARK SMILES CCCCCCCCC=CCCCCCCCC(=O)[O-]
REMARK SMILES IDX 10 1 9 2 11 3 12 4 13 5 14 6 15 7 16 8 17 9 18 10 19 11
REMARK SMILES IDX 20 12 8 13 7 14 6 15 5 16 4 17 3 18 2 19 1 20
REMARK H PARENT
REMARK Flexibility Score: inf
ROOT
ATOM      1  C   UNL     1       7.334   4.573  19.233  1.00  0.00    -0.031 C 
ATOM      2  C   UNL     1       6.310   5.204  18.639  1.00  0.00    -0.031 C 
ENDROOT
BRANCH   1   3
ATOM      3  C   UNL     1       7.208   3.158  19.725  1.00  0.00     0.027 C 
BRANCH   3   4
ATOM      4  C   UNL     1       5.740   2.781  19.953  1.00  0.00     0.004 C 
BRANCH   4   5
ATOM      5  C   UNL     1       5.469   2.491  21.435  1.00  0.00     0.000 C 
BRANCH   5   6
ATOM      6  C   UNL     1       4.375   3.417  21.985  1.00  0.00     0.000 C 
BRANCH   6   7
ATOM      7  C   UNL     1       4.813   4.890  22.033  1.00  0.00     0.000 C 
BRANCH   7   8
ATOM      8  C   UNL     1       5.987   5.130  22.992  1.00  0.00     0.006 C 
BRANCH   8   9
ATOM      9  C   UNL     1       7.001   6.104  22.384  1.00  0.00     0.053 C 
BRANCH   9  10
ATOM     10  C   UNL     1       6.431   7.485  22.323  1.00  0.00     0.041 C 
ATOM     11  O   UNL     1       6.385   8.104  21.227  1.00  0.00    -0.550 OA
ATOM     12  O   UNL     1       5.994   8.110  23.484  1.00  0.00    -0.550 OA
ENDBRANCH   9  10
ENDBRANCH   8   9
ENDBRANCH   7   8
ENDBRANCH   6   7
ENDBRANCH   5   6
ENDBRANCH   4   5
ENDBRANCH   3   4
ENDBRANCH   1   3
BRANCH   2  13
ATOM     13  C   UNL     1       6.444   6.612  18.129  1.00  0.00     0.027 C 
BRANCH  13  14
ATOM     14  C   UNL     1       6.198   6.674  16.614  1.00  0.00     0.004 C 
BRANCH  14  15
ATOM     15  C   UNL     1       6.212   5.286  15.956  1.00  0.00     0.000 C 
BRANCH  15  16
ATOM     16  C   UNL     1       7.425   5.081  15.035  1.00  0.00     0.000 C 
BRANCH  16  17
ATOM     17  C   UNL     1       8.587   4.425  15.797  1.00  0.00    -0.000 C 
BRANCH  17  18
ATOM     18  C   UNL     1       9.734   5.407  16.087  1.00  0.00    -0.000 C 
BRANCH  18  19
ATOM     19  C   UNL     1       9.578   6.737  15.335  1.00  0.00    -0.003 C 
ATOM     20  C   UNL     1      10.790   7.013  14.450  1.00  0.00     0.004 C 
ENDBRANCH  18  19
ENDBRANCH  17  18
ENDBRANCH  16  17
ENDBRANCH  15  16
ENDBRANCH  14  15
ENDBRANCH  13  14
ENDBRANCH   2  13
TORSDOF 15
ENDMDL
MODEL 6
REMARK VINA RESULT:    -4.799      2.752      4.879
REMARK INTER + INTRA:         -10.733
REMARK INTER:                  -8.010
REMARK INTRA:                  -2.723
REMARK UNBOUND:                -1.725
REMARK SMILES CCCCCCCCC=CCCCCCCCC(=O)[O-]
REMARK SMILES IDX 10 1 9 2 11 3 12 4 13 5 14 6 15 7 16 8 17 9 18 10 19 11
REMARK SMILES IDX 20 12 8 13 7 14 6 15 5 16 4 17 3 18 2 19 1 20
REMARK H PARENT
REMARK Flexibility Score: inf
ROOT
ATOM      1  C   UNL     1       6.879   3.598  19.440  1.00  0.00    -0.031 C 
ATOM      2  C   UNL     1       7.924   4.030  20.162  1.00  0.00    -0.031 C 
ENDROOT
BRANCH   1   3
ATOM      3  C   UNL     1       5.983   2.496  19.933  1.00  0.00     0.027 C 
BRANCH   3   4
ATOM      4  C   UNL     1       5.761   2.601  21.447  1.00  0.00     0.004 C 
BRANCH   4   5
ATOM      5  C   UNL     1       4.524   3.450  21.765  1.00  0.00     0.000 C 
BRANCH   5   6
ATOM      6  C   UNL     1       4.803   4.416  22.926  1.00  0.00     0.000 C 
BRANCH   6   7
ATOM      7  C   UNL     1       5.617   5.646  22.491  1.00  0.00     0.000 C 
BRANCH   7   8
ATOM      8  C   UNL     1       5.014   6.355  21.270  1.00  0.00     0.006 C 
BRANCH   8   9
ATOM      9  C   UNL     1       6.033   7.302  20.629  1.00  0.00     0.053 C 
BRANCH   9  10
ATOM     10  C   UNL     1       6.642   8.197  21.662  1.00  0.00     0.041 C 
ATOM     11  O   UNL     1       5.923   9.011  22.299  1.00  0.00    -0.550 OA
ATOM     12  O   UNL     1       8.013   8.166  21.888  1.00  0.00    -0.550 OA
ENDBRANCH   9  10
ENDBRANCH   8   9
ENDBRANCH   7   8
ENDBRANCH   6   7
ENDBRANCH   5   6
ENDBRANCH   4   5
ENDBRANCH   3   4
ENDBRANCH   1   3
BRANCH   2  13
ATOM     13  C   UNL     1       8.807   5.146  19.677  1.00  0.00     0.027 C 
BRANCH  13  14
ATOM     14  C   UNL     1       9.816   4.636  18.636  1.00  0.00     0.004 C 
BRANCH  14  15
ATOM     15  C   UNL     1       9.637   5.304  17.264  1.00  0.00     0.000 C 
BRANCH  15  16
ATOM     16  C   UNL     1       8.723   4.497  16.329  1.00  0.00     0.000 C 
BRANCH  16  17
ATOM     17  C   UNL     1       7.829   5.428  15.496  1.00  0.00    -0.000 C 
BRANCH  17  18
ATOM     18  C   UNL     1       6.348   5.343  15.899  1.00  0.00    -0.000 C 
BRANCH  18  19
ATOM     19  C   UNL     1       6.016   6.213  17.120  1.00  0.00    -0.003 C 
ATOM     20  C   UNL     1       6.387   7.672  16.872  1.00  0.00     0.004 C 
ENDBRANCH  18  19
ENDBRANCH  17  18
ENDBRANCH  16  17
ENDBRANCH  15  16
ENDBRANCH  14  15
ENDBRANCH  13  14
ENDBRANCH   2  13
TORSDOF 15
ENDMDL
MODEL 7
REMARK VINA RESULT:    -4.784      5.524      7.842
REMARK INTER + INTRA:         -10.705
REMARK INTER:                  -8.503
REMARK INTRA:                  -2.202
REMARK UNBOUND:                -1.725
REMARK SMILES CCCCCCCCC=CCCCCCCCC(=O)[O-]
REMARK SMILES IDX 10 1 9 2 11 3 12 4 13 5 14 6 15 7 16 8 17 9 18 10 19 11
REMARK SMILES IDX 20 12 8 13 7 14 6 15 5 16 4 17 3 18 2 19 1 20
REMARK H PARENT
REMARK Flexibility Score: inf
ROOT
ATOM      1  C   UNL     1       6.483   5.202  18.652  1.00  0.00    -0.031 C 
ATOM      2  C   UNL     1       7.633   4.643  19.059  1.00  0.00    -0.031 C 
ENDROOT
BRANCH   1   3
ATOM      3  C   UNL     1       6.357   6.686  18.447  1.00  0.00     0.027 C 
BRANCH   3   4
ATOM      4  C   UNL     1       6.596   7.062  16.980  1.00  0.00     0.004 C 
BRANCH   4   5
ATOM      5  C   UNL     1       6.291   5.881  16.051  1.00  0.00     0.000 C 
BRANCH   5   6
ATOM      6  C   UNL     1       7.540   5.468  15.259  1.00  0.00     0.000 C 
BRANCH   6   7
ATOM      7  C   UNL     1       8.795   6.249  15.682  1.00  0.00     0.000 C 
BRANCH   7   8
ATOM      8  C   UNL     1      10.046   5.835  14.893  1.00  0.00     0.006 C 
BRANCH   8   9
ATOM      9  C   UNL     1      10.479   6.945  13.931  1.00  0.00     0.053 C 
BRANCH   9  10
ATOM     10  C   UNL     1      10.440   6.461  12.517  1.00  0.00     0.041 C 
ATOM     11  O   UNL     1       9.381   5.974  12.042  1.00  0.00    -0.550 OA
ATOM     12  O   UNL     1      11.589   6.502  11.735  1.00  0.00    -0.550 OA
ENDBRANCH   9  10
ENDBRANCH   8   9
ENDBRANCH   7   8
ENDBRANCH   6   7
ENDBRANCH   5   6
ENDBRANCH   4   5
ENDBRANCH   3   4
ENDBRANCH   1   3
BRANCH   2  13
ATOM     13  C   UNL     1       7.763   3.157  19.244  1.00  0.00     0.027 C 
BRANCH  13  14
ATOM     14  C   UNL     1       7.339   2.740  20.660  1.00  0.00     0.004 C 
BRANCH  14  15
ATOM     15  C   UNL     1       5.867   2.305  20.733  1.00  0.00     0.000 C 
BRANCH  15  16
ATOM     16  C   UNL     1       5.114   2.965  21.899  1.00  0.00     0.000 C 
BRANCH  16  17
ATOM     17  C   UNL     1       4.235   4.122  21.400  1.00  0.00    -0.000 C 
BRANCH  17  18
ATOM     18  C   UNL     1       4.791   5.500  21.795  1.00  0.00    -0.000 C 
BRANCH  18  19
ATOM     19  C   UNL     1       5.861   5.414  22.893  1.00  0.00    -0.003 C 
ATOM     20  C   UNL     1       7.132   6.152  22.480  1.00  0.00     0.004 C 
ENDBRANCH  18  19
ENDBRANCH  17  18
ENDBRANCH  16  17
ENDBRANCH  15  16
ENDBRANCH  14  15
ENDBRANCH  13  14
ENDBRANCH   2  13
TORSDOF 15
ENDMDL
MODEL 8
REMARK VINA RESULT:    -4.775      5.338      8.622
REMARK INTER + INTRA:         -10.687
REMARK INTER:                  -8.620
REMARK INTRA:                  -2.066
REMARK UNBOUND:                -1.725
REMARK SMILES CCCCCCCCC=CCCCCCCCC(=O)[O-]
REMARK SMILES IDX 10 1 9 2 11 3 12 4 13 5 14 6 15 7 16 8 17 9 18 10 19 11
REMARK SMILES IDX 20 12 8 13 7 14 6 15 5 16 4 17 3 18 2 19 1 20
REMARK H PARENT
REMARK Flexibility Score: inf
ROOT
ATOM      1  C   UNL     1       7.757   5.316  15.541  1.00  0.00    -0.031 C 
ATOM      2  C   UNL     1       6.478   5.339  15.947  1.00  0.00    -0.031 C 
ENDROOT
BRANCH   1   3
ATOM      3  C   UNL     1       8.393   4.061  15.014  1.00  0.00     0.027 C 
BRANCH   3   4
ATOM      4  C   UNL     1       8.253   3.968  13.490  1.00  0.00     0.004 C 
BRANCH   4   5
ATOM      5  C   UNL     1       9.563   3.502  12.843  1.00  0.00     0.000 C 
BRANCH   5   6
ATOM      6  C   UNL     1      10.036   4.503  11.779  1.00  0.00     0.000 C 
BRANCH   6   7
ATOM      7  C   UNL     1       9.723   5.961  12.154  1.00  0.00     0.000 C 
BRANCH   7   8
ATOM      8  C   UNL     1      10.897   6.659  12.854  1.00  0.00     0.006 C 
BRANCH   8   9
ATOM      9  C   UNL     1      10.521   7.065  14.282  1.00  0.00     0.053 C 
BRANCH   9  10
ATOM     10  C   UNL     1      11.387   6.357  15.275  1.00  0.00     0.041 C 
ATOM     11  O   UNL     1      11.677   6.908  16.369  1.00  0.00    -0.550 OA
ATOM     12  O   UNL     1      11.914   5.107  14.973  1.00  0.00    -0.550 OA
ENDBRANCH   9  10
ENDBRANCH   8   9
ENDBRANCH   7   8
ENDBRANCH   6   7
ENDBRANCH   5   6
ENDBRANCH   4   5
ENDBRANCH   3   4
ENDBRANCH   1   3
BRANCH   2  13
ATOM     13  C   UNL     1       5.837   6.601  16.454  1.00  0.00     0.027 C 
BRANCH  13  14
ATOM     14  C   UNL     1       6.479   7.052  17.775  1.00  0.00     0.004 C 
BRANCH  14  15
ATOM     15  C   UNL     1       6.238   6.054  18.919  1.00  0.00     0.000 C 
BRANCH  15  16
ATOM     16  C   UNL     1       7.535   5.386  19.401  1.00  0.00     0.000 C 
BRANCH  16  17
ATOM     17  C   UNL     1       7.377   3.858  19.457  1.00  0.00    -0.000 C 
BRANCH  17  18
ATOM     18  C   UNL     1       5.907   3.412  19.404  1.00  0.00    -0.000 C 
BRANCH  18  19
ATOM     19  C   UNL     1       5.389   2.919  20.763  1.00  0.00    -0.003 C 
ATOM     20  C   UNL     1       4.518   3.976  21.436  1.00  0.00     0.004 C 
ENDBRANCH  18  19
ENDBRANCH  17  18
ENDBRANCH  16  17
ENDBRANCH  15  16
ENDBRANCH  14  15
ENDBRANCH  13  14
ENDBRANCH   2  13
TORSDOF 15
ENDMDL
MODEL 9
REMARK VINA RESULT:    -4.680      6.153      9.475
REMARK INTER + INTRA:         -10.509
REMARK INTER:                  -7.861
REMARK INTRA:                  -2.648
REMARK UNBOUND:                -1.725
REMARK SMILES CCCCCCCCC=CCCCCCCCC(=O)[O-]
REMARK SMILES IDX 10 1 9 2 11 3 12 4 13 5 14 6 15 7 16 8 17 9 18 10 19 11
REMARK SMILES IDX 20 12 8 13 7 14 6 15 5 16 4 17 3 18 2 19 1 20
REMARK H PARENT
REMARK Flexibility Score: inf
ROOT
ATOM      1  C   UNL     1       8.845   6.439  15.970  1.00  0.00    -0.031 C 
ATOM      2  C   UNL     1       7.809   5.640  15.673  1.00  0.00    -0.031 C 
ENDROOT
BRANCH   1   3
ATOM      3  C   UNL     1      10.227   6.164  15.447  1.00  0.00     0.027 C 
BRANCH   3   4
ATOM      4  C   UNL     1      10.481   6.921  14.138  1.00  0.00     0.004 C 
BRANCH   4   5
ATOM      5  C   UNL     1      11.388   6.112  13.201  1.00  0.00     0.000 C 
BRANCH   5   6
ATOM      6  C   UNL     1      10.660   5.767  11.895  1.00  0.00     0.000 C 
BRANCH   6   7
ATOM      7  C   UNL     1       9.138   5.646  12.078  1.00  0.00     0.000 C 
BRANCH   7   8
ATOM      8  C   UNL     1       8.603   4.256  11.706  1.00  0.00     0.006 C 
BRANCH   8   9
ATOM      9  C   UNL     1       8.205   3.470  12.959  1.00  0.00     0.053 C 
BRANCH   9  10
ATOM     10  C   UNL     1       9.396   2.785  13.551  1.00  0.00     0.041 C 
ATOM     11  O   UNL     1       9.553   2.752  14.799  1.00  0.00    -0.550 OA
ATOM     12  O   UNL     1      10.360   2.224  12.722  1.00  0.00    -0.550 OA
ENDBRANCH   9  10
ENDBRANCH   8   9
ENDBRANCH   7   8
ENDBRANCH   6   7
ENDBRANCH   5   6
ENDBRANCH   4   5
ENDBRANCH   3   4
ENDBRANCH   1   3
BRANCH   2  13
ATOM     13  C   UNL     1       6.423   5.927  16.181  1.00  0.00     0.027 C 
BRANCH  13  14
ATOM     14  C   UNL     1       6.407   7.197  17.045  1.00  0.00     0.004 C 
BRANCH  14  15
ATOM     15  C   UNL     1       6.443   6.887  18.550  1.00  0.00     0.000 C 
BRANCH  15  16
ATOM     16  C   UNL     1       6.147   5.411  18.856  1.00  0.00     0.000 C 
BRANCH  16  17
ATOM     17  C   UNL     1       7.256   4.798  19.725  1.00  0.00    -0.000 C 
BRANCH  17  18
ATOM     18  C   UNL     1       7.948   3.604  19.047  1.00  0.00    -0.000 C 
BRANCH  18  19
ATOM     19  C   UNL     1       9.382   3.926  18.602  1.00  0.00    -0.003 C 
ATOM     20  C   UNL     1       9.915   5.163  19.320  1.00  0.00     0.004 C 
ENDBRANCH  18  19
ENDBRANCH  17  18
ENDBRANCH  16  17
ENDBRANCH  15  16
ENDBRANCH  14  15
ENDBRANCH  13  14
ENDBRANCH   2  13
TORSDOF 15
ENDMDL
