MODEL 1
REMARK VINA RESULT:    -5.318      0.000      0.000
REMARK INTER + INTRA:          -6.265
REMARK INTER:                  -6.406
REMARK INTRA:                   0.141
REMARK UNBOUND:                 0.141
REMARK SMILES O=c1c(O)c(-c2ccc(O)c(O)c2)oc2cc(O)cc(O)c12
REMARK SMILES IDX 5 1 3 2 2 3 1 4 22 5 20 6 19 7 17 8 16 9 15 10 14 11 6 12
REMARK SMILES IDX 7 13 8 14 9 15 13 16 11 17 10 18 12 20 4 22 21 24 18 26
REMARK H PARENT 10 19 12 21 4 23 21 25 18 27
REMARK Flexibility Score: inf
ROOT
ATOM      1  C   UNL     1       7.176   4.599  51.067  1.00  0.00     0.180 A 
ATOM      2  C   UNL     1       7.036   5.922  50.615  1.00  0.00     0.208 A 
ATOM      3  C   UNL     1       5.749   6.418  50.351  1.00  0.00     0.238 A 
ATOM      4  O   UNL     1       5.636   7.578  49.875  1.00  0.00    -0.285 OA
ATOM      5  C   UNL     1       4.616   5.605  50.594  1.00  0.00     0.111 A 
ATOM      6  C   UNL     1       3.262   6.021  50.405  1.00  0.00     0.134 A 
ATOM      7  C   UNL     1       2.226   5.095  50.577  1.00  0.00     0.093 A 
ATOM      8  C   UNL     1       2.486   3.791  50.994  1.00  0.00     0.123 A 
ATOM      9  C   UNL     1       3.801   3.390  51.236  1.00  0.00     0.094 A 
ATOM     10  C   UNL     1       4.860   4.278  51.035  1.00  0.00     0.146 A 
ATOM     11  O   UNL     1       6.096   3.849  51.256  1.00  0.00    -0.452 OA
ENDROOT
BRANCH   1  12
ATOM     12  C   UNL     1       8.499   3.999  51.353  1.00  0.00     0.025 A 
ATOM     13  C   UNL     1       8.770   2.690  50.926  1.00  0.00     0.016 A 
ATOM     14  C   UNL     1      10.019   2.112  51.166  1.00  0.00     0.051 A 
ATOM     15  C   UNL     1      11.020   2.835  51.822  1.00  0.00     0.157 A 
ATOM     16  C   UNL     1       9.513   4.734  51.995  1.00  0.00     0.062 A 
ATOM     17  C   UNL     1      10.768   4.155  52.234  1.00  0.00     0.158 A 
BRANCH  15  18
ATOM     18  O   UNL     1      12.255   2.231  52.050  1.00  0.00    -0.504 OA
ATOM     19  H   UNL     1      12.378   1.505  52.747  1.00  0.00     0.293 HD
ENDBRANCH  15  18
BRANCH  17  20
ATOM     20  O   UNL     1      11.766   4.888  52.876  1.00  0.00    -0.504 OA
ATOM     21  H   UNL     1      11.555   5.511  53.647  1.00  0.00     0.293 HD
ENDBRANCH  17  20
ENDBRANCH   1  12
BRANCH   2  22
ATOM     22  O   UNL     1       8.162   6.733  50.454  1.00  0.00    -0.502 OA
ATOM     23  H   UNL     1       8.109   7.665  50.061  1.00  0.00     0.293 HD
ENDBRANCH   2  22
BRANCH   6  24
ATOM     24  O   UNL     1       2.882   7.325  50.075  1.00  0.00    -0.507 OA
ATOM     25  H   UNL     1       1.938   7.620  49.877  1.00  0.00     0.293 HD
ENDBRANCH   6  24
BRANCH   8  26
ATOM     26  O   UNL     1       1.428   2.902  51.173  1.00  0.00    -0.508 OA
ATOM     27  H   UNL     1       0.514   3.219  51.476  1.00  0.00     0.293 HD
ENDBRANCH   8  26
TORSDOF 6
ENDMDL
MODEL 2
REMARK VINA RESULT:    -5.296      1.665      3.212
REMARK INTER + INTRA:          -6.239
REMARK INTER:                  -6.541
REMARK INTRA:                   0.303
REMARK UNBOUND:                 0.141
REMARK SMILES O=c1c(O)c(-c2ccc(O)c(O)c2)oc2cc(O)cc(O)c12
REMARK SMILES IDX 5 1 3 2 2 3 1 4 22 5 20 6 19 7 17 8 16 9 15 10 14 11 6 12
REMARK SMILES IDX 7 13 8 14 9 15 13 16 11 17 10 18 12 20 4 22 21 24 18 26
REMARK H PARENT 10 19 12 21 4 23 21 25 18 27
REMARK Flexibility Score: inf
ROOT
ATOM      1  C   UNL     1       8.102   5.053  50.992  1.00  0.00     0.180 A 
ATOM      2  C   UNL     1       7.438   3.907  51.465  1.00  0.00     0.208 A 
ATOM      3  C   UNL     1       6.036   3.913  51.532  1.00  0.00     0.238 A 
ATOM      4  O   UNL     1       5.452   2.913  52.026  1.00  0.00    -0.285 OA
ATOM      5  C   UNL     1       5.312   5.040  51.074  1.00  0.00     0.111 A 
ATOM      6  C   UNL     1       3.887   5.137  51.053  1.00  0.00     0.134 A 
ATOM      7  C   UNL     1       3.283   6.343  50.677  1.00  0.00     0.093 A 
ATOM      8  C   UNL     1       4.046   7.432  50.260  1.00  0.00     0.123 A 
ATOM      9  C   UNL     1       5.437   7.330  50.223  1.00  0.00     0.094 A 
ATOM     10  C   UNL     1       6.072   6.154  50.630  1.00  0.00     0.146 A 
ATOM     11  O   UNL     1       7.397   6.107  50.600  1.00  0.00    -0.452 OA
ENDROOT
BRANCH   1  12
ATOM     12  C   UNL     1       9.578   5.129  50.906  1.00  0.00     0.025 A 
ATOM     13  C   UNL     1      10.171   6.032  50.010  1.00  0.00     0.016 A 
ATOM     14  C   UNL     1      11.562   6.136  49.927  1.00  0.00     0.051 A 
ATOM     15  C   UNL     1      12.380   5.353  50.746  1.00  0.00     0.157 A 
ATOM     16  C   UNL     1      10.402   4.357  51.745  1.00  0.00     0.062 A 
ATOM     17  C   UNL     1      11.799   4.462  51.663  1.00  0.00     0.158 A 
BRANCH  15  18
ATOM     18  O   UNL     1      13.765   5.477  50.639  1.00  0.00    -0.504 OA
ATOM     19  H   UNL     1      14.198   6.211  50.091  1.00  0.00     0.293 HD
ENDBRANCH  15  18
BRANCH  17  20
ATOM     20  O   UNL     1      12.609   3.688  52.494  1.00  0.00    -0.504 OA
ATOM     21  H   UNL     1      13.364   3.123  52.123  1.00  0.00     0.293 HD
ENDBRANCH  17  20
ENDBRANCH   1  12
BRANCH   2  22
ATOM     22  O   UNL     1       8.167   2.777  51.841  1.00  0.00    -0.502 OA
ATOM     23  H   UNL     1       7.761   1.849  51.864  1.00  0.00     0.293 HD
ENDBRANCH   2  22
BRANCH   6  24
ATOM     24  O   UNL     1       3.026   4.081  51.364  1.00  0.00    -0.507 OA
ATOM     25  H   UNL     1       2.021   4.149  51.413  1.00  0.00     0.293 HD
ENDBRANCH   6  24
BRANCH   8  26
ATOM     26  O   UNL     1       3.410   8.611  49.875  1.00  0.00    -0.508 OA
ATOM     27  H   UNL     1       2.705   9.048  50.458  1.00  0.00     0.293 HD
ENDBRANCH   8  26
TORSDOF 6
ENDMDL
MODEL 3
REMARK VINA RESULT:    -5.161      1.481      7.264
REMARK INTER + INTRA:          -6.076
REMARK INTER:                  -6.211
REMARK INTRA:                   0.134
REMARK UNBOUND:                 0.141
REMARK SMILES O=c1c(O)c(-c2ccc(O)c(O)c2)oc2cc(O)cc(O)c12
REMARK SMILES IDX 5 1 3 2 2 3 1 4 22 5 20 6 19 7 17 8 16 9 15 10 14 11 6 12
REMARK SMILES IDX 7 13 8 14 9 15 13 16 11 17 10 18 12 20 4 22 21 24 18 26
REMARK H PARENT 10 19 12 21 4 23 21 25 18 27
REMARK Flexibility Score: inf
ROOT
ATOM      1  C   UNL     1       6.906   4.519  50.918  1.00  0.00     0.180 A 
ATOM      2  C   UNL     1       7.416   3.234  50.666  1.00  0.00     0.208 A 
ATOM      3  C   UNL     1       8.794   3.007  50.819  1.00  0.00     0.238 A 
ATOM      4  O   UNL     1       9.255   1.875  50.520  1.00  0.00    -0.285 OA
ATOM      5  C   UNL     1       9.634   4.051  51.275  1.00  0.00     0.111 A 
ATOM      6  C   UNL     1      11.038   3.922  51.508  1.00  0.00     0.134 A 
ATOM      7  C   UNL     1      11.786   5.052  51.857  1.00  0.00     0.093 A 
ATOM      8  C   UNL     1      11.177   6.291  52.044  1.00  0.00     0.123 A 
ATOM      9  C   UNL     1       9.798   6.418  51.872  1.00  0.00     0.094 A 
ATOM     10  C   UNL     1       9.028   5.317  51.487  1.00  0.00     0.146 A 
ATOM     11  O   UNL     1       7.724   5.487  51.314  1.00  0.00    -0.452 OA
ENDROOT
BRANCH   1  12
ATOM     12  C   UNL     1       5.468   4.839  50.766  1.00  0.00     0.025 A 
ATOM     13  C   UNL     1       5.091   6.034  50.132  1.00  0.00     0.016 A 
ATOM     14  C   UNL     1       3.741   6.347  49.958  1.00  0.00     0.051 A 
ATOM     15  C   UNL     1       2.748   5.467  50.399  1.00  0.00     0.157 A 
ATOM     16  C   UNL     1       4.468   3.945  51.191  1.00  0.00     0.062 A 
ATOM     17  C   UNL     1       3.113   4.258  51.014  1.00  0.00     0.158 A 
BRANCH  15  18
ATOM     18  O   UNL     1       1.409   5.809  50.214  1.00  0.00    -0.504 OA
ATOM     19  H   UNL     1       0.832   6.152  50.973  1.00  0.00     0.293 HD
ENDBRANCH  15  18
BRANCH  17  20
ATOM     20  O   UNL     1       2.127   3.369  51.444  1.00  0.00    -0.504 OA
ATOM     21  H   UNL     1       2.310   2.683  52.168  1.00  0.00     0.293 HD
ENDBRANCH  17  20
ENDBRANCH   1  12
BRANCH   2  22
ATOM     22  O   UNL     1       6.559   2.197  50.292  1.00  0.00    -0.502 OA
ATOM     23  H   UNL     1       6.204   1.517  50.953  1.00  0.00     0.293 HD
ENDBRANCH   2  22
BRANCH   6  24
ATOM     24  O   UNL     1      11.735   2.712  51.437  1.00  0.00    -0.507 OA
ATOM     25  H   UNL     1      12.182   2.350  50.609  1.00  0.00     0.293 HD
ENDBRANCH   6  24
BRANCH   8  26
ATOM     26  O   UNL     1      11.951   7.391  52.409  1.00  0.00    -0.508 OA
ATOM     27  H   UNL     1      11.961   7.740  53.361  1.00  0.00     0.293 HD
ENDBRANCH   8  26
TORSDOF 6
ENDMDL
MODEL 4
REMARK VINA RESULT:    -5.122      1.390      1.985
REMARK INTER + INTRA:          -6.030
REMARK INTER:                  -5.908
REMARK INTRA:                  -0.122
REMARK UNBOUND:                 0.141
REMARK SMILES O=c1c(O)c(-c2ccc(O)c(O)c2)oc2cc(O)cc(O)c12
REMARK SMILES IDX 5 1 3 2 2 3 1 4 22 5 20 6 19 7 17 8 16 9 15 10 14 11 6 12
REMARK SMILES IDX 7 13 8 14 9 15 13 16 11 17 10 18 12 20 4 22 21 24 18 26
REMARK H PARENT 10 19 12 21 4 23 21 25 18 27
REMARK Flexibility Score: inf
ROOT
ATOM      1  C   UNL     1       5.274   4.671  51.140  1.00  0.00     0.180 A 
ATOM      2  C   UNL     1       5.018   5.979  50.693  1.00  0.00     0.208 A 
ATOM      3  C   UNL     1       3.704   6.335  50.347  1.00  0.00     0.238 A 
ATOM      4  O   UNL     1       3.495   7.483  49.876  1.00  0.00    -0.285 OA
ATOM      5  C   UNL     1       2.655   5.398  50.505  1.00  0.00     0.111 A 
ATOM      6  C   UNL     1       1.279   5.665  50.228  1.00  0.00     0.134 A 
ATOM      7  C   UNL     1       0.343   4.627  50.320  1.00  0.00     0.093 A 
ATOM      8  C   UNL     1       0.718   3.353  50.740  1.00  0.00     0.123 A 
ATOM      9  C   UNL     1       2.050   3.095  51.067  1.00  0.00     0.094 A 
ATOM     10  C   UNL     1       3.015   4.098  50.947  1.00  0.00     0.146 A 
ATOM     11  O   UNL     1       4.274   3.804  51.247  1.00  0.00    -0.452 OA
ENDROOT
BRANCH   1  12
ATOM     12  C   UNL     1       6.634   4.216  51.509  1.00  0.00     0.025 A 
ATOM     13  C   UNL     1       7.243   3.191  50.768  1.00  0.00     0.016 A 
ATOM     14  C   UNL     1       8.534   2.761  51.085  1.00  0.00     0.051 A 
ATOM     15  C   UNL     1       9.241   3.356  52.134  1.00  0.00     0.157 A 
ATOM     16  C   UNL     1       7.354   4.828  52.551  1.00  0.00     0.062 A 
ATOM     17  C   UNL     1       8.650   4.398  52.868  1.00  0.00     0.158 A 
BRANCH  15  18
ATOM     18  O   UNL     1      10.526   2.903  52.429  1.00  0.00    -0.504 OA
ATOM     19  H   UNL     1      11.229   2.774  51.710  1.00  0.00     0.293 HD
ENDBRANCH  15  18
BRANCH  17  20
ATOM     20  O   UNL     1       9.355   5.006  53.907  1.00  0.00    -0.504 OA
ATOM     21  H   UNL     1      10.259   4.660  54.209  1.00  0.00     0.293 HD
ENDBRANCH  17  20
ENDBRANCH   1  12
BRANCH   2  22
ATOM     22  O   UNL     1       6.055   6.911  50.616  1.00  0.00    -0.502 OA
ATOM     23  H   UNL     1       5.986   7.837  51.022  1.00  0.00     0.293 HD
ENDBRANCH   2  22
BRANCH   6  24
ATOM     24  O   UNL     1       0.779   6.925  49.887  1.00  0.00    -0.507 OA
ATOM     25  H   UNL     1       1.176   7.804  50.181  1.00  0.00     0.293 HD
ENDBRANCH   6  24
BRANCH   8  26
ATOM     26  O   UNL     1      -0.244   2.349  50.838  1.00  0.00    -0.508 OA
ATOM     27  H   UNL     1       0.007   1.395  51.072  1.00  0.00     0.293 HD
ENDBRANCH   8  26
TORSDOF 6
ENDMDL
MODEL 5
REMARK VINA RESULT:    -4.739      3.552      6.940
REMARK INTER + INTRA:          -5.568
REMARK INTER:                  -5.987
REMARK INTRA:                   0.419
REMARK UNBOUND:                 0.141
REMARK SMILES O=c1c(O)c(-c2ccc(O)c(O)c2)oc2cc(O)cc(O)c12
REMARK SMILES IDX 5 1 3 2 2 3 1 4 22 5 20 6 19 7 17 8 16 9 15 10 14 11 6 12
REMARK SMILES IDX 7 13 8 14 9 15 13 16 11 17 10 18 12 20 4 22 21 24 18 26
REMARK H PARENT 10 19 12 21 4 23 21 25 18 27
REMARK Flexibility Score: inf
ROOT
ATOM      1  C   UNL     1       0.986   4.851  50.223  1.00  0.00     0.180 A 
ATOM      2  C   UNL     1       0.421   3.564  50.269  1.00  0.00     0.208 A 
ATOM      3  C   UNL     1      -0.977   3.433  50.222  1.00  0.00     0.238 A 
ATOM      4  O   UNL     1      -1.478   2.285  50.340  1.00  0.00    -0.285 OA
ATOM      5  C   UNL     1      -1.789   4.583  50.074  1.00  0.00     0.111 A 
ATOM      6  C   UNL     1      -3.213   4.564  49.970  1.00  0.00     0.134 A 
ATOM      7  C   UNL     1      -3.919   5.773  49.934  1.00  0.00     0.093 A 
ATOM      8  C   UNL     1      -3.252   6.997  49.931  1.00  0.00     0.123 A 
ATOM      9  C   UNL     1      -1.858   7.027  49.976  1.00  0.00     0.094 A 
ATOM     10  C   UNL     1      -1.127   5.839  50.053  1.00  0.00     0.146 A 
ATOM     11  O   UNL     1       0.197   5.913  50.116  1.00  0.00    -0.452 OA
ENDROOT
BRANCH   1  12
ATOM     12  C   UNL     1       2.449   5.071  50.282  1.00  0.00     0.025 A 
ATOM     13  C   UNL     1       2.965   6.349  50.013  1.00  0.00     0.016 A 
ATOM     14  C   UNL     1       4.340   6.585  50.084  1.00  0.00     0.051 A 
ATOM     15  C   UNL     1       5.218   5.556  50.438  1.00  0.00     0.157 A 
ATOM     16  C   UNL     1       3.331   4.042  50.659  1.00  0.00     0.062 A 
ATOM     17  C   UNL     1       4.711   4.279  50.732  1.00  0.00     0.158 A 
BRANCH  15  18
ATOM     18  O   UNL     1       6.585   5.822  50.497  1.00  0.00    -0.504 OA
ATOM     19  H   UNL     1       7.081   6.260  49.730  1.00  0.00     0.293 HD
ENDBRANCH  15  18
BRANCH  17  20
ATOM     20  O   UNL     1       5.580   3.252  51.100  1.00  0.00    -0.504 OA
ATOM     21  H   UNL     1       6.457   3.442  51.570  1.00  0.00     0.293 HD
ENDBRANCH  17  20
ENDBRANCH   1  12
BRANCH   2  22
ATOM     22  O   UNL     1       1.243   2.437  50.338  1.00  0.00    -0.502 OA
ATOM     23  H   UNL     1       2.235   2.498  50.533  1.00  0.00     0.293 HD
ENDBRANCH   2  22
BRANCH   6  24
ATOM     24  O   UNL     1      -3.976   3.396  49.875  1.00  0.00    -0.507 OA
ATOM     25  H   UNL     1      -4.041   2.813  49.055  1.00  0.00     0.293 HD
ENDBRANCH   6  24
BRANCH   8  26
ATOM     26  O   UNL     1      -3.986   8.180  49.875  1.00  0.00    -0.508 OA
ATOM     27  H   UNL     1      -3.759   8.915  49.214  1.00  0.00     0.293 HD
ENDBRANCH   8  26
TORSDOF 6
ENDMDL
MODEL 6
REMARK VINA RESULT:    -4.722      1.352      6.799
REMARK INTER + INTRA:          -5.548
REMARK INTER:                  -5.994
REMARK INTRA:                   0.446
REMARK UNBOUND:                 0.141
REMARK SMILES O=c1c(O)c(-c2ccc(O)c(O)c2)oc2cc(O)cc(O)c12
REMARK SMILES IDX 5 1 3 2 2 3 1 4 22 5 20 6 19 7 17 8 16 9 15 10 14 11 6 12
REMARK SMILES IDX 7 13 8 14 9 15 13 16 11 17 10 18 12 20 4 22 21 24 18 26
REMARK H PARENT 10 19 12 21 4 23 21 25 18 27
REMARK Flexibility Score: inf
ROOT
ATOM      1  C   UNL     1       7.445   5.165  50.894  1.00  0.00     0.180 A 
ATOM      2  C   UNL     1       8.128   6.309  50.446  1.00  0.00     0.208 A 
ATOM      3  C   UNL     1       9.527   6.356  50.563  1.00  0.00     0.238 A 
ATOM      4  O   UNL     1      10.124   7.412  50.230  1.00  0.00    -0.285 OA
ATOM      5  C   UNL     1      10.230   5.238  51.073  1.00  0.00     0.111 A 
ATOM      6  C   UNL     1      11.651   5.158  51.194  1.00  0.00     0.134 A 
ATOM      7  C   UNL     1      12.229   4.042  51.813  1.00  0.00     0.093 A 
ATOM      8  C   UNL     1      11.447   2.977  52.255  1.00  0.00     0.123 A 
ATOM      9  C   UNL     1      10.061   3.020  52.092  1.00  0.00     0.094 A 
ATOM     10  C   UNL     1       9.451   4.136  51.514  1.00  0.00     0.146 A 
ATOM     11  O   UNL     1       8.129   4.145  51.398  1.00  0.00    -0.452 OA
ENDROOT
BRANCH   1  12
ATOM     12  C   UNL     1       5.971   5.047  50.818  1.00  0.00     0.025 A 
ATOM     13  C   UNL     1       5.358   3.833  51.165  1.00  0.00     0.016 A 
ATOM     14  C   UNL     1       3.967   3.705  51.122  1.00  0.00     0.051 A 
ATOM     15  C   UNL     1       3.168   4.789  50.746  1.00  0.00     0.157 A 
ATOM     16  C   UNL     1       5.165   6.143  50.460  1.00  0.00     0.062 A 
ATOM     17  C   UNL     1       3.769   6.016  50.418  1.00  0.00     0.158 A 
BRANCH  15  18
ATOM     18  O   UNL     1       1.784   4.631  50.709  1.00  0.00    -0.504 OA
ATOM     19  H   UNL     1       1.209   4.728  51.537  1.00  0.00     0.293 HD
ENDBRANCH  15  18
BRANCH  17  20
ATOM     20  O   UNL     1       2.978   7.106  50.056  1.00  0.00    -0.504 OA
ATOM     21  H   UNL     1       2.208   7.010  49.404  1.00  0.00     0.293 HD
ENDBRANCH  17  20
ENDBRANCH   1  12
BRANCH   2  22
ATOM     22  O   UNL     1       7.423   7.371  49.875  1.00  0.00    -0.502 OA
ATOM     23  H   UNL     1       7.839   7.999  49.199  1.00  0.00     0.293 HD
ENDBRANCH   2  22
BRANCH   6  24
ATOM     24  O   UNL     1      12.534   6.125  50.706  1.00  0.00    -0.507 OA
ATOM     25  H   UNL     1      12.764   6.988  51.174  1.00  0.00     0.293 HD
ENDBRANCH   6  24
BRANCH   8  26
ATOM     26  O   UNL     1      12.058   1.875  52.849  1.00  0.00    -0.508 OA
ATOM     27  H   UNL     1      12.386   1.089  52.299  1.00  0.00     0.293 HD
ENDBRANCH   8  26
TORSDOF 6
ENDMDL
MODEL 7
REMARK VINA RESULT:    -4.126      1.730      7.260
REMARK INTER + INTRA:          -4.829
REMARK INTER:                  -5.276
REMARK INTRA:                   0.446
REMARK UNBOUND:                 0.141
REMARK SMILES O=c1c(O)c(-c2ccc(O)c(O)c2)oc2cc(O)cc(O)c12
REMARK SMILES IDX 5 1 3 2 2 3 1 4 22 5 20 6 19 7 17 8 16 9 15 10 14 11 6 12
REMARK SMILES IDX 7 13 8 14 9 15 13 16 11 17 10 18 12 20 4 22 21 24 18 26
REMARK H PARENT 10 19 12 21 4 23 21 25 18 27
REMARK Flexibility Score: inf
ROOT
ATOM      1  C   UNL     1       7.389   4.635  51.119  1.00  0.00     0.180 A 
ATOM      2  C   UNL     1       7.878   3.492  51.775  1.00  0.00     0.208 A 
ATOM      3  C   UNL     1       9.264   3.343  51.941  1.00  0.00     0.238 A 
ATOM      4  O   UNL     1       9.698   2.283  52.462  1.00  0.00    -0.285 OA
ATOM      5  C   UNL     1      10.141   4.362  51.498  1.00  0.00     0.111 A 
ATOM      6  C   UNL     1      11.561   4.337  51.655  1.00  0.00     0.134 A 
ATOM      7  C   UNL     1      12.336   5.353  51.082  1.00  0.00     0.093 A 
ATOM      8  C   UNL     1      11.743   6.424  50.416  1.00  0.00     0.123 A 
ATOM      9  C   UNL     1      10.353   6.488  50.306  1.00  0.00     0.094 A 
ATOM     10  C   UNL     1       9.554   5.470  50.832  1.00  0.00     0.146 A 
ATOM     11  O   UNL     1       8.238   5.559  50.686  1.00  0.00    -0.452 OA
ENDROOT
BRANCH   1  12
ATOM     12  C   UNL     1       5.943   4.856  50.893  1.00  0.00     0.025 A 
ATOM     13  C   UNL     1       5.059   3.768  50.965  1.00  0.00     0.016 A 
ATOM     14  C   UNL     1       3.687   3.957  50.776  1.00  0.00     0.051 A 
ATOM     15  C   UNL     1       3.176   5.235  50.530  1.00  0.00     0.157 A 
ATOM     16  C   UNL     1       5.425   6.144  50.665  1.00  0.00     0.062 A 
ATOM     17  C   UNL     1       4.048   6.335  50.478  1.00  0.00     0.158 A 
BRANCH  15  18
ATOM     18  O   UNL     1       1.804   5.391  50.343  1.00  0.00    -0.504 OA
ATOM     19  H   UNL     1       1.201   4.613  50.101  1.00  0.00     0.293 HD
ENDBRANCH  15  18
BRANCH  17  20
ATOM     20  O   UNL     1       3.544   7.615  50.246  1.00  0.00    -0.504 OA
ATOM     21  H   UNL     1       2.565   7.769  50.033  1.00  0.00     0.293 HD
ENDBRANCH  17  20
ENDBRANCH   1  12
BRANCH   2  22
ATOM     22  O   UNL     1       6.991   2.534  52.273  1.00  0.00    -0.502 OA
ATOM     23  H   UNL     1       7.282   1.802  52.909  1.00  0.00     0.293 HD
ENDBRANCH   2  22
BRANCH   6  24
ATOM     24  O   UNL     1      12.252   3.360  52.378  1.00  0.00    -0.507 OA
ATOM     25  H   UNL     1      11.820   2.610  52.895  1.00  0.00     0.293 HD
ENDBRANCH   6  24
BRANCH   8  26
ATOM     26  O   UNL     1      12.545   7.427  49.875  1.00  0.00    -0.508 OA
ATOM     27  H   UNL     1      13.517   7.533  50.145  1.00  0.00     0.293 HD
ENDBRANCH   8  26
TORSDOF 6
ENDMDL
MODEL 8
REMARK VINA RESULT:    -4.090      1.978      7.301
REMARK INTER + INTRA:          -4.786
REMARK INTER:                  -5.241
REMARK INTRA:                   0.455
REMARK UNBOUND:                 0.141
REMARK SMILES O=c1c(O)c(-c2ccc(O)c(O)c2)oc2cc(O)cc(O)c12
REMARK SMILES IDX 5 1 3 2 2 3 1 4 22 5 20 6 19 7 17 8 16 9 15 10 14 11 6 12
REMARK SMILES IDX 7 13 8 14 9 15 13 16 11 17 10 18 12 20 4 22 21 24 18 26
REMARK H PARENT 10 19 12 21 4 23 21 25 18 27
REMARK Flexibility Score: inf
ROOT
ATOM      1  C   UNL     1       3.282   4.927  50.432  1.00  0.00     0.180 A 
ATOM      2  C   UNL     1       3.631   6.264  50.175  1.00  0.00     0.208 A 
ATOM      3  C   UNL     1       4.986   6.631  50.205  1.00  0.00     0.238 A 
ATOM      4  O   UNL     1       5.285   7.844  50.048  1.00  0.00    -0.285 OA
ATOM      5  C   UNL     1       5.978   5.648  50.435  1.00  0.00     0.111 A 
ATOM      6  C   UNL     1       7.384   5.899  50.441  1.00  0.00     0.134 A 
ATOM      7  C   UNL     1       8.268   4.869  50.786  1.00  0.00     0.093 A 
ATOM      8  C   UNL     1       7.804   3.583  51.060  1.00  0.00     0.123 A 
ATOM      9  C   UNL     1       6.436   3.313  51.002  1.00  0.00     0.094 A 
ATOM     10  C   UNL     1       5.526   4.329  50.699  1.00  0.00     0.146 A 
ATOM     11  O   UNL     1       4.233   4.033  50.677  1.00  0.00    -0.452 OA
ENDROOT
BRANCH   1  12
ATOM     12  C   UNL     1       1.875   4.466  50.434  1.00  0.00     0.025 A 
ATOM     13  C   UNL     1       1.596   3.101  50.602  1.00  0.00     0.016 A 
ATOM     14  C   UNL     1       0.275   2.646  50.628  1.00  0.00     0.051 A 
ATOM     15  C   UNL     1      -0.786   3.547  50.502  1.00  0.00     0.157 A 
ATOM     16  C   UNL     1       0.806   5.375  50.328  1.00  0.00     0.062 A 
ATOM     17  C   UNL     1      -0.521   4.919  50.356  1.00  0.00     0.158 A 
BRANCH  15  18
ATOM     18  O   UNL     1      -2.093   3.063  50.528  1.00  0.00    -0.504 OA
ATOM     19  H   UNL     1      -2.601   2.933  51.395  1.00  0.00     0.293 HD
ENDBRANCH  15  18
BRANCH  17  20
ATOM     20  O   UNL     1      -1.575   5.825  50.244  1.00  0.00    -0.504 OA
ATOM     21  H   UNL     1      -2.509   5.525  49.990  1.00  0.00     0.293 HD
ENDBRANCH  17  20
ENDBRANCH   1  12
BRANCH   2  22
ATOM     22  O   UNL     1       2.642   7.204  49.875  1.00  0.00    -0.502 OA
ATOM     23  H   UNL     1       1.799   7.304  50.428  1.00  0.00     0.293 HD
ENDBRANCH   2  22
BRANCH   6  24
ATOM     24  O   UNL     1       7.963   7.124  50.096  1.00  0.00    -0.507 OA
ATOM     25  H   UNL     1       8.109   7.894  50.730  1.00  0.00     0.293 HD
ENDBRANCH   6  24
BRANCH   8  26
ATOM     26  O   UNL     1       8.714   2.578  51.381  1.00  0.00    -0.508 OA
ATOM     27  H   UNL     1       8.441   1.773  51.934  1.00  0.00     0.293 HD
ENDBRANCH   8  26
TORSDOF 6
ENDMDL
