MODEL 1
REMARK VINA RESULT:    -7.596      0.000      0.000
REMARK INTER + INTRA:          -9.204
REMARK INTER:                  -8.928
REMARK INTRA:                  -0.276
REMARK UNBOUND:                -0.276
REMARK SMILES O=c1cc(-c2ccc(O)c(O)c2)oc2cc(O)cc(O)c12
REMARK SMILES IDX 4 1 3 2 2 3 1 4 21 5 19 6 18 7 16 8 15 9 14 10 13 11 5 12
REMARK SMILES IDX 6 13 7 14 8 15 12 16 10 17 9 18 11 20 20 22 17 24
REMARK H PARENT 9 19 11 21 20 23 17 25
REMARK Flexibility Score: inf
ROOT
ATOM      1  C   UNL     1      15.233  15.674  62.048  1.00  0.00     0.138 A 
ATOM      2  C   UNL     1      14.856  15.432  60.719  1.00  0.00     0.100 A 
ATOM      3  C   UNL     1      15.783  15.620  59.694  1.00  0.00     0.197 A 
ATOM      4  O   UNL     1      15.431  15.342  58.519  1.00  0.00    -0.289 OA
ATOM      5  C   UNL     1      17.084  16.089  59.998  1.00  0.00     0.107 A 
ATOM      6  C   UNL     1      18.102  16.349  59.032  1.00  0.00     0.134 A 
ATOM      7  C   UNL     1      19.383  16.716  59.461  1.00  0.00     0.093 A 
ATOM      8  C   UNL     1      19.668  16.887  60.818  1.00  0.00     0.123 A 
ATOM      9  C   UNL     1      18.668  16.683  61.767  1.00  0.00     0.094 A 
ATOM     10  C   UNL     1      17.389  16.284  61.372  1.00  0.00     0.146 A 
ATOM     11  O   UNL     1      16.470  16.082  62.310  1.00  0.00    -0.456 OA
ENDROOT
BRANCH   1  12
ATOM     12  C   UNL     1      14.285  15.494  63.178  1.00  0.00     0.021 A 
ATOM     13  C   UNL     1      14.689  14.762  64.306  1.00  0.00     0.016 A 
ATOM     14  C   UNL     1      13.814  14.572  65.377  1.00  0.00     0.051 A 
ATOM     15  C   UNL     1      12.519  15.097  65.345  1.00  0.00     0.157 A 
ATOM     16  C   UNL     1      12.976  16.010  63.136  1.00  0.00     0.062 A 
ATOM     17  C   UNL     1      12.092  15.821  64.207  1.00  0.00     0.158 A 
BRANCH  15  18
ATOM     18  O   UNL     1      11.697  14.875  66.452  1.00  0.00    -0.504 OA
ATOM     19  H   UNL     1      11.326  15.611  67.036  1.00  0.00     0.293 HD
ENDBRANCH  15  18
BRANCH  17  20
ATOM     20  O   UNL     1      10.809  16.360  64.095  1.00  0.00    -0.504 OA
ATOM     21  H   UNL     1      10.408  17.006  64.759  1.00  0.00     0.293 HD
ENDBRANCH  17  20
ENDBRANCH   1  12
BRANCH   6  22
ATOM     22  O   UNL     1      17.905  16.287  57.648  1.00  0.00    -0.507 OA
ATOM     23  H   UNL     1      17.161  15.782  57.192  1.00  0.00     0.293 HD
ENDBRANCH   6  22
BRANCH   8  24
ATOM     24  O   UNL     1      20.942  17.266  61.236  1.00  0.00    -0.508 OA
ATOM     25  H   UNL     1      21.391  18.100  60.875  1.00  0.00     0.293 HD
ENDBRANCH   8  24
TORSDOF 5
ENDMDL
MODEL 2
REMARK VINA RESULT:    -7.166      2.066      2.996
REMARK INTER + INTRA:          -8.698
REMARK INTER:                  -8.384
REMARK INTRA:                  -0.314
REMARK UNBOUND:                -0.276
REMARK SMILES O=c1cc(-c2ccc(O)c(O)c2)oc2cc(O)cc(O)c12
REMARK SMILES IDX 4 1 3 2 2 3 1 4 21 5 19 6 18 7 16 8 15 9 14 10 13 11 5 12
REMARK SMILES IDX 6 13 7 14 8 15 12 16 10 17 9 18 11 20 20 22 17 24
REMARK H PARENT 9 19 11 21 20 23 17 25
REMARK Flexibility Score: inf
ROOT
ATOM      1  C   UNL     1      15.457  15.338  61.282  1.00  0.00     0.138 A 
ATOM      2  C   UNL     1      15.839  16.574  60.741  1.00  0.00     0.100 A 
ATOM      3  C   UNL     1      16.702  16.610  59.646  1.00  0.00     0.197 A 
ATOM      4  O   UNL     1      16.981  17.732  59.150  1.00  0.00    -0.289 OA
ATOM      5  C   UNL     1      17.216  15.404  59.114  1.00  0.00     0.107 A 
ATOM      6  C   UNL     1      18.130  15.320  58.021  1.00  0.00     0.134 A 
ATOM      7  C   UNL     1      18.492  14.064  57.519  1.00  0.00     0.093 A 
ATOM      8  C   UNL     1      18.017  12.888  58.105  1.00  0.00     0.123 A 
ATOM      9  C   UNL     1      17.163  12.958  59.204  1.00  0.00     0.094 A 
ATOM     10  C   UNL     1      16.758  14.196  59.707  1.00  0.00     0.146 A 
ATOM     11  O   UNL     1      15.927  14.219  60.744  1.00  0.00    -0.456 OA
ENDROOT
BRANCH   1  12
ATOM     12  C   UNL     1      14.543  15.242  62.449  1.00  0.00     0.021 A 
ATOM     13  C   UNL     1      13.789  16.363  62.830  1.00  0.00     0.016 A 
ATOM     14  C   UNL     1      12.929  16.301  63.928  1.00  0.00     0.051 A 
ATOM     15  C   UNL     1      12.808  15.125  64.674  1.00  0.00     0.157 A 
ATOM     16  C   UNL     1      14.434  14.062  63.210  1.00  0.00     0.062 A 
ATOM     17  C   UNL     1      13.574  13.992  64.314  1.00  0.00     0.158 A 
BRANCH  15  18
ATOM     18  O   UNL     1      11.926  15.127  65.757  1.00  0.00    -0.504 OA
ATOM     19  H   UNL     1      11.179  15.797  65.875  1.00  0.00     0.293 HD
ENDBRANCH  15  18
BRANCH  17  20
ATOM     20  O   UNL     1      13.520  12.789  65.022  1.00  0.00    -0.504 OA
ATOM     21  H   UNL     1      13.796  12.689  65.988  1.00  0.00     0.293 HD
ENDBRANCH  17  20
ENDBRANCH   1  12
BRANCH   6  22
ATOM     22  O   UNL     1      18.728  16.428  57.411  1.00  0.00    -0.507 OA
ATOM     23  H   UNL     1      18.285  17.021  56.727  1.00  0.00     0.293 HD
ENDBRANCH   6  22
BRANCH   8  24
ATOM     24  O   UNL     1      18.394  11.642  57.608  1.00  0.00    -0.508 OA
ATOM     25  H   UNL     1      17.967  10.786  57.944  1.00  0.00     0.293 HD
ENDBRANCH   8  24
TORSDOF 5
ENDMDL
MODEL 3
REMARK VINA RESULT:    -6.884      1.849      2.513
REMARK INTER + INTRA:          -8.368
REMARK INTER:                  -8.094
REMARK INTRA:                  -0.274
REMARK UNBOUND:                -0.276
REMARK SMILES O=c1cc(-c2ccc(O)c(O)c2)oc2cc(O)cc(O)c12
REMARK SMILES IDX 4 1 3 2 2 3 1 4 21 5 19 6 18 7 16 8 15 9 14 10 13 11 5 12
REMARK SMILES IDX 6 13 7 14 8 15 12 16 10 17 9 18 11 20 20 22 17 24
REMARK H PARENT 9 19 11 21 20 23 17 25
REMARK Flexibility Score: inf
ROOT
ATOM      1  C   UNL     1      14.769  15.364  62.173  1.00  0.00     0.138 A 
ATOM      2  C   UNL     1      15.042  16.610  61.592  1.00  0.00     0.100 A 
ATOM      3  C   UNL     1      15.843  16.680  60.452  1.00  0.00     0.197 A 
ATOM      4  O   UNL     1      16.023  17.807  59.923  1.00  0.00    -0.289 OA
ATOM      5  C   UNL     1      16.404  15.498  59.913  1.00  0.00     0.107 A 
ATOM      6  C   UNL     1      17.264  15.450  58.774  1.00  0.00     0.134 A 
ATOM      7  C   UNL     1      17.678  14.210  58.274  1.00  0.00     0.093 A 
ATOM      8  C   UNL     1      17.312  13.018  58.905  1.00  0.00     0.123 A 
ATOM      9  C   UNL     1      16.514  13.056  60.046  1.00  0.00     0.094 A 
ATOM     10  C   UNL     1      16.056  14.276  60.549  1.00  0.00     0.146 A 
ATOM     11  O   UNL     1      15.282  14.266  61.629  1.00  0.00    -0.456 OA
ENDROOT
BRANCH   1  12
ATOM     12  C   UNL     1      13.926  15.233  63.389  1.00  0.00     0.021 A 
ATOM     13  C   UNL     1      14.405  14.496  64.484  1.00  0.00     0.016 A 
ATOM     14  C   UNL     1      13.629  14.351  65.635  1.00  0.00     0.051 A 
ATOM     15  C   UNL     1      12.358  14.927  65.717  1.00  0.00     0.157 A 
ATOM     16  C   UNL     1      12.640  15.800  63.464  1.00  0.00     0.062 A 
ATOM     17  C   UNL     1      11.854  15.657  64.615  1.00  0.00     0.158 A 
BRANCH  15  18
ATOM     18  O   UNL     1      11.636  14.749  66.899  1.00  0.00    -0.504 OA
ATOM     19  H   UNL     1      10.647  14.546  66.932  1.00  0.00     0.293 HD
ENDBRANCH  15  18
BRANCH  17  20
ATOM     20  O   UNL     1      10.588  16.246  64.617  1.00  0.00    -0.504 OA
ATOM     21  H   UNL     1      10.210  16.770  65.393  1.00  0.00     0.293 HD
ENDBRANCH  17  20
ENDBRANCH   1  12
BRANCH   6  22
ATOM     22  O   UNL     1      17.756  16.581  58.115  1.00  0.00    -0.507 OA
ATOM     23  H   UNL     1      17.596  16.802  57.144  1.00  0.00     0.293 HD
ENDBRANCH   6  22
BRANCH   8  24
ATOM     24  O   UNL     1      17.741  11.789  58.408  1.00  0.00    -0.508 OA
ATOM     25  H   UNL     1      18.610  11.368  58.716  1.00  0.00     0.293 HD
ENDBRANCH   8  24
TORSDOF 5
ENDMDL
MODEL 4
REMARK VINA RESULT:    -6.654      1.981      7.018
REMARK INTER + INTRA:          -8.097
REMARK INTER:                  -7.826
REMARK INTRA:                  -0.270
REMARK UNBOUND:                -0.276
REMARK SMILES O=c1cc(-c2ccc(O)c(O)c2)oc2cc(O)cc(O)c12
REMARK SMILES IDX 4 1 3 2 2 3 1 4 21 5 19 6 18 7 16 8 15 9 14 10 13 11 5 12
REMARK SMILES IDX 6 13 7 14 8 15 12 16 10 17 9 18 11 20 20 22 17 24
REMARK H PARENT 9 19 11 21 20 23 17 25
REMARK Flexibility Score: inf
ROOT
ATOM      1  C   UNL     1      15.853  16.732  62.419  1.00  0.00     0.138 A 
ATOM      2  C   UNL     1      15.217  15.512  62.687  1.00  0.00     0.100 A 
ATOM      3  C   UNL     1      13.889  15.506  63.115  1.00  0.00     0.197 A 
ATOM      4  O   UNL     1      13.330  14.393  63.293  1.00  0.00    -0.289 OA
ATOM      5  C   UNL     1      13.207  16.730  63.312  1.00  0.00     0.107 A 
ATOM      6  C   UNL     1      11.862  16.847  63.778  1.00  0.00     0.134 A 
ATOM      7  C   UNL     1      11.261  18.110  63.839  1.00  0.00     0.093 A 
ATOM      8  C   UNL     1      11.973  19.265  63.506  1.00  0.00     0.123 A 
ATOM      9  C   UNL     1      13.301  19.166  63.096  1.00  0.00     0.094 A 
ATOM     10  C   UNL     1      13.918  17.918  62.993  1.00  0.00     0.146 A 
ATOM     11  O   UNL     1      15.180  17.867  62.581  1.00  0.00    -0.456 OA
ENDROOT
BRANCH   1  12
ATOM     12  C   UNL     1      17.266  16.798  61.965  1.00  0.00     0.021 A 
ATOM     13  C   UNL     1      18.190  17.565  62.692  1.00  0.00     0.016 A 
ATOM     14  C   UNL     1      19.521  17.649  62.282  1.00  0.00     0.051 A 
ATOM     15  C   UNL     1      19.958  16.980  61.135  1.00  0.00     0.157 A 
ATOM     16  C   UNL     1      17.701  16.136  60.801  1.00  0.00     0.062 A 
ATOM     17  C   UNL     1      19.036  16.218  60.381  1.00  0.00     0.158 A 
BRANCH  15  18
ATOM     18  O   UNL     1      21.304  17.100  60.783  1.00  0.00    -0.504 OA
ATOM     19  H   UNL     1      22.046  17.289  61.442  1.00  0.00     0.293 HD
ENDBRANCH  15  18
BRANCH  17  20
ATOM     20  O   UNL     1      19.395  15.537  59.216  1.00  0.00    -0.504 OA
ATOM     21  H   UNL     1      18.790  15.431  58.414  1.00  0.00     0.293 HD
ENDBRANCH  17  20
ENDBRANCH   1  12
BRANCH   6  22
ATOM     22  O   UNL     1      11.086  15.768  64.213  1.00  0.00    -0.507 OA
ATOM     23  H   UNL     1      10.080  15.726  64.175  1.00  0.00     0.293 HD
ENDBRANCH   6  22
BRANCH   8  24
ATOM     24  O   UNL     1      11.371  20.520  63.584  1.00  0.00    -0.508 OA
ATOM     25  H   UNL     1      10.812  20.790  64.385  1.00  0.00     0.293 HD
ENDBRANCH   8  24
TORSDOF 5
ENDMDL
MODEL 5
REMARK VINA RESULT:    -6.543      1.428      7.288
REMARK INTER + INTRA:          -7.966
REMARK INTER:                  -7.703
REMARK INTRA:                  -0.264
REMARK UNBOUND:                -0.276
REMARK SMILES O=c1cc(-c2ccc(O)c(O)c2)oc2cc(O)cc(O)c12
REMARK SMILES IDX 4 1 3 2 2 3 1 4 21 5 19 6 18 7 16 8 15 9 14 10 13 11 5 12
REMARK SMILES IDX 6 13 7 14 8 15 12 16 10 17 9 18 11 20 20 22 17 24
REMARK H PARENT 9 19 11 21 20 23 17 25
REMARK Flexibility Score: inf
ROOT
ATOM      1  C   UNL     1      15.173  15.571  61.893  1.00  0.00     0.138 A 
ATOM      2  C   UNL     1      15.303  14.510  62.800  1.00  0.00     0.100 A 
ATOM      3  C   UNL     1      14.388  14.380  63.846  1.00  0.00     0.197 A 
ATOM      4  O   UNL     1      14.500  13.386  64.610  1.00  0.00    -0.289 OA
ATOM      5  C   UNL     1      13.360  15.338  64.004  1.00  0.00     0.107 A 
ATOM      6  C   UNL     1      12.390  15.327  65.052  1.00  0.00     0.134 A 
ATOM      7  C   UNL     1      11.359  16.274  65.049  1.00  0.00     0.093 A 
ATOM      8  C   UNL     1      11.294  17.266  64.068  1.00  0.00     0.123 A 
ATOM      9  C   UNL     1      12.264  17.317  63.068  1.00  0.00     0.094 A 
ATOM     10  C   UNL     1      13.285  16.366  63.026  1.00  0.00     0.146 A 
ATOM     11  O   UNL     1      14.179  16.439  62.045  1.00  0.00    -0.456 OA
ENDROOT
BRANCH   1  12
ATOM     12  C   UNL     1      16.120  15.759  60.764  1.00  0.00     0.021 A 
ATOM     13  C   UNL     1      15.724  15.404  59.465  1.00  0.00     0.016 A 
ATOM     14  C   UNL     1      16.599  15.564  58.389  1.00  0.00     0.051 A 
ATOM     15  C   UNL     1      17.887  16.071  58.584  1.00  0.00     0.157 A 
ATOM     16  C   UNL     1      17.423  16.255  60.965  1.00  0.00     0.062 A 
ATOM     17  C   UNL     1      18.307  16.416  59.890  1.00  0.00     0.158 A 
BRANCH  15  18
ATOM     18  O   UNL     1      18.709  16.211  57.464  1.00  0.00    -0.504 OA
ATOM     19  H   UNL     1      19.516  15.632  57.279  1.00  0.00     0.293 HD
ENDBRANCH  15  18
BRANCH  17  20
ATOM     20  O   UNL     1      19.583  16.912  60.165  1.00  0.00    -0.504 OA
ATOM     21  H   UNL     1      20.011  17.677  59.664  1.00  0.00     0.293 HD
ENDBRANCH  17  20
ENDBRANCH   1  12
BRANCH   6  22
ATOM     22  O   UNL     1      12.406  14.430  66.126  1.00  0.00    -0.507 OA
ATOM     23  H   UNL     1      12.971  14.530  66.955  1.00  0.00     0.293 HD
ENDBRANCH   6  22
BRANCH   8  24
ATOM     24  O   UNL     1      10.272  18.214  64.081  1.00  0.00    -0.508 OA
ATOM     25  H   UNL     1      10.366  19.100  63.599  1.00  0.00     0.293 HD
ENDBRANCH   8  24
TORSDOF 5
ENDMDL
MODEL 6
REMARK VINA RESULT:    -6.490      3.562      7.027
REMARK INTER + INTRA:          -7.904
REMARK INTER:                  -7.641
REMARK INTRA:                  -0.264
REMARK UNBOUND:                -0.276
REMARK SMILES O=c1cc(-c2ccc(O)c(O)c2)oc2cc(O)cc(O)c12
REMARK SMILES IDX 4 1 3 2 2 3 1 4 21 5 19 6 18 7 16 8 15 9 14 10 13 11 5 12
REMARK SMILES IDX 6 13 7 14 8 15 12 16 10 17 9 18 11 20 20 22 17 24
REMARK H PARENT 9 19 11 21 20 23 17 25
REMARK Flexibility Score: inf
ROOT
ATOM      1  C   UNL     1      14.984  12.506  61.400  1.00  0.00     0.138 A 
ATOM      2  C   UNL     1      14.490  11.798  62.504  1.00  0.00     0.100 A 
ATOM      3  C   UNL     1      14.048  12.495  63.629  1.00  0.00     0.197 A 
ATOM      4  O   UNL     1      13.559  11.833  64.581  1.00  0.00    -0.289 OA
ATOM      5  C   UNL     1      14.136  13.907  63.662  1.00  0.00     0.107 A 
ATOM      6  C   UNL     1      13.747  14.722  64.768  1.00  0.00     0.134 A 
ATOM      7  C   UNL     1      13.788  16.116  64.646  1.00  0.00     0.093 A 
ATOM      8  C   UNL     1      14.258  16.725  63.479  1.00  0.00     0.123 A 
ATOM      9  C   UNL     1      14.686  15.938  62.412  1.00  0.00     0.094 A 
ATOM     10  C   UNL     1      14.626  14.546  62.491  1.00  0.00     0.146 A 
ATOM     11  O   UNL     1      15.027  13.833  61.443  1.00  0.00    -0.456 OA
ENDROOT
BRANCH   1  12
ATOM     12  C   UNL     1      15.472  11.815  60.179  1.00  0.00     0.021 A 
ATOM     13  C   UNL     1      16.832  11.484  60.070  1.00  0.00     0.016 A 
ATOM     14  C   UNL     1      17.316  10.841  58.929  1.00  0.00     0.051 A 
ATOM     15  C   UNL     1      16.461  10.523  57.871  1.00  0.00     0.157 A 
ATOM     16  C   UNL     1      14.612  11.510  59.106  1.00  0.00     0.062 A 
ATOM     17  C   UNL     1      15.091  10.867  57.957  1.00  0.00     0.158 A 
BRANCH  15  18
ATOM     18  O   UNL     1      17.008   9.875  56.762  1.00  0.00    -0.504 OA
ATOM     19  H   UNL     1      17.581   9.045  56.818  1.00  0.00     0.293 HD
ENDBRANCH  15  18
BRANCH  17  20
ATOM     20  O   UNL     1      14.180  10.597  56.934  1.00  0.00    -0.504 OA
ATOM     21  H   UNL     1      13.560   9.801  56.925  1.00  0.00     0.293 HD
ENDBRANCH  17  20
ENDBRANCH   1  12
BRANCH   6  22
ATOM     22  O   UNL     1      13.338  14.218  66.007  1.00  0.00    -0.507 OA
ATOM     23  H   UNL     1      13.452  13.264  66.311  1.00  0.00     0.293 HD
ENDBRANCH   6  22
BRANCH   8  24
ATOM     24  O   UNL     1      14.309  18.113  63.373  1.00  0.00    -0.508 OA
ATOM     25  H   UNL     1      15.137  18.588  63.031  1.00  0.00     0.293 HD
ENDBRANCH   8  24
TORSDOF 5
ENDMDL
MODEL 7
REMARK VINA RESULT:    -6.442      3.486      5.082
REMARK INTER + INTRA:          -7.847
REMARK INTER:                  -7.546
REMARK INTRA:                  -0.302
REMARK UNBOUND:                -0.276
REMARK SMILES O=c1cc(-c2ccc(O)c(O)c2)oc2cc(O)cc(O)c12
REMARK SMILES IDX 4 1 3 2 2 3 1 4 21 5 19 6 18 7 16 8 15 9 14 10 13 11 5 12
REMARK SMILES IDX 6 13 7 14 8 15 12 16 10 17 9 18 11 20 20 22 17 24
REMARK H PARENT 9 19 11 21 20 23 17 25
REMARK Flexibility Score: inf
ROOT
ATOM      1  C   UNL     1      13.708  14.887  63.096  1.00  0.00     0.138 A 
ATOM      2  C   UNL     1      13.372  13.857  63.986  1.00  0.00     0.100 A 
ATOM      3  C   UNL     1      13.905  12.582  63.798  1.00  0.00     0.197 A 
ATOM      4  O   UNL     1      13.628  11.693  64.644  1.00  0.00    -0.289 OA
ATOM      5  C   UNL     1      14.750  12.328  62.691  1.00  0.00     0.107 A 
ATOM      6  C   UNL     1      15.326  11.059  62.379  1.00  0.00     0.134 A 
ATOM      7  C   UNL     1      16.227  10.953  61.313  1.00  0.00     0.093 A 
ATOM      8  C   UNL     1      16.530  12.057  60.512  1.00  0.00     0.123 A 
ATOM      9  C   UNL     1      15.936  13.289  60.778  1.00  0.00     0.094 A 
ATOM     10  C   UNL     1      15.060  13.434  61.855  1.00  0.00     0.146 A 
ATOM     11  O   UNL     1      14.530  14.631  62.084  1.00  0.00    -0.456 OA
ENDROOT
BRANCH   1  12
ATOM     12  C   UNL     1      13.167  16.262  63.247  1.00  0.00     0.021 A 
ATOM     13  C   UNL     1      11.852  16.439  63.708  1.00  0.00     0.016 A 
ATOM     14  C   UNL     1      11.317  17.720  63.852  1.00  0.00     0.051 A 
ATOM     15  C   UNL     1      12.074  18.850  63.530  1.00  0.00     0.157 A 
ATOM     16  C   UNL     1      13.925  17.399  62.909  1.00  0.00     0.062 A 
ATOM     17  C   UNL     1      13.393  18.688  63.047  1.00  0.00     0.158 A 
BRANCH  15  18
ATOM     18  O   UNL     1      11.481  20.103  63.702  1.00  0.00    -0.504 OA
ATOM     19  H   UNL     1      11.990  20.976  63.686  1.00  0.00     0.293 HD
ENDBRANCH  15  18
BRANCH  17  20
ATOM     20  O   UNL     1      14.204  19.768  62.690  1.00  0.00    -0.504 OA
ATOM     21  H   UNL     1      14.939  19.719  62.000  1.00  0.00     0.293 HD
ENDBRANCH  17  20
ENDBRANCH   1  12
BRANCH   6  22
ATOM     22  O   UNL     1      15.030   9.875  63.063  1.00  0.00    -0.507 OA
ATOM     23  H   UNL     1      14.249   9.746  63.687  1.00  0.00     0.293 HD
ENDBRANCH   6  22
BRANCH   8  24
ATOM     24  O   UNL     1      17.417  11.939  59.444  1.00  0.00    -0.508 OA
ATOM     25  H   UNL     1      17.699  12.744  58.898  1.00  0.00     0.293 HD
ENDBRANCH   8  24
TORSDOF 5
ENDMDL
MODEL 8
REMARK VINA RESULT:    -6.381      4.702      6.737
REMARK INTER + INTRA:          -7.775
REMARK INTER:                  -7.505
REMARK INTRA:                  -0.271
REMARK UNBOUND:                -0.276
REMARK SMILES O=c1cc(-c2ccc(O)c(O)c2)oc2cc(O)cc(O)c12
REMARK SMILES IDX 4 1 3 2 2 3 1 4 21 5 19 6 18 7 16 8 15 9 14 10 13 11 5 12
REMARK SMILES IDX 6 13 7 14 8 15 12 16 10 17 9 18 11 20 20 22 17 24
REMARK H PARENT 9 19 11 21 20 23 17 25
REMARK Flexibility Score: inf
ROOT
ATOM      1  C   UNL     1      12.207  19.532  63.526  1.00  0.00     0.138 A 
ATOM      2  C   UNL     1      11.181  18.603  63.744  1.00  0.00     0.100 A 
ATOM      3  C   UNL     1      11.455  17.238  63.652  1.00  0.00     0.197 A 
ATOM      4  O   UNL     1      10.526  16.429  63.908  1.00  0.00    -0.289 OA
ATOM      5  C   UNL     1      12.755  16.803  63.301  1.00  0.00     0.107 A 
ATOM      6  C   UNL     1      13.143  15.438  63.144  1.00  0.00     0.134 A 
ATOM      7  C   UNL     1      14.485  15.127  62.891  1.00  0.00     0.093 A 
ATOM      8  C   UNL     1      15.442  16.132  62.734  1.00  0.00     0.123 A 
ATOM      9  C   UNL     1      15.065  17.469  62.837  1.00  0.00     0.094 A 
ATOM     10  C   UNL     1      13.741  17.811  63.121  1.00  0.00     0.146 A 
ATOM     11  O   UNL     1      13.427  19.098  63.229  1.00  0.00    -0.456 OA
ENDROOT
BRANCH   1  12
ATOM     12  C   UNL     1      11.970  20.996  63.608  1.00  0.00     0.021 A 
ATOM     13  C   UNL     1      11.253  21.638  62.585  1.00  0.00     0.016 A 
ATOM     14  C   UNL     1      11.024  23.013  62.635  1.00  0.00     0.051 A 
ATOM     15  C   UNL     1      11.511  23.781  63.697  1.00  0.00     0.157 A 
ATOM     16  C   UNL     1      12.475  21.771  64.670  1.00  0.00     0.062 A 
ATOM     17  C   UNL     1      12.251  23.153  64.725  1.00  0.00     0.158 A 
BRANCH  15  18
ATOM     18  O   UNL     1      11.241  25.151  63.689  1.00  0.00    -0.504 OA
ATOM     19  H   UNL     1      10.406  25.565  64.079  1.00  0.00     0.293 HD
ENDBRANCH  15  18
BRANCH  17  20
ATOM     20  O   UNL     1      12.783  23.856  65.809  1.00  0.00    -0.504 OA
ATOM     21  H   UNL     1      12.519  24.799  66.054  1.00  0.00     0.293 HD
ENDBRANCH  17  20
ENDBRANCH   1  12
BRANCH   6  22
ATOM     22  O   UNL     1      12.255  14.359  63.201  1.00  0.00    -0.507 OA
ATOM     23  H   UNL     1      12.475  13.447  63.571  1.00  0.00     0.293 HD
ENDBRANCH   6  22
BRANCH   8  24
ATOM     24  O   UNL     1      16.772  15.813  62.468  1.00  0.00    -0.508 OA
ATOM     25  H   UNL     1      17.020  15.029  61.876  1.00  0.00     0.293 HD
ENDBRANCH   8  24
TORSDOF 5
ENDMDL
MODEL 9
REMARK VINA RESULT:    -6.324      5.008      7.027
REMARK INTER + INTRA:          -7.709
REMARK INTER:                  -7.392
REMARK INTRA:                  -0.317
REMARK UNBOUND:                -0.276
REMARK SMILES O=c1cc(-c2ccc(O)c(O)c2)oc2cc(O)cc(O)c12
REMARK SMILES IDX 4 1 3 2 2 3 1 4 21 5 19 6 18 7 16 8 15 9 14 10 13 11 5 12
REMARK SMILES IDX 6 13 7 14 8 15 12 16 10 17 9 18 11 20 20 22 17 24
REMARK H PARENT 9 19 11 21 20 23 17 25
REMARK Flexibility Score: inf
ROOT
ATOM      1  C   UNL     1      12.650  19.113  63.137  1.00  0.00     0.138 A 
ATOM      2  C   UNL     1      11.393  19.451  63.659  1.00  0.00     0.100 A 
ATOM      3  C   UNL     1      10.890  20.738  63.468  1.00  0.00     0.197 A 
ATOM      4  O   UNL     1       9.736  20.992  63.900  1.00  0.00    -0.289 OA
ATOM      5  C   UNL     1      11.666  21.703  62.784  1.00  0.00     0.107 A 
ATOM      6  C   UNL     1      11.271  23.056  62.559  1.00  0.00     0.134 A 
ATOM      7  C   UNL     1      12.082  23.892  61.782  1.00  0.00     0.093 A 
ATOM      8  C   UNL     1      13.300  23.442  61.269  1.00  0.00     0.123 A 
ATOM      9  C   UNL     1      13.719  22.138  61.523  1.00  0.00     0.094 A 
ATOM     10  C   UNL     1      12.917  21.269  62.267  1.00  0.00     0.146 A 
ATOM     11  O   UNL     1      13.345  20.028  62.471  1.00  0.00    -0.456 OA
ENDROOT
BRANCH   1  12
ATOM     12  C   UNL     1      13.235  17.759  63.313  1.00  0.00     0.021 A 
ATOM     13  C   UNL     1      12.452  16.737  63.873  1.00  0.00     0.016 A 
ATOM     14  C   UNL     1      12.980  15.458  64.056  1.00  0.00     0.051 A 
ATOM     15  C   UNL     1      14.301  15.173  63.697  1.00  0.00     0.157 A 
ATOM     16  C   UNL     1      14.570  17.477  62.965  1.00  0.00     0.062 A 
ATOM     17  C   UNL     1      15.108  16.197  63.149  1.00  0.00     0.158 A 
BRANCH  15  18
ATOM     18  O   UNL     1      14.766  13.872  63.901  1.00  0.00    -0.504 OA
ATOM     19  H   UNL     1      14.373  13.055  63.455  1.00  0.00     0.293 HD
ENDBRANCH  15  18
BRANCH  17  20
ATOM     20  O   UNL     1      16.440  15.991  62.782  1.00  0.00    -0.504 OA
ATOM     21  H   UNL     1      17.091  16.736  62.581  1.00  0.00     0.293 HD
ENDBRANCH  17  20
ENDBRANCH   1  12
BRANCH   6  22
ATOM     22  O   UNL     1      10.113  23.633  63.092  1.00  0.00    -0.507 OA
ATOM     23  H   UNL     1      10.086  24.240  63.897  1.00  0.00     0.293 HD
ENDBRANCH   6  22
BRANCH   8  24
ATOM     24  O   UNL     1      14.108  24.286  60.508  1.00  0.00    -0.508 OA
ATOM     25  H   UNL     1      13.742  24.790  59.709  1.00  0.00     0.293 HD
ENDBRANCH   8  24
TORSDOF 5
ENDMDL
