MODEL 1
REMARK VINA RESULT:    -5.999      0.000      0.000
REMARK INTER + INTRA:          -6.175
REMARK INTER:                  -6.175
REMARK INTRA:                   0.000
REMARK UNBOUND:                 0.000
REMARK SMILES O=c1ccc2ccc(O)cc2o1
REMARK SMILES IDX 6 1 7 2 8 3 10 4 11 5 5 6 4 7 3 8 2 9 1 10 12 11 9 12
REMARK H PARENT 9 13
REMARK Flexibility Score: inf
ROOT
ATOM      1  C   UNL     1      21.260  -5.601  16.212  1.00  0.00     0.016 A 
ATOM      2  C   UNL     1      21.403  -6.917  15.759  1.00  0.00     0.047 A 
ATOM      3  C   UNL     1      21.822  -7.925  16.634  1.00  0.00     0.119 A 
ATOM      4  C   UNL     1      22.101  -7.617  17.974  1.00  0.00     0.094 A 
ATOM      5  C   UNL     1      21.962  -6.304  18.437  1.00  0.00     0.142 A 
ATOM      6  C   UNL     1      21.538  -5.289  17.550  1.00  0.00     0.018 A 
ATOM      7  C   UNL     1      21.408  -3.986  18.040  1.00  0.00     0.019 A 
ATOM      8  C   UNL     1      21.697  -3.727  19.380  1.00  0.00     0.094 A 
ATOM      9  C   UNL     1      22.111  -4.783  20.200  1.00  0.00     0.336 A 
ATOM     10  O   UNL     1      22.376  -4.569  21.412  1.00  0.00    -0.246 OA
ATOM     11  O   UNL     1      22.227  -6.013  19.707  1.00  0.00    -0.423 OA
ENDROOT
BRANCH   3  12
ATOM     12  O   UNL     1      21.959  -9.229  16.164  1.00  0.00    -0.508 OA
ATOM     13  H   UNL     1      21.297  -9.627  15.508  1.00  0.00     0.293 HD
ENDBRANCH   3  12
TORSDOF 1
ENDMDL
MODEL 2
REMARK VINA RESULT:    -5.570     17.467     17.927
REMARK INTER + INTRA:          -5.732
REMARK INTER:                  -5.732
REMARK INTRA:                   0.000
REMARK UNBOUND:                 0.000
REMARK SMILES O=c1ccc2ccc(O)cc2o1
REMARK SMILES IDX 6 1 7 2 8 3 10 4 11 5 5 6 4 7 3 8 2 9 1 10 12 11 9 12
REMARK H PARENT 9 13
REMARK Flexibility Score: inf
ROOT
ATOM      1  C   UNL     1      19.410   8.951  27.990  1.00  0.00     0.016 A 
ATOM      2  C   UNL     1      20.366   9.308  27.034  1.00  0.00     0.047 A 
ATOM      3  C   UNL     1      21.686   8.857  27.150  1.00  0.00     0.119 A 
ATOM      4  C   UNL     1      22.055   8.043  28.231  1.00  0.00     0.094 A 
ATOM      5  C   UNL     1      21.106   7.681  29.194  1.00  0.00     0.142 A 
ATOM      6  C   UNL     1      19.775   8.138  29.073  1.00  0.00     0.018 A 
ATOM      7  C   UNL     1      18.849   7.760  30.050  1.00  0.00     0.019 A 
ATOM      8  C   UNL     1      19.262   6.950  31.107  1.00  0.00     0.094 A 
ATOM      9  C   UNL     1      20.597   6.535  31.162  1.00  0.00     0.336 A 
ATOM     10  O   UNL     1      20.989   5.803  32.108  1.00  0.00    -0.246 OA
ATOM     11  O   UNL     1      21.458   6.910  30.219  1.00  0.00    -0.423 OA
ENDROOT
BRANCH   3  12
ATOM     12  O   UNL     1      22.623   9.223  26.187  1.00  0.00    -0.508 OA
ATOM     13  H   UNL     1      22.838   8.620  25.401  1.00  0.00     0.293 HD
ENDBRANCH   3  12
TORSDOF 1
ENDMDL
MODEL 3
REMARK VINA RESULT:    -5.495     18.494     19.078
REMARK INTER + INTRA:          -5.656
REMARK INTER:                  -5.656
REMARK INTRA:                   0.000
REMARK UNBOUND:                 0.000
REMARK SMILES O=c1ccc2ccc(O)cc2o1
REMARK SMILES IDX 6 1 7 2 8 3 10 4 11 5 5 6 4 7 3 8 2 9 1 10 12 11 9 12
REMARK H PARENT 9 13
REMARK Flexibility Score: inf
ROOT
ATOM      1  C   UNL     1      20.937   8.148  31.646  1.00  0.00     0.016 A 
ATOM      2  C   UNL     1      20.249   7.131  32.317  1.00  0.00     0.047 A 
ATOM      3  C   UNL     1      19.075   6.594  31.777  1.00  0.00     0.119 A 
ATOM      4  C   UNL     1      18.583   7.078  30.556  1.00  0.00     0.094 A 
ATOM      5  C   UNL     1      19.263   8.096  29.877  1.00  0.00     0.142 A 
ATOM      6  C   UNL     1      20.448   8.634  30.426  1.00  0.00     0.018 A 
ATOM      7  C   UNL     1      21.106   9.650  29.725  1.00  0.00     0.019 A 
ATOM      8  C   UNL     1      20.578  10.098  28.515  1.00  0.00     0.094 A 
ATOM      9  C   UNL     1      19.400   9.518  28.032  1.00  0.00     0.336 A 
ATOM     10  O   UNL     1      18.908   9.909  26.941  1.00  0.00    -0.246 OA
ATOM     11  O   UNL     1      18.794   8.553  28.719  1.00  0.00    -0.423 OA
ENDROOT
BRANCH   3  12
ATOM     12  O   UNL     1      18.405   5.583  32.460  1.00  0.00    -0.508 OA
ATOM     13  H   UNL     1      17.421   5.660  32.689  1.00  0.00     0.293 HD
ENDBRANCH   3  12
TORSDOF 1
ENDMDL
MODEL 4
REMARK VINA RESULT:    -5.360      1.587      4.771
REMARK INTER + INTRA:          -5.516
REMARK INTER:                  -5.516
REMARK INTRA:                   0.000
REMARK UNBOUND:                 0.000
REMARK SMILES O=c1ccc2ccc(O)cc2o1
REMARK SMILES IDX 6 1 7 2 8 3 10 4 11 5 5 6 4 7 3 8 2 9 1 10 12 11 9 12
REMARK H PARENT 9 13
REMARK Flexibility Score: inf
ROOT
ATOM      1  C   UNL     1      22.484  -5.875  20.002  1.00  0.00     0.016 A 
ATOM      2  C   UNL     1      22.439  -4.564  20.488  1.00  0.00     0.047 A 
ATOM      3  C   UNL     1      21.905  -3.536  19.703  1.00  0.00     0.119 A 
ATOM      4  C   UNL     1      21.411  -3.819  18.421  1.00  0.00     0.094 A 
ATOM      5  C   UNL     1      21.452  -5.127  17.925  1.00  0.00     0.142 A 
ATOM      6  C   UNL     1      21.992  -6.162  18.721  1.00  0.00     0.018 A 
ATOM      7  C   UNL     1      22.020  -7.459  18.199  1.00  0.00     0.019 A 
ATOM      8  C   UNL     1      21.518  -7.692  16.919  1.00  0.00     0.094 A 
ATOM      9  C   UNL     1      20.998  -6.618  16.188  1.00  0.00     0.336 A 
ATOM     10  O   UNL     1      20.540  -6.808  15.032  1.00  0.00    -0.246 OA
ATOM     11  O   UNL     1      20.984  -5.393  16.709  1.00  0.00    -0.423 OA
ENDROOT
BRANCH   3  12
ATOM     12  O   UNL     1      21.869  -2.237  20.205  1.00  0.00    -0.508 OA
ATOM     13  H   UNL     1      21.719  -1.439  19.599  1.00  0.00     0.293 HD
ENDBRANCH   3  12
TORSDOF 1
ENDMDL
MODEL 5
REMARK VINA RESULT:    -5.274     18.339     19.011
REMARK INTER + INTRA:          -5.428
REMARK INTER:                  -5.428
REMARK INTRA:                   0.000
REMARK UNBOUND:                 0.000
REMARK SMILES O=c1ccc2ccc(O)cc2o1
REMARK SMILES IDX 6 1 7 2 8 3 10 4 11 5 5 6 4 7 3 8 2 9 1 10 12 11 9 12
REMARK H PARENT 9 13
REMARK Flexibility Score: inf
ROOT
ATOM      1  C   UNL     1      20.994   9.820  29.680  1.00  0.00     0.016 A 
ATOM      2  C   UNL     1      20.236  10.125  28.544  1.00  0.00     0.047 A 
ATOM      3  C   UNL     1      19.125   9.345  28.204  1.00  0.00     0.119 A 
ATOM      4  C   UNL     1      18.768   8.249  29.004  1.00  0.00     0.094 A 
ATOM      5  C   UNL     1      19.521   7.935  30.141  1.00  0.00     0.142 A 
ATOM      6  C   UNL     1      20.641   8.725  30.482  1.00  0.00     0.018 A 
ATOM      7  C   UNL     1      21.374   8.387  31.623  1.00  0.00     0.019 A 
ATOM      8  C   UNL     1      20.981   7.289  32.388  1.00  0.00     0.094 A 
ATOM      9  C   UNL     1      19.860   6.552  31.990  1.00  0.00     0.336 A 
ATOM     10  O   UNL     1      19.490   5.557  32.667  1.00  0.00    -0.246 OA
ATOM     11  O   UNL     1      19.181   6.895  30.898  1.00  0.00    -0.423 OA
ENDROOT
BRANCH   3  12
ATOM     12  O   UNL     1      18.383   9.665  27.070  1.00  0.00    -0.508 OA
ATOM     13  H   UNL     1      18.201  10.628  26.811  1.00  0.00     0.293 HD
ENDBRANCH   3  12
TORSDOF 1
ENDMDL
MODEL 6
REMARK VINA RESULT:    -5.258     17.577     18.666
REMARK INTER + INTRA:          -5.412
REMARK INTER:                  -5.412
REMARK INTRA:                   0.000
REMARK UNBOUND:                 0.000
REMARK SMILES O=c1ccc2ccc(O)cc2o1
REMARK SMILES IDX 6 1 7 2 8 3 10 4 11 5 5 6 4 7 3 8 2 9 1 10 12 11 9 12
REMARK H PARENT 9 13
REMARK Flexibility Score: inf
ROOT
ATOM      1  C   UNL     1      22.429   9.754  29.814  1.00  0.00     0.016 A 
ATOM      2  C   UNL     1      22.866   9.920  28.495  1.00  0.00     0.047 A 
ATOM      3  C   UNL     1      22.192   9.293  27.442  1.00  0.00     0.119 A 
ATOM      4  C   UNL     1      21.072   8.491  27.707  1.00  0.00     0.094 A 
ATOM      5  C   UNL     1      20.627   8.317  29.022  1.00  0.00     0.142 A 
ATOM      6  C   UNL     1      21.311   8.952  30.083  1.00  0.00     0.018 A 
ATOM      7  C   UNL     1      20.844   8.761  31.387  1.00  0.00     0.019 A 
ATOM      8  C   UNL     1      19.726   7.954  31.602  1.00  0.00     0.094 A 
ATOM      9  C   UNL     1      19.100   7.357  30.502  1.00  0.00     0.336 A 
ATOM     10  O   UNL     1      18.090   6.626  30.676  1.00  0.00    -0.246 OA
ATOM     11  O   UNL     1      19.566   7.556  29.272  1.00  0.00    -0.423 OA
ENDROOT
BRANCH   3  12
ATOM     12  O   UNL     1      22.642   9.471  26.136  1.00  0.00    -0.508 OA
ATOM     13  H   UNL     1      22.787   8.685  25.514  1.00  0.00     0.293 HD
ENDBRANCH   3  12
TORSDOF 1
ENDMDL
MODEL 7
REMARK VINA RESULT:    -5.027     17.343     17.824
REMARK INTER + INTRA:          -5.174
REMARK INTER:                  -5.174
REMARK INTRA:                   0.000
REMARK UNBOUND:                 0.000
REMARK SMILES O=c1ccc2ccc(O)cc2o1
REMARK SMILES IDX 6 1 7 2 8 3 10 4 11 5 5 6 4 7 3 8 2 9 1 10 12 11 9 12
REMARK H PARENT 9 13
REMARK Flexibility Score: inf
ROOT
ATOM      1  C   UNL     1      21.793   8.339  27.314  1.00  0.00     0.016 A 
ATOM      2  C   UNL     1      20.606   8.991  26.965  1.00  0.00     0.047 A 
ATOM      3  C   UNL     1      19.509   8.978  27.834  1.00  0.00     0.119 A 
ATOM      4  C   UNL     1      19.598   8.307  29.063  1.00  0.00     0.094 A 
ATOM      5  C   UNL     1      20.781   7.651  29.421  1.00  0.00     0.142 A 
ATOM      6  C   UNL     1      21.887   7.666  28.541  1.00  0.00     0.018 A 
ATOM      7  C   UNL     1      23.055   7.003  28.926  1.00  0.00     0.019 A 
ATOM      8  C   UNL     1      23.097   6.349  30.157  1.00  0.00     0.094 A 
ATOM      9  C   UNL     1      21.963   6.376  30.978  1.00  0.00     0.336 A 
ATOM     10  O   UNL     1      21.982   5.792  32.092  1.00  0.00    -0.246 OA
ATOM     11  O   UNL     1      20.864   7.015  30.586  1.00  0.00    -0.423 OA
ENDROOT
BRANCH   3  12
ATOM     12  O   UNL     1      18.336   9.633  27.468  1.00  0.00    -0.508 OA
ATOM     13  H   UNL     1      17.724   9.262  26.751  1.00  0.00     0.293 HD
ENDBRANCH   3  12
TORSDOF 1
ENDMDL
MODEL 8
REMARK VINA RESULT:    -5.006     17.783     18.324
REMARK INTER + INTRA:          -5.152
REMARK INTER:                  -5.152
REMARK INTRA:                   0.000
REMARK UNBOUND:                 0.000
REMARK SMILES O=c1ccc2ccc(O)cc2o1
REMARK SMILES IDX 6 1 7 2 8 3 10 4 11 5 5 6 4 7 3 8 2 9 1 10 12 11 9 12
REMARK H PARENT 9 13
REMARK Flexibility Score: inf
ROOT
ATOM      1  C   UNL     1      18.079   7.176  30.607  1.00  0.00     0.016 A 
ATOM      2  C   UNL     1      18.103   6.356  31.740  1.00  0.00     0.047 A 
ATOM      3  C   UNL     1      19.317   5.860  32.229  1.00  0.00     0.119 A 
ATOM      4  C   UNL     1      20.518   6.186  31.580  1.00  0.00     0.094 A 
ATOM      5  C   UNL     1      20.504   7.004  30.445  1.00  0.00     0.142 A 
ATOM      6  C   UNL     1      19.276   7.503  29.955  1.00  0.00     0.018 A 
ATOM      7  C   UNL     1      19.293   8.318  28.820  1.00  0.00     0.019 A 
ATOM      8  C   UNL     1      20.511   8.614  28.208  1.00  0.00     0.094 A 
ATOM      9  C   UNL     1      21.688   8.085  28.750  1.00  0.00     0.336 A 
ATOM     10  O   UNL     1      22.797   8.341  28.212  1.00  0.00    -0.246 OA
ATOM     11  O   UNL     1      21.643   7.311  29.831  1.00  0.00    -0.423 OA
ENDROOT
BRANCH   3  12
ATOM     12  O   UNL     1      19.321   5.046  33.359  1.00  0.00    -0.508 OA
ATOM     13  H   UNL     1      19.039   4.074  33.311  1.00  0.00     0.293 HD
ENDBRANCH   3  12
TORSDOF 1
ENDMDL
MODEL 9
REMARK VINA RESULT:    -4.913     17.639     18.192
REMARK INTER + INTRA:          -5.057
REMARK INTER:                  -5.057
REMARK INTRA:                   0.000
REMARK UNBOUND:                 0.000
REMARK SMILES O=c1ccc2ccc(O)cc2o1
REMARK SMILES IDX 6 1 7 2 8 3 10 4 11 5 5 6 4 7 3 8 2 9 1 10 12 11 9 12
REMARK H PARENT 9 13
REMARK Flexibility Score: inf
ROOT
ATOM      1  C   UNL     1      18.719   7.662  30.381  1.00  0.00     0.016 A 
ATOM      2  C   UNL     1      19.204   6.816  31.383  1.00  0.00     0.047 A 
ATOM      3  C   UNL     1      20.540   6.397  31.371  1.00  0.00     0.119 A 
ATOM      4  C   UNL     1      21.398   6.827  30.348  1.00  0.00     0.094 A 
ATOM      5  C   UNL     1      20.922   7.673  29.340  1.00  0.00     0.142 A 
ATOM      6  C   UNL     1      19.573   8.094  29.356  1.00  0.00     0.018 A 
ATOM      7  C   UNL     1      19.126   8.939  28.337  1.00  0.00     0.019 A 
ATOM      8  C   UNL     1      20.016   9.340  27.341  1.00  0.00     0.094 A 
ATOM      9  C   UNL     1      21.338   8.884  27.389  1.00  0.00     0.336 A 
ATOM     10  O   UNL     1      22.157   9.235  26.500  1.00  0.00    -0.246 OA
ATOM     11  O   UNL     1      21.738   8.079  28.371  1.00  0.00    -0.423 OA
ENDROOT
BRANCH   3  12
ATOM     12  O   UNL     1      21.004   5.555  32.378  1.00  0.00    -0.508 OA
ATOM     13  H   UNL     1      21.928   5.140  32.337  1.00  0.00     0.293 HD
ENDBRANCH   3  12
TORSDOF 1
ENDMDL
