MODEL 1
REMARK VINA RESULT:    -6.972      0.000      0.000
REMARK INTER + INTRA:          -8.927
REMARK INTER:                  -8.602
REMARK INTRA:                  -0.325
REMARK UNBOUND:                -0.325
REMARK SMILES Oc1cc(O)c2cc(O)c(-c3cc(O)c(O)c(O)c3)[o+]c2c1
REMARK SMILES IDX 10 1 20 2 21 3 22 4 2 5 3 6 4 7 6 8 7 9 8 10 11 11 12 12
REMARK SMILES IDX 13 13 19 14 15 15 17 16 14 17 16 19 18 21 9 23 1 25 5 27
REMARK H PARENT 14 18 16 20 18 22 9 24 1 26 5 28
REMARK Flexibility Score: inf
ROOT
ATOM      1  C   UNL     1     -21.992  12.010 -35.089  1.00  0.00     0.402 A 
ATOM      2  O   UNL     1     -22.013  11.824 -36.406  1.00  0.00    -0.202 OA
ATOM      3  C   UNL     1     -20.924  11.573 -37.125  1.00  0.00     0.368 A 
ATOM      4  C   UNL     1     -21.047  11.389 -38.504  1.00  0.00     0.162 A 
ATOM      5  C   UNL     1     -19.918  11.121 -39.284  1.00  0.00     0.128 A 
ATOM      6  C   UNL     1     -18.661  11.036 -38.681  1.00  0.00     0.093 A 
ATOM      7  C   UNL     1     -18.511  11.215 -37.300  1.00  0.00     0.136 A 
ATOM      8  C   UNL     1     -19.654  11.490 -36.505  1.00  0.00     0.125 A 
ATOM      9  C   UNL     1     -19.597  11.698 -35.117  1.00  0.00     0.078 A 
ATOM     10  C   UNL     1     -20.766  11.969 -34.400  1.00  0.00     0.223 A 
ENDROOT
BRANCH   1  11
ATOM     11  C   UNL     1     -23.276  12.273 -34.398  1.00  0.00     0.091 A 
ATOM     12  C   UNL     1     -23.933  13.494 -34.605  1.00  0.00     0.068 A 
ATOM     13  C   UNL     1     -25.158  13.768 -33.986  1.00  0.00     0.162 A 
ATOM     14  C   UNL     1     -23.880  11.303 -33.584  1.00  0.00     0.068 A 
ATOM     15  C   UNL     1     -25.751  12.794 -33.146  1.00  0.00     0.200 A 
ATOM     16  C   UNL     1     -25.103  11.559 -32.957  1.00  0.00     0.162 A 
BRANCH  13  17
ATOM     17  O   UNL     1     -25.744  15.011 -34.230  1.00  0.00    -0.504 OA
ATOM     18  H   UNL     1     -26.386  15.470 -33.600  1.00  0.00     0.293 HD
ENDBRANCH  13  17
BRANCH  15  19
ATOM     19  O   UNL     1     -26.966  13.013 -32.494  1.00  0.00    -0.502 OA
ATOM     20  H   UNL     1     -27.262  12.518 -31.664  1.00  0.00     0.293 HD
ENDBRANCH  15  19
BRANCH  16  21
ATOM     21  O   UNL     1     -25.663  10.568 -32.151  1.00  0.00    -0.504 OA
ATOM     22  H   UNL     1     -25.419  10.463 -31.174  1.00  0.00     0.293 HD
ENDBRANCH  16  21
ENDBRANCH   1  11
BRANCH  10  23
ATOM     23  O   UNL     1     -20.703  12.224 -33.030  1.00  0.00    -0.500 OA
ATOM     24  H   UNL     1     -20.599  11.477 -32.353  1.00  0.00     0.294 HD
ENDBRANCH  10  23
BRANCH   5  25
ATOM     25  O   UNL     1     -20.034  10.937 -40.660  1.00  0.00    -0.507 OA
ATOM     26  H   UNL     1     -20.595  10.190 -41.050  1.00  0.00     0.293 HD
ENDBRANCH   5  25
BRANCH   7  27
ATOM     27  O   UNL     1     -17.221  11.111 -36.773  1.00  0.00    -0.507 OA
ATOM     28  H   UNL     1     -16.883  11.636 -35.980  1.00  0.00     0.293 HD
ENDBRANCH   7  27
TORSDOF 7
ENDMDL
MODEL 2
REMARK VINA RESULT:    -6.879      4.712      6.688
REMARK INTER + INTRA:          -8.813
REMARK INTER:                  -8.703
REMARK INTRA:                  -0.109
REMARK UNBOUND:                -0.325
REMARK SMILES Oc1cc(O)c2cc(O)c(-c3cc(O)c(O)c(O)c3)[o+]c2c1
REMARK SMILES IDX 10 1 20 2 21 3 22 4 2 5 3 6 4 7 6 8 7 9 8 10 11 11 12 12
REMARK SMILES IDX 13 13 19 14 15 15 17 16 14 17 16 19 18 21 9 23 1 25 5 27
REMARK H PARENT 14 18 16 20 18 22 9 24 1 26 5 28
REMARK Flexibility Score: inf
ROOT
ATOM      1  C   UNL     1     -17.692  12.051 -34.738  1.00  0.00     0.402 A 
ATOM      2  O   UNL     1     -18.012  12.625 -35.895  1.00  0.00    -0.202 OA
ATOM      3  C   UNL     1     -18.816  12.062 -36.790  1.00  0.00     0.368 A 
ATOM      4  C   UNL     1     -19.095  12.745 -37.976  1.00  0.00     0.162 A 
ATOM      5  C   UNL     1     -19.940  12.178 -38.935  1.00  0.00     0.128 A 
ATOM      6  C   UNL     1     -20.509  10.923 -38.705  1.00  0.00     0.093 A 
ATOM      7  C   UNL     1     -20.246  10.219 -37.523  1.00  0.00     0.136 A 
ATOM      8  C   UNL     1     -19.386  10.790 -36.549  1.00  0.00     0.125 A 
ATOM      9  C   UNL     1     -19.055  10.151 -35.343  1.00  0.00     0.078 A 
ATOM     10  C   UNL     1     -18.197  10.774 -34.432  1.00  0.00     0.223 A 
ENDROOT
BRANCH   1  11
ATOM     11  C   UNL     1     -16.792  12.784 -33.816  1.00  0.00     0.091 A 
ATOM     12  C   UNL     1     -15.605  13.342 -34.311  1.00  0.00     0.068 A 
ATOM     13  C   UNL     1     -14.742  14.059 -33.475  1.00  0.00     0.162 A 
ATOM     14  C   UNL     1     -17.129  12.983 -32.470  1.00  0.00     0.068 A 
ATOM     15  C   UNL     1     -15.076  14.236 -32.110  1.00  0.00     0.200 A 
ATOM     16  C   UNL     1     -16.279  13.696 -31.620  1.00  0.00     0.162 A 
BRANCH  13  17
ATOM     17  O   UNL     1     -13.572  14.573 -34.038  1.00  0.00    -0.504 OA
ATOM     18  H   UNL     1     -13.484  15.508 -34.410  1.00  0.00     0.293 HD
ENDBRANCH  13  17
BRANCH  15  19
ATOM     19  O   UNL     1     -14.252  14.934 -31.225  1.00  0.00    -0.502 OA
ATOM     20  H   UNL     1     -13.250  15.014 -31.326  1.00  0.00     0.293 HD
ENDBRANCH  15  19
BRANCH  16  21
ATOM     21  O   UNL     1     -16.653  13.863 -30.285  1.00  0.00    -0.504 OA
ATOM     22  H   UNL     1     -17.373  14.516 -30.003  1.00  0.00     0.293 HD
ENDBRANCH  16  21
ENDBRANCH   1  11
BRANCH  10  23
ATOM     23  O   UNL     1     -17.829  10.119 -33.257  1.00  0.00    -0.500 OA
ATOM     24  H   UNL     1     -17.689   9.115 -33.226  1.00  0.00     0.294 HD
ENDBRANCH  10  23
BRANCH   5  25
ATOM     25  O   UNL     1     -20.223  12.853 -40.121  1.00  0.00    -0.507 OA
ATOM     26  H   UNL     1     -19.495  13.312 -40.655  1.00  0.00     0.293 HD
ENDBRANCH   5  25
BRANCH   7  27
ATOM     27  O   UNL     1     -20.856   8.971 -37.367  1.00  0.00    -0.507 OA
ATOM     28  H   UNL     1     -20.725   8.189 -37.991  1.00  0.00     0.293 HD
ENDBRANCH   7  27
TORSDOF 7
ENDMDL
MODEL 3
REMARK VINA RESULT:    -6.839      6.874      9.587
REMARK INTER + INTRA:          -8.763
REMARK INTER:                  -8.477
REMARK INTRA:                  -0.285
REMARK UNBOUND:                -0.325
REMARK SMILES Oc1cc(O)c2cc(O)c(-c3cc(O)c(O)c(O)c3)[o+]c2c1
REMARK SMILES IDX 10 1 20 2 21 3 22 4 2 5 3 6 4 7 6 8 7 9 8 10 11 11 12 12
REMARK SMILES IDX 13 13 19 14 15 15 17 16 14 17 16 19 18 21 9 23 1 25 5 27
REMARK H PARENT 14 18 16 20 18 22 9 24 1 26 5 28
REMARK Flexibility Score: inf
ROOT
ATOM      1  C   UNL     1     -24.260  18.315 -38.577  1.00  0.00     0.402 A 
ATOM      2  O   UNL     1     -23.476  17.867 -37.599  1.00  0.00    -0.202 OA
ATOM      3  C   UNL     1     -23.858  16.943 -36.724  1.00  0.00     0.368 A 
ATOM      4  C   UNL     1     -22.963  16.535 -35.733  1.00  0.00     0.162 A 
ATOM      5  C   UNL     1     -23.337  15.563 -34.800  1.00  0.00     0.128 A 
ATOM      6  C   UNL     1     -24.612  14.996 -34.861  1.00  0.00     0.093 A 
ATOM      7  C   UNL     1     -25.528  15.388 -35.845  1.00  0.00     0.136 A 
ATOM      8  C   UNL     1     -25.153  16.376 -36.792  1.00  0.00     0.125 A 
ATOM      9  C   UNL     1     -26.010  16.839 -37.804  1.00  0.00     0.078 A 
ATOM     10  C   UNL     1     -25.572  17.820 -38.699  1.00  0.00     0.223 A 
ENDROOT
BRANCH   1  11
ATOM     11  C   UNL     1     -23.715  19.340 -39.498  1.00  0.00     0.091 A 
ATOM     12  C   UNL     1     -23.386  20.608 -39.000  1.00  0.00     0.068 A 
ATOM     13  C   UNL     1     -22.850  21.595 -39.835  1.00  0.00     0.162 A 
ATOM     14  C   UNL     1     -23.468  19.053 -40.848  1.00  0.00     0.068 A 
ATOM     15  C   UNL     1     -22.624  21.306 -41.203  1.00  0.00     0.200 A 
ATOM     16  C   UNL     1     -22.933  20.026 -41.698  1.00  0.00     0.162 A 
BRANCH  13  17
ATOM     17  O   UNL     1     -22.559  22.837 -39.267  1.00  0.00    -0.504 OA
ATOM     18  H   UNL     1     -21.698  23.342 -39.419  1.00  0.00     0.293 HD
ENDBRANCH  13  17
BRANCH  15  19
ATOM     19  O   UNL     1     -22.101  22.252 -42.087  1.00  0.00    -0.502 OA
ATOM     20  H   UNL     1     -22.153  23.250 -41.947  1.00  0.00     0.293 HD
ENDBRANCH  15  19
BRANCH  16  21
ATOM     21  O   UNL     1     -22.710  19.698 -43.035  1.00  0.00    -0.504 OA
ATOM     22  H   UNL     1     -22.333  18.801 -43.317  1.00  0.00     0.293 HD
ENDBRANCH  16  21
ENDBRANCH   1  11
BRANCH  10  23
ATOM     23  O   UNL     1     -26.438  18.316 -39.673  1.00  0.00    -0.500 OA
ATOM     24  H   UNL     1     -27.039  17.704 -40.213  1.00  0.00     0.294 HD
ENDBRANCH  10  23
BRANCH   5  25
ATOM     25  O   UNL     1     -22.449  15.152 -33.809  1.00  0.00    -0.507 OA
ATOM     26  H   UNL     1     -22.638  14.341 -33.231  1.00  0.00     0.293 HD
ENDBRANCH   5  25
BRANCH   7  27
ATOM     27  O   UNL     1     -26.782  14.771 -35.840  1.00  0.00    -0.507 OA
ATOM     28  H   UNL     1     -27.662  15.265 -35.825  1.00  0.00     0.293 HD
ENDBRANCH   7  27
TORSDOF 7
ENDMDL
MODEL 4
REMARK VINA RESULT:    -6.643      5.332      7.198
REMARK INTER + INTRA:          -8.522
REMARK INTER:                  -8.670
REMARK INTRA:                   0.148
REMARK UNBOUND:                -0.325
REMARK SMILES Oc1cc(O)c2cc(O)c(-c3cc(O)c(O)c(O)c3)[o+]c2c1
REMARK SMILES IDX 10 1 20 2 21 3 22 4 2 5 3 6 4 7 6 8 7 9 8 10 11 11 12 12
REMARK SMILES IDX 13 13 19 14 15 15 17 16 14 17 16 19 18 21 9 23 1 25 5 27
REMARK H PARENT 14 18 16 20 18 22 9 24 1 26 5 28
REMARK Flexibility Score: inf
ROOT
ATOM      1  C   UNL     1     -16.744  12.981 -34.135  1.00  0.00     0.402 A 
ATOM      2  O   UNL     1     -17.057  13.095 -35.423  1.00  0.00    -0.202 OA
ATOM      3  C   UNL     1     -17.657  12.134 -36.117  1.00  0.00     0.368 A 
ATOM      4  C   UNL     1     -17.948  12.349 -37.465  1.00  0.00     0.162 A 
ATOM      5  C   UNL     1     -18.581  11.355 -38.218  1.00  0.00     0.128 A 
ATOM      6  C   UNL     1     -18.925  10.142 -37.619  1.00  0.00     0.093 A 
ATOM      7  C   UNL     1     -18.644   9.901 -36.267  1.00  0.00     0.136 A 
ATOM      8  C   UNL     1     -18.000  10.906 -35.500  1.00  0.00     0.125 A 
ATOM      9  C   UNL     1     -17.668  10.748 -34.145  1.00  0.00     0.078 A 
ATOM     10  C   UNL     1     -17.028  11.782 -33.455  1.00  0.00     0.223 A 
ENDROOT
BRANCH   1  11
ATOM     11  C   UNL     1     -16.085  14.128 -33.469  1.00  0.00     0.091 A 
ATOM     12  C   UNL     1     -16.478  15.434 -33.795  1.00  0.00     0.068 A 
ATOM     13  C   UNL     1     -15.893  16.541 -33.171  1.00  0.00     0.162 A 
ATOM     14  C   UNL     1     -15.114  13.937 -32.474  1.00  0.00     0.068 A 
ATOM     15  C   UNL     1     -14.896  16.342 -32.184  1.00  0.00     0.200 A 
ATOM     16  C   UNL     1     -14.519  15.031 -31.840  1.00  0.00     0.162 A 
BRANCH  13  17
ATOM     17  O   UNL     1     -16.329  17.810 -33.558  1.00  0.00    -0.504 OA
ATOM     18  H   UNL     1     -16.272  18.632 -32.975  1.00  0.00     0.293 HD
ENDBRANCH  13  17
BRANCH  15  19
ATOM     19  O   UNL     1     -14.270  17.407 -31.533  1.00  0.00    -0.502 OA
ATOM     20  H   UNL     1     -14.721  18.000 -30.851  1.00  0.00     0.293 HD
ENDBRANCH  15  19
BRANCH  16  21
ATOM     21  O   UNL     1     -13.553  14.793 -30.861  1.00  0.00    -0.504 OA
ATOM     22  H   UNL     1     -13.202  15.527 -30.257  1.00  0.00     0.293 HD
ENDBRANCH  16  21
ENDBRANCH   1  11
BRANCH  10  23
ATOM     23  O   UNL     1     -16.654  11.607 -32.122  1.00  0.00    -0.500 OA
ATOM     24  H   UNL     1     -16.058  12.273 -31.643  1.00  0.00     0.294 HD
ENDBRANCH  10  23
BRANCH   5  25
ATOM     25  O   UNL     1     -18.873  11.563 -39.565  1.00  0.00    -0.507 OA
ATOM     26  H   UNL     1     -19.527  10.971 -40.062  1.00  0.00     0.293 HD
ENDBRANCH   5  25
BRANCH   7  27
ATOM     27  O   UNL     1     -19.024   8.664 -35.741  1.00  0.00    -0.507 OA
ATOM     28  H   UNL     1     -19.513   8.540 -34.867  1.00  0.00     0.293 HD
ENDBRANCH   7  27
TORSDOF 7
ENDMDL
MODEL 5
REMARK VINA RESULT:    -6.633      3.931      7.565
REMARK INTER + INTRA:          -8.508
REMARK INTER:                  -8.424
REMARK INTRA:                  -0.085
REMARK UNBOUND:                -0.325
REMARK SMILES Oc1cc(O)c2cc(O)c(-c3cc(O)c(O)c(O)c3)[o+]c2c1
REMARK SMILES IDX 10 1 20 2 21 3 22 4 2 5 3 6 4 7 6 8 7 9 8 10 11 11 12 12
REMARK SMILES IDX 13 13 19 14 15 15 17 16 14 17 16 19 18 21 9 23 1 25 5 27
REMARK H PARENT 14 18 16 20 18 22 9 24 1 26 5 28
REMARK Flexibility Score: inf
ROOT
ATOM      1  C   UNL     1     -17.579  12.304 -34.311  1.00  0.00     0.402 A 
ATOM      2  O   UNL     1     -18.796  12.494 -33.807  1.00  0.00    -0.202 OA
ATOM      3  C   UNL     1     -19.887  11.914 -34.297  1.00  0.00     0.368 A 
ATOM      4  C   UNL     1     -21.122  12.173 -33.698  1.00  0.00     0.162 A 
ATOM      5  C   UNL     1     -22.285  11.576 -34.191  1.00  0.00     0.128 A 
ATOM      6  C   UNL     1     -22.213  10.714 -35.288  1.00  0.00     0.093 A 
ATOM      7  C   UNL     1     -20.987  10.437 -35.906  1.00  0.00     0.136 A 
ATOM      8  C   UNL     1     -19.804  11.043 -35.410  1.00  0.00     0.125 A 
ATOM      9  C   UNL     1     -18.535  10.835 -35.975  1.00  0.00     0.078 A 
ATOM     10  C   UNL     1     -17.414  11.473 -35.434  1.00  0.00     0.223 A 
ENDROOT
BRANCH   1  11
ATOM     11  C   UNL     1     -16.439  12.999 -33.670  1.00  0.00     0.091 A 
ATOM     12  C   UNL     1     -15.612  13.826 -34.443  1.00  0.00     0.068 A 
ATOM     13  C   UNL     1     -14.539  14.514 -33.868  1.00  0.00     0.162 A 
ATOM     14  C   UNL     1     -16.200  12.894 -32.292  1.00  0.00     0.068 A 
ATOM     15  C   UNL     1     -14.289  14.386 -32.480  1.00  0.00     0.200 A 
ATOM     16  C   UNL     1     -15.133  13.575 -31.699  1.00  0.00     0.162 A 
BRANCH  13  17
ATOM     17  O   UNL     1     -13.753  15.309 -34.706  1.00  0.00    -0.504 OA
ATOM     18  H   UNL     1     -12.755  15.206 -34.813  1.00  0.00     0.293 HD
ENDBRANCH  13  17
BRANCH  15  19
ATOM     19  O   UNL     1     -13.229  15.041 -31.850  1.00  0.00    -0.502 OA
ATOM     20  H   UNL     1     -12.358  15.279 -32.304  1.00  0.00     0.293 HD
ENDBRANCH  15  19
BRANCH  16  21
ATOM     21  O   UNL     1     -14.930  13.436 -30.326  1.00  0.00    -0.504 OA
ATOM     22  H   UNL     1     -15.698  13.388 -29.667  1.00  0.00     0.293 HD
ENDBRANCH  16  21
ENDBRANCH   1  11
BRANCH  10  23
ATOM     23  O   UNL     1     -16.161  11.305 -36.025  1.00  0.00    -0.500 OA
ATOM     24  H   UNL     1     -15.358  10.990 -35.492  1.00  0.00     0.294 HD
ENDBRANCH  10  23
BRANCH   5  25
ATOM     25  O   UNL     1     -23.520  11.830 -33.598  1.00  0.00    -0.507 OA
ATOM     26  H   UNL     1     -24.079  12.632 -33.863  1.00  0.00     0.293 HD
ENDBRANCH   5  25
BRANCH   7  27
ATOM     27  O   UNL     1     -20.998   9.561 -36.995  1.00  0.00    -0.507 OA
ATOM     28  H   UNL     1     -20.453   9.687 -37.835  1.00  0.00     0.293 HD
ENDBRANCH   7  27
TORSDOF 7
ENDMDL
MODEL 6
REMARK VINA RESULT:    -6.612      1.579      3.827
REMARK INTER + INTRA:          -8.483
REMARK INTER:                  -8.144
REMARK INTRA:                  -0.339
REMARK UNBOUND:                -0.325
REMARK SMILES Oc1cc(O)c2cc(O)c(-c3cc(O)c(O)c(O)c3)[o+]c2c1
REMARK SMILES IDX 10 1 20 2 21 3 22 4 2 5 3 6 4 7 6 8 7 9 8 10 11 11 12 12
REMARK SMILES IDX 13 13 19 14 15 15 17 16 14 17 16 19 18 21 9 23 1 25 5 27
REMARK H PARENT 14 18 16 20 18 22 9 24 1 26 5 28
REMARK Flexibility Score: inf
ROOT
ATOM      1  C   UNL     1     -21.724  12.024 -34.528  1.00  0.00     0.402 A 
ATOM      2  O   UNL     1     -20.779  12.107 -33.595  1.00  0.00    -0.202 OA
ATOM      3  C   UNL     1     -19.487  11.921 -33.846  1.00  0.00     0.368 A 
ATOM      4  C   UNL     1     -18.568  12.031 -32.800  1.00  0.00     0.162 A 
ATOM      5  C   UNL     1     -17.203  11.842 -33.036  1.00  0.00     0.128 A 
ATOM      6  C   UNL     1     -16.756  11.543 -34.325  1.00  0.00     0.093 A 
ATOM      7  C   UNL     1     -17.657  11.428 -35.391  1.00  0.00     0.136 A 
ATOM      8  C   UNL     1     -19.043  11.616 -35.155  1.00  0.00     0.125 A 
ATOM      9  C   UNL     1     -20.019  11.506 -36.160  1.00  0.00     0.078 A 
ATOM     10  C   UNL     1     -21.368  11.700 -35.850  1.00  0.00     0.223 A 
ENDROOT
BRANCH   1  11
ATOM     11  C   UNL     1     -23.129  12.263 -34.125  1.00  0.00     0.091 A 
ATOM     12  C   UNL     1     -23.799  11.303 -33.355  1.00  0.00     0.068 A 
ATOM     13  C   UNL     1     -25.119  11.504 -32.938  1.00  0.00     0.162 A 
ATOM     14  C   UNL     1     -23.789  13.458 -34.449  1.00  0.00     0.068 A 
ATOM     15  C   UNL     1     -25.788  12.702 -33.289  1.00  0.00     0.200 A 
ATOM     16  C   UNL     1     -25.109  13.676 -34.042  1.00  0.00     0.162 A 
BRANCH  13  17
ATOM     17  O   UNL     1     -25.722  10.495 -32.184  1.00  0.00    -0.504 OA
ATOM     18  H   UNL     1     -26.712  10.293 -32.195  1.00  0.00     0.293 HD
ENDBRANCH  13  17
BRANCH  15  19
ATOM     19  O   UNL     1     -27.108  12.956 -32.910  1.00  0.00    -0.502 OA
ATOM     20  H   UNL     1     -27.766  13.485 -33.465  1.00  0.00     0.293 HD
ENDBRANCH  15  19
BRANCH  16  21
ATOM     21  O   UNL     1     -25.728  14.876 -34.393  1.00  0.00    -0.504 OA
ATOM     22  H   UNL     1     -25.334  15.778 -34.154  1.00  0.00     0.293 HD
ENDBRANCH  16  21
ENDBRANCH   1  11
BRANCH  10  23
ATOM     23  O   UNL     1     -22.342  11.543 -36.837  1.00  0.00    -0.500 OA
ATOM     24  H   UNL     1     -22.799  10.653 -36.998  1.00  0.00     0.294 HD
ENDBRANCH  10  23
BRANCH   5  25
ATOM     25  O   UNL     1     -16.282  11.950 -31.997  1.00  0.00    -0.507 OA
ATOM     26  H   UNL     1     -16.469  11.562 -31.080  1.00  0.00     0.293 HD
ENDBRANCH   5  25
BRANCH   7  27
ATOM     27  O   UNL     1     -17.129  11.130 -36.650  1.00  0.00    -0.507 OA
ATOM     28  H   UNL     1     -17.378  10.319 -37.197  1.00  0.00     0.293 HD
ENDBRANCH   7  27
TORSDOF 7
ENDMDL
MODEL 7
REMARK VINA RESULT:    -6.506      5.288      8.100
REMARK INTER + INTRA:          -8.353
REMARK INTER:                  -7.994
REMARK INTRA:                  -0.358
REMARK UNBOUND:                -0.325
REMARK SMILES Oc1cc(O)c2cc(O)c(-c3cc(O)c(O)c(O)c3)[o+]c2c1
REMARK SMILES IDX 10 1 20 2 21 3 22 4 2 5 3 6 4 7 6 8 7 9 8 10 11 11 12 12
REMARK SMILES IDX 13 13 19 14 15 15 17 16 14 17 16 19 18 21 9 23 1 25 5 27
REMARK H PARENT 14 18 16 20 18 22 9 24 1 26 5 28
REMARK Flexibility Score: inf
ROOT
ATOM      1  C   UNL     1     -21.845  15.143 -40.064  1.00  0.00     0.402 A 
ATOM      2  O   UNL     1     -22.571  15.951 -39.296  1.00  0.00    -0.202 OA
ATOM      3  C   UNL     1     -22.969  17.159 -39.680  1.00  0.00     0.368 A 
ATOM      4  C   UNL     1     -23.732  17.933 -38.802  1.00  0.00     0.162 A 
ATOM      5  C   UNL     1     -24.167  19.207 -39.181  1.00  0.00     0.128 A 
ATOM      6  C   UNL     1     -23.837  19.708 -40.443  1.00  0.00     0.093 A 
ATOM      7  C   UNL     1     -23.075  18.951 -41.341  1.00  0.00     0.136 A 
ATOM      8  C   UNL     1     -22.629  17.658 -40.960  1.00  0.00     0.125 A 
ATOM      9  C   UNL     1     -21.849  16.835 -41.789  1.00  0.00     0.078 A 
ATOM     10  C   UNL     1     -21.443  15.574 -41.342  1.00  0.00     0.223 A 
ENDROOT
BRANCH   1  11
ATOM     11  C   UNL     1     -21.471  13.813 -39.527  1.00  0.00     0.091 A 
ATOM     12  C   UNL     1     -20.457  13.720 -38.564  1.00  0.00     0.068 A 
ATOM     13  C   UNL     1     -20.092  12.484 -38.019  1.00  0.00     0.162 A 
ATOM     14  C   UNL     1     -22.148  12.650 -39.919  1.00  0.00     0.068 A 
ATOM     15  C   UNL     1     -20.764  11.309 -38.436  1.00  0.00     0.200 A 
ATOM     16  C   UNL     1     -21.797  11.406 -39.385  1.00  0.00     0.162 A 
BRANCH  13  17
ATOM     17  O   UNL     1     -19.064  12.470 -37.073  1.00  0.00    -0.504 OA
ATOM     18  H   UNL     1     -19.142  12.053 -36.157  1.00  0.00     0.293 HD
ENDBRANCH  13  17
BRANCH  15  19
ATOM     19  O   UNL     1     -20.439  10.047 -37.935  1.00  0.00    -0.502 OA
ATOM     20  H   UNL     1     -20.740   9.177 -38.350  1.00  0.00     0.293 HD
ENDBRANCH  15  19
BRANCH  16  21
ATOM     21  O   UNL     1     -22.495  10.275 -39.810  1.00  0.00    -0.504 OA
ATOM     22  H   UNL     1     -22.138   9.658 -40.530  1.00  0.00     0.293 HD
ENDBRANCH  16  21
ENDBRANCH   1  11
BRANCH  10  23
ATOM     23  O   UNL     1     -20.628  14.777 -42.145  1.00  0.00    -0.500 OA
ATOM     24  H   UNL     1     -20.191  15.137 -42.986  1.00  0.00     0.294 HD
ENDBRANCH  10  23
BRANCH   5  25
ATOM     25  O   UNL     1     -24.927  19.985 -38.310  1.00  0.00    -0.507 OA
ATOM     26  H   UNL     1     -24.643  20.923 -38.052  1.00  0.00     0.293 HD
ENDBRANCH   5  25
BRANCH   7  27
ATOM     27  O   UNL     1     -22.791  19.521 -42.585  1.00  0.00    -0.507 OA
ATOM     28  H   UNL     1     -22.126  20.265 -42.734  1.00  0.00     0.293 HD
ENDBRANCH   7  27
TORSDOF 7
ENDMDL
MODEL 8
REMARK VINA RESULT:    -6.478      2.977      4.594
REMARK INTER + INTRA:          -8.318
REMARK INTER:                  -7.938
REMARK INTRA:                  -0.380
REMARK UNBOUND:                -0.325
REMARK SMILES Oc1cc(O)c2cc(O)c(-c3cc(O)c(O)c(O)c3)[o+]c2c1
REMARK SMILES IDX 10 1 20 2 21 3 22 4 2 5 3 6 4 7 6 8 7 9 8 10 11 11 12 12
REMARK SMILES IDX 13 13 19 14 15 15 17 16 14 17 16 19 18 21 9 23 1 25 5 27
REMARK H PARENT 14 18 16 20 18 22 9 24 1 26 5 28
REMARK Flexibility Score: inf
ROOT
ATOM      1  C   UNL     1     -22.717  13.966 -38.219  1.00  0.00     0.402 A 
ATOM      2  O   UNL     1     -21.907  13.236 -37.456  1.00  0.00    -0.202 OA
ATOM      3  C   UNL     1     -20.925  12.485 -37.945  1.00  0.00     0.368 A 
ATOM      4  C   UNL     1     -20.125  11.755 -37.063  1.00  0.00     0.162 A 
ATOM      5  C   UNL     1     -19.084  10.959 -37.549  1.00  0.00     0.128 A 
ATOM      6  C   UNL     1     -18.842  10.894 -38.923  1.00  0.00     0.093 A 
ATOM      7  C   UNL     1     -19.630  11.616 -39.828  1.00  0.00     0.136 A 
ATOM      8  C   UNL     1     -20.689  12.424 -39.339  1.00  0.00     0.125 A 
ATOM      9  C   UNL     1     -21.538  13.171 -40.172  1.00  0.00     0.078 A 
ATOM     10  C   UNL     1     -22.565  13.941 -39.618  1.00  0.00     0.223 A 
ENDROOT
BRANCH   1  11
ATOM     11  C   UNL     1     -23.769  14.771 -37.555  1.00  0.00     0.091 A 
ATOM     12  C   UNL     1     -24.957  14.150 -37.147  1.00  0.00     0.068 A 
ATOM     13  C   UNL     1     -25.964  14.874 -36.497  1.00  0.00     0.162 A 
ATOM     14  C   UNL     1     -23.579  16.132 -37.273  1.00  0.00     0.068 A 
ATOM     15  C   UNL     1     -25.776  16.253 -36.236  1.00  0.00     0.200 A 
ATOM     16  C   UNL     1     -24.573  16.871 -36.625  1.00  0.00     0.162 A 
BRANCH  13  17
ATOM     17  O   UNL     1     -27.124  14.188 -36.133  1.00  0.00    -0.504 OA
ATOM     18  H   UNL     1     -27.921  14.059 -36.739  1.00  0.00     0.293 HD
ENDBRANCH  13  17
BRANCH  15  19
ATOM     19  O   UNL     1     -26.746  17.030 -35.601  1.00  0.00    -0.502 OA
ATOM     20  H   UNL     1     -27.117  16.836 -34.681  1.00  0.00     0.293 HD
ENDBRANCH  15  19
BRANCH  16  21
ATOM     21  O   UNL     1     -24.343  18.224 -36.372  1.00  0.00    -0.504 OA
ATOM     22  H   UNL     1     -25.049  18.932 -36.532  1.00  0.00     0.293 HD
ENDBRANCH  16  21
ENDBRANCH   1  11
BRANCH  10  23
ATOM     23  O   UNL     1     -23.439  14.644 -40.447  1.00  0.00    -0.500 OA
ATOM     24  H   UNL     1     -23.310  14.676 -41.452  1.00  0.00     0.294 HD
ENDBRANCH  10  23
BRANCH   5  25
ATOM     25  O   UNL     1     -18.282  10.228 -36.675  1.00  0.00    -0.507 OA
ATOM     26  H   UNL     1     -17.369   9.888 -36.952  1.00  0.00     0.293 HD
ENDBRANCH   5  25
BRANCH   7  27
ATOM     27  O   UNL     1     -19.321  11.501 -41.186  1.00  0.00    -0.507 OA
ATOM     28  H   UNL     1     -18.384  11.435 -41.556  1.00  0.00     0.293 HD
ENDBRANCH   7  27
TORSDOF 7
ENDMDL
MODEL 9
REMARK VINA RESULT:    -6.475      6.446      7.869
REMARK INTER + INTRA:          -8.314
REMARK INTER:                  -8.065
REMARK INTRA:                  -0.249
REMARK UNBOUND:                -0.325
REMARK SMILES Oc1cc(O)c2cc(O)c(-c3cc(O)c(O)c(O)c3)[o+]c2c1
REMARK SMILES IDX 10 1 20 2 21 3 22 4 2 5 3 6 4 7 6 8 7 9 8 10 11 11 12 12
REMARK SMILES IDX 13 13 19 14 15 15 17 16 14 17 16 19 18 21 9 23 1 25 5 27
REMARK H PARENT 14 18 16 20 18 22 9 24 1 26 5 28
REMARK Flexibility Score: inf
ROOT
ATOM      1  C   UNL     1     -23.764  17.334 -38.269  1.00  0.00     0.402 A 
ATOM      2  O   UNL     1     -23.498  18.619 -38.048  1.00  0.00    -0.202 OA
ATOM      3  C   UNL     1     -23.221  19.484 -39.018  1.00  0.00     0.368 A 
ATOM      4  C   UNL     1     -22.957  20.815 -38.687  1.00  0.00     0.162 A 
ATOM      5  C   UNL     1     -22.665  21.747 -39.687  1.00  0.00     0.128 A 
ATOM      6  C   UNL     1     -22.638  21.345 -41.025  1.00  0.00     0.093 A 
ATOM      7  C   UNL     1     -22.899  20.016 -41.383  1.00  0.00     0.136 A 
ATOM      8  C   UNL     1     -23.194  19.066 -40.370  1.00  0.00     0.125 A 
ATOM      9  C   UNL     1     -23.454  17.712 -40.635  1.00  0.00     0.078 A 
ATOM     10  C   UNL     1     -23.732  16.833 -39.584  1.00  0.00     0.223 A 
ENDROOT
BRANCH   1  11
ATOM     11  C   UNL     1     -24.068  16.470 -37.104  1.00  0.00     0.091 A 
ATOM     12  C   UNL     1     -23.104  16.299 -36.102  1.00  0.00     0.068 A 
ATOM     13  C   UNL     1     -23.364  15.509 -34.977  1.00  0.00     0.162 A 
ATOM     14  C   UNL     1     -25.324  15.864 -36.952  1.00  0.00     0.068 A 
ATOM     15  C   UNL     1     -24.625  14.880 -34.840  1.00  0.00     0.200 A 
ATOM     16  C   UNL     1     -25.602  15.070 -35.835  1.00  0.00     0.162 A 
BRANCH  13  17
ATOM     17  O   UNL     1     -22.348  15.376 -34.028  1.00  0.00    -0.504 OA
ATOM     18  H   UNL     1     -22.282  14.613 -33.370  1.00  0.00     0.293 HD
ENDBRANCH  13  17
BRANCH  15  19
ATOM     19  O   UNL     1     -24.941  14.072 -33.746  1.00  0.00    -0.502 OA
ATOM     20  H   UNL     1     -24.718  13.089 -33.683  1.00  0.00     0.293 HD
ENDBRANCH  15  19
BRANCH  16  21
ATOM     21  O   UNL     1     -26.862  14.481 -35.730  1.00  0.00    -0.504 OA
ATOM     22  H   UNL     1     -27.076  13.582 -36.143  1.00  0.00     0.293 HD
ENDBRANCH  16  21
ENDBRANCH   1  11
BRANCH  10  23
ATOM     23  O   UNL     1     -23.943  15.479 -39.841  1.00  0.00    -0.500 OA
ATOM     24  H   UNL     1     -23.178  14.854 -40.073  1.00  0.00     0.294 HD
ENDBRANCH  10  23
BRANCH   5  25
ATOM     25  O   UNL     1     -22.401  23.076 -39.364  1.00  0.00    -0.507 OA
ATOM     26  H   UNL     1     -22.778  23.839 -39.911  1.00  0.00     0.293 HD
ENDBRANCH   5  25
BRANCH   7  27
ATOM     27  O   UNL     1     -22.856  19.696 -42.743  1.00  0.00    -0.507 OA
ATOM     28  H   UNL     1     -23.011  18.771 -43.117  1.00  0.00     0.293 HD
ENDBRANCH   7  27
TORSDOF 7
ENDMDL
