MODEL 1
REMARK VINA RESULT:   -10.222      0.000      0.000
REMARK INTER + INTRA:         -16.060
REMARK INTER:                 -15.002
REMARK INTRA:                  -1.058
REMARK UNBOUND:                -1.058
REMARK SMILES O=c1c(O[C@H]2O[C@@H](CO)[C@H](O)[C@@H](O)[C@H]2O)c(-c2ccc(O)c(O)c2)oc2cc(O)cc(O)c12
REMARK SMILES IDX 4 1 3 2 16 3 25 4 2 5 26 6 1 7 33 8 27 9 31 10 28 11 30 12
REMARK SMILES IDX 17 13 18 14 19 15 20 16 24 17 22 18 21 19 23 21 32 23 29 25
REMARK SMILES IDX 5 27 14 28 6 29 12 30 7 31 10 32 15 33 13 35 8 37 9 38 11 40
REMARK H PARENT 21 20 23 22 32 24 29 26 15 34 13 36 9 39 11 41
REMARK Flexibility Score: inf
ROOT
ATOM      1  O   UNL     1     127.713 135.131 110.753  1.00  0.00    -0.454 OA
ENDROOT
BRANCH   1   2
ATOM      2  C   UNL     1     126.713 135.030 111.747  1.00  0.00     0.214 A 
ATOM      3  C   UNL     1     127.105 134.896 113.088  1.00  0.00     0.180 A 
ATOM      4  O   UNL     1     126.198 134.879 114.055  1.00  0.00    -0.452 OA
ATOM      5  C   UNL     1     125.331 135.052 111.457  1.00  0.00     0.239 A 
ATOM      6  C   UNL     1     124.893 134.934 113.832  1.00  0.00     0.146 A 
ATOM      7  O   UNL     1     124.955 135.132 110.260  1.00  0.00    -0.285 OA
ATOM      8  C   UNL     1     124.383 134.984 112.511  1.00  0.00     0.111 A 
ATOM      9  C   UNL     1     124.030 134.940 114.931  1.00  0.00     0.094 A 
ATOM     10  C   UNL     1     122.963 134.995 112.331  1.00  0.00     0.134 A 
ATOM     11  C   UNL     1     122.649 135.008 114.744  1.00  0.00     0.123 A 
ATOM     12  C   UNL     1     122.126 135.034 113.453  1.00  0.00     0.093 A 
BRANCH   3  13
ATOM     13  C   UNL     1     128.524 134.798 113.465  1.00  0.00     0.025 A 
ATOM     14  C   UNL     1     129.064 133.557 113.831  1.00  0.00     0.016 A 
ATOM     15  C   UNL     1     130.410 133.455 114.192  1.00  0.00     0.051 A 
ATOM     16  C   UNL     1     131.232 134.586 114.180  1.00  0.00     0.157 A 
ATOM     17  C   UNL     1     129.354 135.927 113.419  1.00  0.00     0.062 A 
ATOM     18  C   UNL     1     130.705 135.830 113.788  1.00  0.00     0.158 A 
BRANCH  16  19
ATOM     19  O   UNL     1     132.566 134.458 114.561  1.00  0.00    -0.504 OA
ATOM     20  H   UNL     1     133.131 135.258 114.819  1.00  0.00     0.293 HD
ENDBRANCH  16  19
BRANCH  18  21
ATOM     21  O   UNL     1     131.516 136.962 113.778  1.00  0.00    -0.504 OA
ATOM     22  H   UNL     1     131.132 137.896 113.879  1.00  0.00     0.293 HD
ENDBRANCH  18  21
ENDBRANCH   3  13
BRANCH  10  23
ATOM     23  O   UNL     1     122.327 134.945 111.085  1.00  0.00    -0.507 OA
ATOM     24  H   UNL     1     121.659 134.247 110.798  1.00  0.00     0.293 HD
ENDBRANCH  10  23
BRANCH  11  25
ATOM     25  O   UNL     1     121.783 135.043 115.838  1.00  0.00    -0.508 OA
ATOM     26  H   UNL     1     121.969 135.631 116.640  1.00  0.00     0.293 HD
ENDBRANCH  11  25
ENDBRANCH   1   2
BRANCH   1  27
ATOM     27  C   UNL     1     128.061 134.108 109.810  1.00  0.00     0.339 C 
ATOM     28  C   UNL     1     129.571 134.085 109.468  1.00  0.00     0.214 C 
ATOM     29  O   UNL     1     127.244 134.191 108.651  1.00  0.00    -0.332 OA
ATOM     30  C   UNL     1     130.000 135.237 108.536  1.00  0.00     0.180 C 
ATOM     31  C   UNL     1     127.535 135.281 107.784  1.00  0.00     0.179 C 
ATOM     32  C   UNL     1     129.022 135.370 107.354  1.00  0.00     0.177 C 
BRANCH  28  33
ATOM     33  O   UNL     1     130.385 134.020 110.613  1.00  0.00    -0.384 OA
ATOM     34  H   UNL     1     131.253 133.612 110.356  1.00  0.00     0.211 HD
ENDBRANCH  28  33
BRANCH  30  35
ATOM     35  O   UNL     1     130.190 136.471 109.192  1.00  0.00    -0.387 OA
ATOM     36  H   UNL     1     130.880 136.990 108.716  1.00  0.00     0.211 HD
ENDBRANCH  30  35
BRANCH  31  37
ATOM     37  C   UNL     1     126.938 136.609 108.286  1.00  0.00     0.191 C 
BRANCH  37  38
ATOM     38  O   UNL     1     126.016 137.117 107.360  1.00  0.00    -0.394 OA
ATOM     39  H   UNL     1     126.266 136.746 106.474  1.00  0.00     0.210 HD
ENDBRANCH  37  38
ENDBRANCH  31  37
BRANCH  32  40
ATOM     40  O   UNL     1     129.275 134.342 106.430  1.00  0.00    -0.387 OA
ATOM     41  H   UNL     1     128.437 134.199 105.915  1.00  0.00     0.211 HD
ENDBRANCH  32  40
ENDBRANCH   1  27
TORSDOF 12
ENDMDL
MODEL 2
REMARK VINA RESULT:    -9.598      1.555      4.668
REMARK INTER + INTRA:         -15.144
REMARK INTER:                 -13.456
REMARK INTRA:                  -1.687
REMARK UNBOUND:                -1.058
REMARK SMILES O=c1c(O[C@H]2O[C@@H](CO)[C@H](O)[C@@H](O)[C@H]2O)c(-c2ccc(O)c(O)c2)oc2cc(O)cc(O)c12
REMARK SMILES IDX 4 1 3 2 16 3 25 4 2 5 26 6 1 7 33 8 27 9 31 10 28 11 30 12
REMARK SMILES IDX 17 13 18 14 19 15 20 16 24 17 22 18 21 19 23 21 32 23 29 25
REMARK SMILES IDX 5 27 14 28 6 29 12 30 7 31 10 32 15 33 13 35 8 37 9 38 11 40
REMARK H PARENT 21 20 23 22 32 24 29 26 15 34 13 36 9 39 11 41
REMARK Flexibility Score: inf
ROOT
ATOM      1  O   UNL     1     128.962 134.720 111.999  1.00  0.00    -0.454 OA
ENDROOT
BRANCH   1   2
ATOM      2  C   UNL     1     127.584 134.739 112.316  1.00  0.00     0.214 A 
ATOM      3  C   UNL     1     126.652 134.837 111.271  1.00  0.00     0.180 A 
ATOM      4  O   UNL     1     125.352 134.776 111.522  1.00  0.00    -0.452 OA
ATOM      5  C   UNL     1     127.095 134.667 113.639  1.00  0.00     0.239 A 
ATOM      6  C   UNL     1     124.849 134.673 112.744  1.00  0.00     0.146 A 
ATOM      7  O   UNL     1     127.910 134.618 114.594  1.00  0.00    -0.285 OA
ATOM      8  C   UNL     1     125.697 134.653 113.880  1.00  0.00     0.111 A 
ATOM      9  C   UNL     1     123.461 134.587 112.887  1.00  0.00     0.094 A 
ATOM     10  C   UNL     1     125.093 134.588 115.176  1.00  0.00     0.134 A 
ATOM     11  C   UNL     1     122.888 134.467 114.154  1.00  0.00     0.123 A 
ATOM     12  C   UNL     1     123.702 134.468 115.284  1.00  0.00     0.093 A 
BRANCH   3  13
ATOM     13  C   UNL     1     127.083 134.982 109.872  1.00  0.00     0.025 A 
ATOM     14  C   UNL     1     127.426 133.846 109.126  1.00  0.00     0.016 A 
ATOM     15  C   UNL     1     127.838 133.975 107.796  1.00  0.00     0.051 A 
ATOM     16  C   UNL     1     127.900 135.237 107.197  1.00  0.00     0.157 A 
ATOM     17  C   UNL     1     127.112 136.245 109.262  1.00  0.00     0.062 A 
ATOM     18  C   UNL     1     127.533 136.379 107.930  1.00  0.00     0.158 A 
BRANCH  16  19
ATOM     19  O   UNL     1     128.330 135.337 105.875  1.00  0.00    -0.504 OA
ATOM     20  H   UNL     1     128.104 134.634 105.181  1.00  0.00     0.293 HD
ENDBRANCH  16  19
BRANCH  18  21
ATOM     21  O   UNL     1     127.597 137.640 107.341  1.00  0.00    -0.504 OA
ATOM     22  H   UNL     1     127.243 138.468 107.808  1.00  0.00     0.293 HD
ENDBRANCH  18  21
ENDBRANCH   3  13
BRANCH  10  23
ATOM     23  O   UNL     1     125.804 134.658 116.380  1.00  0.00    -0.507 OA
ATOM     24  H   UNL     1     126.203 135.496 116.774  1.00  0.00     0.293 HD
ENDBRANCH  10  23
BRANCH  11  25
ATOM     25  O   UNL     1     121.505 134.351 114.302  1.00  0.00    -0.508 OA
ATOM     26  H   UNL     1     120.904 135.165 114.303  1.00  0.00     0.293 HD
ENDBRANCH  11  25
ENDBRANCH   1   2
BRANCH   1  27
ATOM     27  C   UNL     1     129.815 133.569 112.049  1.00  0.00     0.339 C 
ATOM     28  C   UNL     1     130.974 133.716 113.066  1.00  0.00     0.214 C 
ATOM     29  O   UNL     1     130.274 133.225 110.750  1.00  0.00    -0.332 OA
ATOM     30  C   UNL     1     132.095 134.656 112.577  1.00  0.00     0.180 C 
ATOM     31  C   UNL     1     131.256 134.100 110.204  1.00  0.00     0.179 C 
ATOM     32  C   UNL     1     132.484 134.328 111.124  1.00  0.00     0.177 C 
BRANCH  28  33
ATOM     33  O   UNL     1     130.527 134.073 114.350  1.00  0.00    -0.384 OA
ATOM     34  H   UNL     1     129.622 134.471 114.266  1.00  0.00     0.211 HD
ENDBRANCH  28  33
BRANCH  30  35
ATOM     35  O   UNL     1     131.810 136.028 112.738  1.00  0.00    -0.387 OA
ATOM     36  H   UNL     1     132.529 136.451 113.263  1.00  0.00     0.211 HD
ENDBRANCH  30  35
BRANCH  31  37
ATOM     37  C   UNL     1     130.642 135.391 109.633  1.00  0.00     0.191 C 
BRANCH  37  38
ATOM     38  O   UNL     1     131.395 136.509 110.020  1.00  0.00    -0.394 OA
ATOM     39  H   UNL     1     131.911 136.795 109.222  1.00  0.00     0.210 HD
ENDBRANCH  37  38
ENDBRANCH  31  37
BRANCH  32  40
ATOM     40  O   UNL     1     133.266 133.160 111.110  1.00  0.00    -0.387 OA
ATOM     41  H   UNL     1     132.901 132.555 111.808  1.00  0.00     0.211 HD
ENDBRANCH  32  40
ENDBRANCH   1  27
TORSDOF 12
ENDMDL
MODEL 3
REMARK VINA RESULT:    -9.421      5.149      9.286
REMARK INTER + INTRA:         -14.884
REMARK INTER:                 -14.110
REMARK INTRA:                  -0.774
REMARK UNBOUND:                -1.058
REMARK SMILES O=c1c(O[C@H]2O[C@@H](CO)[C@H](O)[C@@H](O)[C@H]2O)c(-c2ccc(O)c(O)c2)oc2cc(O)cc(O)c12
REMARK SMILES IDX 4 1 3 2 16 3 25 4 2 5 26 6 1 7 33 8 27 9 31 10 28 11 30 12
REMARK SMILES IDX 17 13 18 14 19 15 20 16 24 17 22 18 21 19 23 21 32 23 29 25
REMARK SMILES IDX 5 27 14 28 6 29 12 30 7 31 10 32 15 33 13 35 8 37 9 38 11 40
REMARK H PARENT 21 20 23 22 32 24 29 26 15 34 13 36 9 39 11 41
REMARK Flexibility Score: inf
ROOT
ATOM      1  O   UNL     1     133.201 134.393 113.437  1.00  0.00    -0.454 OA
ENDROOT
BRANCH   1   2
ATOM      2  C   UNL     1     134.437 134.478 114.118  1.00  0.00     0.214 A 
ATOM      3  C   UNL     1     134.432 134.529 115.521  1.00  0.00     0.180 A 
ATOM      4  O   UNL     1     135.572 134.528 116.198  1.00  0.00    -0.452 OA
ATOM      5  C   UNL     1     135.683 134.520 113.455  1.00  0.00     0.239 A 
ATOM      6  C   UNL     1     136.764 134.532 115.618  1.00  0.00     0.146 A 
ATOM      7  O   UNL     1     135.712 134.515 112.199  1.00  0.00    -0.285 OA
ATOM      8  C   UNL     1     136.886 134.568 114.207  1.00  0.00     0.111 A 
ATOM      9  C   UNL     1     137.900 134.500 116.432  1.00  0.00     0.094 A 
ATOM     10  C   UNL     1     138.199 134.617 113.640  1.00  0.00     0.134 A 
ATOM     11  C   UNL     1     139.175 134.491 115.866  1.00  0.00     0.123 A 
ATOM     12  C   UNL     1     139.317 134.549 114.481  1.00  0.00     0.093 A 
BRANCH   3  13
ATOM     13  C   UNL     1     133.173 134.558 116.282  1.00  0.00     0.025 A 
ATOM     14  C   UNL     1     133.068 133.842 117.483  1.00  0.00     0.016 A 
ATOM     15  C   UNL     1     131.875 133.863 118.212  1.00  0.00     0.051 A 
ATOM     16  C   UNL     1     130.782 134.605 117.755  1.00  0.00     0.157 A 
ATOM     17  C   UNL     1     132.090 135.330 115.840  1.00  0.00     0.062 A 
ATOM     18  C   UNL     1     130.888 135.347 116.565  1.00  0.00     0.158 A 
BRANCH  16  19
ATOM     19  O   UNL     1     129.600 134.593 118.493  1.00  0.00    -0.504 OA
ATOM     20  H   UNL     1     128.859 133.927 118.311  1.00  0.00     0.293 HD
ENDBRANCH  16  19
BRANCH  18  21
ATOM     21  O   UNL     1     129.801 136.084 116.100  1.00  0.00    -0.504 OA
ATOM     22  H   UNL     1     128.845 135.816 116.307  1.00  0.00     0.293 HD
ENDBRANCH  18  21
ENDBRANCH   3  13
BRANCH  10  23
ATOM     23  O   UNL     1     138.462 134.754 112.271  1.00  0.00    -0.507 OA
ATOM     24  H   UNL     1     139.363 134.952 111.866  1.00  0.00     0.293 HD
ENDBRANCH  10  23
BRANCH  11  25
ATOM     25  O   UNL     1     140.312 134.431 116.672  1.00  0.00    -0.508 OA
ATOM     26  H   UNL     1     140.371 133.794 117.456  1.00  0.00     0.293 HD
ENDBRANCH  11  25
ENDBRANCH   1   2
BRANCH   1  27
ATOM     27  C   UNL     1     132.383 133.220 113.334  1.00  0.00     0.339 C 
ATOM     28  C   UNL     1     132.944 132.174 112.338  1.00  0.00     0.214 C 
ATOM     29  O   UNL     1     131.035 133.568 113.053  1.00  0.00    -0.332 OA
ATOM     30  C   UNL     1     132.742 132.573 110.862  1.00  0.00     0.180 C 
ATOM     31  C   UNL     1     130.792 134.021 111.725  1.00  0.00     0.179 C 
ATOM     32  C   UNL     1     131.299 133.055 110.623  1.00  0.00     0.177 C 
BRANCH  28  33
ATOM     33  O   UNL     1     134.284 131.838 112.602  1.00  0.00    -0.384 OA
ATOM     34  H   UNL     1     134.419 131.843 113.585  1.00  0.00     0.211 HD
ENDBRANCH  28  33
BRANCH  30  35
ATOM     35  O   UNL     1     133.686 133.504 110.380  1.00  0.00    -0.387 OA
ATOM     36  H   UNL     1     133.545 134.371 110.826  1.00  0.00     0.211 HD
ENDBRANCH  30  35
BRANCH  31  37
ATOM     37  C   UNL     1     131.202 135.490 111.520  1.00  0.00     0.191 C 
BRANCH  37  38
ATOM     38  O   UNL     1     131.779 135.670 110.255  1.00  0.00    -0.394 OA
ATOM     39  H   UNL     1     132.099 134.778 109.958  1.00  0.00     0.210 HD
ENDBRANCH  37  38
ENDBRANCH  31  37
BRANCH  32  40
ATOM     40  O   UNL     1     130.442 131.942 110.585  1.00  0.00    -0.387 OA
ATOM     41  H   UNL     1     130.927 131.216 110.112  1.00  0.00     0.211 HD
ENDBRANCH  32  40
ENDBRANCH   1  27
TORSDOF 12
ENDMDL
MODEL 4
REMARK VINA RESULT:    -9.345      4.811      9.228
REMARK INTER + INTRA:         -14.774
REMARK INTER:                 -14.392
REMARK INTRA:                  -0.382
REMARK UNBOUND:                -1.058
REMARK SMILES O=c1c(O[C@H]2O[C@@H](CO)[C@H](O)[C@@H](O)[C@H]2O)c(-c2ccc(O)c(O)c2)oc2cc(O)cc(O)c12
REMARK SMILES IDX 4 1 3 2 16 3 25 4 2 5 26 6 1 7 33 8 27 9 31 10 28 11 30 12
REMARK SMILES IDX 17 13 18 14 19 15 20 16 24 17 22 18 21 19 23 21 32 23 29 25
REMARK SMILES IDX 5 27 14 28 6 29 12 30 7 31 10 32 15 33 13 35 8 37 9 38 11 40
REMARK H PARENT 21 20 23 22 32 24 29 26 15 34 13 36 9 39 11 41
REMARK Flexibility Score: inf
ROOT
ATOM      1  O   UNL     1     133.180 134.490 112.681  1.00  0.00    -0.454 OA
ENDROOT
BRANCH   1   2
ATOM      2  C   UNL     1     134.343 134.576 113.478  1.00  0.00     0.214 A 
ATOM      3  C   UNL     1     134.201 134.700 114.869  1.00  0.00     0.180 A 
ATOM      4  O   UNL     1     135.268 134.703 115.657  1.00  0.00    -0.452 OA
ATOM      5  C   UNL     1     135.650 134.549 112.943  1.00  0.00     0.239 A 
ATOM      6  C   UNL     1     136.511 134.643 115.201  1.00  0.00     0.146 A 
ATOM      7  O   UNL     1     135.803 134.478 111.698  1.00  0.00    -0.285 OA
ATOM      8  C   UNL     1     136.773 134.603 113.808  1.00  0.00     0.111 A 
ATOM      9  C   UNL     1     137.559 134.623 116.125  1.00  0.00     0.094 A 
ATOM     10  C   UNL     1     138.137 134.587 113.375  1.00  0.00     0.134 A 
ATOM     11  C   UNL     1     138.883 134.550 115.691  1.00  0.00     0.123 A 
ATOM     12  C   UNL     1     139.163 134.532 114.327  1.00  0.00     0.093 A 
BRANCH   3  13
ATOM     13  C   UNL     1     132.874 134.802 115.497  1.00  0.00     0.025 A 
ATOM     14  C   UNL     1     132.676 134.306 116.794  1.00  0.00     0.016 A 
ATOM     15  C   UNL     1     131.419 134.398 117.397  1.00  0.00     0.051 A 
ATOM     16  C   UNL     1     130.352 134.995 116.718  1.00  0.00     0.157 A 
ATOM     17  C   UNL     1     131.815 135.432 114.828  1.00  0.00     0.062 A 
ATOM     18  C   UNL     1     130.549 135.519 115.428  1.00  0.00     0.158 A 
BRANCH  16  19
ATOM     19  O   UNL     1     129.106 135.058 117.338  1.00  0.00    -0.504 OA
ATOM     20  H   UNL     1     128.403 135.733 117.064  1.00  0.00     0.293 HD
ENDBRANCH  16  19
BRANCH  18  21
ATOM     21  O   UNL     1     129.490 136.110 114.743  1.00  0.00    -0.504 OA
ATOM     22  H   UNL     1     129.443 136.113 113.730  1.00  0.00     0.293 HD
ENDBRANCH  18  21
ENDBRANCH   3  13
BRANCH  10  23
ATOM     23  O   UNL     1     138.539 134.645 112.035  1.00  0.00    -0.507 OA
ATOM     24  H   UNL     1     137.922 134.611 111.239  1.00  0.00     0.293 HD
ENDBRANCH  10  23
BRANCH  11  25
ATOM     25  O   UNL     1     139.932 134.500 116.610  1.00  0.00    -0.508 OA
ATOM     26  H   UNL     1     140.881 134.726 116.341  1.00  0.00     0.293 HD
ENDBRANCH  11  25
ENDBRANCH   1   2
BRANCH   1  27
ATOM     27  C   UNL     1     133.143 134.136 111.291  1.00  0.00     0.339 C 
ATOM     28  C   UNL     1     131.909 134.710 110.552  1.00  0.00     0.214 C 
ATOM     29  O   UNL     1     133.270 132.731 111.125  1.00  0.00    -0.332 OA
ATOM     30  C   UNL     1     130.600 133.964 110.885  1.00  0.00     0.180 C 
ATOM     31  C   UNL     1     132.122 131.973 111.490  1.00  0.00     0.179 C 
ATOM     32  C   UNL     1     130.810 132.440 110.808  1.00  0.00     0.177 C 
BRANCH  28  33
ATOM     33  O   UNL     1     131.768 136.098 110.727  1.00  0.00    -0.384 OA
ATOM     34  H   UNL     1     132.674 136.498 110.784  1.00  0.00     0.211 HD
ENDBRANCH  28  33
BRANCH  30  35
ATOM     35  O   UNL     1     130.014 134.344 112.110  1.00  0.00    -0.387 OA
ATOM     36  H   UNL     1     129.446 135.136 111.968  1.00  0.00     0.211 HD
ENDBRANCH  30  35
BRANCH  31  37
ATOM     37  C   UNL     1     132.009 131.771 113.012  1.00  0.00     0.191 C 
BRANCH  37  38
ATOM     38  O   UNL     1     133.266 131.496 113.569  1.00  0.00    -0.394 OA
ATOM     39  H   UNL     1     133.311 131.990 114.428  1.00  0.00     0.210 HD
ENDBRANCH  37  38
ENDBRANCH  31  37
BRANCH  32  40
ATOM     40  O   UNL     1     130.853 132.049 109.458  1.00  0.00    -0.387 OA
ATOM     41  H   UNL     1     131.785 131.766 109.266  1.00  0.00     0.211 HD
ENDBRANCH  32  40
ENDBRANCH   1  27
TORSDOF 12
ENDMDL
MODEL 5
REMARK VINA RESULT:    -9.326      1.621      5.156
REMARK INTER + INTRA:         -14.746
REMARK INTER:                 -13.467
REMARK INTRA:                  -1.279
REMARK UNBOUND:                -1.058
REMARK SMILES O=c1c(O[C@H]2O[C@@H](CO)[C@H](O)[C@@H](O)[C@H]2O)c(-c2ccc(O)c(O)c2)oc2cc(O)cc(O)c12
REMARK SMILES IDX 4 1 3 2 16 3 25 4 2 5 26 6 1 7 33 8 27 9 31 10 28 11 30 12
REMARK SMILES IDX 17 13 18 14 19 15 20 16 24 17 22 18 21 19 23 21 32 23 29 25
REMARK SMILES IDX 5 27 14 28 6 29 12 30 7 31 10 32 15 33 13 35 8 37 9 38 11 40
REMARK H PARENT 21 20 23 22 32 24 29 26 15 34 13 36 9 39 11 41
REMARK Flexibility Score: inf
ROOT
ATOM      1  O   UNL     1     129.211 134.467 111.968  1.00  0.00    -0.454 OA
ENDROOT
BRANCH   1   2
ATOM      2  C   UNL     1     127.827 134.633 112.205  1.00  0.00     0.214 A 
ATOM      3  C   UNL     1     126.983 134.897 111.115  1.00  0.00     0.180 A 
ATOM      4  O   UNL     1     125.670 134.979 111.285  1.00  0.00    -0.452 OA
ATOM      5  C   UNL     1     127.248 134.549 113.490  1.00  0.00     0.239 A 
ATOM      6  C   UNL     1     125.080 134.871 112.467  1.00  0.00     0.146 A 
ATOM      7  O   UNL     1     127.988 134.351 114.486  1.00  0.00    -0.285 OA
ATOM      8  C   UNL     1     125.845 134.689 113.647  1.00  0.00     0.111 A 
ATOM      9  C   UNL     1     123.686 134.942 112.524  1.00  0.00     0.094 A 
ATOM     10  C   UNL     1     125.155 134.626 114.899  1.00  0.00     0.134 A 
ATOM     11  C   UNL     1     123.022 134.823 113.745  1.00  0.00     0.123 A 
ATOM     12  C   UNL     1     123.755 134.667 114.919  1.00  0.00     0.093 A 
BRANCH   3  13
ATOM     13  C   UNL     1     127.518 135.065 109.754  1.00  0.00     0.025 A 
ATOM     14  C   UNL     1     128.191 134.004 109.133  1.00  0.00     0.016 A 
ATOM     15  C   UNL     1     128.703 134.156 107.842  1.00  0.00     0.051 A 
ATOM     16  C   UNL     1     128.539 135.363 107.155  1.00  0.00     0.157 A 
ATOM     17  C   UNL     1     127.322 136.265 109.054  1.00  0.00     0.062 A 
ATOM     18  C   UNL     1     127.842 136.423 107.760  1.00  0.00     0.158 A 
BRANCH  16  19
ATOM     19  O   UNL     1     129.075 135.491 105.875  1.00  0.00    -0.504 OA
ATOM     20  H   UNL     1     128.665 135.029 105.072  1.00  0.00     0.293 HD
ENDBRANCH  16  19
BRANCH  18  21
ATOM     21  O   UNL     1     127.678 137.630 107.084  1.00  0.00    -0.504 OA
ATOM     22  H   UNL     1     127.297 137.670 106.145  1.00  0.00     0.293 HD
ENDBRANCH  18  21
ENDBRANCH   3  13
BRANCH  10  23
ATOM     23  O   UNL     1     125.790 134.546 116.145  1.00  0.00    -0.507 OA
ATOM     24  H   UNL     1     125.551 133.902 116.882  1.00  0.00     0.293 HD
ENDBRANCH  10  23
BRANCH  11  25
ATOM     25  O   UNL     1     121.628 134.865 113.805  1.00  0.00    -0.508 OA
ATOM     26  H   UNL     1     121.084 134.043 114.031  1.00  0.00     0.293 HD
ENDBRANCH  11  25
ENDBRANCH   1   2
BRANCH   1  27
ATOM     27  C   UNL     1     130.243 135.378 112.372  1.00  0.00     0.339 C 
ATOM     28  C   UNL     1     131.302 135.623 111.269  1.00  0.00     0.214 C 
ATOM     29  O   UNL     1     130.824 134.968 113.601  1.00  0.00    -0.332 OA
ATOM     30  C   UNL     1     132.273 134.438 111.086  1.00  0.00     0.180 C 
ATOM     31  C   UNL     1     131.672 133.828 113.518  1.00  0.00     0.179 C 
ATOM     32  C   UNL     1     132.792 133.947 112.451  1.00  0.00     0.177 C 
BRANCH  28  33
ATOM     33  O   UNL     1     130.731 136.013 110.045  1.00  0.00    -0.384 OA
ATOM     34  H   UNL     1     131.454 136.354 109.457  1.00  0.00     0.211 HD
ENDBRANCH  28  33
BRANCH  30  35
ATOM     35  O   UNL     1     131.752 133.376 110.318  1.00  0.00    -0.387 OA
ATOM     36  H   UNL     1     130.930 133.040 110.743  1.00  0.00     0.211 HD
ENDBRANCH  30  35
BRANCH  31  37
ATOM     37  C   UNL     1     130.882 132.508 113.465  1.00  0.00     0.191 C 
BRANCH  37  38
ATOM     38  O   UNL     1     131.608 131.525 112.777  1.00  0.00    -0.394 OA
ATOM     39  H   UNL     1     132.442 131.958 112.457  1.00  0.00     0.210 HD
ENDBRANCH  37  38
ENDBRANCH  31  37
BRANCH  32  40
ATOM     40  O   UNL     1     133.759 134.848 112.927  1.00  0.00    -0.387 OA
ATOM     41  H   UNL     1     134.425 134.973 112.200  1.00  0.00     0.211 HD
ENDBRANCH  32  40
ENDBRANCH   1  27
TORSDOF 12
ENDMDL
MODEL 6
REMARK VINA RESULT:    -9.129      2.057      5.257
REMARK INTER + INTRA:         -14.457
REMARK INTER:                 -13.935
REMARK INTRA:                  -0.522
REMARK UNBOUND:                -1.058
REMARK SMILES O=c1c(O[C@H]2O[C@@H](CO)[C@H](O)[C@@H](O)[C@H]2O)c(-c2ccc(O)c(O)c2)oc2cc(O)cc(O)c12
REMARK SMILES IDX 4 1 3 2 16 3 25 4 2 5 26 6 1 7 33 8 27 9 31 10 28 11 30 12
REMARK SMILES IDX 17 13 18 14 19 15 20 16 24 17 22 18 21 19 23 21 32 23 29 25
REMARK SMILES IDX 5 27 14 28 6 29 12 30 7 31 10 32 15 33 13 35 8 37 9 38 11 40
REMARK H PARENT 21 20 23 22 32 24 29 26 15 34 13 36 9 39 11 41
REMARK Flexibility Score: inf
ROOT
ATOM      1  O   UNL     1     130.136 134.089 112.088  1.00  0.00    -0.454 OA
ENDROOT
BRANCH   1   2
ATOM      2  C   UNL     1     128.774 134.238 112.431  1.00  0.00     0.214 A 
ATOM      3  C   UNL     1     127.825 134.340 111.401  1.00  0.00     0.180 A 
ATOM      4  O   UNL     1     126.531 134.400 111.682  1.00  0.00    -0.452 OA
ATOM      5  C   UNL     1     128.314 134.295 113.766  1.00  0.00     0.239 A 
ATOM      6  C   UNL     1     126.053 134.420 112.918  1.00  0.00     0.146 A 
ATOM      7  O   UNL     1     129.148 134.245 114.705  1.00  0.00    -0.285 OA
ATOM      8  C   UNL     1     126.926 134.408 114.035  1.00  0.00     0.111 A 
ATOM      9  C   UNL     1     124.667 134.453 113.096  1.00  0.00     0.094 A 
ATOM     10  C   UNL     1     126.353 134.478 115.345  1.00  0.00     0.134 A 
ATOM     11  C   UNL     1     124.119 134.465 114.379  1.00  0.00     0.123 A 
ATOM     12  C   UNL     1     124.960 134.476 115.490  1.00  0.00     0.093 A 
BRANCH   3  13
ATOM     13  C   UNL     1     128.230 134.357 109.986  1.00  0.00     0.025 A 
ATOM     14  C   UNL     1     128.654 133.172 109.368  1.00  0.00     0.016 A 
ATOM     15  C   UNL     1     129.041 133.179 108.025  1.00  0.00     0.051 A 
ATOM     16  C   UNL     1     128.998 134.365 107.285  1.00  0.00     0.157 A 
ATOM     17  C   UNL     1     128.153 135.539 109.237  1.00  0.00     0.062 A 
ATOM     18  C   UNL     1     128.548 135.552 107.890  1.00  0.00     0.158 A 
BRANCH  16  19
ATOM     19  O   UNL     1     129.406 134.345 105.953  1.00  0.00    -0.504 OA
ATOM     20  H   UNL     1     128.764 134.530 105.191  1.00  0.00     0.293 HD
ENDBRANCH  16  19
BRANCH  18  21
ATOM     21  O   UNL     1     128.507 136.737 107.160  1.00  0.00    -0.504 OA
ATOM     22  H   UNL     1     128.224 136.757 106.186  1.00  0.00     0.293 HD
ENDBRANCH  18  21
ENDBRANCH   3  13
BRANCH  10  23
ATOM     23  O   UNL     1     127.099 134.572 116.526  1.00  0.00    -0.507 OA
ATOM     24  H   UNL     1     127.203 133.841 117.211  1.00  0.00     0.293 HD
ENDBRANCH  10  23
BRANCH  11  25
ATOM     25  O   UNL     1     122.736 134.469 114.563  1.00  0.00    -0.508 OA
ATOM     26  H   UNL     1     122.271 133.741 115.090  1.00  0.00     0.293 HD
ENDBRANCH  11  25
ENDBRANCH   1   2
BRANCH   1  27
ATOM     27  C   UNL     1     131.227 134.005 113.015  1.00  0.00     0.339 C 
ATOM     28  C   UNL     1     132.239 135.169 112.869  1.00  0.00     0.214 C 
ATOM     29  O   UNL     1     131.852 132.732 112.945  1.00  0.00    -0.332 OA
ATOM     30  C   UNL     1     133.145 135.033 111.628  1.00  0.00     0.180 C 
ATOM     31  C   UNL     1     132.643 132.510 111.782  1.00  0.00     0.179 C 
ATOM     32  C   UNL     1     133.710 133.605 111.522  1.00  0.00     0.177 C 
BRANCH  28  33
ATOM     33  O   UNL     1     131.624 136.432 112.921  1.00  0.00    -0.384 OA
ATOM     34  H   UNL     1     130.853 136.430 112.295  1.00  0.00     0.211 HD
ENDBRANCH  28  33
BRANCH  30  35
ATOM     35  O   UNL     1     132.538 135.440 110.421  1.00  0.00    -0.387 OA
ATOM     36  H   UNL     1     132.755 134.791 109.713  1.00  0.00     0.211 HD
ENDBRANCH  30  35
BRANCH  31  37
ATOM     37  C   UNL     1     131.792 132.147 110.551  1.00  0.00     0.191 C 
BRANCH  37  38
ATOM     38  O   UNL     1     132.606 131.683 109.508  1.00  0.00    -0.394 OA
ATOM     39  H   UNL     1     132.154 130.886 109.127  1.00  0.00     0.210 HD
ENDBRANCH  37  38
ENDBRANCH  31  37
BRANCH  32  40
ATOM     40  O   UNL     1     134.740 133.447 112.465  1.00  0.00    -0.387 OA
ATOM     41  H   UNL     1     135.310 134.258 112.415  1.00  0.00     0.211 HD
ENDBRANCH  32  40
ENDBRANCH   1  27
TORSDOF 12
ENDMDL
MODEL 7
REMARK VINA RESULT:    -9.109      1.646      5.831
REMARK INTER + INTRA:         -14.427
REMARK INTER:                 -13.226
REMARK INTRA:                  -1.201
REMARK UNBOUND:                -1.058
REMARK SMILES O=c1c(O[C@H]2O[C@@H](CO)[C@H](O)[C@@H](O)[C@H]2O)c(-c2ccc(O)c(O)c2)oc2cc(O)cc(O)c12
REMARK SMILES IDX 4 1 3 2 16 3 25 4 2 5 26 6 1 7 33 8 27 9 31 10 28 11 30 12
REMARK SMILES IDX 17 13 18 14 19 15 20 16 24 17 22 18 21 19 23 21 32 23 29 25
REMARK SMILES IDX 5 27 14 28 6 29 12 30 7 31 10 32 15 33 13 35 8 37 9 38 11 40
REMARK H PARENT 21 20 23 22 32 24 29 26 15 34 13 36 9 39 11 41
REMARK Flexibility Score: inf
ROOT
ATOM      1  O   UNL     1     128.806 135.023 110.904  1.00  0.00    -0.454 OA
ENDROOT
BRANCH   1   2
ATOM      2  C   UNL     1     129.247 135.049 112.246  1.00  0.00     0.214 A 
ATOM      3  C   UNL     1     128.288 135.030 113.272  1.00  0.00     0.180 A 
ATOM      4  O   UNL     1     128.663 134.973 114.542  1.00  0.00    -0.452 OA
ATOM      5  C   UNL     1     130.610 135.099 112.612  1.00  0.00     0.239 A 
ATOM      6  C   UNL     1     129.930 134.981 114.929  1.00  0.00     0.146 A 
ATOM      7  O   UNL     1     131.486 135.156 111.712  1.00  0.00    -0.285 OA
ATOM      8  C   UNL     1     130.979 135.085 113.982  1.00  0.00     0.111 A 
ATOM      9  C   UNL     1     130.210 134.885 116.295  1.00  0.00     0.094 A 
ATOM     10  C   UNL     1     132.326 135.136 114.463  1.00  0.00     0.134 A 
ATOM     11  C   UNL     1     131.530 134.879 116.748  1.00  0.00     0.123 A 
ATOM     12  C   UNL     1     132.574 135.003 115.835  1.00  0.00     0.093 A 
BRANCH   3  13
ATOM     13  C   UNL     1     126.847 135.046 112.973  1.00  0.00     0.025 A 
ATOM     14  C   UNL     1     126.277 136.163 112.347  1.00  0.00     0.016 A 
ATOM     15  C   UNL     1     124.909 136.186 112.061  1.00  0.00     0.051 A 
ATOM     16  C   UNL     1     124.101 135.093 112.388  1.00  0.00     0.157 A 
ATOM     17  C   UNL     1     126.045 133.935 113.271  1.00  0.00     0.062 A 
ATOM     18  C   UNL     1     124.670 133.958 112.993  1.00  0.00     0.158 A 
BRANCH  16  19
ATOM     19  O   UNL     1     122.737 135.152 112.106  1.00  0.00    -0.504 OA
ATOM     20  H   UNL     1     122.041 135.240 112.837  1.00  0.00     0.293 HD
ENDBRANCH  16  19
BRANCH  18  21
ATOM     21  O   UNL     1     123.870 132.868 113.326  1.00  0.00    -0.504 OA
ATOM     22  H   UNL     1     122.874 132.965 113.491  1.00  0.00     0.293 HD
ENDBRANCH  18  21
ENDBRANCH   3  13
BRANCH  10  23
ATOM     23  O   UNL     1     133.447 135.335 113.647  1.00  0.00    -0.507 OA
ATOM     24  H   UNL     1     133.719 136.212 113.233  1.00  0.00     0.293 HD
ENDBRANCH  10  23
BRANCH  11  25
ATOM     25  O   UNL     1     131.816 134.756 118.108  1.00  0.00    -0.508 OA
ATOM     26  H   UNL     1     131.322 135.301 118.804  1.00  0.00     0.293 HD
ENDBRANCH  11  25
ENDBRANCH   1   2
BRANCH   1  27
ATOM     27  C   UNL     1     129.505 134.419 109.807  1.00  0.00     0.339 C 
ATOM     28  C   UNL     1     129.945 135.442 108.730  1.00  0.00     0.214 C 
ATOM     29  O   UNL     1     128.754 133.345 109.260  1.00  0.00    -0.332 OA
ATOM     30  C   UNL     1     128.779 135.937 107.851  1.00  0.00     0.180 C 
ATOM     31  C   UNL     1     127.614 133.731 108.500  1.00  0.00     0.179 C 
ATOM     32  C   UNL     1     127.918 134.753 107.373  1.00  0.00     0.177 C 
BRANCH  28  33
ATOM     33  O   UNL     1     130.676 136.516 109.269  1.00  0.00    -0.384 OA
ATOM     34  H   UNL     1     130.049 137.267 109.434  1.00  0.00     0.211 HD
ENDBRANCH  28  33
BRANCH  30  35
ATOM     35  O   UNL     1     127.989 136.941 108.450  1.00  0.00    -0.387 OA
ATOM     36  H   UNL     1     128.515 137.771 108.519  1.00  0.00     0.211 HD
ENDBRANCH  30  35
BRANCH  31  37
ATOM     37  C   UNL     1     126.413 134.105 109.387  1.00  0.00     0.191 C 
BRANCH  37  38
ATOM     38  O   UNL     1     125.690 135.164 108.820  1.00  0.00    -0.394 OA
ATOM     39  H   UNL     1     124.785 134.812 108.612  1.00  0.00     0.210 HD
ENDBRANCH  37  38
ENDBRANCH  31  37
BRANCH  32  40
ATOM     40  O   UNL     1     128.594 134.080 106.341  1.00  0.00    -0.387 OA
ATOM     41  H   UNL     1     129.344 133.581 106.759  1.00  0.00     0.211 HD
ENDBRANCH  32  40
ENDBRANCH   1  27
TORSDOF 12
ENDMDL
MODEL 8
REMARK VINA RESULT:    -8.944      1.926      6.876
REMARK INTER + INTRA:         -14.185
REMARK INTER:                 -12.917
REMARK INTRA:                  -1.268
REMARK UNBOUND:                -1.058
REMARK SMILES O=c1c(O[C@H]2O[C@@H](CO)[C@H](O)[C@@H](O)[C@H]2O)c(-c2ccc(O)c(O)c2)oc2cc(O)cc(O)c12
REMARK SMILES IDX 4 1 3 2 16 3 25 4 2 5 26 6 1 7 33 8 27 9 31 10 28 11 30 12
REMARK SMILES IDX 17 13 18 14 19 15 20 16 24 17 22 18 21 19 23 21 32 23 29 25
REMARK SMILES IDX 5 27 14 28 6 29 12 30 7 31 10 32 15 33 13 35 8 37 9 38 11 40
REMARK H PARENT 21 20 23 22 32 24 29 26 15 34 13 36 9 39 11 41
REMARK Flexibility Score: inf
ROOT
ATOM      1  O   UNL     1     127.852 134.481 112.557  1.00  0.00    -0.454 OA
ENDROOT
BRANCH   1   2
ATOM      2  C   UNL     1     129.210 134.345 112.922  1.00  0.00     0.214 A 
ATOM      3  C   UNL     1     130.162 134.129 111.914  1.00  0.00     0.180 A 
ATOM      4  O   UNL     1     131.454 134.076 112.208  1.00  0.00    -0.452 OA
ATOM      5  C   UNL     1     129.661 134.411 114.259  1.00  0.00     0.239 A 
ATOM      6  C   UNL     1     131.925 134.169 113.443  1.00  0.00     0.146 A 
ATOM      7  O   UNL     1     128.823 134.565 115.183  1.00  0.00    -0.285 OA
ATOM      8  C   UNL     1     131.046 134.303 114.548  1.00  0.00     0.111 A 
ATOM      9  C   UNL     1     133.309 134.132 113.633  1.00  0.00     0.094 A 
ATOM     10  C   UNL     1     131.610 134.351 115.862  1.00  0.00     0.134 A 
ATOM     11  C   UNL     1     133.849 134.236 114.915  1.00  0.00     0.123 A 
ATOM     12  C   UNL     1     133.003 134.345 116.016  1.00  0.00     0.093 A 
BRANCH   3  13
ATOM     13  C   UNL     1     129.765 133.981 110.504  1.00  0.00     0.025 A 
ATOM     14  C   UNL     1     129.449 132.713 109.998  1.00  0.00     0.016 A 
ATOM     15  C   UNL     1     129.072 132.564 108.660  1.00  0.00     0.051 A 
ATOM     16  C   UNL     1     128.997 133.679 107.820  1.00  0.00     0.157 A 
ATOM     17  C   UNL     1     129.657 135.105 109.673  1.00  0.00     0.062 A 
ATOM     18  C   UNL     1     129.287 134.959 108.327  1.00  0.00     0.158 A 
BRANCH  16  19
ATOM     19  O   UNL     1     128.634 133.498 106.487  1.00  0.00    -0.504 OA
ATOM     20  H   UNL     1     128.537 132.577 106.076  1.00  0.00     0.293 HD
ENDBRANCH  16  19
BRANCH  18  21
ATOM     21  O   UNL     1     129.218 136.074 107.495  1.00  0.00    -0.504 OA
ATOM     22  H   UNL     1     130.024 136.668 107.329  1.00  0.00     0.293 HD
ENDBRANCH  18  21
ENDBRANCH   3  13
BRANCH  10  23
ATOM     23  O   UNL     1     130.857 134.384 117.042  1.00  0.00    -0.507 OA
ATOM     24  H   UNL     1     130.878 133.684 117.767  1.00  0.00     0.293 HD
ENDBRANCH  10  23
BRANCH  11  25
ATOM     25  O   UNL     1     135.231 134.228 115.108  1.00  0.00    -0.508 OA
ATOM     26  H   UNL     1     135.873 134.127 114.332  1.00  0.00     0.293 HD
ENDBRANCH  11  25
ENDBRANCH   1   2
BRANCH   1  27
ATOM     27  C   UNL     1     127.035 135.637 112.790  1.00  0.00     0.339 C 
ATOM     28  C   UNL     1     125.877 135.372 113.784  1.00  0.00     0.214 C 
ATOM     29  O   UNL     1     126.581 136.189 111.563  1.00  0.00    -0.332 OA
ATOM     30  C   UNL     1     124.725 134.552 113.169  1.00  0.00     0.180 C 
ATOM     31  C   UNL     1     125.570 135.439 110.900  1.00  0.00     0.179 C 
ATOM     32  C   UNL     1     124.339 135.111 111.786  1.00  0.00     0.177 C 
BRANCH  28  33
ATOM     33  O   UNL     1     126.320 134.810 114.994  1.00  0.00    -0.384 OA
ATOM     34  H   UNL     1     125.604 134.219 115.344  1.00  0.00     0.211 HD
ENDBRANCH  28  33
BRANCH  30  35
ATOM     35  O   UNL     1     124.967 133.164 113.116  1.00  0.00    -0.387 OA
ATOM     36  H   UNL     1     125.283 132.854 113.996  1.00  0.00     0.211 HD
ENDBRANCH  30  35
BRANCH  31  37
ATOM     37  C   UNL     1     126.139 134.232 110.133  1.00  0.00     0.191 C 
BRANCH  37  38
ATOM     38  O   UNL     1     125.687 134.233 108.805  1.00  0.00    -0.394 OA
ATOM     39  H   UNL     1     126.464 133.987 108.239  1.00  0.00     0.210 HD
ENDBRANCH  37  38
ENDBRANCH  31  37
BRANCH  32  40
ATOM     40  O   UNL     1     123.595 136.291 111.958  1.00  0.00    -0.387 OA
ATOM     41  H   UNL     1     123.213 136.265 112.875  1.00  0.00     0.211 HD
ENDBRANCH  32  40
ENDBRANCH   1  27
TORSDOF 12
ENDMDL
MODEL 9
REMARK VINA RESULT:    -8.942      2.156      3.052
REMARK INTER + INTRA:         -14.182
REMARK INTER:                 -13.904
REMARK INTRA:                  -0.278
REMARK UNBOUND:                -1.058
REMARK SMILES O=c1c(O[C@H]2O[C@@H](CO)[C@H](O)[C@@H](O)[C@H]2O)c(-c2ccc(O)c(O)c2)oc2cc(O)cc(O)c12
REMARK SMILES IDX 4 1 3 2 16 3 25 4 2 5 26 6 1 7 33 8 27 9 31 10 28 11 30 12
REMARK SMILES IDX 17 13 18 14 19 15 20 16 24 17 22 18 21 19 23 21 32 23 29 25
REMARK SMILES IDX 5 27 14 28 6 29 12 30 7 31 10 32 15 33 13 35 8 37 9 38 11 40
REMARK H PARENT 21 20 23 22 32 24 29 26 15 34 13 36 9 39 11 41
REMARK Flexibility Score: inf
ROOT
ATOM      1  O   UNL     1     128.698 135.021 111.064  1.00  0.00    -0.454 OA
ENDROOT
BRANCH   1   2
ATOM      2  C   UNL     1     128.256 134.565 112.326  1.00  0.00     0.214 A 
ATOM      3  C   UNL     1     129.165 133.891 113.157  1.00  0.00     0.180 A 
ATOM      4  O   UNL     1     128.811 133.520 114.379  1.00  0.00    -0.452 OA
ATOM      5  C   UNL     1     126.937 134.751 112.796  1.00  0.00     0.239 A 
ATOM      6  C   UNL     1     127.596 133.705 114.875  1.00  0.00     0.146 A 
ATOM      7  O   UNL     1     126.095 135.317 112.056  1.00  0.00    -0.285 OA
ATOM      8  C   UNL     1     126.575 134.299 114.092  1.00  0.00     0.111 A 
ATOM      9  C   UNL     1     127.344 133.300 116.188  1.00  0.00     0.094 A 
ATOM     10  C   UNL     1     125.270 134.430 114.664  1.00  0.00     0.134 A 
ATOM     11  C   UNL     1     126.082 133.485 116.755  1.00  0.00     0.123 A 
ATOM     12  C   UNL     1     125.059 134.046 115.995  1.00  0.00     0.093 A 
BRANCH   3  13
ATOM     13  C   UNL     1     130.538 133.600 112.713  1.00  0.00     0.025 A 
ATOM     14  C   UNL     1     131.551 134.548 112.912  1.00  0.00     0.016 A 
ATOM     15  C   UNL     1     132.857 134.280 112.492  1.00  0.00     0.051 A 
ATOM     16  C   UNL     1     133.165 133.061 111.881  1.00  0.00     0.157 A 
ATOM     17  C   UNL     1     130.852 132.363 112.132  1.00  0.00     0.062 A 
ATOM     18  C   UNL     1     132.160 132.094 111.702  1.00  0.00     0.158 A 
BRANCH  16  19
ATOM     19  O   UNL     1     134.472 132.828 111.458  1.00  0.00    -0.504 OA
ATOM     20  H   UNL     1     135.091 133.582 111.183  1.00  0.00     0.293 HD
ENDBRANCH  16  19
BRANCH  18  21
ATOM     21  O   UNL     1     132.459 130.879 111.089  1.00  0.00    -0.504 OA
ATOM     22  H   UNL     1     132.110 130.644 110.166  1.00  0.00     0.293 HD
ENDBRANCH  18  21
ENDBRANCH   3  13
BRANCH  10  23
ATOM     23  O   UNL     1     124.150 134.907 113.972  1.00  0.00    -0.507 OA
ATOM     24  H   UNL     1     123.515 135.614 114.306  1.00  0.00     0.293 HD
ENDBRANCH  10  23
BRANCH  11  25
ATOM     25  O   UNL     1     125.832 133.109 118.075  1.00  0.00    -0.508 OA
ATOM     26  H   UNL     1     124.917 133.222 118.493  1.00  0.00     0.293 HD
ENDBRANCH  11  25
ENDBRANCH   1   2
BRANCH   1  27
ATOM     27  C   UNL     1     129.547 134.296 110.163  1.00  0.00     0.339 C 
ATOM     28  C   UNL     1     130.320 135.215 109.185  1.00  0.00     0.214 C 
ATOM     29  O   UNL     1     128.818 133.280 109.491  1.00  0.00    -0.332 OA
ATOM     30  C   UNL     1     129.435 135.784 108.059  1.00  0.00     0.180 C 
ATOM     31  C   UNL     1     127.920 133.744 108.489  1.00  0.00     0.179 C 
ATOM     32  C   UNL     1     128.573 134.673 107.432  1.00  0.00     0.177 C 
BRANCH  28  33
ATOM     33  O   UNL     1     131.031 136.233 109.845  1.00  0.00    -0.384 OA
ATOM     34  H   UNL     1     130.415 136.683 110.480  1.00  0.00     0.211 HD
ENDBRANCH  28  33
BRANCH  30  35
ATOM     35  O   UNL     1     128.650 136.892 108.443  1.00  0.00    -0.387 OA
ATOM     36  H   UNL     1     129.242 137.632 108.713  1.00  0.00     0.211 HD
ENDBRANCH  30  35
BRANCH  31  37
ATOM     37  C   UNL     1     126.604 134.281 109.079  1.00  0.00     0.191 C 
BRANCH  37  38
ATOM     38  O   UNL     1     126.124 135.357 108.319  1.00  0.00    -0.394 OA
ATOM     39  H   UNL     1     126.457 135.223 107.394  1.00  0.00     0.210 HD
ENDBRANCH  37  38
ENDBRANCH  31  37
BRANCH  32  40
ATOM     40  O   UNL     1     129.378 133.885 106.592  1.00  0.00    -0.387 OA
ATOM     41  H   UNL     1     130.192 134.415 106.385  1.00  0.00     0.211 HD
ENDBRANCH  32  40
ENDBRANCH   1  27
TORSDOF 12
ENDMDL
