MODEL 1
REMARK VINA RESULT:    -2.237      0.000      0.000
REMARK INTER + INTRA:          -4.090
REMARK INTER:                  -3.544
REMARK INTRA:                  -0.545
REMARK UNBOUND:                -0.545
REMARK SMILES CCCCCCCCCCCC(=O)[O-]
REMARK SMILES IDX 7 1 8 2 9 3 10 4 11 5 12 6 13 7 14 8 6 9 5 10 4 11 3 12 2 13
REMARK SMILES IDX 1 14
REMARK H PARENT
REMARK Flexibility Score: inf
ROOT
ATOM      1  C   UNL     1      17.599   1.549  25.382  1.00  0.00     0.000 C 
ENDROOT
BRANCH   1   2
ATOM      2  C   UNL     1      17.044   2.944  25.041  1.00  0.00     0.000 C 
BRANCH   2   3
ATOM      3  C   UNL     1      15.687   3.229  25.702  1.00  0.00     0.000 C 
BRANCH   3   4
ATOM      4  C   UNL     1      14.672   2.129  25.369  1.00  0.00     0.006 C 
BRANCH   4   5
ATOM      5  C   UNL     1      13.346   2.731  24.893  1.00  0.00     0.053 C 
BRANCH   5   6
ATOM      6  C   UNL     1      13.516   3.376  23.553  1.00  0.00     0.041 C 
ATOM      7  O   UNL     1      13.921   2.700  22.571  1.00  0.00    -0.550 OA
ATOM      8  O   UNL     1      13.180   4.712  23.378  1.00  0.00    -0.550 OA
ENDBRANCH   5   6
ENDBRANCH   4   5
ENDBRANCH   3   4
ENDBRANCH   2   3
ENDBRANCH   1   2
BRANCH   1   9
ATOM      9  C   UNL     1      19.109   1.499  25.681  1.00  0.00     0.000 C 
BRANCH   9  10
ATOM     10  C   UNL     1      19.418   1.243  27.165  1.00  0.00    -0.000 C 
BRANCH  10  11
ATOM     11  C   UNL     1      18.964   2.395  28.080  1.00  0.00    -0.000 C 
BRANCH  11  12
ATOM     12  C   UNL     1      19.364   2.257  29.564  1.00  0.00    -0.000 C 
BRANCH  12  13
ATOM     13  C   UNL     1      19.294   3.558  30.380  1.00  0.00    -0.003 C 
ATOM     14  C   UNL     1      17.866   4.062  30.577  1.00  0.00     0.004 C 
ENDBRANCH  12  13
ENDBRANCH  11  12
ENDBRANCH  10  11
ENDBRANCH   9  10
ENDBRANCH   1   9
TORSDOF 10
ENDMDL
MODEL 2
REMARK VINA RESULT:    -1.582      3.600      6.739
REMARK INTER + INTRA:          -3.053
REMARK INTER:                  -2.480
REMARK INTRA:                  -0.573
REMARK UNBOUND:                -0.545
REMARK SMILES CCCCCCCCCCCC(=O)[O-]
REMARK SMILES IDX 7 1 8 2 9 3 10 4 11 5 12 6 13 7 14 8 6 9 5 10 4 11 3 12 2 13
REMARK SMILES IDX 1 14
REMARK H PARENT
REMARK Flexibility Score: inf
ROOT
ATOM      1  C   UNL     1      17.979   1.610  25.523  1.00  0.00     0.000 C 
ENDROOT
BRANCH   1   2
ATOM      2  C   UNL     1      19.177   2.006  26.405  1.00  0.00     0.000 C 
BRANCH   2   3
ATOM      3  C   UNL     1      19.491   0.971  27.495  1.00  0.00     0.000 C 
BRANCH   3   4
ATOM      4  C   UNL     1      19.501   1.620  28.884  1.00  0.00     0.006 C 
BRANCH   4   5
ATOM      5  C   UNL     1      18.753   2.957  28.871  1.00  0.00     0.053 C 
BRANCH   5   6
ATOM      6  C   UNL     1      18.735   3.559  30.241  1.00  0.00     0.041 C 
ATOM      7  O   UNL     1      19.740   3.457  30.992  1.00  0.00    -0.550 OA
ATOM      8  O   UNL     1      17.625   4.275  30.670  1.00  0.00    -0.550 OA
ENDBRANCH   5   6
ENDBRANCH   4   5
ENDBRANCH   3   4
ENDBRANCH   2   3
ENDBRANCH   1   2
BRANCH   1   9
ATOM      9  C   UNL     1      17.175   2.786  24.940  1.00  0.00     0.000 C 
BRANCH   9  10
ATOM     10  C   UNL     1      15.907   3.105  25.749  1.00  0.00    -0.000 C 
BRANCH  10  11
ATOM     11  C   UNL     1      14.716   2.205  25.375  1.00  0.00    -0.000 C 
BRANCH  11  12
ATOM     12  C   UNL     1      13.500   2.937  24.769  1.00  0.00    -0.000 C 
BRANCH  12  13
ATOM     13  C   UNL     1      13.555   3.140  23.245  1.00  0.00    -0.003 C 
ATOM     14  C   UNL     1      13.124   4.540  22.815  1.00  0.00     0.004 C 
ENDBRANCH  12  13
ENDBRANCH  11  12
ENDBRANCH  10  11
ENDBRANCH   9  10
ENDBRANCH   1   9
TORSDOF 10
ENDMDL
MODEL 3
REMARK VINA RESULT:    -1.409      0.909      1.361
REMARK INTER + INTRA:          -2.779
REMARK INTER:                  -2.218
REMARK INTRA:                  -0.560
REMARK UNBOUND:                -0.545
REMARK SMILES CCCCCCCCCCCC(=O)[O-]
REMARK SMILES IDX 7 1 8 2 9 3 10 4 11 5 12 6 13 7 14 8 6 9 5 10 4 11 3 12 2 13
REMARK SMILES IDX 1 14
REMARK H PARENT
REMARK Flexibility Score: inf
ROOT
ATOM      1  C   UNL     1      19.427   1.775  25.330  1.00  0.00     0.000 C 
ENDROOT
BRANCH   1   2
ATOM      2  C   UNL     1      17.938   1.488  25.064  1.00  0.00     0.000 C 
BRANCH   2   3
ATOM      3  C   UNL     1      17.057   2.742  25.160  1.00  0.00     0.000 C 
BRANCH   3   4
ATOM      4  C   UNL     1      15.684   2.405  25.752  1.00  0.00     0.006 C 
BRANCH   4   5
ATOM      5  C   UNL     1      14.653   3.481  25.396  1.00  0.00     0.053 C 
BRANCH   5   6
ATOM      6  C   UNL     1      13.745   2.996  24.309  1.00  0.00     0.041 C 
ATOM      7  O   UNL     1      13.822   3.487  23.153  1.00  0.00    -0.550 OA
ATOM      8  O   UNL     1      12.847   1.967  24.562  1.00  0.00    -0.550 OA
ENDBRANCH   5   6
ENDBRANCH   4   5
ENDBRANCH   3   4
ENDBRANCH   2   3
ENDBRANCH   1   2
BRANCH   1   9
ATOM      9  C   UNL     1      20.071   0.926  26.440  1.00  0.00     0.000 C 
BRANCH   9  10
ATOM     10  C   UNL     1      19.264   0.938  27.749  1.00  0.00    -0.000 C 
BRANCH  10  11
ATOM     11  C   UNL     1      19.134   2.345  28.360  1.00  0.00    -0.000 C 
BRANCH  11  12
ATOM     12  C   UNL     1      19.423   2.437  29.873  1.00  0.00    -0.000 C 
BRANCH  12  13
ATOM     13  C   UNL     1      19.188   3.823  30.497  1.00  0.00    -0.003 C 
ATOM     14  C   UNL     1      17.707   4.159  30.661  1.00  0.00     0.004 C 
ENDBRANCH  12  13
ENDBRANCH  11  12
ENDBRANCH  10  11
ENDBRANCH   9  10
ENDBRANCH   1   9
TORSDOF 10
ENDMDL
MODEL 4
REMARK VINA RESULT:    -1.313      3.590      6.607
REMARK INTER + INTRA:          -2.625
REMARK INTER:                  -2.060
REMARK INTRA:                  -0.565
REMARK UNBOUND:                -0.545
REMARK SMILES CCCCCCCCCCCC(=O)[O-]
REMARK SMILES IDX 7 1 8 2 9 3 10 4 11 5 12 6 13 7 14 8 6 9 5 10 4 11 3 12 2 13
REMARK SMILES IDX 1 14
REMARK H PARENT
REMARK Flexibility Score: inf
ROOT
ATOM      1  C   UNL     1      17.221   1.526  25.265  1.00  0.00     0.000 C 
ENDROOT
BRANCH   1   2
ATOM      2  C   UNL     1      18.685   1.133  24.995  1.00  0.00     0.000 C 
BRANCH   2   3
ATOM      3  C   UNL     1      19.659   1.687  26.045  1.00  0.00     0.000 C 
BRANCH   3   4
ATOM      4  C   UNL     1      19.146   1.420  27.466  1.00  0.00     0.006 C 
BRANCH   4   5
ATOM      5  C   UNL     1      18.731   2.724  28.154  1.00  0.00     0.053 C 
BRANCH   5   6
ATOM      6  C   UNL     1      19.267   2.772  29.551  1.00  0.00     0.041 C 
ATOM      7  O   UNL     1      20.236   2.041  29.883  1.00  0.00    -0.550 OA
ATOM      8  O   UNL     1      18.727   3.661  30.471  1.00  0.00    -0.550 OA
ENDBRANCH   5   6
ENDBRANCH   4   5
ENDBRANCH   3   4
ENDBRANCH   2   3
ENDBRANCH   1   2
BRANCH   1   9
ATOM      9  C   UNL     1      16.926   3.035  25.213  1.00  0.00     0.000 C 
BRANCH   9  10
ATOM     10  C   UNL     1      15.561   3.401  25.819  1.00  0.00    -0.000 C 
BRANCH  10  11
ATOM     11  C   UNL     1      14.505   2.297  25.628  1.00  0.00    -0.000 C 
BRANCH  11  12
ATOM     12  C   UNL     1      13.359   2.640  24.653  1.00  0.00    -0.000 C 
BRANCH  12  13
ATOM     13  C   UNL     1      13.804   3.264  23.320  1.00  0.00    -0.003 C 
ATOM     14  C   UNL     1      13.016   4.522  22.959  1.00  0.00     0.004 C 
ENDBRANCH  12  13
ENDBRANCH  11  12
ENDBRANCH  10  11
ENDBRANCH   9  10
ENDBRANCH   1   9
TORSDOF 10
ENDMDL
MODEL 5
REMARK VINA RESULT:    -1.149      0.924      1.455
REMARK INTER + INTRA:          -2.366
REMARK INTER:                  -2.108
REMARK INTRA:                  -0.258
REMARK UNBOUND:                -0.545
REMARK SMILES CCCCCCCCCCCC(=O)[O-]
REMARK SMILES IDX 7 1 8 2 9 3 10 4 11 5 12 6 13 7 14 8 6 9 5 10 4 11 3 12 2 13
REMARK SMILES IDX 1 14
REMARK H PARENT
REMARK Flexibility Score: inf
ROOT
ATOM      1  C   UNL     1      16.963   2.762  24.954  1.00  0.00     0.000 C 
ENDROOT
BRANCH   1   2
ATOM      2  C   UNL     1      15.703   3.137  25.755  1.00  0.00     0.000 C 
BRANCH   2   3
ATOM      3  C   UNL     1      14.547   2.146  25.556  1.00  0.00     0.000 C 
BRANCH   3   4
ATOM      4  C   UNL     1      13.501   2.709  24.586  1.00  0.00     0.006 C 
BRANCH   4   5
ATOM      5  C   UNL     1      14.162   3.562  23.499  1.00  0.00     0.053 C 
BRANCH   5   6
ATOM      6  C   UNL     1      13.167   4.503  22.895  1.00  0.00     0.041 C 
ATOM      7  O   UNL     1      12.103   4.060  22.389  1.00  0.00    -0.550 OA
ATOM      8  O   UNL     1      13.393   5.872  22.936  1.00  0.00    -0.550 OA
ENDBRANCH   5   6
ENDBRANCH   4   5
ENDBRANCH   3   4
ENDBRANCH   2   3
ENDBRANCH   1   2
BRANCH   1   9
ATOM      9  C   UNL     1      17.773   1.581  25.519  1.00  0.00     0.000 C 
BRANCH   9  10
ATOM     10  C   UNL     1      18.943   2.028  26.410  1.00  0.00    -0.000 C 
BRANCH  10  11
ATOM     11  C   UNL     1      19.126   1.136  27.652  1.00  0.00    -0.000 C 
BRANCH  11  12
ATOM     12  C   UNL     1      19.519   1.878  28.946  1.00  0.00    -0.000 C 
BRANCH  12  13
ATOM     13  C   UNL     1      18.765   3.195  29.195  1.00  0.00    -0.003 C 
ATOM     14  C   UNL     1      18.847   3.664  30.647  1.00  0.00     0.004 C 
ENDBRANCH  12  13
ENDBRANCH  11  12
ENDBRANCH  10  11
ENDBRANCH   9  10
ENDBRANCH   1   9
TORSDOF 10
ENDMDL
