MODEL 1
REMARK VINA RESULT:    -4.494      0.000      0.000
REMARK INTER + INTRA:         -17.566
REMARK INTER:                 -11.850
REMARK INTRA:                  -5.715
REMARK UNBOUND:                -5.715
REMARK SMILES CCCCCCCCCCCCCCCCCCCCCCCCCCCCCC(=O)[O-]
REMARK SMILES IDX 16 1 17 2 18 3 19 4 20 5 21 6 22 7 23 8 24 9 25 10 26 11
REMARK SMILES IDX 27 12 28 13 29 14 30 15 31 16 32 17 15 18 14 19 13 20 12 21
REMARK SMILES IDX 11 22 10 23 9 24 8 25 7 26 6 27 5 28 4 29 3 30 2 31 1 32
REMARK H PARENT
REMARK Flexibility Score: inf
ROOT
ATOM      1  C   UNL     1      63.847  14.438  38.605  1.00  0.00     0.000 C 
ENDROOT
BRANCH   1   2
ATOM      2  C   UNL     1      63.445  13.648  39.864  1.00  0.00     0.000 C 
BRANCH   2   3
ATOM      3  C   UNL     1      63.047  12.194  39.556  1.00  0.00     0.000 C 
BRANCH   3   4
ATOM      4  C   UNL     1      62.598  11.358  40.774  1.00  0.00     0.000 C 
BRANCH   4   5
ATOM      5  C   UNL     1      61.072  11.207  40.944  1.00  0.00     0.000 C 
BRANCH   5   6
ATOM      6  C   UNL     1      60.295  12.541  40.909  1.00  0.00     0.000 C 
BRANCH   6   7
ATOM      7  C   UNL     1      59.326  12.670  39.717  1.00  0.00     0.000 C 
BRANCH   7   8
ATOM      8  C   UNL     1      59.276  11.450  38.782  1.00  0.00     0.000 C 
BRANCH   8   9
ATOM      9  C   UNL     1      59.975  11.699  37.434  1.00  0.00     0.000 C 
BRANCH   9  10
ATOM     10  C   UNL     1      60.418  10.392  36.758  1.00  0.00     0.000 C 
BRANCH  10  11
ATOM     11  C   UNL     1      61.573   9.698  37.502  1.00  0.00     0.000 C 
BRANCH  11  12
ATOM     12  C   UNL     1      61.176   8.293  38.001  1.00  0.00     0.000 C 
BRANCH  12  13
ATOM     13  C   UNL     1      61.813   7.919  39.351  1.00  0.00     0.006 C 
BRANCH  13  14
ATOM     14  C   UNL     1      63.342   8.008  39.335  1.00  0.00     0.053 C 
BRANCH  14  15
ATOM     15  C   UNL     1      63.923   6.876  38.549  1.00  0.00     0.041 C 
ATOM     16  O   UNL     1      63.976   5.721  39.049  1.00  0.00    -0.550 OA
ATOM     17  O   UNL     1      64.450   7.104  37.285  1.00  0.00    -0.550 OA
ENDBRANCH  14  15
ENDBRANCH  13  14
ENDBRANCH  12  13
ENDBRANCH  11  12
ENDBRANCH  10  11
ENDBRANCH   9  10
ENDBRANCH   8   9
ENDBRANCH   7   8
ENDBRANCH   6   7
ENDBRANCH   5   6
ENDBRANCH   4   5
ENDBRANCH   3   4
ENDBRANCH   2   3
ENDBRANCH   1   2
BRANCH   1  18
ATOM     18  C   UNL     1      62.640  14.786  37.717  1.00  0.00     0.000 C 
BRANCH  18  19
ATOM     19  C   UNL     1      62.977  14.734  36.216  1.00  0.00     0.000 C 
BRANCH  19  20
ATOM     20  C   UNL     1      64.428  15.151  35.923  1.00  0.00     0.000 C 
BRANCH  20  21
ATOM     21  C   UNL     1      64.546  16.629  35.508  1.00  0.00     0.000 C 
BRANCH  21  22
ATOM     22  C   UNL     1      65.560  17.401  36.367  1.00  0.00     0.000 C 
BRANCH  22  23
ATOM     23  C   UNL     1      64.996  17.802  37.739  1.00  0.00     0.000 C 
BRANCH  23  24
ATOM     24  C   UNL     1      63.641  18.506  37.590  1.00  0.00    -0.000 C 
BRANCH  24  25
ATOM     25  C   UNL     1      63.089  18.934  38.958  1.00  0.00    -0.000 C 
BRANCH  25  26
ATOM     26  C   UNL     1      63.603  18.054  40.109  1.00  0.00    -0.000 C 
BRANCH  26  27
ATOM     27  C   UNL     1      62.539  17.147  40.757  1.00  0.00    -0.000 C 
BRANCH  27  28
ATOM     28  C   UNL     1      61.104  17.415  40.254  1.00  0.00    -0.000 C 
BRANCH  28  29
ATOM     29  C   UNL     1      60.288  16.119  40.104  1.00  0.00    -0.000 C 
BRANCH  29  30
ATOM     30  C   UNL     1      59.045  16.304  39.219  1.00  0.00    -0.000 C 
BRANCH  30  31
ATOM     31  C   UNL     1      59.396  16.477  37.733  1.00  0.00    -0.003 C 
ATOM     32  C   UNL     1      59.043  15.224  36.938  1.00  0.00     0.004 C 
ENDBRANCH  30  31
ENDBRANCH  29  30
ENDBRANCH  28  29
ENDBRANCH  27  28
ENDBRANCH  26  27
ENDBRANCH  25  26
ENDBRANCH  24  25
ENDBRANCH  23  24
ENDBRANCH  22  23
ENDBRANCH  21  22
ENDBRANCH  20  21
ENDBRANCH  19  20
ENDBRANCH  18  19
ENDBRANCH   1  18
TORSDOF 28
ENDMDL
MODEL 2
REMARK VINA RESULT:    -4.399      3.413      8.828
REMARK INTER + INTRA:         -17.314
REMARK INTER:                 -12.590
REMARK INTRA:                  -4.723
REMARK UNBOUND:                -5.715
REMARK SMILES CCCCCCCCCCCCCCCCCCCCCCCCCCCCCC(=O)[O-]
REMARK SMILES IDX 16 1 17 2 18 3 19 4 20 5 21 6 22 7 23 8 24 9 25 10 26 11
REMARK SMILES IDX 27 12 28 13 29 14 30 15 31 16 32 17 15 18 14 19 13 20 12 21
REMARK SMILES IDX 11 22 10 23 9 24 8 25 7 26 6 27 5 28 4 29 3 30 2 31 1 32
REMARK H PARENT
REMARK Flexibility Score: inf
ROOT
ATOM      1  C   UNL     1      63.083  14.574  38.400  1.00  0.00     0.000 C 
ENDROOT
BRANCH   1   2
ATOM      2  C   UNL     1      61.953  13.937  37.571  1.00  0.00     0.000 C 
BRANCH   2   3
ATOM      3  C   UNL     1      60.719  14.849  37.442  1.00  0.00     0.000 C 
BRANCH   3   4
ATOM      4  C   UNL     1      60.738  16.120  38.318  1.00  0.00     0.000 C 
BRANCH   4   5
ATOM      5  C   UNL     1      59.897  17.299  37.787  1.00  0.00     0.000 C 
BRANCH   5   6
ATOM      6  C   UNL     1      60.560  18.682  37.968  1.00  0.00     0.000 C 
BRANCH   6   7
ATOM      7  C   UNL     1      60.999  18.982  39.415  1.00  0.00     0.000 C 
BRANCH   7   8
ATOM      8  C   UNL     1      62.497  19.284  39.592  1.00  0.00     0.000 C 
BRANCH   8   9
ATOM      9  C   UNL     1      63.336  18.021  39.857  1.00  0.00     0.000 C 
BRANCH   9  10
ATOM     10  C   UNL     1      64.512  17.888  38.878  1.00  0.00     0.000 C 
BRANCH  10  11
ATOM     11  C   UNL     1      64.201  18.474  37.489  1.00  0.00     0.000 C 
BRANCH  11  12
ATOM     12  C   UNL     1      63.903  17.372  36.451  1.00  0.00     0.000 C 
BRANCH  12  13
ATOM     13  C   UNL     1      64.925  17.319  35.302  1.00  0.00     0.006 C 
BRANCH  13  14
ATOM     14  C   UNL     1      66.346  17.673  35.751  1.00  0.00     0.053 C 
BRANCH  14  15
ATOM     15  C   UNL     1      67.038  18.487  34.703  1.00  0.00     0.041 C 
ATOM     16  O   UNL     1      67.375  19.675  34.945  1.00  0.00    -0.550 OA
ATOM     17  O   UNL     1      67.267  17.949  33.443  1.00  0.00    -0.550 OA
ENDBRANCH  14  15
ENDBRANCH  13  14
ENDBRANCH  12  13
ENDBRANCH  11  12
ENDBRANCH  10  11
ENDBRANCH   9  10
ENDBRANCH   8   9
ENDBRANCH   7   8
ENDBRANCH   6   7
ENDBRANCH   5   6
ENDBRANCH   4   5
ENDBRANCH   3   4
ENDBRANCH   2   3
ENDBRANCH   1   2
BRANCH   1  18
ATOM     18  C   UNL     1      63.443  13.742  39.643  1.00  0.00     0.000 C 
BRANCH  18  19
ATOM     19  C   UNL     1      63.344  12.227  39.387  1.00  0.00     0.000 C 
BRANCH  19  20
ATOM     20  C   UNL     1      62.541  11.497  40.477  1.00  0.00     0.000 C 
BRANCH  20  21
ATOM     21  C   UNL     1      61.175  12.153  40.746  1.00  0.00     0.000 C 
BRANCH  21  22
ATOM     22  C   UNL     1      60.000  11.274  40.285  1.00  0.00     0.000 C 
BRANCH  22  23
ATOM     23  C   UNL     1      59.528  11.610  38.862  1.00  0.00     0.000 C 
BRANCH  23  24
ATOM     24  C   UNL     1      59.566  10.367  37.964  1.00  0.00    -0.000 C 
BRANCH  24  25
ATOM     25  C   UNL     1      60.896  10.280  37.200  1.00  0.00    -0.000 C 
BRANCH  25  26
ATOM     26  C   UNL     1      61.817   9.170  37.734  1.00  0.00    -0.000 C 
BRANCH  26  27
ATOM     27  C   UNL     1      61.145   8.184  38.709  1.00  0.00    -0.000 C 
BRANCH  27  28
ATOM     28  C   UNL     1      62.143   7.418  39.604  1.00  0.00    -0.000 C 
BRANCH  28  29
ATOM     29  C   UNL     1      63.575   7.968  39.482  1.00  0.00    -0.000 C 
BRANCH  29  30
ATOM     30  C   UNL     1      64.638   6.857  39.520  1.00  0.00    -0.000 C 
BRANCH  30  31
ATOM     31  C   UNL     1      64.726   6.076  38.200  1.00  0.00    -0.003 C 
ATOM     32  C   UNL     1      65.647   6.779  37.208  1.00  0.00     0.004 C 
ENDBRANCH  30  31
ENDBRANCH  29  30
ENDBRANCH  28  29
ENDBRANCH  27  28
ENDBRANCH  26  27
ENDBRANCH  25  26
ENDBRANCH  24  25
ENDBRANCH  23  24
ENDBRANCH  22  23
ENDBRANCH  21  22
ENDBRANCH  20  21
ENDBRANCH  19  20
ENDBRANCH  18  19
ENDBRANCH   1  18
TORSDOF 28
ENDMDL
MODEL 3
REMARK VINA RESULT:    -4.331      1.247      3.606
REMARK INTER + INTRA:         -17.137
REMARK INTER:                 -11.600
REMARK INTRA:                  -5.537
REMARK UNBOUND:                -5.715
REMARK SMILES CCCCCCCCCCCCCCCCCCCCCCCCCCCCCC(=O)[O-]
REMARK SMILES IDX 16 1 17 2 18 3 19 4 20 5 21 6 22 7 23 8 24 9 25 10 26 11
REMARK SMILES IDX 27 12 28 13 29 14 30 15 31 16 32 17 15 18 14 19 13 20 12 21
REMARK SMILES IDX 11 22 10 23 9 24 8 25 7 26 6 27 5 28 4 29 3 30 2 31 1 32
REMARK H PARENT
REMARK Flexibility Score: inf
ROOT
ATOM      1  C   UNL     1      62.185  12.215  40.762  1.00  0.00     0.000 C 
ENDROOT
BRANCH   1   2
ATOM      2  C   UNL     1      61.198  11.041  40.888  1.00  0.00     0.000 C 
BRANCH   2   3
ATOM      3  C   UNL     1      59.727  11.493  40.890  1.00  0.00     0.000 C 
BRANCH   3   4
ATOM      4  C   UNL     1      59.454  12.865  40.238  1.00  0.00     0.000 C 
BRANCH   4   5
ATOM      5  C   UNL     1      58.972  12.814  38.772  1.00  0.00     0.000 C 
BRANCH   5   6
ATOM      6  C   UNL     1      60.112  12.836  37.730  1.00  0.00     0.000 C 
BRANCH   6   7
ATOM      7  C   UNL     1      59.989  11.747  36.645  1.00  0.00     0.000 C 
BRANCH   7   8
ATOM      8  C   UNL     1      60.774  10.455  36.927  1.00  0.00     0.000 C 
BRANCH   8   9
ATOM      9  C   UNL     1      59.969   9.431  37.747  1.00  0.00     0.000 C 
BRANCH   9  10
ATOM     10  C   UNL     1      60.877   8.456  38.513  1.00  0.00     0.000 C 
BRANCH  10  11
ATOM     11  C   UNL     1      62.366   8.628  38.161  1.00  0.00     0.000 C 
BRANCH  11  12
ATOM     12  C   UNL     1      63.280   8.371  39.378  1.00  0.00     0.000 C 
BRANCH  12  13
ATOM     13  C   UNL     1      64.280   7.222  39.162  1.00  0.00     0.006 C 
BRANCH  13  14
ATOM     14  C   UNL     1      63.934   6.349  37.953  1.00  0.00     0.053 C 
BRANCH  14  15
ATOM     15  C   UNL     1      65.158   6.074  37.138  1.00  0.00     0.041 C 
ATOM     16  O   UNL     1      65.335   4.937  36.627  1.00  0.00    -0.550 OA
ATOM     17  O   UNL     1      66.126   7.057  36.985  1.00  0.00    -0.550 OA
ENDBRANCH  14  15
ENDBRANCH  13  14
ENDBRANCH  12  13
ENDBRANCH  11  12
ENDBRANCH  10  11
ENDBRANCH   9  10
ENDBRANCH   8   9
ENDBRANCH   7   8
ENDBRANCH   6   7
ENDBRANCH   5   6
ENDBRANCH   4   5
ENDBRANCH   3   4
ENDBRANCH   2   3
ENDBRANCH   1   2
BRANCH   1  18
ATOM     18  C   UNL     1      63.092  12.094  39.525  1.00  0.00     0.000 C 
BRANCH  18  19
ATOM     19  C   UNL     1      63.868  13.390  39.234  1.00  0.00     0.000 C 
BRANCH  19  20
ATOM     20  C   UNL     1      63.254  14.615  39.933  1.00  0.00     0.000 C 
BRANCH  20  21
ATOM     21  C   UNL     1      62.134  15.269  39.104  1.00  0.00     0.000 C 
BRANCH  21  22
ATOM     22  C   UNL     1      61.135  16.047  39.977  1.00  0.00     0.000 C 
BRANCH  22  23
ATOM     23  C   UNL     1      60.123  16.854  39.148  1.00  0.00     0.000 C 
BRANCH  23  24
ATOM     24  C   UNL     1      60.800  18.054  38.474  1.00  0.00    -0.000 C 
BRANCH  24  25
ATOM     25  C   UNL     1      61.294  19.066  39.519  1.00  0.00    -0.000 C 
BRANCH  25  26
ATOM     26  C   UNL     1      62.826  19.195  39.545  1.00  0.00    -0.000 C 
BRANCH  26  27
ATOM     27  C   UNL     1      63.539  18.709  38.268  1.00  0.00    -0.000 C 
BRANCH  27  28
ATOM     28  C   UNL     1      64.644  17.664  38.532  1.00  0.00    -0.000 C 
BRANCH  28  29
ATOM     29  C   UNL     1      65.223  17.088  37.228  1.00  0.00    -0.000 C 
BRANCH  29  30
ATOM     30  C   UNL     1      64.133  16.563  36.280  1.00  0.00    -0.000 C 
BRANCH  30  31
ATOM     31  C   UNL     1      64.352  15.096  35.881  1.00  0.00    -0.003 C 
ATOM     32  C   UNL     1      63.028  14.342  35.816  1.00  0.00     0.004 C 
ENDBRANCH  30  31
ENDBRANCH  29  30
ENDBRANCH  28  29
ENDBRANCH  27  28
ENDBRANCH  26  27
ENDBRANCH  25  26
ENDBRANCH  24  25
ENDBRANCH  23  24
ENDBRANCH  22  23
ENDBRANCH  21  22
ENDBRANCH  20  21
ENDBRANCH  19  20
ENDBRANCH  18  19
ENDBRANCH   1  18
TORSDOF 28
ENDMDL
MODEL 4
REMARK VINA RESULT:    -4.271      1.371      2.635
REMARK INTER + INTRA:         -16.979
REMARK INTER:                 -12.185
REMARK INTRA:                  -4.794
REMARK UNBOUND:                -5.715
REMARK SMILES CCCCCCCCCCCCCCCCCCCCCCCCCCCCCC(=O)[O-]
REMARK SMILES IDX 16 1 17 2 18 3 19 4 20 5 21 6 22 7 23 8 24 9 25 10 26 11
REMARK SMILES IDX 27 12 28 13 29 14 30 15 31 16 32 17 15 18 14 19 13 20 12 21
REMARK SMILES IDX 11 22 10 23 9 24 8 25 7 26 6 27 5 28 4 29 3 30 2 31 1 32
REMARK H PARENT
REMARK Flexibility Score: inf
ROOT
ATOM      1  C   UNL     1      64.999  14.484  37.307  1.00  0.00     0.000 C 
ENDROOT
BRANCH   1   2
ATOM      2  C   UNL     1      64.536  13.663  38.524  1.00  0.00     0.000 C 
BRANCH   2   3
ATOM      3  C   UNL     1      63.356  14.311  39.270  1.00  0.00     0.000 C 
BRANCH   3   4
ATOM      4  C   UNL     1      62.465  13.339  40.073  1.00  0.00     0.000 C 
BRANCH   4   5
ATOM      5  C   UNL     1      62.832  11.846  39.942  1.00  0.00     0.000 C 
BRANCH   5   6
ATOM      6  C   UNL     1      62.082  10.920  40.924  1.00  0.00     0.000 C 
BRANCH   6   7
ATOM      7  C   UNL     1      60.639  10.589  40.493  1.00  0.00     0.000 C 
BRANCH   7   8
ATOM      8  C   UNL     1      60.489  10.094  39.044  1.00  0.00     0.000 C 
BRANCH   8   9
ATOM      9  C   UNL     1      60.808   8.597  38.886  1.00  0.00     0.000 C 
BRANCH   9  10
ATOM     10  C   UNL     1      61.863   8.338  37.800  1.00  0.00     0.000 C 
BRANCH  10  11
ATOM     11  C   UNL     1      63.304   8.485  38.322  1.00  0.00     0.000 C 
BRANCH  11  12
ATOM     12  C   UNL     1      63.516   7.733  39.652  1.00  0.00     0.000 C 
BRANCH  12  13
ATOM     13  C   UNL     1      64.846   6.964  39.717  1.00  0.00     0.006 C 
BRANCH  13  14
ATOM     14  C   UNL     1      65.084   6.078  38.490  1.00  0.00     0.053 C 
BRANCH  14  15
ATOM     15  C   UNL     1      66.405   6.394  37.865  1.00  0.00     0.041 C 
ATOM     16  O   UNL     1      67.472   6.180  38.499  1.00  0.00    -0.550 OA
ATOM     17  O   UNL     1      66.459   6.970  36.603  1.00  0.00    -0.550 OA
ENDBRANCH  14  15
ENDBRANCH  13  14
ENDBRANCH  12  13
ENDBRANCH  11  12
ENDBRANCH  10  11
ENDBRANCH   9  10
ENDBRANCH   8   9
ENDBRANCH   7   8
ENDBRANCH   6   7
ENDBRANCH   5   6
ENDBRANCH   4   5
ENDBRANCH   3   4
ENDBRANCH   2   3
ENDBRANCH   1   2
BRANCH   1  18
ATOM     18  C   UNL     1      63.828  15.150  36.565  1.00  0.00     0.000 C 
BRANCH  18  19
ATOM     19  C   UNL     1      64.248  16.437  35.834  1.00  0.00     0.000 C 
BRANCH  19  20
ATOM     20  C   UNL     1      65.026  17.404  36.743  1.00  0.00     0.000 C 
BRANCH  20  21
ATOM     21  C   UNL     1      64.123  18.101  37.776  1.00  0.00     0.000 C 
BRANCH  21  22
ATOM     22  C   UNL     1      64.515  17.762  39.223  1.00  0.00     0.000 C 
BRANCH  22  23
ATOM     23  C   UNL     1      63.469  18.227  40.248  1.00  0.00     0.000 C 
BRANCH  23  24
ATOM     24  C   UNL     1      62.490  19.225  39.617  1.00  0.00    -0.000 C 
BRANCH  24  25
ATOM     25  C   UNL     1      61.053  18.685  39.651  1.00  0.00    -0.000 C 
BRANCH  25  26
ATOM     26  C   UNL     1      60.935  17.358  40.420  1.00  0.00    -0.000 C 
BRANCH  26  27
ATOM     27  C   UNL     1      60.140  16.256  39.692  1.00  0.00    -0.000 C 
BRANCH  27  28
ATOM     28  C   UNL     1      60.387  16.214  38.169  1.00  0.00    -0.000 C 
BRANCH  28  29
ATOM     29  C   UNL     1      59.131  15.789  37.387  1.00  0.00    -0.000 C 
BRANCH  29  30
ATOM     30  C   UNL     1      59.315  14.446  36.662  1.00  0.00    -0.000 C 
BRANCH  30  31
ATOM     31  C   UNL     1      60.164  13.450  37.466  1.00  0.00    -0.003 C 
ATOM     32  C   UNL     1      60.882  12.471  36.543  1.00  0.00     0.004 C 
ENDBRANCH  30  31
ENDBRANCH  29  30
ENDBRANCH  28  29
ENDBRANCH  27  28
ENDBRANCH  26  27
ENDBRANCH  25  26
ENDBRANCH  24  25
ENDBRANCH  23  24
ENDBRANCH  22  23
ENDBRANCH  21  22
ENDBRANCH  20  21
ENDBRANCH  19  20
ENDBRANCH  18  19
ENDBRANCH   1  18
TORSDOF 28
ENDMDL
MODEL 5
REMARK VINA RESULT:    -4.265      1.224      2.041
REMARK INTER + INTRA:         -16.960
REMARK INTER:                 -12.049
REMARK INTRA:                  -4.912
REMARK UNBOUND:                -5.715
REMARK SMILES CCCCCCCCCCCCCCCCCCCCCCCCCCCCCC(=O)[O-]
REMARK SMILES IDX 16 1 17 2 18 3 19 4 20 5 21 6 22 7 23 8 24 9 25 10 26 11
REMARK SMILES IDX 27 12 28 13 29 14 30 15 31 16 32 17 15 18 14 19 13 20 12 21
REMARK SMILES IDX 11 22 10 23 9 24 8 25 7 26 6 27 5 28 4 29 3 30 2 31 1 32
REMARK H PARENT
REMARK Flexibility Score: inf
ROOT
ATOM      1  C   UNL     1      63.902  14.360  38.564  1.00  0.00     0.000 C 
ENDROOT
BRANCH   1   2
ATOM      2  C   UNL     1      63.370  13.694  39.846  1.00  0.00     0.000 C 
BRANCH   2   3
ATOM      3  C   UNL     1      62.993  12.216  39.640  1.00  0.00     0.000 C 
BRANCH   3   4
ATOM      4  C   UNL     1      61.607  11.804  40.180  1.00  0.00     0.000 C 
BRANCH   4   5
ATOM      5  C   UNL     1      60.431  12.006  39.202  1.00  0.00     0.000 C 
BRANCH   5   6
ATOM      6  C   UNL     1      60.839  12.009  37.712  1.00  0.00     0.000 C 
BRANCH   6   7
ATOM      7  C   UNL     1      60.790  10.618  37.048  1.00  0.00     0.000 C 
BRANCH   7   8
ATOM      8  C   UNL     1      59.921   9.579  37.774  1.00  0.00     0.000 C 
BRANCH   8   9
ATOM      9  C   UNL     1      60.741   8.414  38.358  1.00  0.00     0.000 C 
BRANCH   9  10
ATOM     10  C   UNL     1      62.248   8.583  38.113  1.00  0.00     0.000 C 
BRANCH  10  11
ATOM     11  C   UNL     1      63.079   8.452  39.402  1.00  0.00     0.000 C 
BRANCH  11  12
ATOM     12  C   UNL     1      63.656   7.032  39.575  1.00  0.00     0.000 C 
BRANCH  12  13
ATOM     13  C   UNL     1      65.112   6.898  39.093  1.00  0.00     0.006 C 
BRANCH  13  14
ATOM     14  C   UNL     1      65.233   6.145  37.765  1.00  0.00     0.053 C 
BRANCH  14  15
ATOM     15  C   UNL     1      66.664   6.069  37.337  1.00  0.00     0.041 C 
ATOM     16  O   UNL     1      67.568   5.848  38.185  1.00  0.00    -0.550 OA
ATOM     17  O   UNL     1      67.006   6.290  36.009  1.00  0.00    -0.550 OA
ENDBRANCH  14  15
ENDBRANCH  13  14
ENDBRANCH  12  13
ENDBRANCH  11  12
ENDBRANCH  10  11
ENDBRANCH   9  10
ENDBRANCH   8   9
ENDBRANCH   7   8
ENDBRANCH   6   7
ENDBRANCH   5   6
ENDBRANCH   4   5
ENDBRANCH   3   4
ENDBRANCH   2   3
ENDBRANCH   1   2
BRANCH   1  18
ATOM     18  C   UNL     1      62.773  14.858  37.646  1.00  0.00     0.000 C 
BRANCH  18  19
ATOM     19  C   UNL     1      63.137  14.758  36.155  1.00  0.00     0.000 C 
BRANCH  19  20
ATOM     20  C   UNL     1      64.573  15.229  35.865  1.00  0.00     0.000 C 
BRANCH  20  21
ATOM     21  C   UNL     1      64.635  16.703  35.429  1.00  0.00     0.000 C 
BRANCH  21  22
ATOM     22  C   UNL     1      65.555  17.544  36.329  1.00  0.00     0.000 C 
BRANCH  22  23
ATOM     23  C   UNL     1      64.924  17.866  37.692  1.00  0.00     0.000 C 
BRANCH  23  24
ATOM     24  C   UNL     1      63.531  18.485  37.518  1.00  0.00    -0.000 C 
BRANCH  24  25
ATOM     25  C   UNL     1      62.921  18.860  38.877  1.00  0.00    -0.000 C 
BRANCH  25  26
ATOM     26  C   UNL     1      63.520  18.053  40.041  1.00  0.00    -0.000 C 
BRANCH  26  27
ATOM     27  C   UNL     1      62.540  17.082  40.728  1.00  0.00    -0.000 C 
BRANCH  27  28
ATOM     28  C   UNL     1      61.071  17.268  40.292  1.00  0.00    -0.000 C 
BRANCH  28  29
ATOM     29  C   UNL     1      60.342  15.924  40.114  1.00  0.00    -0.000 C 
BRANCH  29  30
ATOM     30  C   UNL     1      59.536  15.859  38.807  1.00  0.00    -0.000 C 
BRANCH  30  31
ATOM     31  C   UNL     1      59.629  17.156  37.989  1.00  0.00    -0.003 C 
ATOM     32  C   UNL     1      58.379  17.358  37.138  1.00  0.00     0.004 C 
ENDBRANCH  30  31
ENDBRANCH  29  30
ENDBRANCH  28  29
ENDBRANCH  27  28
ENDBRANCH  26  27
ENDBRANCH  25  26
ENDBRANCH  24  25
ENDBRANCH  23  24
ENDBRANCH  22  23
ENDBRANCH  21  22
ENDBRANCH  20  21
ENDBRANCH  19  20
ENDBRANCH  18  19
ENDBRANCH   1  18
TORSDOF 28
ENDMDL
MODEL 6
REMARK VINA RESULT:    -4.255      9.271     13.017
REMARK INTER + INTRA:         -16.935
REMARK INTER:                 -13.018
REMARK INTRA:                  -3.917
REMARK UNBOUND:                -5.715
REMARK SMILES CCCCCCCCCCCCCCCCCCCCCCCCCCCCCC(=O)[O-]
REMARK SMILES IDX 16 1 17 2 18 3 19 4 20 5 21 6 22 7 23 8 24 9 25 10 26 11
REMARK SMILES IDX 27 12 28 13 29 14 30 15 31 16 32 17 15 18 14 19 13 20 12 21
REMARK SMILES IDX 11 22 10 23 9 24 8 25 7 26 6 27 5 28 4 29 3 30 2 31 1 32
REMARK H PARENT
REMARK Flexibility Score: inf
ROOT
ATOM      1  C   UNL     1      69.694  11.279  31.559  1.00  0.00     0.000 C 
ENDROOT
BRANCH   1   2
ATOM      2  C   UNL     1      70.919  11.134  32.479  1.00  0.00     0.000 C 
BRANCH   2   3
ATOM      3  C   UNL     1      71.751   9.875  32.175  1.00  0.00     0.000 C 
BRANCH   3   4
ATOM      4  C   UNL     1      72.163   9.039  33.406  1.00  0.00     0.000 C 
BRANCH   4   5
ATOM      5  C   UNL     1      71.860   7.530  33.309  1.00  0.00     0.000 C 
BRANCH   5   6
ATOM      6  C   UNL     1      72.396   6.698  34.495  1.00  0.00     0.000 C 
BRANCH   6   7
ATOM      7  C   UNL     1      72.642   5.214  34.158  1.00  0.00     0.000 C 
BRANCH   7   8
ATOM      8  C   UNL     1      72.475   4.846  32.674  1.00  0.00     0.000 C 
BRANCH   8   9
ATOM      9  C   UNL     1      73.654   4.024  32.124  1.00  0.00     0.000 C 
BRANCH   9  10
ATOM     10  C   UNL     1      74.668   4.895  31.367  1.00  0.00     0.000 C 
BRANCH  10  11
ATOM     11  C   UNL     1      75.516   5.773  32.305  1.00  0.00     0.000 C 
BRANCH  11  12
ATOM     12  C   UNL     1      75.259   7.277  32.079  1.00  0.00     0.000 C 
BRANCH  12  13
ATOM     13  C   UNL     1      74.589   7.588  30.729  1.00  0.00     0.006 C 
BRANCH  13  14
ATOM     14  C   UNL     1      75.070   8.906  30.114  1.00  0.00     0.053 C 
BRANCH  14  15
ATOM     15  C   UNL     1      76.082   8.645  29.044  1.00  0.00     0.041 C 
ATOM     16  O   UNL     1      76.503   7.476  28.843  1.00  0.00    -0.550 OA
ATOM     17  O   UNL     1      76.597   9.700  28.301  1.00  0.00    -0.550 OA
ENDBRANCH  14  15
ENDBRANCH  13  14
ENDBRANCH  12  13
ENDBRANCH  11  12
ENDBRANCH  10  11
ENDBRANCH   9  10
ENDBRANCH   8   9
ENDBRANCH   7   8
ENDBRANCH   6   7
ENDBRANCH   5   6
ENDBRANCH   4   5
ENDBRANCH   3   4
ENDBRANCH   2   3
ENDBRANCH   1   2
BRANCH   1  18
ATOM     18  C   UNL     1      68.372  10.975  32.285  1.00  0.00     0.000 C 
BRANCH  18  19
ATOM     19  C   UNL     1      68.555   9.992  33.455  1.00  0.00     0.000 C 
BRANCH  19  20
ATOM     20  C   UNL     1      68.267   8.536  33.052  1.00  0.00     0.000 C 
BRANCH  20  21
ATOM     21  C   UNL     1      68.021   7.624  34.267  1.00  0.00     0.000 C 
BRANCH  21  22
ATOM     22  C   UNL     1      68.347   6.150  33.971  1.00  0.00     0.000 C 
BRANCH  22  23
ATOM     23  C   UNL     1      69.029   5.443  35.153  1.00  0.00     0.000 C 
BRANCH  23  24
ATOM     24  C   UNL     1      67.997   4.718  36.026  1.00  0.00    -0.000 C 
BRANCH  24  25
ATOM     25  C   UNL     1      68.082   5.188  37.486  1.00  0.00    -0.000 C 
BRANCH  25  26
ATOM     26  C   UNL     1      66.745   5.735  38.014  1.00  0.00    -0.000 C 
BRANCH  26  27
ATOM     27  C   UNL     1      65.799   6.290  36.931  1.00  0.00    -0.000 C 
BRANCH  27  28
ATOM     28  C   UNL     1      64.436   6.764  37.480  1.00  0.00    -0.000 C 
BRANCH  28  29
ATOM     29  C   UNL     1      64.441   6.900  39.013  1.00  0.00    -0.000 C 
BRANCH  29  30
ATOM     30  C   UNL     1      63.525   8.031  39.507  1.00  0.00    -0.000 C 
BRANCH  30  31
ATOM     31  C   UNL     1      63.129   9.005  38.387  1.00  0.00    -0.003 C 
ATOM     32  C   UNL     1      62.372  10.205  38.946  1.00  0.00     0.004 C 
ENDBRANCH  30  31
ENDBRANCH  29  30
ENDBRANCH  28  29
ENDBRANCH  27  28
ENDBRANCH  26  27
ENDBRANCH  25  26
ENDBRANCH  24  25
ENDBRANCH  23  24
ENDBRANCH  22  23
ENDBRANCH  21  22
ENDBRANCH  20  21
ENDBRANCH  19  20
ENDBRANCH  18  19
ENDBRANCH   1  18
TORSDOF 28
ENDMDL
MODEL 7
REMARK VINA RESULT:    -4.227      1.324      3.663
REMARK INTER + INTRA:         -16.861
REMARK INTER:                 -11.168
REMARK INTRA:                  -5.692
REMARK UNBOUND:                -5.715
REMARK SMILES CCCCCCCCCCCCCCCCCCCCCCCCCCCCCC(=O)[O-]
REMARK SMILES IDX 16 1 17 2 18 3 19 4 20 5 21 6 22 7 23 8 24 9 25 10 26 11
REMARK SMILES IDX 27 12 28 13 29 14 30 15 31 16 32 17 15 18 14 19 13 20 12 21
REMARK SMILES IDX 11 22 10 23 9 24 8 25 7 26 6 27 5 28 4 29 3 30 2 31 1 32
REMARK H PARENT
REMARK Flexibility Score: inf
ROOT
ATOM      1  C   UNL     1      61.845  15.247  39.466  1.00  0.00     0.000 C 
ENDROOT
BRANCH   1   2
ATOM      2  C   UNL     1      63.136  14.605  40.008  1.00  0.00     0.000 C 
BRANCH   2   3
ATOM      3  C   UNL     1      63.786  13.633  39.007  1.00  0.00     0.000 C 
BRANCH   3   4
ATOM      4  C   UNL     1      63.497  12.137  39.253  1.00  0.00     0.000 C 
BRANCH   4   5
ATOM      5  C   UNL     1      62.535  11.834  40.420  1.00  0.00     0.000 C 
BRANCH   5   6
ATOM      6  C   UNL     1      61.077  11.566  39.987  1.00  0.00     0.000 C 
BRANCH   6   7
ATOM      7  C   UNL     1      60.910  11.310  38.475  1.00  0.00     0.000 C 
BRANCH   7   8
ATOM      8  C   UNL     1      59.788  10.327  38.101  1.00  0.00     0.000 C 
BRANCH   8   9
ATOM      9  C   UNL     1      59.565   9.238  39.166  1.00  0.00     0.000 C 
BRANCH   9  10
ATOM     10  C   UNL     1      59.591   7.824  38.566  1.00  0.00     0.000 C 
BRANCH  10  11
ATOM     11  C   UNL     1      60.906   7.077  38.856  1.00  0.00     0.000 C 
BRANCH  11  12
ATOM     12  C   UNL     1      61.848   7.898  39.760  1.00  0.00     0.000 C 
BRANCH  12  13
ATOM     13  C   UNL     1      63.176   8.276  39.080  1.00  0.00     0.006 C 
BRANCH  13  14
ATOM     14  C   UNL     1      63.225   7.871  37.603  1.00  0.00     0.053 C 
BRANCH  14  15
ATOM     15  C   UNL     1      64.250   6.803  37.388  1.00  0.00     0.041 C 
ATOM     16  O   UNL     1      65.467   7.107  37.280  1.00  0.00    -0.550 OA
ATOM     17  O   UNL     1      63.857   5.478  37.259  1.00  0.00    -0.550 OA
ENDBRANCH  14  15
ENDBRANCH  13  14
ENDBRANCH  12  13
ENDBRANCH  11  12
ENDBRANCH  10  11
ENDBRANCH   9  10
ENDBRANCH   8   9
ENDBRANCH   7   8
ENDBRANCH   6   7
ENDBRANCH   5   6
ENDBRANCH   4   5
ENDBRANCH   3   4
ENDBRANCH   2   3
ENDBRANCH   1   2
BRANCH   1  18
ATOM     18  C   UNL     1      61.751  15.177  37.933  1.00  0.00     0.000 C 
BRANCH  18  19
ATOM     19  C   UNL     1      60.379  14.675  37.449  1.00  0.00     0.000 C 
BRANCH  19  20
ATOM     20  C   UNL     1      59.299  14.765  38.542  1.00  0.00     0.000 C 
BRANCH  20  21
ATOM     21  C   UNL     1      58.181  15.760  38.187  1.00  0.00     0.000 C 
BRANCH  21  22
ATOM     22  C   UNL     1      58.525  17.203  38.594  1.00  0.00     0.000 C 
BRANCH  22  23
ATOM     23  C   UNL     1      59.076  18.036  37.427  1.00  0.00     0.000 C 
BRANCH  23  24
ATOM     24  C   UNL     1      60.443  18.635  37.778  1.00  0.00    -0.000 C 
BRANCH  24  25
ATOM     25  C   UNL     1      60.543  18.938  39.280  1.00  0.00    -0.000 C 
BRANCH  25  26
ATOM     26  C   UNL     1      61.990  18.898  39.800  1.00  0.00    -0.000 C 
BRANCH  26  27
ATOM     27  C   UNL     1      63.068  18.755  38.708  1.00  0.00    -0.000 C 
BRANCH  27  28
ATOM     28  C   UNL     1      64.299  17.937  39.152  1.00  0.00    -0.000 C 
BRANCH  28  29
ATOM     29  C   UNL     1      65.027  17.288  37.961  1.00  0.00    -0.000 C 
BRANCH  29  30
ATOM     30  C   UNL     1      64.560  17.850  36.609  1.00  0.00    -0.000 C 
BRANCH  30  31
ATOM     31  C   UNL     1      64.799  16.873  35.448  1.00  0.00    -0.003 C 
ATOM     32  C   UNL     1      64.546  15.433  35.882  1.00  0.00     0.004 C 
ENDBRANCH  30  31
ENDBRANCH  29  30
ENDBRANCH  28  29
ENDBRANCH  27  28
ENDBRANCH  26  27
ENDBRANCH  25  26
ENDBRANCH  24  25
ENDBRANCH  23  24
ENDBRANCH  22  23
ENDBRANCH  21  22
ENDBRANCH  20  21
ENDBRANCH  19  20
ENDBRANCH  18  19
ENDBRANCH   1  18
TORSDOF 28
ENDMDL
MODEL 8
REMARK VINA RESULT:    -4.195      1.332      3.813
REMARK INTER + INTRA:         -16.778
REMARK INTER:                 -10.873
REMARK INTRA:                  -5.905
REMARK UNBOUND:                -5.715
REMARK SMILES CCCCCCCCCCCCCCCCCCCCCCCCCCCCCC(=O)[O-]
REMARK SMILES IDX 16 1 17 2 18 3 19 4 20 5 21 6 22 7 23 8 24 9 25 10 26 11
REMARK SMILES IDX 27 12 28 13 29 14 30 15 31 16 32 17 15 18 14 19 13 20 12 21
REMARK SMILES IDX 11 22 10 23 9 24 8 25 7 26 6 27 5 28 4 29 3 30 2 31 1 32
REMARK H PARENT
REMARK Flexibility Score: inf
ROOT
ATOM      1  C   UNL     1      60.501  14.246  37.584  1.00  0.00     0.000 C 
ENDROOT
BRANCH   1   2
ATOM      2  C   UNL     1      60.849  12.864  37.003  1.00  0.00     0.000 C 
BRANCH   2   3
ATOM      3  C   UNL     1      59.605  12.060  36.583  1.00  0.00     0.000 C 
BRANCH   3   4
ATOM      4  C   UNL     1      59.582  10.586  37.040  1.00  0.00     0.000 C 
BRANCH   4   5
ATOM      5  C   UNL     1      58.830  10.316  38.360  1.00  0.00     0.000 C 
BRANCH   5   6
ATOM      6  C   UNL     1      57.940  11.486  38.833  1.00  0.00     0.000 C 
BRANCH   6   7
ATOM      7  C   UNL     1      58.425  12.155  40.135  1.00  0.00     0.000 C 
BRANCH   7   8
ATOM      8  C   UNL     1      59.571  11.425  40.855  1.00  0.00     0.000 C 
BRANCH   8   9
ATOM      9  C   UNL     1      60.889  12.220  40.844  1.00  0.00     0.000 C 
BRANCH   9  10
ATOM     10  C   UNL     1      62.120  11.306  40.938  1.00  0.00     0.000 C 
BRANCH  10  11
ATOM     11  C   UNL     1      62.988  11.343  39.667  1.00  0.00     0.000 C 
BRANCH  11  12
ATOM     12  C   UNL     1      62.698  10.147  38.736  1.00  0.00     0.000 C 
BRANCH  12  13
ATOM     13  C   UNL     1      62.350   8.852  39.490  1.00  0.00     0.006 C 
BRANCH  13  14
ATOM     14  C   UNL     1      63.478   7.816  39.446  1.00  0.00     0.053 C 
BRANCH  14  15
ATOM     15  C   UNL     1      63.694   7.337  38.046  1.00  0.00     0.041 C 
ATOM     16  O   UNL     1      62.714   7.195  37.268  1.00  0.00    -0.550 OA
ATOM     17  O   UNL     1      64.970   7.001  37.614  1.00  0.00    -0.550 OA
ENDBRANCH  14  15
ENDBRANCH  13  14
ENDBRANCH  12  13
ENDBRANCH  11  12
ENDBRANCH  10  11
ENDBRANCH   9  10
ENDBRANCH   8   9
ENDBRANCH   7   8
ENDBRANCH   6   7
ENDBRANCH   5   6
ENDBRANCH   4   5
ENDBRANCH   3   4
ENDBRANCH   2   3
ENDBRANCH   1   2
BRANCH   1  18
ATOM     18  C   UNL     1      59.152  14.778  37.071  1.00  0.00     0.000 C 
BRANCH  18  19
ATOM     19  C   UNL     1      58.229  15.241  38.212  1.00  0.00     0.000 C 
BRANCH  19  20
ATOM     20  C   UNL     1      59.001  15.916  39.358  1.00  0.00     0.000 C 
BRANCH  20  21
ATOM     21  C   UNL     1      58.430  17.298  39.722  1.00  0.00     0.000 C 
BRANCH  21  22
ATOM     22  C   UNL     1      59.440  18.433  39.484  1.00  0.00     0.000 C 
BRANCH  22  23
ATOM     23  C   UNL     1      60.123  18.344  38.111  1.00  0.00     0.000 C 
BRANCH  23  24
ATOM     24  C   UNL     1      61.578  18.823  38.190  1.00  0.00    -0.000 C 
BRANCH  24  25
ATOM     25  C   UNL     1      61.969  19.161  39.636  1.00  0.00    -0.000 C 
BRANCH  25  26
ATOM     26  C   UNL     1      63.338  18.583  40.033  1.00  0.00    -0.000 C 
BRANCH  26  27
ATOM     27  C   UNL     1      63.281  17.230  40.768  1.00  0.00    -0.000 C 
BRANCH  27  28
ATOM     28  C   UNL     1      62.589  16.112  39.960  1.00  0.00    -0.000 C 
BRANCH  28  29
ATOM     29  C   UNL     1      63.452  14.840  39.869  1.00  0.00    -0.000 C 
BRANCH  29  30
ATOM     30  C   UNL     1      63.989  14.593  38.450  1.00  0.00    -0.000 C 
BRANCH  30  31
ATOM     31  C   UNL     1      63.970  15.860  37.581  1.00  0.00    -0.003 C 
ATOM     32  C   UNL     1      63.824  15.509  36.104  1.00  0.00     0.004 C 
ENDBRANCH  30  31
ENDBRANCH  29  30
ENDBRANCH  28  29
ENDBRANCH  27  28
ENDBRANCH  26  27
ENDBRANCH  25  26
ENDBRANCH  24  25
ENDBRANCH  23  24
ENDBRANCH  22  23
ENDBRANCH  21  22
ENDBRANCH  20  21
ENDBRANCH  19  20
ENDBRANCH  18  19
ENDBRANCH   1  18
TORSDOF 28
ENDMDL
MODEL 9
REMARK VINA RESULT:    -4.040      1.213      2.010
REMARK INTER + INTRA:         -16.370
REMARK INTER:                 -10.987
REMARK INTRA:                  -5.383
REMARK UNBOUND:                -5.715
REMARK SMILES CCCCCCCCCCCCCCCCCCCCCCCCCCCCCC(=O)[O-]
REMARK SMILES IDX 16 1 17 2 18 3 19 4 20 5 21 6 22 7 23 8 24 9 25 10 26 11
REMARK SMILES IDX 27 12 28 13 29 14 30 15 31 16 32 17 15 18 14 19 13 20 12 21
REMARK SMILES IDX 11 22 10 23 9 24 8 25 7 26 6 27 5 28 4 29 3 30 2 31 1 32
REMARK H PARENT
REMARK Flexibility Score: inf
ROOT
ATOM      1  C   UNL     1      63.575  14.427  38.654  1.00  0.00     0.000 C 
ENDROOT
BRANCH   1   2
ATOM      2  C   UNL     1      62.827  13.617  39.728  1.00  0.00     0.000 C 
BRANCH   2   3
ATOM      3  C   UNL     1      63.124  12.109  39.657  1.00  0.00     0.000 C 
BRANCH   3   4
ATOM      4  C   UNL     1      61.964  11.227  39.147  1.00  0.00     0.000 C 
BRANCH   4   5
ATOM      5  C   UNL     1      61.275  11.724  37.859  1.00  0.00     0.000 C 
BRANCH   5   6
ATOM      6  C   UNL     1      60.492  10.633  37.097  1.00  0.00     0.000 C 
BRANCH   6   7
ATOM      7  C   UNL     1      59.082  11.069  36.651  1.00  0.00     0.000 C 
BRANCH   7   8
ATOM      8  C   UNL     1      57.983  10.908  37.715  1.00  0.00     0.000 C 
BRANCH   8   9
ATOM      9  C   UNL     1      58.386   9.953  38.853  1.00  0.00     0.000 C 
BRANCH   9  10
ATOM     10  C   UNL     1      57.975   8.501  38.566  1.00  0.00     0.000 C 
BRANCH  10  11
ATOM     11  C   UNL     1      58.938   7.475  39.192  1.00  0.00     0.000 C 
BRANCH  11  12
ATOM     12  C   UNL     1      60.099   8.157  39.946  1.00  0.00     0.000 C 
BRANCH  12  13
ATOM     13  C   UNL     1      61.474   7.538  39.643  1.00  0.00     0.006 C 
BRANCH  13  14
ATOM     14  C   UNL     1      61.680   7.241  38.155  1.00  0.00     0.053 C 
BRANCH  14  15
ATOM     15  C   UNL     1      63.092   7.530  37.754  1.00  0.00     0.041 C 
ATOM     16  O   UNL     1      63.628   8.624  38.073  1.00  0.00    -0.550 OA
ATOM     17  O   UNL     1      63.800   6.614  36.988  1.00  0.00    -0.550 OA
ENDBRANCH  14  15
ENDBRANCH  13  14
ENDBRANCH  12  13
ENDBRANCH  11  12
ENDBRANCH  10  11
ENDBRANCH   9  10
ENDBRANCH   8   9
ENDBRANCH   7   8
ENDBRANCH   6   7
ENDBRANCH   5   6
ENDBRANCH   4   5
ENDBRANCH   3   4
ENDBRANCH   2   3
ENDBRANCH   1   2
BRANCH   1  18
ATOM     18  C   UNL     1      62.628  15.014  37.593  1.00  0.00     0.000 C 
BRANCH  18  19
ATOM     19  C   UNL     1      63.102  14.729  36.157  1.00  0.00     0.000 C 
BRANCH  19  20
ATOM     20  C   UNL     1      64.541  15.209  35.904  1.00  0.00     0.000 C 
BRANCH  20  21
ATOM     21  C   UNL     1      64.606  16.687  35.480  1.00  0.00     0.000 C 
BRANCH  21  22
ATOM     22  C   UNL     1      65.558  17.511  36.362  1.00  0.00     0.000 C 
BRANCH  22  23
ATOM     23  C   UNL     1      64.982  17.793  37.759  1.00  0.00     0.000 C 
BRANCH  23  24
ATOM     24  C   UNL     1      63.616  18.484  37.658  1.00  0.00    -0.000 C 
BRANCH  24  25
ATOM     25  C   UNL     1      63.121  18.931  39.042  1.00  0.00    -0.000 C 
BRANCH  25  26
ATOM     26  C   UNL     1      63.497  17.940  40.156  1.00  0.00    -0.000 C 
BRANCH  26  27
ATOM     27  C   UNL     1      62.316  17.130  40.727  1.00  0.00    -0.000 C 
BRANCH  27  28
ATOM     28  C   UNL     1      60.978  17.385  40.002  1.00  0.00    -0.000 C 
BRANCH  28  29
ATOM     29  C   UNL     1      59.933  16.298  40.310  1.00  0.00    -0.000 C 
BRANCH  29  30
ATOM     30  C   UNL     1      59.389  15.626  39.039  1.00  0.00    -0.000 C 
BRANCH  30  31
ATOM     31  C   UNL     1      59.047  14.144  39.253  1.00  0.00    -0.003 C 
ATOM     32  C   UNL     1      59.369  13.707  40.678  1.00  0.00     0.004 C 
ENDBRANCH  30  31
ENDBRANCH  29  30
ENDBRANCH  28  29
ENDBRANCH  27  28
ENDBRANCH  26  27
ENDBRANCH  25  26
ENDBRANCH  24  25
ENDBRANCH  23  24
ENDBRANCH  22  23
ENDBRANCH  21  22
ENDBRANCH  20  21
ENDBRANCH  19  20
ENDBRANCH  18  19
ENDBRANCH   1  18
TORSDOF 28
ENDMDL
