MODEL 1
REMARK VINA RESULT:    28.065      0.000      0.000
REMARK INTER + INTRA:          34.266
REMARK INTER:                  34.628
REMARK INTRA:                  -0.362
REMARK UNBOUND:                -0.362
REMARK SMILES Oc1cc(O)c2cc(O)c(-c3cc(O)c(O)c(O)c3)[o+]c2c1
REMARK SMILES IDX 10 1 20 2 21 3 22 4 2 5 3 6 4 7 6 8 7 9 8 10 11 11 12 12
REMARK SMILES IDX 13 13 19 14 15 15 17 16 14 17 16 19 18 21 9 23 1 25 5 27
REMARK H PARENT 14 18 16 20 18 22 9 24 1 26 5 28
REMARK Flexibility Score: inf
ROOT
ATOM      1  C   UNL     1      20.092 -12.704 -16.371  1.00  0.00     0.402 A 
ATOM      2  O   UNL     1      21.232 -12.195 -15.912  1.00  0.00    -0.202 OA
ATOM      3  C   UNL     1      22.219 -11.786 -16.703  1.00  0.00     0.368 A 
ATOM      4  C   UNL     1      23.382 -11.268 -16.127  1.00  0.00     0.162 A 
ATOM      5  C   UNL     1      24.435 -10.833 -16.936  1.00  0.00     0.128 A 
ATOM      6  C   UNL     1      24.327 -10.918 -18.325  1.00  0.00     0.093 A 
ATOM      7  C   UNL     1      23.173 -11.435 -18.927  1.00  0.00     0.136 A 
ATOM      8  C   UNL     1      22.098 -11.875 -18.111  1.00  0.00     0.125 A 
ATOM      9  C   UNL     1      20.900 -12.394 -18.626  1.00  0.00     0.078 A 
ATOM     10  C   UNL     1      19.883 -12.803 -17.758  1.00  0.00     0.223 A 
ENDROOT
BRANCH   1  11
ATOM     11  C   UNL     1      19.071 -13.134 -15.388  1.00  0.00     0.091 A 
ATOM     12  C   UNL     1      18.954 -14.494 -15.066  1.00  0.00     0.068 A 
ATOM     13  C   UNL     1      17.986 -14.932 -14.155  1.00  0.00     0.162 A 
ATOM     14  C   UNL     1      18.178 -12.215 -14.811  1.00  0.00     0.068 A 
ATOM     15  C   UNL     1      17.108 -14.007 -13.565  1.00  0.00     0.200 A 
ATOM     16  C   UNL     1      17.203 -12.645 -13.899  1.00  0.00     0.162 A 
BRANCH  13  17
ATOM     17  O   UNL     1      17.911 -16.291 -13.851  1.00  0.00    -0.504 OA
ATOM     18  H   UNL     1      17.349 -16.642 -13.085  1.00  0.00     0.293 HD
ENDBRANCH  13  17
BRANCH  15  19
ATOM     19  O   UNL     1      16.148 -14.451 -12.655  1.00  0.00    -0.502 OA
ATOM     20  H   UNL     1      15.769 -15.390 -12.686  1.00  0.00     0.293 HD
ENDBRANCH  15  19
BRANCH  16  21
ATOM     21  O   UNL     1      16.327 -11.724 -13.327  1.00  0.00    -0.504 OA
ATOM     22  H   UNL     1      16.344 -10.744 -13.585  1.00  0.00     0.293 HD
ENDBRANCH  16  21
ENDBRANCH   1  11
BRANCH  10  23
ATOM     23  O   UNL     1      18.672 -13.271 -18.271  1.00  0.00    -0.500 OA
ATOM     24  H   UNL     1      17.805 -12.766 -18.135  1.00  0.00     0.294 HD
ENDBRANCH  10  23
BRANCH   5  25
ATOM     25  O   UNL     1      25.597 -10.314 -16.368  1.00  0.00    -0.507 OA
ATOM     26  H   UNL     1      26.411 -10.896 -16.201  1.00  0.00     0.293 HD
ENDBRANCH   5  25
BRANCH   7  27
ATOM     27  O   UNL     1      23.145 -11.491 -20.324  1.00  0.00    -0.507 OA
ATOM     28  H   UNL     1      23.146 -10.681 -20.926  1.00  0.00     0.293 HD
ENDBRANCH   7  27
TORSDOF 7
ENDMDL
MODEL 2
REMARK VINA RESULT:    28.421      1.071      2.562
REMARK INTER + INTRA:          34.705
REMARK INTER:                  35.076
REMARK INTRA:                  -0.371
REMARK UNBOUND:                -0.362
REMARK SMILES Oc1cc(O)c2cc(O)c(-c3cc(O)c(O)c(O)c3)[o+]c2c1
REMARK SMILES IDX 10 1 20 2 21 3 22 4 2 5 3 6 4 7 6 8 7 9 8 10 11 11 12 12
REMARK SMILES IDX 13 13 19 14 15 15 17 16 14 17 16 19 18 21 9 23 1 25 5 27
REMARK H PARENT 14 18 16 20 18 22 9 24 1 26 5 28
REMARK Flexibility Score: inf
ROOT
ATOM      1  C   UNL     1      20.186 -12.684 -15.523  1.00  0.00     0.402 A 
ATOM      2  O   UNL     1      20.245 -12.779 -16.848  1.00  0.00    -0.202 OA
ATOM      3  C   UNL     1      21.284 -12.359 -17.564  1.00  0.00     0.368 A 
ATOM      4  C   UNL     1      21.252 -12.499 -18.954  1.00  0.00     0.162 A 
ATOM      5  C   UNL     1      22.330 -12.064 -19.730  1.00  0.00     0.128 A 
ATOM      6  C   UNL     1      23.442 -11.487 -19.115  1.00  0.00     0.093 A 
ATOM      7  C   UNL     1      23.498 -11.335 -17.724  1.00  0.00     0.136 A 
ATOM      8  C   UNL     1      22.408 -11.777 -16.930  1.00  0.00     0.125 A 
ATOM      9  C   UNL     1      22.382 -11.678 -15.530  1.00  0.00     0.078 A 
ATOM     10  C   UNL     1      21.273 -12.140 -14.815  1.00  0.00     0.223 A 
ENDROOT
BRANCH   1  11
ATOM     11  C   UNL     1      18.969 -13.178 -14.839  1.00  0.00     0.091 A 
ATOM     12  C   UNL     1      18.794 -14.558 -14.653  1.00  0.00     0.068 A 
ATOM     13  C   UNL     1      17.646 -15.055 -14.028  1.00  0.00     0.162 A 
ATOM     14  C   UNL     1      17.956 -12.299 -14.422  1.00  0.00     0.068 A 
ATOM     15  C   UNL     1      16.644 -14.170 -13.594  1.00  0.00     0.200 A 
ATOM     16  C   UNL     1      16.800 -12.788 -13.796  1.00  0.00     0.162 A 
BRANCH  13  17
ATOM     17  O   UNL     1      17.517 -16.432 -13.850  1.00  0.00    -0.504 OA
ATOM     18  H   UNL     1      17.924 -16.913 -13.056  1.00  0.00     0.293 HD
ENDBRANCH  13  17
BRANCH  15  19
ATOM     19  O   UNL     1      15.503 -14.674 -12.968  1.00  0.00    -0.502 OA
ATOM     20  H   UNL     1      14.580 -14.586 -13.377  1.00  0.00     0.293 HD
ENDBRANCH  15  19
BRANCH  16  21
ATOM     21  O   UNL     1      15.804 -11.905 -13.380  1.00  0.00    -0.504 OA
ATOM     22  H   UNL     1      15.060 -11.612 -14.003  1.00  0.00     0.293 HD
ENDBRANCH  16  21
ENDBRANCH   1  11
BRANCH  10  23
ATOM     23  O   UNL     1      21.269 -12.088 -13.421  1.00  0.00    -0.500 OA
ATOM     24  H   UNL     1      20.456 -11.781 -12.901  1.00  0.00     0.294 HD
ENDBRANCH  10  23
BRANCH   5  25
ATOM     25  O   UNL     1      22.306 -12.201 -21.117  1.00  0.00    -0.507 OA
ATOM     26  H   UNL     1      23.122 -12.001 -21.683  1.00  0.00     0.293 HD
ENDBRANCH   5  25
BRANCH   7  27
ATOM     27  O   UNL     1      24.645 -10.743 -17.186  1.00  0.00    -0.507 OA
ATOM     28  H   UNL     1      24.970 -10.884 -16.242  1.00  0.00     0.293 HD
ENDBRANCH   7  27
TORSDOF 7
ENDMDL
MODEL 3
REMARK VINA RESULT:    29.275      1.508      7.279
REMARK INTER + INTRA:          35.758
REMARK INTER:                  36.143
REMARK INTRA:                  -0.384
REMARK UNBOUND:                -0.362
REMARK SMILES Oc1cc(O)c2cc(O)c(-c3cc(O)c(O)c(O)c3)[o+]c2c1
REMARK SMILES IDX 10 1 20 2 21 3 22 4 2 5 3 6 4 7 6 8 7 9 8 10 11 11 12 12
REMARK SMILES IDX 13 13 19 14 15 15 17 16 14 17 16 19 18 21 9 23 1 25 5 27
REMARK H PARENT 14 18 16 20 18 22 9 24 1 26 5 28
REMARK Flexibility Score: inf
ROOT
ATOM      1  C   UNL     1      19.821 -13.067 -15.574  1.00  0.00     0.402 A 
ATOM      2  O   UNL     1      19.680 -14.390 -15.563  1.00  0.00    -0.202 OA
ATOM      3  C   UNL     1      18.706 -15.014 -14.908  1.00  0.00     0.368 A 
ATOM      4  C   UNL     1      18.643 -16.410 -14.953  1.00  0.00     0.162 A 
ATOM      5  C   UNL     1      17.631 -17.091 -14.271  1.00  0.00     0.128 A 
ATOM      6  C   UNL     1      16.680 -16.375 -13.541  1.00  0.00     0.093 A 
ATOM      7  C   UNL     1      16.722 -14.976 -13.479  1.00  0.00     0.136 A 
ATOM      8  C   UNL     1      17.746 -14.279 -14.172  1.00  0.00     0.125 A 
ATOM      9  C   UNL     1      17.859 -12.880 -14.178  1.00  0.00     0.078 A 
ATOM     10  C   UNL     1      18.893 -12.262 -14.889  1.00  0.00     0.223 A 
ENDROOT
BRANCH   1  11
ATOM     11  C   UNL     1      20.954 -12.490 -16.334  1.00  0.00     0.091 A 
ATOM     12  C   UNL     1      20.833 -12.307 -17.719  1.00  0.00     0.068 A 
ATOM     13  C   UNL     1      21.894 -11.783 -18.466  1.00  0.00     0.162 A 
ATOM     14  C   UNL     1      22.170 -12.174 -15.706  1.00  0.00     0.068 A 
ATOM     15  C   UNL     1      23.101 -11.448 -17.830  1.00  0.00     0.200 A 
ATOM     16  C   UNL     1      23.240 -11.649 -16.446  1.00  0.00     0.162 A 
BRANCH  13  17
ATOM     17  O   UNL     1      21.728 -11.603 -19.839  1.00  0.00    -0.504 OA
ATOM     18  H   UNL     1      21.435 -12.356 -20.450  1.00  0.00     0.293 HD
ENDBRANCH  13  17
BRANCH  15  19
ATOM     19  O   UNL     1      24.153 -10.922 -18.582  1.00  0.00    -0.502 OA
ATOM     20  H   UNL     1      24.996 -11.450 -18.773  1.00  0.00     0.293 HD
ENDBRANCH  15  19
BRANCH  16  21
ATOM     21  O   UNL     1      24.440 -11.333 -15.812  1.00  0.00    -0.504 OA
ATOM     22  H   UNL     1      24.554 -10.471 -15.291  1.00  0.00     0.293 HD
ENDBRANCH  16  21
ENDBRANCH   1  11
BRANCH  10  23
ATOM     23  O   UNL     1      18.975 -10.871 -14.936  1.00  0.00    -0.500 OA
ATOM     24  H   UNL     1      19.808 -10.376 -14.641  1.00  0.00     0.294 HD
ENDBRANCH  10  23
BRANCH   5  25
ATOM     25  O   UNL     1      17.561 -18.482 -14.312  1.00  0.00    -0.507 OA
ATOM     26  H   UNL     1      17.292 -18.974 -15.156  1.00  0.00     0.293 HD
ENDBRANCH   5  25
BRANCH   7  27
ATOM     27  O   UNL     1      15.736 -14.335 -12.723  1.00  0.00    -0.507 OA
ATOM     28  H   UNL     1      15.262 -13.490 -13.004  1.00  0.00     0.293 HD
ENDBRANCH   7  27
TORSDOF 7
ENDMDL
MODEL 4
REMARK VINA RESULT:    30.829      4.764      8.198
REMARK INTER + INTRA:          37.676
REMARK INTER:                  38.047
REMARK INTRA:                  -0.372
REMARK UNBOUND:                -0.362
REMARK SMILES Oc1cc(O)c2cc(O)c(-c3cc(O)c(O)c(O)c3)[o+]c2c1
REMARK SMILES IDX 10 1 20 2 21 3 22 4 2 5 3 6 4 7 6 8 7 9 8 10 11 11 12 12
REMARK SMILES IDX 13 13 19 14 15 15 17 16 14 17 16 19 18 21 9 23 1 25 5 27
REMARK H PARENT 14 18 16 20 18 22 9 24 1 26 5 28
REMARK Flexibility Score: inf
ROOT
ATOM      1  C   UNL     1      22.613  -8.138 -18.351  1.00  0.00     0.402 A 
ATOM      2  O   UNL     1      22.213  -9.134 -19.136  1.00  0.00    -0.202 OA
ATOM      3  C   UNL     1      22.412 -10.416 -18.847  1.00  0.00     0.368 A 
ATOM      4  C   UNL     1      21.957 -11.392 -19.737  1.00  0.00     0.162 A 
ATOM      5  C   UNL     1      22.156 -12.747 -19.458  1.00  0.00     0.128 A 
ATOM      6  C   UNL     1      22.811 -13.128 -18.286  1.00  0.00     0.093 A 
ATOM      7  C   UNL     1      23.277 -12.169 -17.378  1.00  0.00     0.136 A 
ATOM      8  C   UNL     1      23.076 -10.791 -17.654  1.00  0.00     0.125 A 
ATOM      9  C   UNL     1      23.497  -9.763 -16.796  1.00  0.00     0.078 A 
ATOM     10  C   UNL     1      23.259  -8.427 -17.134  1.00  0.00     0.223 A 
ENDROOT
BRANCH   1  11
ATOM     11  C   UNL     1      22.342  -6.749 -18.788  1.00  0.00     0.091 A 
ATOM     12  C   UNL     1      23.349  -6.022 -19.440  1.00  0.00     0.068 A 
ATOM     13  C   UNL     1      23.129  -4.702 -19.847  1.00  0.00     0.162 A 
ATOM     14  C   UNL     1      21.115  -6.122 -18.514  1.00  0.00     0.068 A 
ATOM     15  C   UNL     1      21.893  -4.086 -19.589  1.00  0.00     0.200 A 
ATOM     16  C   UNL     1      20.886  -4.798 -18.916  1.00  0.00     0.162 A 
BRANCH  13  17
ATOM     17  O   UNL     1      24.152  -4.019 -20.504  1.00  0.00    -0.504 OA
ATOM     18  H   UNL     1      23.973  -3.203 -21.078  1.00  0.00     0.293 HD
ENDBRANCH  13  17
BRANCH  15  19
ATOM     19  O   UNL     1      21.680  -2.769 -20.001  1.00  0.00    -0.502 OA
ATOM     20  H   UNL     1      22.442  -2.158 -20.270  1.00  0.00     0.293 HD
ENDBRANCH  15  19
BRANCH  16  21
ATOM     21  O   UNL     1      19.662  -4.188 -18.645  1.00  0.00    -0.504 OA
ATOM     22  H   UNL     1      19.484  -3.725 -17.761  1.00  0.00     0.293 HD
ENDBRANCH  16  21
ENDBRANCH   1  11
BRANCH  10  23
ATOM     23  O   UNL     1      23.631  -7.407 -16.258  1.00  0.00    -0.500 OA
ATOM     24  H   UNL     1      23.596  -6.432 -16.530  1.00  0.00     0.294 HD
ENDBRANCH  10  23
BRANCH   5  25
ATOM     25  O   UNL     1      21.704 -13.726 -20.342  1.00  0.00    -0.507 OA
ATOM     26  H   UNL     1      21.881 -14.710 -20.177  1.00  0.00     0.293 HD
ENDBRANCH   5  25
BRANCH   7  27
ATOM     27  O   UNL     1      23.928 -12.632 -16.230  1.00  0.00    -0.507 OA
ATOM     28  H   UNL     1      24.718 -13.259 -16.236  1.00  0.00     0.293 HD
ENDBRANCH   7  27
TORSDOF 7
ENDMDL
