MODEL 1
REMARK VINA RESULT:    -5.340      0.000      0.000
REMARK INTER + INTRA:          -6.744
REMARK INTER:                  -6.433
REMARK INTRA:                  -0.310
REMARK UNBOUND:                -0.310
REMARK SMILES Oc1cc(O)c2cc(O)c(-c3ccc(O)c(O)c3)[o+]c2c1
REMARK SMILES IDX 10 1 19 2 20 3 21 4 2 5 3 6 4 7 6 8 7 9 8 10 11 11 12 12
REMARK SMILES IDX 13 13 14 14 18 15 16 16 15 17 17 19 9 21 1 23 5 25
REMARK H PARENT 15 18 17 20 9 22 1 24 5 26
REMARK Flexibility Score: inf
ROOT
ATOM      1  C   UNL     1      17.018  -6.106  27.491  1.00  0.00     0.402 A 
ATOM      2  O   UNL     1      18.253  -5.613  27.544  1.00  0.00    -0.202 OA
ATOM      3  C   UNL     1      18.567  -4.504  28.206  1.00  0.00     0.368 A 
ATOM      4  C   UNL     1      19.893  -4.062  28.200  1.00  0.00     0.162 A 
ATOM      5  C   UNL     1      20.251  -2.898  28.886  1.00  0.00     0.128 A 
ATOM      6  C   UNL     1      19.280  -2.171  29.578  1.00  0.00     0.093 A 
ATOM      7  C   UNL     1      17.944  -2.593  29.599  1.00  0.00     0.136 A 
ATOM      8  C   UNL     1      17.576  -3.777  28.907  1.00  0.00     0.125 A 
ATOM      9  C   UNL     1      16.266  -4.281  28.883  1.00  0.00     0.078 A 
ATOM     10  C   UNL     1      15.979  -5.457  28.183  1.00  0.00     0.223 A 
ENDROOT
BRANCH   1  11
ATOM     11  C   UNL     1      16.792  -7.345  26.711  1.00  0.00     0.087 A 
ATOM     12  C   UNL     1      17.115  -8.609  27.235  1.00  0.00     0.022 A 
ATOM     13  C   UNL     1      16.870  -9.765  26.490  1.00  0.00     0.051 A 
ATOM     14  C   UNL     1      16.290  -9.677  25.218  1.00  0.00     0.157 A 
ATOM     15  C   UNL     1      16.191  -7.263  25.444  1.00  0.00     0.068 A 
ATOM     16  C   UNL     1      15.946  -8.423  24.696  1.00  0.00     0.158 A 
BRANCH  14  17
ATOM     17  O   UNL     1      16.046 -10.828  24.470  1.00  0.00    -0.504 OA
ATOM     18  H   UNL     1      16.141 -11.752  24.875  1.00  0.00     0.293 HD
ENDBRANCH  14  17
BRANCH  16  19
ATOM     19  O   UNL     1      15.362  -8.338  23.434  1.00  0.00    -0.504 OA
ATOM     20  H   UNL     1      15.879  -8.566  22.592  1.00  0.00     0.293 HD
ENDBRANCH  16  19
ENDBRANCH   1  11
BRANCH  10  21
ATOM     21  O   UNL     1      14.688  -5.985  28.201  1.00  0.00    -0.500 OA
ATOM     22  H   UNL     1      14.019  -5.730  28.917  1.00  0.00     0.294 HD
ENDBRANCH  10  21
BRANCH   5  23
ATOM     23  O   UNL     1      21.571  -2.452  28.885  1.00  0.00    -0.507 OA
ATOM     24  H   UNL     1      21.812  -1.509  28.603  1.00  0.00     0.293 HD
ENDBRANCH   5  23
BRANCH   7  25
ATOM     25  O   UNL     1      17.033  -1.809  30.312  1.00  0.00    -0.507 OA
ATOM     26  H   UNL     1      16.950  -0.807  30.223  1.00  0.00     0.293 HD
ENDBRANCH   7  25
TORSDOF 6
ENDMDL
MODEL 2
REMARK VINA RESULT:    -5.149      7.660     10.677
REMARK INTER + INTRA:          -6.513
REMARK INTER:                  -6.193
REMARK INTRA:                  -0.320
REMARK UNBOUND:                -0.310
REMARK SMILES Oc1cc(O)c2cc(O)c(-c3ccc(O)c(O)c3)[o+]c2c1
REMARK SMILES IDX 10 1 19 2 20 3 21 4 2 5 3 6 4 7 6 8 7 9 8 10 11 11 12 12
REMARK SMILES IDX 13 13 14 14 18 15 16 16 15 17 17 19 9 21 1 23 5 25
REMARK H PARENT 15 18 17 20 9 22 1 24 5 26
REMARK Flexibility Score: inf
ROOT
ATOM      1  C   UNL     1      23.440   1.051  28.277  1.00  0.00     0.402 A 
ATOM      2  O   UNL     1      22.432   1.386  29.079  1.00  0.00    -0.202 OA
ATOM      3  C   UNL     1      21.862   0.536  29.928  1.00  0.00     0.368 A 
ATOM      4  C   UNL     1      20.806   0.982  30.728  1.00  0.00     0.162 A 
ATOM      5  C   UNL     1      20.187   0.109  31.628  1.00  0.00     0.128 A 
ATOM      6  C   UNL     1      20.624  -1.214  31.727  1.00  0.00     0.093 A 
ATOM      7  C   UNL     1      21.680  -1.684  30.936  1.00  0.00     0.136 A 
ATOM      8  C   UNL     1      22.315  -0.801  30.023  1.00  0.00     0.125 A 
ATOM      9  C   UNL     1      23.387  -1.181  29.201  1.00  0.00     0.078 A 
ATOM     10  C   UNL     1      23.965  -0.253  28.329  1.00  0.00     0.223 A 
ENDROOT
BRANCH   1  11
ATOM     11  C   UNL     1      23.983   2.084  27.367  1.00  0.00     0.087 A 
ATOM     12  C   UNL     1      25.158   2.791  27.680  1.00  0.00     0.022 A 
ATOM     13  C   UNL     1      25.665   3.745  26.794  1.00  0.00     0.051 A 
ATOM     14  C   UNL     1      25.014   3.999  25.580  1.00  0.00     0.157 A 
ATOM     15  C   UNL     1      23.346   2.327  26.139  1.00  0.00     0.068 A 
ATOM     16  C   UNL     1      23.855   3.285  25.250  1.00  0.00     0.158 A 
BRANCH  14  17
ATOM     17  O   UNL     1      25.516   4.951  24.695  1.00  0.00    -0.504 OA
ATOM     18  H   UNL     1      26.371   4.793  24.175  1.00  0.00     0.293 HD
ENDBRANCH  14  17
BRANCH  16  19
ATOM     19  O   UNL     1      23.213   3.533  24.038  1.00  0.00    -0.504 OA
ATOM     20  H   UNL     1      22.856   2.780  23.463  1.00  0.00     0.293 HD
ENDBRANCH  16  19
ENDBRANCH   1  11
BRANCH  10  21
ATOM     21  O   UNL     1      25.063  -0.617  27.549  1.00  0.00    -0.500 OA
ATOM     22  H   UNL     1      25.268  -1.585  27.337  1.00  0.00     0.294 HD
ENDBRANCH  10  21
BRANCH   5  23
ATOM     23  O   UNL     1      19.133   0.546  32.429  1.00  0.00    -0.507 OA
ATOM     24  H   UNL     1      18.301   0.962  32.029  1.00  0.00     0.293 HD
ENDBRANCH   5  23
BRANCH   7  25
ATOM     25  O   UNL     1      22.056  -3.021  31.093  1.00  0.00    -0.507 OA
ATOM     26  H   UNL     1      21.916  -3.739  30.397  1.00  0.00     0.293 HD
ENDBRANCH   7  25
TORSDOF 6
ENDMDL
MODEL 3
REMARK VINA RESULT:    -5.052      1.353      7.147
REMARK INTER + INTRA:          -6.396
REMARK INTER:                  -6.098
REMARK INTRA:                  -0.297
REMARK UNBOUND:                -0.310
REMARK SMILES Oc1cc(O)c2cc(O)c(-c3ccc(O)c(O)c3)[o+]c2c1
REMARK SMILES IDX 10 1 19 2 20 3 21 4 2 5 3 6 4 7 6 8 7 9 8 10 11 11 12 12
REMARK SMILES IDX 13 13 14 14 18 15 16 16 15 17 17 19 9 21 1 23 5 25
REMARK H PARENT 15 18 17 20 9 22 1 24 5 26
REMARK Flexibility Score: inf
ROOT
ATOM      1  C   UNL     1      17.631  -6.605  27.739  1.00  0.00     0.402 A 
ATOM      2  O   UNL     1      17.021  -6.670  26.558  1.00  0.00    -0.202 OA
ATOM      3  C   UNL     1      16.591  -7.808  26.022  1.00  0.00     0.368 A 
ATOM      4  C   UNL     1      15.963  -7.776  24.774  1.00  0.00     0.162 A 
ATOM      5  C   UNL     1      15.504  -8.958  24.185  1.00  0.00     0.128 A 
ATOM      6  C   UNL     1      15.674 -10.176  24.845  1.00  0.00     0.093 A 
ATOM      7  C   UNL     1      16.301 -10.235  26.097  1.00  0.00     0.136 A 
ATOM      8  C   UNL     1      16.766  -9.037  26.701  1.00  0.00     0.125 A 
ATOM      9  C   UNL     1      17.393  -8.999  27.956  1.00  0.00     0.078 A 
ATOM     10  C   UNL     1      17.821  -7.779  28.490  1.00  0.00     0.223 A 
ENDROOT
BRANCH   1  11
ATOM     11  C   UNL     1      18.073  -5.278  28.225  1.00  0.00     0.087 A 
ATOM     12  C   UNL     1      17.163  -4.361  28.781  1.00  0.00     0.022 A 
ATOM     13  C   UNL     1      17.608  -3.124  29.255  1.00  0.00     0.051 A 
ATOM     14  C   UNL     1      18.967  -2.790  29.193  1.00  0.00     0.157 A 
ATOM     15  C   UNL     1      19.438  -4.946  28.184  1.00  0.00     0.068 A 
ATOM     16  C   UNL     1      19.884  -3.705  28.659  1.00  0.00     0.158 A 
BRANCH  14  17
ATOM     17  O   UNL     1      19.414  -1.557  29.663  1.00  0.00    -0.504 OA
ATOM     18  H   UNL     1      18.826  -0.964  30.237  1.00  0.00     0.293 HD
ENDBRANCH  14  17
BRANCH  16  19
ATOM     19  O   UNL     1      21.237  -3.374  28.605  1.00  0.00    -0.504 OA
ATOM     20  H   UNL     1      21.563  -2.556  28.103  1.00  0.00     0.293 HD
ENDBRANCH  16  19
ENDBRANCH   1  11
BRANCH  10  21
ATOM     21  O   UNL     1      18.399  -7.735  29.759  1.00  0.00    -0.500 OA
ATOM     22  H   UNL     1      18.296  -8.496  30.418  1.00  0.00     0.294 HD
ENDBRANCH  10  21
BRANCH   5  23
ATOM     23  O   UNL     1      14.876  -8.933  22.941  1.00  0.00    -0.507 OA
ATOM     24  H   UNL     1      15.036  -8.181  22.282  1.00  0.00     0.293 HD
ENDBRANCH   5  23
BRANCH   7  25
ATOM     25  O   UNL     1      16.436 -11.493  26.691  1.00  0.00    -0.507 OA
ATOM     26  H   UNL     1      17.299 -11.857  27.067  1.00  0.00     0.293 HD
ENDBRANCH   7  25
TORSDOF 6
ENDMDL
MODEL 4
REMARK VINA RESULT:    -5.012      0.893      1.581
REMARK INTER + INTRA:          -6.348
REMARK INTER:                  -5.998
REMARK INTRA:                  -0.350
REMARK UNBOUND:                -0.310
REMARK SMILES Oc1cc(O)c2cc(O)c(-c3ccc(O)c(O)c3)[o+]c2c1
REMARK SMILES IDX 10 1 19 2 20 3 21 4 2 5 3 6 4 7 6 8 7 9 8 10 11 11 12 12
REMARK SMILES IDX 13 13 14 14 18 15 16 16 15 17 17 19 9 21 1 23 5 25
REMARK H PARENT 15 18 17 20 9 22 1 24 5 26
REMARK Flexibility Score: inf
ROOT
ATOM      1  C   UNL     1      16.797  -6.512  27.104  1.00  0.00     0.402 A 
ATOM      2  O   UNL     1      18.019  -5.990  27.182  1.00  0.00    -0.202 OA
ATOM      3  C   UNL     1      18.302  -4.901  27.890  1.00  0.00     0.368 A 
ATOM      4  C   UNL     1      19.616  -4.426  27.908  1.00  0.00     0.162 A 
ATOM      5  C   UNL     1      19.941  -3.281  28.642  1.00  0.00     0.128 A 
ATOM      6  C   UNL     1      18.950  -2.608  29.358  1.00  0.00     0.093 A 
ATOM      7  C   UNL     1      17.625  -3.064  29.355  1.00  0.00     0.136 A 
ATOM      8  C   UNL     1      17.289  -4.228  28.615  1.00  0.00     0.125 A 
ATOM      9  C   UNL     1      15.993  -4.764  28.564  1.00  0.00     0.078 A 
ATOM     10  C   UNL     1      15.740  -5.918  27.816  1.00  0.00     0.223 A 
ENDROOT
BRANCH   1  11
ATOM     11  C   UNL     1      16.606  -7.724  26.274  1.00  0.00     0.087 A 
ATOM     12  C   UNL     1      16.311  -7.633  24.902  1.00  0.00     0.022 A 
ATOM     13  C   UNL     1      16.159  -8.791  24.135  1.00  0.00     0.051 A 
ATOM     14  C   UNL     1      16.310 -10.054  24.722  1.00  0.00     0.157 A 
ATOM     15  C   UNL     1      16.777  -8.992  26.854  1.00  0.00     0.068 A 
ATOM     16  C   UNL     1      16.624 -10.154  26.084  1.00  0.00     0.158 A 
BRANCH  14  17
ATOM     17  O   UNL     1      16.157 -11.210  23.961  1.00  0.00    -0.504 OA
ATOM     18  H   UNL     1      16.699 -12.045  24.150  1.00  0.00     0.293 HD
ENDBRANCH  14  17
BRANCH  16  19
ATOM     19  O   UNL     1      16.782 -11.411  26.664  1.00  0.00    -0.504 OA
ATOM     20  H   UNL     1      16.187 -11.724  27.423  1.00  0.00     0.293 HD
ENDBRANCH  16  19
ENDBRANCH   1  11
BRANCH  10  21
ATOM     21  O   UNL     1      14.462  -6.478  27.807  1.00  0.00    -0.500 OA
ATOM     22  H   UNL     1      13.668  -6.001  28.215  1.00  0.00     0.294 HD
ENDBRANCH  10  21
BRANCH   5  23
ATOM     23  O   UNL     1      21.250  -2.802  28.665  1.00  0.00    -0.507 OA
ATOM     24  H   UNL     1      21.668  -2.364  27.854  1.00  0.00     0.293 HD
ENDBRANCH   5  23
BRANCH   7  25
ATOM     25  O   UNL     1      16.691  -2.333  30.094  1.00  0.00    -0.507 OA
ATOM     26  H   UNL     1      15.972  -1.750  29.689  1.00  0.00     0.293 HD
ENDBRANCH   7  25
TORSDOF 6
ENDMDL
MODEL 5
REMARK VINA RESULT:    -4.937      7.012      9.840
REMARK INTER + INTRA:          -6.258
REMARK INTER:                  -5.974
REMARK INTRA:                  -0.284
REMARK UNBOUND:                -0.310
REMARK SMILES Oc1cc(O)c2cc(O)c(-c3ccc(O)c(O)c3)[o+]c2c1
REMARK SMILES IDX 10 1 19 2 20 3 21 4 2 5 3 6 4 7 6 8 7 9 8 10 11 11 12 12
REMARK SMILES IDX 13 13 14 14 18 15 16 16 15 17 17 19 9 21 1 23 5 25
REMARK H PARENT 15 18 17 20 9 22 1 24 5 26
REMARK Flexibility Score: inf
ROOT
ATOM      1  C   UNL     1      22.210   1.565  28.555  1.00  0.00     0.402 A 
ATOM      2  O   UNL     1      22.869   1.656  27.403  1.00  0.00    -0.202 OA
ATOM      3  C   UNL     1      22.771   2.702  26.589  1.00  0.00     0.368 A 
ATOM      4  C   UNL     1      23.501   2.706  25.396  1.00  0.00     0.162 A 
ATOM      5  C   UNL     1      23.416   3.792  24.521  1.00  0.00     0.128 A 
ATOM      6  C   UNL     1      22.597   4.878  24.836  1.00  0.00     0.093 A 
ATOM      7  C   UNL     1      21.855   4.899  26.025  1.00  0.00     0.136 A 
ATOM      8  C   UNL     1      21.941   3.800  26.920  1.00  0.00     0.125 A 
ATOM      9  C   UNL     1      21.245   3.740  28.137  1.00  0.00     0.078 A 
ATOM     10  C   UNL     1      21.383   2.625  28.970  1.00  0.00     0.223 A 
ENDROOT
BRANCH   1  11
ATOM     11  C   UNL     1      22.394   0.343  29.371  1.00  0.00     0.087 A 
ATOM     12  C   UNL     1      23.174   0.353  30.540  1.00  0.00     0.022 A 
ATOM     13  C   UNL     1      23.313  -0.807  31.307  1.00  0.00     0.051 A 
ATOM     14  C   UNL     1      22.666  -1.989  30.924  1.00  0.00     0.157 A 
ATOM     15  C   UNL     1      21.730  -0.840  29.002  1.00  0.00     0.068 A 
ATOM     16  C   UNL     1      21.871  -2.004  29.771  1.00  0.00     0.158 A 
BRANCH  14  17
ATOM     17  O   UNL     1      22.804  -3.149  31.684  1.00  0.00    -0.504 OA
ATOM     18  H   UNL     1      23.705  -3.441  32.045  1.00  0.00     0.293 HD
ENDBRANCH  14  17
BRANCH  16  19
ATOM     19  O   UNL     1      21.222  -3.179  29.396  1.00  0.00    -0.504 OA
ATOM     20  H   UNL     1      20.991  -3.373  28.428  1.00  0.00     0.293 HD
ENDBRANCH  16  19
ENDBRANCH   1  11
BRANCH  10  21
ATOM     21  O   UNL     1      20.731   2.588  30.202  1.00  0.00    -0.500 OA
ATOM     22  H   UNL     1      21.194   2.260  31.041  1.00  0.00     0.294 HD
ENDBRANCH  10  21
BRANCH   5  23
ATOM     23  O   UNL     1      24.140   3.802  23.330  1.00  0.00    -0.507 OA
ATOM     24  H   UNL     1      24.203   4.633  22.755  1.00  0.00     0.293 HD
ENDBRANCH   5  23
BRANCH   7  25
ATOM     25  O   UNL     1      21.057   6.021  26.266  1.00  0.00    -0.507 OA
ATOM     26  H   UNL     1      20.062   6.059  26.102  1.00  0.00     0.293 HD
ENDBRANCH   7  25
TORSDOF 6
ENDMDL
MODEL 6
REMARK VINA RESULT:    -4.887      9.166     12.448
REMARK INTER + INTRA:          -6.198
REMARK INTER:                  -6.101
REMARK INTRA:                  -0.097
REMARK UNBOUND:                -0.310
REMARK SMILES Oc1cc(O)c2cc(O)c(-c3ccc(O)c(O)c3)[o+]c2c1
REMARK SMILES IDX 10 1 19 2 20 3 21 4 2 5 3 6 4 7 6 8 7 9 8 10 11 11 12 12
REMARK SMILES IDX 13 13 14 14 18 15 16 16 15 17 17 19 9 21 1 23 5 25
REMARK H PARENT 15 18 17 20 9 22 1 24 5 26
REMARK Flexibility Score: inf
ROOT
ATOM      1  C   UNL     1      23.531   3.991  25.841  1.00  0.00     0.402 A 
ATOM      2  O   UNL     1      23.992   2.844  26.333  1.00  0.00    -0.202 OA
ATOM      3  C   UNL     1      23.420   2.203  27.346  1.00  0.00     0.368 A 
ATOM      4  C   UNL     1      23.981   1.004  27.795  1.00  0.00     0.162 A 
ATOM      5  C   UNL     1      23.400   0.310  28.861  1.00  0.00     0.128 A 
ATOM      6  C   UNL     1      22.257   0.817  29.482  1.00  0.00     0.093 A 
ATOM      7  C   UNL     1      21.676   2.017  29.051  1.00  0.00     0.136 A 
ATOM      8  C   UNL     1      22.259   2.724  27.967  1.00  0.00     0.125 A 
ATOM      9  C   UNL     1      21.739   3.926  27.460  1.00  0.00     0.078 A 
ATOM     10  C   UNL     1      22.366   4.563  26.385  1.00  0.00     0.223 A 
ENDROOT
BRANCH   1  11
ATOM     11  C   UNL     1      24.264   4.615  24.715  1.00  0.00     0.087 A 
ATOM     12  C   UNL     1      24.675   5.959  24.764  1.00  0.00     0.022 A 
ATOM     13  C   UNL     1      25.386   6.518  23.699  1.00  0.00     0.051 A 
ATOM     14  C   UNL     1      25.707   5.742  22.577  1.00  0.00     0.157 A 
ATOM     15  C   UNL     1      24.606   3.836  23.597  1.00  0.00     0.068 A 
ATOM     16  C   UNL     1      25.318   4.397  22.528  1.00  0.00     0.158 A 
BRANCH  14  17
ATOM     17  O   UNL     1      26.413   6.298  21.512  1.00  0.00    -0.504 OA
ATOM     18  H   UNL     1      25.951   6.853  20.802  1.00  0.00     0.293 HD
ENDBRANCH  14  17
BRANCH  16  19
ATOM     19  O   UNL     1      25.645   3.625  21.415  1.00  0.00    -0.504 OA
ATOM     20  H   UNL     1      26.541   3.715  20.951  1.00  0.00     0.293 HD
ENDBRANCH  16  19
ENDBRANCH   1  11
BRANCH  10  21
ATOM     21  O   UNL     1      21.821   5.730  25.849  1.00  0.00    -0.500 OA
ATOM     22  H   UNL     1      21.034   6.197  26.282  1.00  0.00     0.294 HD
ENDBRANCH  10  21
BRANCH   5  23
ATOM     23  O   UNL     1      23.954  -0.886  29.314  1.00  0.00    -0.507 OA
ATOM     24  H   UNL     1      23.725  -1.265  30.224  1.00  0.00     0.293 HD
ENDBRANCH   5  23
BRANCH   7  25
ATOM     25  O   UNL     1      20.534   2.458  29.726  1.00  0.00    -0.507 OA
ATOM     26  H   UNL     1      20.281   3.429  29.844  1.00  0.00     0.293 HD
ENDBRANCH   7  25
TORSDOF 6
ENDMDL
MODEL 7
REMARK VINA RESULT:    -4.773      6.819      9.961
REMARK INTER + INTRA:          -6.060
REMARK INTER:                  -5.707
REMARK INTRA:                  -0.353
REMARK UNBOUND:                -0.310
REMARK SMILES Oc1cc(O)c2cc(O)c(-c3ccc(O)c(O)c3)[o+]c2c1
REMARK SMILES IDX 10 1 19 2 20 3 21 4 2 5 3 6 4 7 6 8 7 9 8 10 11 11 12 12
REMARK SMILES IDX 13 13 14 14 18 15 16 16 15 17 17 19 9 21 1 23 5 25
REMARK H PARENT 15 18 17 20 9 22 1 24 5 26
REMARK Flexibility Score: inf
ROOT
ATOM      1  C   UNL     1      22.984   1.036  28.499  1.00  0.00     0.402 A 
ATOM      2  O   UNL     1      22.057   1.990  28.549  1.00  0.00    -0.202 OA
ATOM      3  C   UNL     1      22.108   3.094  27.811  1.00  0.00     0.368 A 
ATOM      4  C   UNL     1      21.087   4.042  27.936  1.00  0.00     0.162 A 
ATOM      5  C   UNL     1      21.116   5.213  27.173  1.00  0.00     0.128 A 
ATOM      6  C   UNL     1      22.169   5.439  26.284  1.00  0.00     0.093 A 
ATOM      7  C   UNL     1      23.204   4.505  26.141  1.00  0.00     0.136 A 
ATOM      8  C   UNL     1      23.178   3.313  26.910  1.00  0.00     0.125 A 
ATOM      9  C   UNL     1      24.163   2.316  26.824  1.00  0.00     0.078 A 
ATOM     10  C   UNL     1      24.067   1.164  27.611  1.00  0.00     0.223 A 
ENDROOT
BRANCH   1  11
ATOM     11  C   UNL     1      22.821  -0.143  29.380  1.00  0.00     0.087 A 
ATOM     12  C   UNL     1      23.401  -0.187  30.660  1.00  0.00     0.022 A 
ATOM     13  C   UNL     1      23.214  -1.301  31.482  1.00  0.00     0.051 A 
ATOM     14  C   UNL     1      22.437  -2.381  31.043  1.00  0.00     0.157 A 
ATOM     15  C   UNL     1      22.026  -1.220  28.952  1.00  0.00     0.068 A 
ATOM     16  C   UNL     1      21.839  -2.338  29.777  1.00  0.00     0.158 A 
BRANCH  14  17
ATOM     17  O   UNL     1      22.250  -3.495  31.859  1.00  0.00    -0.504 OA
ATOM     18  H   UNL     1      21.603  -3.478  32.639  1.00  0.00     0.293 HD
ENDBRANCH  14  17
BRANCH  16  19
ATOM     19  O   UNL     1      21.060  -3.410  29.345  1.00  0.00    -0.504 OA
ATOM     20  H   UNL     1      20.717  -4.112  29.991  1.00  0.00     0.293 HD
ENDBRANCH  16  19
ENDBRANCH   1  11
BRANCH  10  21
ATOM     21  O   UNL     1      25.019   0.153  27.488  1.00  0.00    -0.500 OA
ATOM     22  H   UNL     1      25.303  -0.410  28.280  1.00  0.00     0.294 HD
ENDBRANCH  10  21
BRANCH   5  23
ATOM     23  O   UNL     1      20.103   6.162  27.292  1.00  0.00    -0.507 OA
ATOM     24  H   UNL     1      19.177   5.910  27.616  1.00  0.00     0.293 HD
ENDBRANCH   5  23
BRANCH   7  25
ATOM     25  O   UNL     1      24.222   4.807  25.233  1.00  0.00    -0.507 OA
ATOM     26  H   UNL     1      25.081   4.284  25.144  1.00  0.00     0.293 HD
ENDBRANCH   7  25
TORSDOF 6
ENDMDL
MODEL 8
REMARK VINA RESULT:    -4.734     10.433     12.949
REMARK INTER + INTRA:          -6.014
REMARK INTER:                  -5.701
REMARK INTRA:                  -0.312
REMARK UNBOUND:                -0.310
REMARK SMILES Oc1cc(O)c2cc(O)c(-c3ccc(O)c(O)c3)[o+]c2c1
REMARK SMILES IDX 10 1 19 2 20 3 21 4 2 5 3 6 4 7 6 8 7 9 8 10 11 11 12 12
REMARK SMILES IDX 13 13 14 14 18 15 16 16 15 17 17 19 9 21 1 23 5 25
REMARK H PARENT 15 18 17 20 9 22 1 24 5 26
REMARK Flexibility Score: inf
ROOT
ATOM      1  C   UNL     1      24.253   4.050  26.264  1.00  0.00     0.402 A 
ATOM      2  O   UNL     1      23.039   4.366  26.710  1.00  0.00    -0.202 OA
ATOM      3  C   UNL     1      22.505   3.839  27.806  1.00  0.00     0.368 A 
ATOM      4  C   UNL     1      21.221   4.233  28.193  1.00  0.00     0.162 A 
ATOM      5  C   UNL     1      20.633   3.693  29.341  1.00  0.00     0.128 A 
ATOM      6  C   UNL     1      21.331   2.754  30.104  1.00  0.00     0.093 A 
ATOM      7  C   UNL     1      22.619   2.343  29.737  1.00  0.00     0.136 A 
ATOM      8  C   UNL     1      23.222   2.891  28.575  1.00  0.00     0.125 A 
ATOM      9  C   UNL     1      24.511   2.547  28.139  1.00  0.00     0.078 A 
ATOM     10  C   UNL     1      25.041   3.134  26.985  1.00  0.00     0.223 A 
ENDROOT
BRANCH   1  11
ATOM     11  C   UNL     1      24.734   4.698  25.023  1.00  0.00     0.087 A 
ATOM     12  C   UNL     1      25.247   6.007  25.032  1.00  0.00     0.022 A 
ATOM     13  C   UNL     1      25.717   6.590  23.853  1.00  0.00     0.051 A 
ATOM     14  C   UNL     1      25.694   5.870  22.651  1.00  0.00     0.157 A 
ATOM     15  C   UNL     1      24.732   3.974  23.820  1.00  0.00     0.068 A 
ATOM     16  C   UNL     1      25.203   4.558  22.635  1.00  0.00     0.158 A 
BRANCH  14  17
ATOM     17  O   UNL     1      26.160   6.448  21.472  1.00  0.00    -0.504 OA
ATOM     18  H   UNL     1      26.820   7.217  21.483  1.00  0.00     0.293 HD
ENDBRANCH  14  17
BRANCH  16  19
ATOM     19  O   UNL     1      25.187   3.842  21.440  1.00  0.00    -0.504 OA
ATOM     20  H   UNL     1      25.486   2.874  21.397  1.00  0.00     0.293 HD
ENDBRANCH  16  19
ENDBRANCH   1  11
BRANCH  10  21
ATOM     21  O   UNL     1      26.341   2.830  26.580  1.00  0.00    -0.500 OA
ATOM     22  H   UNL     1      27.118   3.449  26.775  1.00  0.00     0.294 HD
ENDBRANCH  10  21
BRANCH   5  23
ATOM     23  O   UNL     1      19.353   4.081  29.732  1.00  0.00    -0.507 OA
ATOM     24  H   UNL     1      18.858   4.827  29.258  1.00  0.00     0.293 HD
ENDBRANCH   5  23
BRANCH   7  25
ATOM     25  O   UNL     1      23.249   1.397  30.552  1.00  0.00    -0.507 OA
ATOM     26  H   UNL     1      23.288   0.408  30.353  1.00  0.00     0.293 HD
ENDBRANCH   7  25
TORSDOF 6
ENDMDL
MODEL 9
REMARK VINA RESULT:    -4.657      9.092     11.391
REMARK INTER + INTRA:          -5.920
REMARK INTER:                  -5.719
REMARK INTRA:                  -0.201
REMARK UNBOUND:                -0.310
REMARK SMILES Oc1cc(O)c2cc(O)c(-c3ccc(O)c(O)c3)[o+]c2c1
REMARK SMILES IDX 10 1 19 2 20 3 21 4 2 5 3 6 4 7 6 8 7 9 8 10 11 11 12 12
REMARK SMILES IDX 13 13 14 14 18 15 16 16 15 17 17 19 9 21 1 23 5 25
REMARK H PARENT 15 18 17 20 9 22 1 24 5 26
REMARK Flexibility Score: inf
ROOT
ATOM      1  C   UNL     1      23.446   2.308  27.631  1.00  0.00     0.402 A 
ATOM      2  O   UNL     1      22.266   2.803  27.266  1.00  0.00    -0.202 OA
ATOM      3  C   UNL     1      22.131   3.793  26.391  1.00  0.00     0.368 A 
ATOM      4  C   UNL     1      20.847   4.248  26.073  1.00  0.00     0.162 A 
ATOM      5  C   UNL     1      20.676   5.290  25.157  1.00  0.00     0.128 A 
ATOM      6  C   UNL     1      21.790   5.881  24.557  1.00  0.00     0.093 A 
ATOM      7  C   UNL     1      23.086   5.443  24.859  1.00  0.00     0.136 A 
ATOM      8  C   UNL     1      23.266   4.383  25.786  1.00  0.00     0.125 A 
ATOM      9  C   UNL     1      24.525   3.872  26.138  1.00  0.00     0.078 A 
ATOM     10  C   UNL     1      24.624   2.821  27.056  1.00  0.00     0.223 A 
ENDROOT
BRANCH   1  11
ATOM     11  C   UNL     1      23.468   1.210  28.624  1.00  0.00     0.087 A 
ATOM     12  C   UNL     1      23.923  -0.076  28.285  1.00  0.00     0.022 A 
ATOM     13  C   UNL     1      23.956  -1.090  29.246  1.00  0.00     0.051 A 
ATOM     14  C   UNL     1      23.548  -0.831  30.561  1.00  0.00     0.157 A 
ATOM     15  C   UNL     1      23.080   1.470  29.949  1.00  0.00     0.068 A 
ATOM     16  C   UNL     1      23.112   0.452  30.914  1.00  0.00     0.158 A 
BRANCH  14  17
ATOM     17  O   UNL     1      23.578  -1.840  31.522  1.00  0.00    -0.504 OA
ATOM     18  H   UNL     1      24.376  -2.457  31.617  1.00  0.00     0.293 HD
ENDBRANCH  14  17
BRANCH  16  19
ATOM     19  O   UNL     1      22.714   0.710  32.224  1.00  0.00    -0.504 OA
ATOM     20  H   UNL     1      21.735   0.750  32.483  1.00  0.00     0.293 HD
ENDBRANCH  16  19
ENDBRANCH   1  11
BRANCH  10  21
ATOM     21  O   UNL     1      25.871   2.280  27.369  1.00  0.00    -0.500 OA
ATOM     22  H   UNL     1      26.334   1.621  26.756  1.00  0.00     0.294 HD
ENDBRANCH  10  21
BRANCH   5  23
ATOM     23  O   UNL     1      19.399   5.748  24.836  1.00  0.00    -0.507 OA
ATOM     24  H   UNL     1      19.244   6.386  24.064  1.00  0.00     0.293 HD
ENDBRANCH   5  23
BRANCH   7  25
ATOM     25  O   UNL     1      24.148   6.088  24.218  1.00  0.00    -0.507 OA
ATOM     26  H   UNL     1      24.657   6.870  24.604  1.00  0.00     0.293 HD
ENDBRANCH   7  25
TORSDOF 6
ENDMDL
