MODEL 1
REMARK VINA RESULT:    -5.739      0.000      0.000
REMARK INTER + INTRA:          -6.075
REMARK INTER:                  -6.075
REMARK INTRA:                   0.000
REMARK UNBOUND:                 0.000
REMARK SMILES O=c1ccc2cc(O)c(O)cc2o1
REMARK SMILES IDX 4 1 3 2 2 3 1 4 13 5 12 6 11 7 9 8 7 9 6 10 5 11 8 12 10 14
REMARK H PARENT 8 13 10 15
REMARK Flexibility Score: inf
ROOT
ATOM      1  C   UNL     1      -1.653 -16.310  16.996  1.00  0.00     0.019 A 
ATOM      2  C   UNL     1      -1.193 -15.497  15.961  1.00  0.00     0.094 A 
ATOM      3  C   UNL     1       0.141 -15.072  15.973  1.00  0.00     0.336 A 
ATOM      4  O   UNL     1       0.575 -14.337  15.048  1.00  0.00    -0.246 OA
ATOM      5  O   UNL     1       0.955 -15.440  16.959  1.00  0.00    -0.423 OA
ATOM      6  C   UNL     1       0.556 -16.215  17.966  1.00  0.00     0.142 A 
ATOM      7  C   UNL     1       1.458 -16.569  18.974  1.00  0.00     0.098 A 
ATOM      8  C   UNL     1       1.046 -17.383  20.036  1.00  0.00     0.161 A 
ATOM      9  C   UNL     1      -0.280 -17.850  20.092  1.00  0.00     0.158 A 
ATOM     10  C   UNL     1      -1.188 -17.496  19.082  1.00  0.00     0.062 A 
ATOM     11  C   UNL     1      -0.774 -16.681  18.019  1.00  0.00     0.022 A 
ENDROOT
BRANCH   9  12
ATOM     12  O   UNL     1      -0.691 -18.661  21.148  1.00  0.00    -0.504 OA
ATOM     13  H   UNL     1      -0.279 -19.572  21.310  1.00  0.00     0.293 HD
ENDBRANCH   9  12
BRANCH   8  14
ATOM     14  O   UNL     1       1.969 -17.719  21.027  1.00  0.00    -0.504 OA
ATOM     15  H   UNL     1       1.681 -18.015  21.952  1.00  0.00     0.293 HD
ENDBRANCH   8  14
TORSDOF 2
ENDMDL
MODEL 2
REMARK VINA RESULT:    -5.491      1.027      2.273
REMARK INTER + INTRA:          -5.812
REMARK INTER:                  -5.812
REMARK INTRA:                   0.000
REMARK UNBOUND:                 0.000
REMARK SMILES O=c1ccc2cc(O)c(O)cc2o1
REMARK SMILES IDX 4 1 3 2 2 3 1 4 13 5 12 6 11 7 9 8 7 9 6 10 5 11 8 12 10 14
REMARK H PARENT 8 13 10 15
REMARK Flexibility Score: inf
ROOT
ATOM      1  C   UNL     1       1.896 -15.558  16.901  1.00  0.00     0.019 A 
ATOM      2  C   UNL     1       1.125 -15.187  15.799  1.00  0.00     0.094 A 
ATOM      3  C   UNL     1      -0.228 -15.542  15.768  1.00  0.00     0.336 A 
ATOM      4  O   UNL     1      -0.941 -15.217  14.783  1.00  0.00    -0.246 OA
ATOM      5  O   UNL     1      -0.769 -16.222  16.776  1.00  0.00    -0.423 OA
ATOM      6  C   UNL     1      -0.069 -16.595  17.845  1.00  0.00     0.142 A 
ATOM      7  C   UNL     1      -0.692 -17.308  18.874  1.00  0.00     0.098 A 
ATOM      8  C   UNL     1       0.037 -17.704  20.002  1.00  0.00     0.161 A 
ATOM      9  C   UNL     1       1.403 -17.383  20.104  1.00  0.00     0.158 A 
ATOM     10  C   UNL     1       2.032 -16.668  19.074  1.00  0.00     0.062 A 
ATOM     11  C   UNL     1       1.300 -16.272  17.946  1.00  0.00     0.022 A 
ENDROOT
BRANCH   9  12
ATOM     12  O   UNL     1       2.130 -17.777  21.227  1.00  0.00    -0.504 OA
ATOM     13  H   UNL     1       3.109 -17.539  21.335  1.00  0.00     0.293 HD
ENDBRANCH   9  12
BRANCH   8  14
ATOM     14  O   UNL     1      -0.613 -18.414  21.011  1.00  0.00    -0.504 OA
ATOM     15  H   UNL     1      -1.036 -17.953  21.808  1.00  0.00     0.293 HD
ENDBRANCH   8  14
TORSDOF 2
ENDMDL
MODEL 3
REMARK VINA RESULT:    -5.208      1.382      2.651
REMARK INTER + INTRA:          -5.512
REMARK INTER:                  -5.512
REMARK INTRA:                   0.000
REMARK UNBOUND:                 0.000
REMARK SMILES O=c1ccc2cc(O)c(O)cc2o1
REMARK SMILES IDX 4 1 3 2 2 3 1 4 13 5 12 6 11 7 9 8 7 9 6 10 5 11 8 12 10 14
REMARK H PARENT 8 13 10 15
REMARK Flexibility Score: inf
ROOT
ATOM      1  C   UNL     1       2.241 -16.242  18.659  1.00  0.00     0.019 A 
ATOM      2  C   UNL     1       2.510 -15.526  17.492  1.00  0.00     0.094 A 
ATOM      3  C   UNL     1       1.507 -15.407  16.524  1.00  0.00     0.336 A 
ATOM      4  O   UNL     1       1.729 -14.765  15.464  1.00  0.00    -0.246 OA
ATOM      5  O   UNL     1       0.316 -15.970  16.714  1.00  0.00    -0.423 OA
ATOM      6  C   UNL     1       0.020 -16.663  17.812  1.00  0.00     0.142 A 
ATOM      7  C   UNL     1      -1.249 -17.232  17.957  1.00  0.00     0.098 A 
ATOM      8  C   UNL     1      -1.569 -17.961  19.109  1.00  0.00     0.161 A 
ATOM      9  C   UNL     1      -0.612 -18.123  20.127  1.00  0.00     0.158 A 
ATOM     10  C   UNL     1       0.662 -17.553  19.985  1.00  0.00     0.062 A 
ATOM     11  C   UNL     1       0.981 -16.823  18.832  1.00  0.00     0.022 A 
ENDROOT
BRANCH   9  12
ATOM     12  O   UNL     1      -0.930 -18.849  21.274  1.00  0.00    -0.504 OA
ATOM     13  H   UNL     1      -0.219 -19.125  21.942  1.00  0.00     0.293 HD
ENDBRANCH   9  12
BRANCH   8  14
ATOM     14  O   UNL     1      -2.843 -18.517  19.224  1.00  0.00    -0.504 OA
ATOM     15  H   UNL     1      -3.177 -19.235  18.591  1.00  0.00     0.293 HD
ENDBRANCH   8  14
TORSDOF 2
ENDMDL
MODEL 4
REMARK VINA RESULT:    -4.977      1.841      4.508
REMARK INTER + INTRA:          -5.268
REMARK INTER:                  -5.268
REMARK INTRA:                   0.000
REMARK UNBOUND:                 0.000
REMARK SMILES O=c1ccc2cc(O)c(O)cc2o1
REMARK SMILES IDX 4 1 3 2 2 3 1 4 13 5 12 6 11 7 9 8 7 9 6 10 5 11 8 12 10 14
REMARK H PARENT 8 13 10 15
REMARK Flexibility Score: inf
ROOT
ATOM      1  C   UNL     1       0.261 -17.800  20.330  1.00  0.00     0.019 A 
ATOM      2  C   UNL     1      -0.945 -18.499  20.375  1.00  0.00     0.094 A 
ATOM      3  C   UNL     1      -1.804 -18.443  19.271  1.00  0.00     0.336 A 
ATOM      4  O   UNL     1      -2.897 -19.066  19.293  1.00  0.00    -0.246 OA
ATOM      5  O   UNL     1      -1.472 -17.733  18.196  1.00  0.00    -0.423 OA
ATOM      6  C   UNL     1      -0.331 -17.051  18.112  1.00  0.00     0.142 A 
ATOM      7  C   UNL     1      -0.036 -16.323  16.955  1.00  0.00     0.098 A 
ATOM      8  C   UNL     1       1.162 -15.604  16.859  1.00  0.00     0.161 A 
ATOM      9  C   UNL     1       2.076 -15.613  17.929  1.00  0.00     0.158 A 
ATOM     10  C   UNL     1       1.783 -16.343  19.091  1.00  0.00     0.062 A 
ATOM     11  C   UNL     1       0.584 -17.062  19.186  1.00  0.00     0.022 A 
ENDROOT
BRANCH   9  12
ATOM     12  O   UNL     1       3.268 -14.898  17.834  1.00  0.00    -0.504 OA
ATOM     13  H   UNL     1       4.021 -15.030  18.500  1.00  0.00     0.293 HD
ENDBRANCH   9  12
BRANCH   8  14
ATOM     14  O   UNL     1       1.427 -14.887  15.693  1.00  0.00    -0.504 OA
ATOM     15  H   UNL     1       0.745 -14.262  15.277  1.00  0.00     0.293 HD
ENDBRANCH   8  14
TORSDOF 2
ENDMDL
MODEL 5
REMARK VINA RESULT:    -4.964     15.305     16.853
REMARK INTER + INTRA:          -5.254
REMARK INTER:                  -5.254
REMARK INTRA:                   0.000
REMARK UNBOUND:                 0.000
REMARK SMILES O=c1ccc2cc(O)c(O)cc2o1
REMARK SMILES IDX 4 1 3 2 2 3 1 4 13 5 12 6 11 7 9 8 7 9 6 10 5 11 8 12 10 14
REMARK H PARENT 8 13 10 15
REMARK Flexibility Score: inf
ROOT
ATOM      1  C   UNL     1      16.920  -9.050  18.072  1.00  0.00     0.019 A 
ATOM      2  C   UNL     1      17.071  -8.277  19.224  1.00  0.00     0.094 A 
ATOM      3  C   UNL     1      15.966  -8.083  20.060  1.00  0.00     0.336 A 
ATOM      4  O   UNL     1      16.082  -7.389  21.104  1.00  0.00    -0.246 OA
ATOM      5  O   UNL     1      14.790  -8.627  19.759  1.00  0.00    -0.423 OA
ATOM      6  C   UNL     1      14.603  -9.370  18.669  1.00  0.00     0.142 A 
ATOM      7  C   UNL     1      13.343  -9.916  18.405  1.00  0.00     0.098 A 
ATOM      8  C   UNL     1      13.138 -10.698  17.262  1.00  0.00     0.161 A 
ATOM      9  C   UNL     1      14.203 -10.939  16.374  1.00  0.00     0.158 A 
ATOM     10  C   UNL     1      15.468 -10.392  16.636  1.00  0.00     0.062 A 
ATOM     11  C   UNL     1      15.672  -9.609  17.781  1.00  0.00     0.022 A 
ENDROOT
BRANCH   9  12
ATOM     12  O   UNL     1      14.000 -11.717  15.235  1.00  0.00    -0.504 OA
ATOM     13  H   UNL     1      14.117 -11.336  14.304  1.00  0.00     0.293 HD
ENDBRANCH   9  12
BRANCH   8  14
ATOM     14  O   UNL     1      11.870 -11.229  17.025  1.00  0.00    -0.504 OA
ATOM     15  H   UNL     1      11.193 -10.763  16.433  1.00  0.00     0.293 HD
ENDBRANCH   8  14
TORSDOF 2
ENDMDL
MODEL 6
REMARK VINA RESULT:    -4.870     15.640     16.941
REMARK INTER + INTRA:          -5.155
REMARK INTER:                  -5.155
REMARK INTRA:                   0.000
REMARK UNBOUND:                 0.000
REMARK SMILES O=c1ccc2cc(O)c(O)cc2o1
REMARK SMILES IDX 4 1 3 2 2 3 1 4 13 5 12 6 11 7 9 8 7 9 6 10 5 11 8 12 10 14
REMARK H PARENT 8 13 10 15
REMARK Flexibility Score: inf
ROOT
ATOM      1  C   UNL     1      16.715  -9.644  17.167  1.00  0.00     0.019 A 
ATOM      2  C   UNL     1      16.166 -10.405  16.135  1.00  0.00     0.094 A 
ATOM      3  C   UNL     1      14.815 -10.764  16.200  1.00  0.00     0.336 A 
ATOM      4  O   UNL     1      14.302 -11.450  15.278  1.00  0.00    -0.246 OA
ATOM      5  O   UNL     1      14.067 -10.385  17.234  1.00  0.00    -0.423 OA
ATOM      6  C   UNL     1      14.552  -9.660  18.240  1.00  0.00     0.142 A 
ATOM      7  C   UNL     1      13.717  -9.291  19.299  1.00  0.00     0.098 A 
ATOM      8  C   UNL     1      14.219  -8.528  20.361  1.00  0.00     0.161 A 
ATOM      9  C   UNL     1      15.568  -8.128  20.365  1.00  0.00     0.158 A 
ATOM     10  C   UNL     1      16.408  -8.497  19.303  1.00  0.00     0.062 A 
ATOM     11  C   UNL     1      15.905  -9.260  18.241  1.00  0.00     0.022 A 
ENDROOT
BRANCH   9  12
ATOM     12  O   UNL     1      16.068  -7.369  21.421  1.00  0.00    -0.504 OA
ATOM     13  H   UNL     1      16.293  -6.387  21.309  1.00  0.00     0.293 HD
ENDBRANCH   9  12
BRANCH   8  14
ATOM     14  O   UNL     1      13.362  -8.176  21.404  1.00  0.00    -0.504 OA
ATOM     15  H   UNL     1      13.194  -8.788  22.193  1.00  0.00     0.293 HD
ENDBRANCH   8  14
TORSDOF 2
ENDMDL
MODEL 7
REMARK VINA RESULT:    -4.793     15.847     17.035
REMARK INTER + INTRA:          -5.073
REMARK INTER:                  -5.073
REMARK INTRA:                   0.000
REMARK UNBOUND:                 0.000
REMARK SMILES O=c1ccc2cc(O)c(O)cc2o1
REMARK SMILES IDX 4 1 3 2 2 3 1 4 13 5 12 6 11 7 9 8 7 9 6 10 5 11 8 12 10 14
REMARK H PARENT 8 13 10 15
REMARK Flexibility Score: inf
ROOT
ATOM      1  C   UNL     1      14.098 -10.390  17.143  1.00  0.00     0.019 A 
ATOM      2  C   UNL     1      14.985 -10.702  16.113  1.00  0.00     0.094 A 
ATOM      3  C   UNL     1      16.309 -10.256  16.199  1.00  0.00     0.336 A 
ATOM      4  O   UNL     1      17.125 -10.528  15.280  1.00  0.00    -0.246 OA
ATOM      5  O   UNL     1      16.713  -9.545  17.248  1.00  0.00    -0.423 OA
ATOM      6  C   UNL     1      15.898  -9.224  18.252  1.00  0.00     0.142 A 
ATOM      7  C   UNL     1      16.379  -8.474  19.329  1.00  0.00     0.098 A 
ATOM      8  C   UNL     1      15.529  -8.133  20.389  1.00  0.00     0.161 A 
ATOM      9  C   UNL     1      14.185  -8.547  20.373  1.00  0.00     0.158 A 
ATOM     10  C   UNL     1      13.698  -9.299  19.293  1.00  0.00     0.062 A 
ATOM     11  C   UNL     1      14.550  -9.640  18.234  1.00  0.00     0.022 A 
ENDROOT
BRANCH   9  12
ATOM     12  O   UNL     1      13.338  -8.208  21.427  1.00  0.00    -0.504 OA
ATOM     13  H   UNL     1      13.522  -8.514  22.375  1.00  0.00     0.293 HD
ENDBRANCH   9  12
BRANCH   8  14
ATOM     14  O   UNL     1      16.039  -7.384  21.449  1.00  0.00    -0.504 OA
ATOM     15  H   UNL     1      16.046  -6.371  21.438  1.00  0.00     0.293 HD
ENDBRANCH   8  14
TORSDOF 2
ENDMDL
MODEL 8
REMARK VINA RESULT:    -4.785      1.828      4.301
REMARK INTER + INTRA:          -5.065
REMARK INTER:                  -5.065
REMARK INTRA:                   0.000
REMARK UNBOUND:                 0.000
REMARK SMILES O=c1ccc2cc(O)c(O)cc2o1
REMARK SMILES IDX 4 1 3 2 2 3 1 4 13 5 12 6 11 7 9 8 7 9 6 10 5 11 8 12 10 14
REMARK H PARENT 8 13 10 15
REMARK Flexibility Score: inf
ROOT
ATOM      1  C   UNL     1      -0.542 -18.272  17.295  1.00  0.00     0.019 A 
ATOM      2  C   UNL     1      -1.233 -18.796  18.388  1.00  0.00     0.094 A 
ATOM      3  C   UNL     1      -0.881 -18.379  19.676  1.00  0.00     0.336 A 
ATOM      4  O   UNL     1      -1.492 -18.840  20.675  1.00  0.00    -0.246 OA
ATOM      5  O   UNL     1       0.099 -17.496  19.854  1.00  0.00    -0.423 OA
ATOM      6  C   UNL     1       0.784 -16.973  18.839  1.00  0.00     0.142 A 
ATOM      7  C   UNL     1       1.803 -16.049  19.087  1.00  0.00     0.098 A 
ATOM      8  C   UNL     1       2.528 -15.494  18.025  1.00  0.00     0.161 A 
ATOM      9  C   UNL     1       2.230 -15.864  16.701  1.00  0.00     0.158 A 
ATOM     10  C   UNL     1       1.208 -16.792  16.448  1.00  0.00     0.062 A 
ATOM     11  C   UNL     1       0.484 -17.346  17.512  1.00  0.00     0.022 A 
ENDROOT
BRANCH   9  12
ATOM     12  O   UNL     1       2.951 -15.312  15.643  1.00  0.00    -0.504 OA
ATOM     13  H   UNL     1       2.518 -15.126  14.746  1.00  0.00     0.293 HD
ENDBRANCH   9  12
BRANCH   8  14
ATOM     14  O   UNL     1       3.539 -14.575  18.305  1.00  0.00    -0.504 OA
ATOM     15  H   UNL     1       4.516 -14.843  18.340  1.00  0.00     0.293 HD
ENDBRANCH   8  14
TORSDOF 2
ENDMDL
MODEL 9
REMARK VINA RESULT:    -4.780      1.702      2.252
REMARK INTER + INTRA:          -5.059
REMARK INTER:                  -5.059
REMARK INTRA:                   0.000
REMARK UNBOUND:                 0.000
REMARK SMILES O=c1ccc2cc(O)c(O)cc2o1
REMARK SMILES IDX 4 1 3 2 2 3 1 4 13 5 12 6 11 7 9 8 7 9 6 10 5 11 8 12 10 14
REMARK H PARENT 8 13 10 15
REMARK Flexibility Score: inf
ROOT
ATOM      1  C   UNL     1      -1.917 -18.112  17.938  1.00  0.00     0.019 A 
ATOM      2  C   UNL     1      -2.507 -17.825  16.707  1.00  0.00     0.094 A 
ATOM      3  C   UNL     1      -1.846 -16.966  15.822  1.00  0.00     0.336 A 
ATOM      4  O   UNL     1      -2.362 -16.695  14.706  1.00  0.00    -0.246 OA
ATOM      5  O   UNL     1      -0.673 -16.432  16.152  1.00  0.00    -0.423 OA
ATOM      6  C   UNL     1      -0.076 -16.679  17.317  1.00  0.00     0.142 A 
ATOM      7  C   UNL     1       1.157 -16.089  17.608  1.00  0.00     0.098 A 
ATOM      8  C   UNL     1       1.791 -16.344  18.830  1.00  0.00     0.161 A 
ATOM      9  C   UNL     1       1.188 -17.198  19.771  1.00  0.00     0.158 A 
ATOM     10  C   UNL     1      -0.050 -17.792  19.482  1.00  0.00     0.062 A 
ATOM     11  C   UNL     1      -0.683 -17.536  18.258  1.00  0.00     0.022 A 
ENDROOT
BRANCH   9  12
ATOM     12  O   UNL     1       1.818 -17.452  20.988  1.00  0.00    -0.504 OA
ATOM     13  H   UNL     1       2.321 -18.316  21.155  1.00  0.00     0.293 HD
ENDBRANCH   9  12
BRANCH   8  14
ATOM     14  O   UNL     1       3.021 -15.740  19.092  1.00  0.00    -0.504 OA
ATOM     15  H   UNL     1       3.309 -14.883  18.633  1.00  0.00     0.293 HD
ENDBRANCH   8  14
TORSDOF 2
ENDMDL
