MODEL 1
REMARK VINA RESULT:    14.058      0.000      0.000
REMARK INTER + INTRA:          29.435
REMARK INTER:                  30.494
REMARK INTRA:                  -1.059
REMARK UNBOUND:                -1.059
REMARK SMILES CCCCCCCCCCCCCCCCCCCCCC(=O)[O-]
REMARK SMILES IDX 12 1 11 2 10 3 9 4 8 5 7 6 6 7 5 8 4 9 3 10 2 11 1 12 13 13
REMARK SMILES IDX 14 14 15 15 16 16 17 17 18 18 19 19 20 20 21 21 22 22 23 23
REMARK SMILES IDX 24 24
REMARK H PARENT
REMARK Flexibility Score: inf
ROOT
ATOM      1  C   UNL     1      -3.349 -10.568  19.462  1.00  0.00     0.000 C 
ENDROOT
BRANCH   1   2
ATOM      2  C   UNL     1      -3.325  -9.042  19.275  1.00  0.00     0.000 C 
BRANCH   2   3
ATOM      3  C   UNL     1      -2.686  -8.304  20.465  1.00  0.00     0.000 C 
BRANCH   3   4
ATOM      4  C   UNL     1      -1.161  -8.145  20.320  1.00  0.00    -0.000 C 
BRANCH   4   5
ATOM      5  C   UNL     1      -0.379  -8.067  21.645  1.00  0.00    -0.000 C 
BRANCH   5   6
ATOM      6  C   UNL     1      -1.249  -7.605  22.827  1.00  0.00    -0.000 C 
BRANCH   6   7
ATOM      7  C   UNL     1      -1.683  -6.135  22.705  1.00  0.00    -0.000 C 
BRANCH   7   8
ATOM      8  C   UNL     1      -1.411  -5.324  23.983  1.00  0.00    -0.000 C 
BRANCH   8   9
ATOM      9  C   UNL     1      -2.618  -4.443  24.340  1.00  0.00    -0.000 C 
BRANCH   9  10
ATOM     10  C   UNL     1      -3.215  -4.784  25.715  1.00  0.00    -0.000 C 
BRANCH  10  11
ATOM     11  C   UNL     1      -4.708  -5.139  25.640  1.00  0.00    -0.003 C 
ATOM     12  C   UNL     1      -5.070  -5.700  24.267  1.00  0.00     0.004 C 
ENDBRANCH  10  11
ENDBRANCH   9  10
ENDBRANCH   8   9
ENDBRANCH   7   8
ENDBRANCH   6   7
ENDBRANCH   5   6
ENDBRANCH   4   5
ENDBRANCH   3   4
ENDBRANCH   2   3
ENDBRANCH   1   2
BRANCH   1  13
ATOM     13  C   UNL     1      -4.067 -10.997  20.752  1.00  0.00     0.000 C 
BRANCH  13  14
ATOM     14  C   UNL     1      -4.570 -12.451  20.699  1.00  0.00     0.000 C 
BRANCH  14  15
ATOM     15  C   UNL     1      -4.126 -13.254  19.459  1.00  0.00     0.000 C 
BRANCH  15  16
ATOM     16  C   UNL     1      -3.179 -14.437  19.743  1.00  0.00     0.000 C 
BRANCH  16  17
ATOM     17  C   UNL     1      -3.873 -15.728  20.214  1.00  0.00     0.000 C 
BRANCH  17  18
ATOM     18  C   UNL     1      -4.546 -16.496  19.067  1.00  0.00     0.000 C 
BRANCH  18  19
ATOM     19  C   UNL     1      -3.576 -17.512  18.446  1.00  0.00     0.000 C 
BRANCH  19  20
ATOM     20  C   UNL     1      -3.851 -17.764  16.955  1.00  0.00     0.006 C 
BRANCH  20  21
ATOM     21  C   UNL     1      -4.544 -19.108  16.699  1.00  0.00     0.053 C 
BRANCH  21  22
ATOM     22  C   UNL     1      -5.864 -18.895  16.025  1.00  0.00     0.041 C 
ATOM     23  O   UNL     1      -6.489 -17.812  16.182  1.00  0.00    -0.550 OA
ATOM     24  O   UNL     1      -6.386 -19.878  15.191  1.00  0.00    -0.550 OA
ENDBRANCH  21  22
ENDBRANCH  20  21
ENDBRANCH  19  20
ENDBRANCH  18  19
ENDBRANCH  17  18
ENDBRANCH  16  17
ENDBRANCH  15  16
ENDBRANCH  14  15
ENDBRANCH  13  14
ENDBRANCH   1  13
TORSDOF 20
ENDMDL
MODEL 2
REMARK VINA RESULT:    14.795     10.626     15.181
REMARK INTER + INTRA:          31.034
REMARK INTER:                  30.894
REMARK INTRA:                   0.140
REMARK UNBOUND:                -1.059
REMARK SMILES CCCCCCCCCCCCCCCCCCCCCC(=O)[O-]
REMARK SMILES IDX 12 1 11 2 10 3 9 4 8 5 7 6 6 7 5 8 4 9 3 10 2 11 1 12 13 13
REMARK SMILES IDX 14 14 15 15 16 16 17 17 18 18 19 19 20 20 21 21 22 22 23 23
REMARK SMILES IDX 24 24
REMARK H PARENT
REMARK Flexibility Score: inf
ROOT
ATOM      1  C   UNL     1      -6.733 -14.516   7.387  1.00  0.00     0.000 C 
ENDROOT
BRANCH   1   2
ATOM      2  C   UNL     1      -6.406 -16.003   7.171  1.00  0.00     0.000 C 
BRANCH   2   3
ATOM      3  C   UNL     1      -5.116 -16.220   6.361  1.00  0.00     0.000 C 
BRANCH   3   4
ATOM      4  C   UNL     1      -3.886 -16.476   7.250  1.00  0.00    -0.000 C 
BRANCH   4   5
ATOM      5  C   UNL     1      -2.524 -16.187   6.589  1.00  0.00    -0.000 C 
BRANCH   5   6
ATOM      6  C   UNL     1      -2.401 -14.741   6.079  1.00  0.00    -0.000 C 
BRANCH   6   7
ATOM      7  C   UNL     1      -1.750 -13.803   7.109  1.00  0.00    -0.000 C 
BRANCH   7   8
ATOM      8  C   UNL     1      -0.808 -14.539   8.076  1.00  0.00    -0.000 C 
BRANCH   8   9
ATOM      9  C   UNL     1       0.362 -13.635   8.496  1.00  0.00    -0.000 C 
BRANCH   9  10
ATOM     10  C   UNL     1       1.714 -14.367   8.471  1.00  0.00    -0.000 C 
BRANCH  10  11
ATOM     11  C   UNL     1       1.919 -15.270   9.697  1.00  0.00    -0.003 C 
ATOM     12  C   UNL     1       1.269 -14.665  10.939  1.00  0.00     0.004 C 
ENDBRANCH  10  11
ENDBRANCH   9  10
ENDBRANCH   8   9
ENDBRANCH   7   8
ENDBRANCH   6   7
ENDBRANCH   5   6
ENDBRANCH   4   5
ENDBRANCH   3   4
ENDBRANCH   2   3
ENDBRANCH   1   2
BRANCH   1  13
ATOM     13  C   UNL     1      -6.773 -13.721   6.071  1.00  0.00     0.000 C 
BRANCH  13  14
ATOM     14  C   UNL     1      -6.639 -12.202   6.287  1.00  0.00     0.000 C 
BRANCH  14  15
ATOM     15  C   UNL     1      -5.224 -11.715   6.656  1.00  0.00     0.000 C 
BRANCH  15  16
ATOM     16  C   UNL     1      -4.373 -12.714   7.467  1.00  0.00     0.000 C 
BRANCH  16  17
ATOM     17  C   UNL     1      -3.481 -12.079   8.550  1.00  0.00     0.000 C 
BRANCH  17  18
ATOM     18  C   UNL     1      -3.507 -10.544   8.520  1.00  0.00     0.000 C 
BRANCH  18  19
ATOM     19  C   UNL     1      -3.297  -9.967   9.928  1.00  0.00     0.000 C 
BRANCH  19  20
ATOM     20  C   UNL     1      -4.241  -8.793  10.236  1.00  0.00     0.006 C 
BRANCH  20  21
ATOM     21  C   UNL     1      -4.166  -8.340  11.700  1.00  0.00     0.053 C 
BRANCH  21  22
ATOM     22  C   UNL     1      -5.375  -7.533  12.060  1.00  0.00     0.041 C 
ATOM     23  O   UNL     1      -6.481  -8.103  12.260  1.00  0.00    -0.550 OA
ATOM     24  O   UNL     1      -5.271  -6.155  12.211  1.00  0.00    -0.550 OA
ENDBRANCH  21  22
ENDBRANCH  20  21
ENDBRANCH  19  20
ENDBRANCH  18  19
ENDBRANCH  17  18
ENDBRANCH  16  17
ENDBRANCH  15  16
ENDBRANCH  14  15
ENDBRANCH  13  14
ENDBRANCH   1  13
TORSDOF 20
ENDMDL
MODEL 3
REMARK VINA RESULT:    15.324     10.400     13.419
REMARK INTER + INTRA:          32.181
REMARK INTER:                  33.221
REMARK INTRA:                  -1.039
REMARK UNBOUND:                -1.059
REMARK SMILES CCCCCCCCCCCCCCCCCCCCCC(=O)[O-]
REMARK SMILES IDX 12 1 11 2 10 3 9 4 8 5 7 6 6 7 5 8 4 9 3 10 2 11 1 12 13 13
REMARK SMILES IDX 14 14 15 15 16 16 17 17 18 18 19 19 20 20 21 21 22 22 23 23
REMARK SMILES IDX 24 24
REMARK H PARENT
REMARK Flexibility Score: inf
ROOT
ATOM      1  C   UNL     1      -6.958 -14.618   7.341  1.00  0.00     0.000 C 
ENDROOT
BRANCH   1   2
ATOM      2  C   UNL     1      -7.079 -13.693   6.119  1.00  0.00     0.000 C 
BRANCH   2   3
ATOM      3  C   UNL     1      -5.975 -12.623   6.067  1.00  0.00     0.000 C 
BRANCH   3   4
ATOM      4  C   UNL     1      -4.590 -13.172   6.457  1.00  0.00    -0.000 C 
BRANCH   4   5
ATOM      5  C   UNL     1      -4.045 -12.680   7.811  1.00  0.00    -0.000 C 
BRANCH   5   6
ATOM      6  C   UNL     1      -3.175 -11.417   7.683  1.00  0.00    -0.000 C 
BRANCH   6   7
ATOM      7  C   UNL     1      -2.882 -10.759   9.041  1.00  0.00    -0.000 C 
BRANCH   7   8
ATOM      8  C   UNL     1      -3.965  -9.752   9.463  1.00  0.00    -0.000 C 
BRANCH   8   9
ATOM      9  C   UNL     1      -3.715  -9.245  10.891  1.00  0.00    -0.000 C 
BRANCH   9  10
ATOM     10  C   UNL     1      -4.208  -7.804  11.103  1.00  0.00    -0.000 C 
BRANCH  10  11
ATOM     11  C   UNL     1      -5.272  -7.701  12.208  1.00  0.00    -0.003 C 
ATOM     12  C   UNL     1      -5.563  -6.242  12.554  1.00  0.00     0.004 C 
ENDBRANCH  10  11
ENDBRANCH   9  10
ENDBRANCH   8   9
ENDBRANCH   7   8
ENDBRANCH   6   7
ENDBRANCH   5   6
ENDBRANCH   4   5
ENDBRANCH   3   4
ENDBRANCH   2   3
ENDBRANCH   1   2
BRANCH   1  13
ATOM     13  C   UNL     1      -6.677 -16.079   6.954  1.00  0.00     0.000 C 
BRANCH  13  14
ATOM     14  C   UNL     1      -5.351 -16.605   7.534  1.00  0.00     0.000 C 
BRANCH  14  15
ATOM     15  C   UNL     1      -4.295 -17.016   6.488  1.00  0.00     0.000 C 
BRANCH  15  16
ATOM     16  C   UNL     1      -2.827 -16.807   6.914  1.00  0.00     0.000 C 
BRANCH  16  17
ATOM     17  C   UNL     1      -2.262 -15.403   6.633  1.00  0.00     0.000 C 
BRANCH  17  18
ATOM     18  C   UNL     1      -1.695 -14.725   7.889  1.00  0.00     0.000 C 
BRANCH  18  19
ATOM     19  C   UNL     1      -0.706 -13.613   7.511  1.00  0.00     0.000 C 
BRANCH  19  20
ATOM     20  C   UNL     1       0.547 -13.603   8.402  1.00  0.00     0.006 C 
BRANCH  20  21
ATOM     21  C   UNL     1       0.955 -15.007   8.868  1.00  0.00     0.053 C 
BRANCH  21  22
ATOM     22  C   UNL     1       1.797 -14.923  10.103  1.00  0.00     0.041 C 
ATOM     23  O   UNL     1       3.053 -14.909  10.014  1.00  0.00    -0.550 OA
ATOM     24  O   UNL     1       1.192 -14.822  11.351  1.00  0.00    -0.550 OA
ENDBRANCH  21  22
ENDBRANCH  20  21
ENDBRANCH  19  20
ENDBRANCH  18  19
ENDBRANCH  17  18
ENDBRANCH  16  17
ENDBRANCH  15  16
ENDBRANCH  14  15
ENDBRANCH  13  14
ENDBRANCH   1  13
TORSDOF 20
ENDMDL
MODEL 4
REMARK VINA RESULT:    15.444      7.107      9.031
REMARK INTER + INTRA:          32.441
REMARK INTER:                  33.428
REMARK INTRA:                  -0.987
REMARK UNBOUND:                -1.059
REMARK SMILES CCCCCCCCCCCCCCCCCCCCCC(=O)[O-]
REMARK SMILES IDX 12 1 11 2 10 3 9 4 8 5 7 6 6 7 5 8 4 9 3 10 2 11 1 12 13 13
REMARK SMILES IDX 14 14 15 15 16 16 17 17 18 18 19 19 20 20 21 21 22 22 23 23
REMARK SMILES IDX 24 24
REMARK H PARENT
REMARK Flexibility Score: inf
ROOT
ATOM      1  C   UNL     1      -3.560  -6.894  18.149  1.00  0.00     0.000 C 
ENDROOT
BRANCH   1   2
ATOM      2  C   UNL     1      -3.690  -7.619  19.498  1.00  0.00     0.000 C 
BRANCH   2   3
ATOM      3  C   UNL     1      -2.679  -8.768  19.659  1.00  0.00     0.000 C 
BRANCH   3   4
ATOM      4  C   UNL     1      -1.733  -8.570  20.858  1.00  0.00    -0.000 C 
BRANCH   4   5
ATOM      5  C   UNL     1      -1.550  -7.111  21.316  1.00  0.00    -0.000 C 
BRANCH   5   6
ATOM      6  C   UNL     1      -1.076  -6.997  22.776  1.00  0.00    -0.000 C 
BRANCH   6   7
ATOM      7  C   UNL     1      -1.454  -5.653  23.419  1.00  0.00    -0.000 C 
BRANCH   7   8
ATOM      8  C   UNL     1      -2.602  -5.779  24.435  1.00  0.00    -0.000 C 
BRANCH   8   9
ATOM      9  C   UNL     1      -3.056  -4.395  24.923  1.00  0.00    -0.000 C 
BRANCH   9  10
ATOM     10  C   UNL     1      -4.014  -4.474  26.123  1.00  0.00    -0.000 C 
BRANCH  10  11
ATOM     11  C   UNL     1      -5.047  -5.602  25.980  1.00  0.00    -0.003 C 
ATOM     12  C   UNL     1      -5.948  -5.371  24.769  1.00  0.00     0.004 C 
ENDBRANCH  10  11
ENDBRANCH   9  10
ENDBRANCH   8   9
ENDBRANCH   7   8
ENDBRANCH   6   7
ENDBRANCH   5   6
ENDBRANCH   4   5
ENDBRANCH   3   4
ENDBRANCH   2   3
ENDBRANCH   1   2
BRANCH   1  13
ATOM     13  C   UNL     1      -2.098  -6.736  17.699  1.00  0.00     0.000 C 
BRANCH  13  14
ATOM     14  C   UNL     1      -1.953  -5.865  16.437  1.00  0.00     0.000 C 
BRANCH  14  15
ATOM     15  C   UNL     1      -1.668  -6.640  15.135  1.00  0.00     0.000 C 
BRANCH  15  16
ATOM     16  C   UNL     1      -0.474  -7.614  15.195  1.00  0.00     0.000 C 
BRANCH  16  17
ATOM     17  C   UNL     1       0.548  -7.461  14.053  1.00  0.00     0.000 C 
BRANCH  17  18
ATOM     18  C   UNL     1       0.715  -8.745  13.226  1.00  0.00     0.000 C 
BRANCH  18  19
ATOM     19  C   UNL     1       1.850  -8.591  12.203  1.00  0.00     0.000 C 
BRANCH  19  20
ATOM     20  C   UNL     1       2.623  -7.273  12.366  1.00  0.00     0.006 C 
BRANCH  20  21
ATOM     21  C   UNL     1       2.706  -6.468  11.061  1.00  0.00     0.053 C 
BRANCH  21  22
ATOM     22  C   UNL     1       2.189  -5.079  11.272  1.00  0.00     0.041 C 
ATOM     23  O   UNL     1       2.564  -4.408  12.270  1.00  0.00    -0.550 OA
ATOM     24  O   UNL     1       1.324  -4.511  10.343  1.00  0.00    -0.550 OA
ENDBRANCH  21  22
ENDBRANCH  20  21
ENDBRANCH  19  20
ENDBRANCH  18  19
ENDBRANCH  17  18
ENDBRANCH  16  17
ENDBRANCH  15  16
ENDBRANCH  14  15
ENDBRANCH  13  14
ENDBRANCH   1  13
TORSDOF 20
ENDMDL
MODEL 5
REMARK VINA RESULT:    15.652     13.119     15.367
REMARK INTER + INTRA:          32.894
REMARK INTER:                  33.866
REMARK INTRA:                  -0.972
REMARK UNBOUND:                -1.059
REMARK SMILES CCCCCCCCCCCCCCCCCCCCCC(=O)[O-]
REMARK SMILES IDX 12 1 11 2 10 3 9 4 8 5 7 6 6 7 5 8 4 9 3 10 2 11 1 12 13 13
REMARK SMILES IDX 14 14 15 15 16 16 17 17 18 18 19 19 20 20 21 21 22 22 23 23
REMARK SMILES IDX 24 24
REMARK H PARENT
REMARK Flexibility Score: inf
ROOT
ATOM      1  C   UNL     1      -2.075 -15.852   6.318  1.00  0.00     0.000 C 
ENDROOT
BRANCH   1   2
ATOM      2  C   UNL     1      -3.311 -15.996   7.221  1.00  0.00     0.000 C 
BRANCH   2   3
ATOM      3  C   UNL     1      -4.378 -16.933   6.629  1.00  0.00     0.000 C 
BRANCH   3   4
ATOM      4  C   UNL     1      -5.803 -16.591   7.100  1.00  0.00    -0.000 C 
BRANCH   4   5
ATOM      5  C   UNL     1      -6.665 -15.818   6.083  1.00  0.00    -0.000 C 
BRANCH   5   6
ATOM      6  C   UNL     1      -7.094 -14.433   6.593  1.00  0.00    -0.000 C 
BRANCH   6   7
ATOM      7  C   UNL     1      -6.367 -13.284   5.875  1.00  0.00    -0.000 C 
BRANCH   7   8
ATOM      8  C   UNL     1      -5.572 -12.386   6.838  1.00  0.00    -0.000 C 
BRANCH   8   9
ATOM      9  C   UNL     1      -4.153 -12.933   7.052  1.00  0.00    -0.000 C 
BRANCH   9  10
ATOM     10  C   UNL     1      -3.612 -12.642   8.462  1.00  0.00    -0.000 C 
BRANCH  10  11
ATOM     11  C   UNL     1      -3.411 -11.140   8.718  1.00  0.00    -0.003 C 
ATOM     12  C   UNL     1      -3.390 -10.357   7.408  1.00  0.00     0.004 C 
ENDBRANCH  10  11
ENDBRANCH   9  10
ENDBRANCH   8   9
ENDBRANCH   7   8
ENDBRANCH   6   7
ENDBRANCH   5   6
ENDBRANCH   4   5
ENDBRANCH   3   4
ENDBRANCH   2   3
ENDBRANCH   1   2
BRANCH   1  13
ATOM     13  C   UNL     1      -1.813 -14.396   5.900  1.00  0.00     0.000 C 
BRANCH  13  14
ATOM     14  C   UNL     1      -0.702 -13.727   6.731  1.00  0.00     0.000 C 
BRANCH  14  15
ATOM     15  C   UNL     1      -0.802 -13.946   8.254  1.00  0.00     0.000 C 
BRANCH  15  16
ATOM     16  C   UNL     1       0.529 -13.833   9.025  1.00  0.00     0.000 C 
BRANCH  16  17
ATOM     17  C   UNL     1       1.363 -15.126   9.077  1.00  0.00     0.000 C 
BRANCH  17  18
ATOM     18  C   UNL     1       2.535 -15.120   8.085  1.00  0.00     0.000 C 
BRANCH  18  19
ATOM     19  C   UNL     1       2.719 -16.505   7.448  1.00  0.00     0.000 C 
BRANCH  19  20
ATOM     20  C   UNL     1       1.385 -17.157   7.048  1.00  0.00     0.006 C 
BRANCH  20  21
ATOM     21  C   UNL     1       1.532 -18.136   5.875  1.00  0.00     0.053 C 
BRANCH  21  22
ATOM     22  C   UNL     1       2.106 -19.435   6.348  1.00  0.00     0.041 C 
ATOM     23  O   UNL     1       3.298 -19.738   6.075  1.00  0.00    -0.550 OA
ATOM     24  O   UNL     1       1.336 -20.294   7.125  1.00  0.00    -0.550 OA
ENDBRANCH  21  22
ENDBRANCH  20  21
ENDBRANCH  19  20
ENDBRANCH  18  19
ENDBRANCH  17  18
ENDBRANCH  16  17
ENDBRANCH  15  16
ENDBRANCH  14  15
ENDBRANCH  13  14
ENDBRANCH   1  13
TORSDOF 20
ENDMDL
MODEL 6
REMARK VINA RESULT:    15.958     10.893     12.870
REMARK INTER + INTRA:          33.558
REMARK INTER:                  33.938
REMARK INTRA:                  -0.380
REMARK UNBOUND:                -1.059
REMARK SMILES CCCCCCCCCCCCCCCCCCCCCC(=O)[O-]
REMARK SMILES IDX 12 1 11 2 10 3 9 4 8 5 7 6 6 7 5 8 4 9 3 10 2 11 1 12 13 13
REMARK SMILES IDX 14 14 15 15 16 16 17 17 18 18 19 19 20 20 21 21 22 22 23 23
REMARK SMILES IDX 24 24
REMARK H PARENT
REMARK Flexibility Score: inf
ROOT
ATOM      1  C   UNL     1      -0.915 -14.250   8.193  1.00  0.00     0.000 C 
ENDROOT
BRANCH   1   2
ATOM      2  C   UNL     1       0.445 -13.538   8.107  1.00  0.00     0.000 C 
BRANCH   2   3
ATOM      3  C   UNL     1       1.348 -13.825   9.319  1.00  0.00     0.000 C 
BRANCH   3   4
ATOM      4  C   UNL     1       1.022 -12.936  10.532  1.00  0.00    -0.000 C 
BRANCH   4   5
ATOM      5  C   UNL     1       1.445 -11.460  10.399  1.00  0.00    -0.000 C 
BRANCH   5   6
ATOM      6  C   UNL     1       1.285 -10.671  11.710  1.00  0.00    -0.000 C 
BRANCH   6   7
ATOM      7  C   UNL     1       2.399  -9.632  11.916  1.00  0.00    -0.000 C 
BRANCH   7   8
ATOM      8  C   UNL     1       1.859  -8.247  12.309  1.00  0.00    -0.000 C 
BRANCH   8   9
ATOM      9  C   UNL     1       2.608  -7.133  11.562  1.00  0.00    -0.000 C 
BRANCH   9  10
ATOM     10  C   UNL     1       2.833  -5.884  12.430  1.00  0.00    -0.000 C 
BRANCH  10  11
ATOM     11  C   UNL     1       2.710  -4.579  11.629  1.00  0.00    -0.003 C 
ATOM     12  C   UNL     1       1.542  -4.645  10.648  1.00  0.00     0.004 C 
ENDBRANCH  10  11
ENDBRANCH   9  10
ENDBRANCH   8   9
ENDBRANCH   7   8
ENDBRANCH   6   7
ENDBRANCH   5   6
ENDBRANCH   4   5
ENDBRANCH   3   4
ENDBRANCH   2   3
ENDBRANCH   1   2
BRANCH   1  13
ATOM     13  C   UNL     1      -1.622 -14.346   6.831  1.00  0.00     0.000 C 
BRANCH  13  14
ATOM     14  C   UNL     1      -2.164 -15.757   6.538  1.00  0.00     0.000 C 
BRANCH  14  15
ATOM     15  C   UNL     1      -3.497 -16.104   7.233  1.00  0.00     0.000 C 
BRANCH  15  16
ATOM     16  C   UNL     1      -4.755 -15.968   6.352  1.00  0.00     0.000 C 
BRANCH  16  17
ATOM     17  C   UNL     1      -6.093 -16.084   7.106  1.00  0.00     0.000 C 
BRANCH  17  18
ATOM     18  C   UNL     1      -6.739 -14.720   7.389  1.00  0.00     0.000 C 
BRANCH  18  19
ATOM     19  C   UNL     1      -6.746 -13.847   6.126  1.00  0.00     0.000 C 
BRANCH  19  20
ATOM     20  C   UNL     1      -5.979 -12.527   6.310  1.00  0.00     0.006 C 
BRANCH  20  21
ATOM     21  C   UNL     1      -4.461 -12.731   6.401  1.00  0.00     0.053 C 
BRANCH  21  22
ATOM     22  C   UNL     1      -3.956 -12.299   7.743  1.00  0.00     0.041 C 
ATOM     23  O   UNL     1      -3.842 -13.136   8.677  1.00  0.00    -0.550 OA
ATOM     24  O   UNL     1      -3.573 -10.978   7.949  1.00  0.00    -0.550 OA
ENDBRANCH  21  22
ENDBRANCH  20  21
ENDBRANCH  19  20
ENDBRANCH  18  19
ENDBRANCH  17  18
ENDBRANCH  16  17
ENDBRANCH  15  16
ENDBRANCH  14  15
ENDBRANCH  13  14
ENDBRANCH   1  13
TORSDOF 20
ENDMDL
MODEL 7
REMARK VINA RESULT:    16.956     10.760     15.655
REMARK INTER + INTRA:          35.722
REMARK INTER:                  36.461
REMARK INTRA:                  -0.739
REMARK UNBOUND:                -1.059
REMARK SMILES CCCCCCCCCCCCCCCCCCCCCC(=O)[O-]
REMARK SMILES IDX 12 1 11 2 10 3 9 4 8 5 7 6 6 7 5 8 4 9 3 10 2 11 1 12 13 13
REMARK SMILES IDX 14 14 15 15 16 16 17 17 18 18 19 19 20 20 21 21 22 22 23 23
REMARK SMILES IDX 24 24
REMARK H PARENT
REMARK Flexibility Score: inf
ROOT
ATOM      1  C   UNL     1      -3.313 -11.174   8.587  1.00  0.00     0.000 C 
ENDROOT
BRANCH   1   2
ATOM      2  C   UNL     1      -4.401 -11.154   7.500  1.00  0.00     0.000 C 
BRANCH   2   3
ATOM      3  C   UNL     1      -4.729 -12.555   6.955  1.00  0.00     0.000 C 
BRANCH   3   4
ATOM      4  C   UNL     1      -6.096 -12.618   6.249  1.00  0.00    -0.000 C 
BRANCH   4   5
ATOM      5  C   UNL     1      -6.760 -14.008   6.225  1.00  0.00    -0.000 C 
BRANCH   5   6
ATOM      6  C   UNL     1      -6.179 -14.967   7.278  1.00  0.00    -0.000 C 
BRANCH   6   7
ATOM      7  C   UNL     1      -5.311 -16.074   6.657  1.00  0.00    -0.000 C 
BRANCH   7   8
ATOM      8  C   UNL     1      -3.808 -15.868   6.913  1.00  0.00    -0.000 C 
BRANCH   8   9
ATOM      9  C   UNL     1      -3.242 -14.772   5.997  1.00  0.00    -0.000 C 
BRANCH   9  10
ATOM     10  C   UNL     1      -1.804 -14.372   6.371  1.00  0.00    -0.000 C 
BRANCH  10  11
ATOM     11  C   UNL     1      -1.568 -14.368   7.889  1.00  0.00    -0.003 C 
ATOM     12  C   UNL     1      -0.162 -13.875   8.224  1.00  0.00     0.004 C 
ENDBRANCH  10  11
ENDBRANCH   9  10
ENDBRANCH   8   9
ENDBRANCH   7   8
ENDBRANCH   6   7
ENDBRANCH   5   6
ENDBRANCH   4   5
ENDBRANCH   3   4
ENDBRANCH   2   3
ENDBRANCH   1   2
BRANCH   1  13
ATOM     13  C   UNL     1      -3.412  -9.977   9.547  1.00  0.00     0.000 C 
BRANCH  13  14
ATOM     14  C   UNL     1      -2.191  -9.857  10.477  1.00  0.00     0.000 C 
BRANCH  14  15
ATOM     15  C   UNL     1      -2.455  -9.138  11.815  1.00  0.00     0.000 C 
BRANCH  15  16
ATOM     16  C   UNL     1      -1.485  -9.496  12.960  1.00  0.00     0.000 C 
BRANCH  16  17
ATOM     17  C   UNL     1      -0.029  -9.744  12.525  1.00  0.00     0.000 C 
BRANCH  17  18
ATOM     18  C   UNL     1       0.939  -8.668  13.041  1.00  0.00     0.000 C 
BRANCH  18  19
ATOM     19  C   UNL     1       2.252  -8.687  12.244  1.00  0.00     0.000 C 
BRANCH  19  20
ATOM     20  C   UNL     1       2.583  -7.326  11.610  1.00  0.00     0.006 C 
BRANCH  20  21
ATOM     21  C   UNL     1       1.925  -6.153  12.349  1.00  0.00     0.053 C 
BRANCH  21  22
ATOM     22  C   UNL     1       2.236  -4.861  11.658  1.00  0.00     0.041 C 
ATOM     23  O   UNL     1       2.905  -3.972  12.248  1.00  0.00    -0.550 OA
ATOM     24  O   UNL     1       1.819  -4.656  10.347  1.00  0.00    -0.550 OA
ENDBRANCH  21  22
ENDBRANCH  20  21
ENDBRANCH  19  20
ENDBRANCH  18  19
ENDBRANCH  17  18
ENDBRANCH  16  17
ENDBRANCH  15  16
ENDBRANCH  14  15
ENDBRANCH  13  14
ENDBRANCH   1  13
TORSDOF 20
ENDMDL
MODEL 8
REMARK VINA RESULT:    16.972     11.586     15.940
REMARK INTER + INTRA:          35.757
REMARK INTER:                  36.491
REMARK INTRA:                  -0.733
REMARK UNBOUND:                -1.059
REMARK SMILES CCCCCCCCCCCCCCCCCCCCCC(=O)[O-]
REMARK SMILES IDX 12 1 11 2 10 3 9 4 8 5 7 6 6 7 5 8 4 9 3 10 2 11 1 12 13 13
REMARK SMILES IDX 14 14 15 15 16 16 17 17 18 18 19 19 20 20 21 21 22 22 23 23
REMARK SMILES IDX 24 24
REMARK H PARENT
REMARK Flexibility Score: inf
ROOT
ATOM      1  C   UNL     1      -1.054 -13.873   7.900  1.00  0.00     0.000 C 
ENDROOT
BRANCH   1   2
ATOM      2  C   UNL     1      -1.408 -14.320   6.472  1.00  0.00     0.000 C 
BRANCH   2   3
ATOM      3  C   UNL     1      -2.801 -14.966   6.376  1.00  0.00     0.000 C 
BRANCH   3   4
ATOM      4  C   UNL     1      -2.923 -16.254   7.210  1.00  0.00    -0.000 C 
BRANCH   4   5
ATOM      5  C   UNL     1      -4.222 -17.055   6.997  1.00  0.00    -0.000 C 
BRANCH   5   6
ATOM      6  C   UNL     1      -5.312 -16.246   6.273  1.00  0.00    -0.000 C 
BRANCH   6   7
ATOM      7  C   UNL     1      -6.551 -16.003   7.151  1.00  0.00    -0.000 C 
BRANCH   7   8
ATOM      8  C   UNL     1      -6.743 -14.521   7.514  1.00  0.00    -0.000 C 
BRANCH   8   9
ATOM      9  C   UNL     1      -6.778 -13.647   6.252  1.00  0.00    -0.000 C 
BRANCH   9  10
ATOM     10  C   UNL     1      -5.608 -12.651   6.189  1.00  0.00    -0.000 C 
BRANCH  10  11
ATOM     11  C   UNL     1      -4.512 -12.962   7.219  1.00  0.00    -0.003 C 
ATOM     12  C   UNL     1      -3.879 -11.678   7.752  1.00  0.00     0.004 C 
ENDBRANCH  10  11
ENDBRANCH   9  10
ENDBRANCH   8   9
ENDBRANCH   7   8
ENDBRANCH   6   7
ENDBRANCH   5   6
ENDBRANCH   4   5
ENDBRANCH   3   4
ENDBRANCH   2   3
ENDBRANCH   1   2
BRANCH   1  13
ATOM     13  C   UNL     1       0.460 -13.895   8.170  1.00  0.00     0.000 C 
BRANCH  13  14
ATOM     14  C   UNL     1       0.802 -14.296   9.617  1.00  0.00     0.000 C 
BRANCH  14  15
ATOM     15  C   UNL     1       1.656 -13.275  10.395  1.00  0.00     0.000 C 
BRANCH  15  16
ATOM     16  C   UNL     1       1.117 -11.830  10.401  1.00  0.00     0.000 C 
BRANCH  16  17
ATOM     17  C   UNL     1       1.455 -11.014  11.662  1.00  0.00     0.000 C 
BRANCH  17  18
ATOM     18  C   UNL     1       1.939  -9.592  11.340  1.00  0.00     0.000 C 
BRANCH  18  19
ATOM     19  C   UNL     1       2.553  -8.931  12.583  1.00  0.00     0.000 C 
BRANCH  19  20
ATOM     20  C   UNL     1       2.202  -7.438  12.696  1.00  0.00     0.006 C 
BRANCH  20  21
ATOM     21  C   UNL     1       1.976  -6.777  11.329  1.00  0.00     0.053 C 
BRANCH  21  22
ATOM     22  C   UNL     1       2.515  -5.380  11.330  1.00  0.00     0.041 C 
ATOM     23  O   UNL     1       2.122  -4.548  10.469  1.00  0.00    -0.550 OA
ATOM     24  O   UNL     1       3.422  -4.985  12.308  1.00  0.00    -0.550 OA
ENDBRANCH  21  22
ENDBRANCH  20  21
ENDBRANCH  19  20
ENDBRANCH  18  19
ENDBRANCH  17  18
ENDBRANCH  16  17
ENDBRANCH  15  16
ENDBRANCH  14  15
ENDBRANCH  13  14
ENDBRANCH   1  13
TORSDOF 20
ENDMDL
