MODEL 1
REMARK VINA RESULT:    -4.004      0.000      0.000
REMARK INTER + INTRA:          -8.354
REMARK INTER:                  -7.748
REMARK INTRA:                  -0.606
REMARK UNBOUND:                -0.606
REMARK SMILES CCCCCCCCCCCCCCCCCC(=O)[O-]
REMARK SMILES IDX 10 1 11 2 12 3 13 4 14 5 15 6 16 7 17 8 18 9 19 10 20 11
REMARK SMILES IDX 9 12 8 13 7 14 6 15 5 16 4 17 3 18 2 19 1 20
REMARK H PARENT
REMARK Flexibility Score: inf
ROOT
ATOM      1  C   UNL     1      -2.782   3.779  -0.974  1.00  0.00     0.000 C 
ENDROOT
BRANCH   1   2
ATOM      2  C   UNL     1      -3.051   5.097  -1.722  1.00  0.00     0.000 C 
BRANCH   2   3
ATOM      3  C   UNL     1      -3.638   4.933  -3.139  1.00  0.00     0.000 C 
BRANCH   3   4
ATOM      4  C   UNL     1      -5.011   5.598  -3.358  1.00  0.00     0.000 C 
BRANCH   4   5
ATOM      5  C   UNL     1      -5.318   6.001  -4.814  1.00  0.00     0.000 C 
BRANCH   5   6
ATOM      6  C   UNL     1      -6.815   6.037  -5.175  1.00  0.00     0.000 C 
BRANCH   6   7
ATOM      7  C   UNL     1      -7.064   6.036  -6.693  1.00  0.00     0.006 C 
BRANCH   7   8
ATOM      8  C   UNL     1      -7.105   7.455  -7.274  1.00  0.00     0.053 C 
BRANCH   8   9
ATOM      9  C   UNL     1      -8.003   7.539  -8.471  1.00  0.00     0.041 C 
ATOM     10  O   UNL     1      -9.181   7.099  -8.411  1.00  0.00    -0.550 OA
ATOM     11  O   UNL     1      -7.526   8.069  -9.663  1.00  0.00    -0.550 OA
ENDBRANCH   8   9
ENDBRANCH   7   8
ENDBRANCH   6   7
ENDBRANCH   5   6
ENDBRANCH   4   5
ENDBRANCH   3   4
ENDBRANCH   2   3
ENDBRANCH   1   2
BRANCH   1  12
ATOM     12  C   UNL     1      -3.585   3.597   0.328  1.00  0.00     0.000 C 
BRANCH  12  13
ATOM     13  C   UNL     1      -4.023   2.139   0.588  1.00  0.00    -0.000 C 
BRANCH  13  14
ATOM     14  C   UNL     1      -3.174   1.123  -0.197  1.00  0.00    -0.000 C 
BRANCH  14  15
ATOM     15  C   UNL     1      -4.003  -0.058  -0.723  1.00  0.00    -0.000 C 
BRANCH  15  16
ATOM     16  C   UNL     1      -3.156  -1.066  -1.515  1.00  0.00    -0.000 C 
BRANCH  16  17
ATOM     17  C   UNL     1      -4.035  -1.919  -2.438  1.00  0.00    -0.000 C 
BRANCH  17  18
ATOM     18  C   UNL     1      -3.981  -3.400  -2.033  1.00  0.00    -0.000 C 
BRANCH  18  19
ATOM     19  C   UNL     1      -3.678  -3.594  -0.539  1.00  0.00    -0.003 C 
ATOM     20  C   UNL     1      -4.464  -4.749   0.080  1.00  0.00     0.004 C 
ENDBRANCH  18  19
ENDBRANCH  17  18
ENDBRANCH  16  17
ENDBRANCH  15  16
ENDBRANCH  14  15
ENDBRANCH  13  14
ENDBRANCH  12  13
ENDBRANCH   1  12
TORSDOF 16
ENDMDL
MODEL 2
REMARK VINA RESULT:    -3.947      1.262      2.017
REMARK INTER + INTRA:          -8.245
REMARK INTER:                  -7.453
REMARK INTRA:                  -0.792
REMARK UNBOUND:                -0.606
REMARK SMILES CCCCCCCCCCCCCCCCCC(=O)[O-]
REMARK SMILES IDX 10 1 11 2 12 3 13 4 14 5 15 6 16 7 17 8 18 9 19 10 20 11
REMARK SMILES IDX 9 12 8 13 7 14 6 15 5 16 4 17 3 18 2 19 1 20
REMARK H PARENT
REMARK Flexibility Score: inf
ROOT
ATOM      1  C   UNL     1      -3.077   4.305  -2.517  1.00  0.00     0.000 C 
ENDROOT
BRANCH   1   2
ATOM      2  C   UNL     1      -3.598   5.142  -3.699  1.00  0.00     0.000 C 
BRANCH   2   3
ATOM      3  C   UNL     1      -5.105   5.469  -3.650  1.00  0.00     0.000 C 
BRANCH   3   4
ATOM      4  C   UNL     1      -5.611   6.385  -4.781  1.00  0.00     0.000 C 
BRANCH   4   5
ATOM      5  C   UNL     1      -6.896   5.907  -5.486  1.00  0.00     0.000 C 
BRANCH   5   6
ATOM      6  C   UNL     1      -6.794   5.801  -7.019  1.00  0.00     0.000 C 
BRANCH   6   7
ATOM      7  C   UNL     1      -7.834   6.668  -7.749  1.00  0.00     0.006 C 
BRANCH   7   8
ATOM      8  C   UNL     1      -7.196   7.885  -8.432  1.00  0.00     0.053 C 
BRANCH   8   9
ATOM      9  C   UNL     1      -7.200   9.088  -7.538  1.00  0.00     0.041 C 
ATOM     10  O   UNL     1      -6.115   9.560  -7.106  1.00  0.00    -0.550 OA
ATOM     11  O   UNL     1      -8.403   9.666  -7.154  1.00  0.00    -0.550 OA
ENDBRANCH   8   9
ENDBRANCH   7   8
ENDBRANCH   6   7
ENDBRANCH   5   6
ENDBRANCH   4   5
ENDBRANCH   3   4
ENDBRANCH   2   3
ENDBRANCH   1   2
BRANCH   1  12
ATOM     12  C   UNL     1      -3.272   4.950  -1.131  1.00  0.00     0.000 C 
BRANCH  12  13
ATOM     13  C   UNL     1      -3.230   3.938   0.035  1.00  0.00    -0.000 C 
BRANCH  13  14
ATOM     14  C   UNL     1      -2.579   2.604  -0.371  1.00  0.00    -0.000 C 
BRANCH  14  15
ATOM     15  C   UNL     1      -3.520   1.404  -0.177  1.00  0.00    -0.000 C 
BRANCH  15  16
ATOM     16  C   UNL     1      -2.920   0.093  -0.709  1.00  0.00    -0.000 C 
BRANCH  16  17
ATOM     17  C   UNL     1      -4.020  -0.929  -1.021  1.00  0.00    -0.000 C 
BRANCH  17  18
ATOM     18  C   UNL     1      -3.792  -1.580  -2.393  1.00  0.00    -0.000 C 
BRANCH  18  19
ATOM     19  C   UNL     1      -3.747  -3.114  -2.319  1.00  0.00    -0.003 C 
ATOM     20  C   UNL     1      -3.851  -3.641  -0.888  1.00  0.00     0.004 C 
ENDBRANCH  18  19
ENDBRANCH  17  18
ENDBRANCH  16  17
ENDBRANCH  15  16
ENDBRANCH  14  15
ENDBRANCH  13  14
ENDBRANCH  12  13
ENDBRANCH   1  12
TORSDOF 16
ENDMDL
MODEL 3
REMARK VINA RESULT:    -3.806      0.844      1.376
REMARK INTER + INTRA:          -7.973
REMARK INTER:                  -7.139
REMARK INTRA:                  -0.833
REMARK UNBOUND:                -0.606
REMARK SMILES CCCCCCCCCCCCCCCCCC(=O)[O-]
REMARK SMILES IDX 10 1 11 2 12 3 13 4 14 5 15 6 16 7 17 8 18 9 19 10 20 11
REMARK SMILES IDX 9 12 8 13 7 14 6 15 5 16 4 17 3 18 2 19 1 20
REMARK H PARENT
REMARK Flexibility Score: inf
ROOT
ATOM      1  C   UNL     1      -3.042   5.256  -1.454  1.00  0.00     0.000 C 
ENDROOT
BRANCH   1   2
ATOM      2  C   UNL     1      -3.298   4.305  -2.637  1.00  0.00     0.000 C 
BRANCH   2   3
ATOM      3  C   UNL     1      -3.893   4.975  -3.892  1.00  0.00     0.000 C 
BRANCH   3   4
ATOM      4  C   UNL     1      -5.223   5.719  -3.667  1.00  0.00     0.000 C 
BRANCH   4   5
ATOM      5  C   UNL     1      -5.784   6.448  -4.905  1.00  0.00     0.000 C 
BRANCH   5   6
ATOM      6  C   UNL     1      -7.008   5.776  -5.554  1.00  0.00     0.000 C 
BRANCH   6   7
ATOM      7  C   UNL     1      -7.217   6.200  -7.018  1.00  0.00     0.006 C 
BRANCH   7   8
ATOM      8  C   UNL     1      -6.967   7.699  -7.228  1.00  0.00     0.053 C 
BRANCH   8   9
ATOM      9  C   UNL     1      -7.243   8.115  -8.641  1.00  0.00     0.041 C 
ATOM     10  O   UNL     1      -8.153   7.549  -9.302  1.00  0.00    -0.550 OA
ATOM     11  O   UNL     1      -6.470   9.101  -9.239  1.00  0.00    -0.550 OA
ENDBRANCH   8   9
ENDBRANCH   7   8
ENDBRANCH   6   7
ENDBRANCH   5   6
ENDBRANCH   4   5
ENDBRANCH   3   4
ENDBRANCH   2   3
ENDBRANCH   1   2
BRANCH   1  12
ATOM     12  C   UNL     1      -2.982   4.573  -0.074  1.00  0.00     0.000 C 
BRANCH  12  13
ATOM     13  C   UNL     1      -2.946   3.031  -0.147  1.00  0.00    -0.000 C 
BRANCH  13  14
ATOM     14  C   UNL     1      -4.048   2.378   0.706  1.00  0.00    -0.000 C 
BRANCH  14  15
ATOM     15  C   UNL     1      -4.221   0.882   0.403  1.00  0.00    -0.000 C 
BRANCH  15  16
ATOM     16  C   UNL     1      -3.795   0.518  -1.027  1.00  0.00    -0.000 C 
BRANCH  16  17
ATOM     17  C   UNL     1      -3.457  -0.974  -1.138  1.00  0.00    -0.000 C 
BRANCH  17  18
ATOM     18  C   UNL     1      -3.811  -1.516  -2.531  1.00  0.00    -0.000 C 
BRANCH  18  19
ATOM     19  C   UNL     1      -4.082  -3.028  -2.525  1.00  0.00    -0.003 C 
ATOM     20  C   UNL     1      -3.784  -3.678  -1.174  1.00  0.00     0.004 C 
ENDBRANCH  18  19
ENDBRANCH  17  18
ENDBRANCH  16  17
ENDBRANCH  15  16
ENDBRANCH  14  15
ENDBRANCH  13  14
ENDBRANCH  12  13
ENDBRANCH   1  12
TORSDOF 16
ENDMDL
MODEL 4
REMARK VINA RESULT:    -3.567      4.406      9.853
REMARK INTER + INTRA:          -7.510
REMARK INTER:                  -6.631
REMARK INTRA:                  -0.879
REMARK UNBOUND:                -0.606
REMARK SMILES CCCCCCCCCCCCCCCCCC(=O)[O-]
REMARK SMILES IDX 10 1 11 2 12 3 13 4 14 5 15 6 16 7 17 8 18 9 19 10 20 11
REMARK SMILES IDX 9 12 8 13 7 14 6 15 5 16 4 17 3 18 2 19 1 20
REMARK H PARENT
REMARK Flexibility Score: inf
ROOT
ATOM      1  C   UNL     1      -2.991   4.460  -2.664  1.00  0.00     0.000 C 
ENDROOT
BRANCH   1   2
ATOM      2  C   UNL     1      -3.065   5.081  -1.257  1.00  0.00     0.000 C 
BRANCH   2   3
ATOM      3  C   UNL     1      -3.265   4.069  -0.110  1.00  0.00     0.000 C 
BRANCH   3   4
ATOM      4  C   UNL     1      -2.628   2.686  -0.341  1.00  0.00     0.000 C 
BRANCH   4   5
ATOM      5  C   UNL     1      -3.550   1.483  -0.054  1.00  0.00     0.000 C 
BRANCH   5   6
ATOM      6  C   UNL     1      -3.012   0.124  -0.538  1.00  0.00     0.000 C 
BRANCH   6   7
ATOM      7  C   UNL     1      -4.122  -0.811  -1.048  1.00  0.00     0.006 C 
BRANCH   7   8
ATOM      8  C   UNL     1      -3.733  -1.512  -2.357  1.00  0.00     0.053 C 
BRANCH   8   9
ATOM      9  C   UNL     1      -3.774  -3.004  -2.220  1.00  0.00     0.041 C 
ATOM     10  O   UNL     1      -3.863  -3.732  -3.243  1.00  0.00    -0.550 OA
ATOM     11  O   UNL     1      -3.750  -3.587  -0.960  1.00  0.00    -0.550 OA
ENDBRANCH   8   9
ENDBRANCH   7   8
ENDBRANCH   6   7
ENDBRANCH   5   6
ENDBRANCH   4   5
ENDBRANCH   3   4
ENDBRANCH   2   3
ENDBRANCH   1   2
BRANCH   1  12
ATOM     12  C   UNL     1      -3.787   5.214  -3.747  1.00  0.00     0.000 C 
BRANCH  12  13
ATOM     13  C   UNL     1      -5.212   5.612  -3.305  1.00  0.00    -0.000 C 
BRANCH  13  14
ATOM     14  C   UNL     1      -5.924   6.495  -4.346  1.00  0.00    -0.000 C 
BRANCH  14  15
ATOM     15  C   UNL     1      -6.083   5.795  -5.704  1.00  0.00    -0.000 C 
BRANCH  15  16
ATOM     16  C   UNL     1      -7.477   6.005  -6.315  1.00  0.00    -0.000 C 
BRANCH  16  17
ATOM     17  C   UNL     1      -7.396   6.125  -7.842  1.00  0.00    -0.000 C 
BRANCH  17  18
ATOM     18  C   UNL     1      -7.875   7.508  -8.311  1.00  0.00    -0.000 C 
BRANCH  18  19
ATOM     19  C   UNL     1      -6.716   8.419  -8.743  1.00  0.00    -0.003 C 
ATOM     20  C   UNL     1      -6.255   9.358  -7.629  1.00  0.00     0.004 C 
ENDBRANCH  18  19
ENDBRANCH  17  18
ENDBRANCH  16  17
ENDBRANCH  15  16
ENDBRANCH  14  15
ENDBRANCH  13  14
ENDBRANCH  12  13
ENDBRANCH   1  12
TORSDOF 16
ENDMDL
MODEL 5
REMARK VINA RESULT:    -3.535      4.388      9.629
REMARK INTER + INTRA:          -7.448
REMARK INTER:                  -6.589
REMARK INTRA:                  -0.860
REMARK UNBOUND:                -0.606
REMARK SMILES CCCCCCCCCCCCCCCCCC(=O)[O-]
REMARK SMILES IDX 10 1 11 2 12 3 13 4 14 5 15 6 16 7 17 8 18 9 19 10 20 11
REMARK SMILES IDX 9 12 8 13 7 14 6 15 5 16 4 17 3 18 2 19 1 20
REMARK H PARENT
REMARK Flexibility Score: inf
ROOT
ATOM      1  C   UNL     1      -3.283   5.406  -1.424  1.00  0.00     0.000 C 
ENDROOT
BRANCH   1   2
ATOM      2  C   UNL     1      -2.802   4.822  -0.083  1.00  0.00     0.000 C 
BRANCH   2   3
ATOM      3  C   UNL     1      -2.804   3.281  -0.007  1.00  0.00     0.000 C 
BRANCH   3   4
ATOM      4  C   UNL     1      -4.062   2.661   0.633  1.00  0.00     0.000 C 
BRANCH   4   5
ATOM      5  C   UNL     1      -4.153   1.125   0.542  1.00  0.00     0.000 C 
BRANCH   5   6
ATOM      6  C   UNL     1      -3.735   0.529  -0.815  1.00  0.00     0.000 C 
BRANCH   6   7
ATOM      7  C   UNL     1      -3.840  -1.005  -0.852  1.00  0.00     0.006 C 
BRANCH   7   8
ATOM      8  C   UNL     1      -3.802  -1.553  -2.285  1.00  0.00     0.053 C 
BRANCH   8   9
ATOM      9  C   UNL     1      -3.759  -3.051  -2.305  1.00  0.00     0.041 C 
ATOM     10  O   UNL     1      -3.764  -3.699  -1.225  1.00  0.00    -0.550 OA
ATOM     11  O   UNL     1      -3.677  -3.729  -3.514  1.00  0.00    -0.550 OA
ENDBRANCH   8   9
ENDBRANCH   7   8
ENDBRANCH   6   7
ENDBRANCH   5   6
ENDBRANCH   4   5
ENDBRANCH   3   4
ENDBRANCH   2   3
ENDBRANCH   1   2
BRANCH   1  12
ATOM     12  C   UNL     1      -3.348   4.395  -2.585  1.00  0.00     0.000 C 
BRANCH  12  13
ATOM     13  C   UNL     1      -3.807   5.016  -3.923  1.00  0.00    -0.000 C 
BRANCH  13  14
ATOM     14  C   UNL     1      -5.220   5.619  -3.835  1.00  0.00    -0.000 C 
BRANCH  14  15
ATOM     15  C   UNL     1      -5.615   6.386  -5.105  1.00  0.00    -0.000 C 
BRANCH  15  16
ATOM     16  C   UNL     1      -6.983   5.952  -5.654  1.00  0.00    -0.000 C 
BRANCH  16  17
ATOM     17  C   UNL     1      -6.921   5.723  -7.169  1.00  0.00    -0.000 C 
BRANCH  17  18
ATOM     18  C   UNL     1      -7.703   6.809  -7.923  1.00  0.00    -0.000 C 
BRANCH  18  19
ATOM     19  C   UNL     1      -6.871   8.080  -8.157  1.00  0.00    -0.003 C 
ATOM     20  C   UNL     1      -7.425   9.295  -7.414  1.00  0.00     0.004 C 
ENDBRANCH  18  19
ENDBRANCH  17  18
ENDBRANCH  16  17
ENDBRANCH  15  16
ENDBRANCH  14  15
ENDBRANCH  13  14
ENDBRANCH  12  13
ENDBRANCH   1  12
TORSDOF 16
ENDMDL
MODEL 6
REMARK VINA RESULT:    -2.964      1.669      3.710
REMARK INTER + INTRA:          -6.343
REMARK INTER:                  -5.800
REMARK INTRA:                  -0.542
REMARK UNBOUND:                -0.606
REMARK SMILES CCCCCCCCCCCCCCCCCC(=O)[O-]
REMARK SMILES IDX 10 1 11 2 12 3 13 4 14 5 15 6 16 7 17 8 18 9 19 10 20 11
REMARK SMILES IDX 9 12 8 13 7 14 6 15 5 16 4 17 3 18 2 19 1 20
REMARK H PARENT
REMARK Flexibility Score: inf
ROOT
ATOM      1  C   UNL     1      -5.294   5.605  -3.658  1.00  0.00     0.000 C 
ENDROOT
BRANCH   1   2
ATOM      2  C   UNL     1      -5.579   6.383  -4.955  1.00  0.00     0.000 C 
BRANCH   2   3
ATOM      3  C   UNL     1      -6.884   5.986  -5.677  1.00  0.00     0.000 C 
BRANCH   3   4
ATOM      4  C   UNL     1      -6.783   5.913  -7.213  1.00  0.00     0.000 C 
BRANCH   4   5
ATOM      5  C   UNL     1      -8.039   6.382  -7.975  1.00  0.00     0.000 C 
BRANCH   5   6
ATOM      6  C   UNL     1      -8.176   7.908  -8.123  1.00  0.00     0.000 C 
BRANCH   6   7
ATOM      7  C   UNL     1      -8.108   8.375  -9.587  1.00  0.00     0.006 C 
BRANCH   7   8
ATOM      8  C   UNL     1      -7.126   9.539  -9.779  1.00  0.00     0.053 C 
BRANCH   8   9
ATOM      9  C   UNL     1      -5.811   9.271  -9.112  1.00  0.00     0.041 C 
ATOM     10  O   UNL     1      -4.942   8.565  -9.688  1.00  0.00    -0.550 OA
ATOM     11  O   UNL     1      -5.561   9.770  -7.841  1.00  0.00    -0.550 OA
ENDBRANCH   8   9
ENDBRANCH   7   8
ENDBRANCH   6   7
ENDBRANCH   5   6
ENDBRANCH   4   5
ENDBRANCH   3   4
ENDBRANCH   2   3
ENDBRANCH   1   2
BRANCH   1  12
ATOM     12  C   UNL     1      -3.826   5.179  -3.466  1.00  0.00     0.000 C 
BRANCH  12  13
ATOM     13  C   UNL     1      -3.400   5.071  -1.986  1.00  0.00    -0.000 C 
BRANCH  13  14
ATOM     14  C   UNL     1      -2.937   3.652  -1.612  1.00  0.00    -0.000 C 
BRANCH  14  15
ATOM     15  C   UNL     1      -3.287   3.279  -0.163  1.00  0.00    -0.000 C 
BRANCH  15  16
ATOM     16  C   UNL     1      -2.858   1.848   0.197  1.00  0.00    -0.000 C 
BRANCH  16  17
ATOM     17  C   UNL     1      -3.842   0.819  -0.371  1.00  0.00    -0.000 C 
BRANCH  17  18
ATOM     18  C   UNL     1      -3.096  -0.369  -0.996  1.00  0.00    -0.000 C 
BRANCH  18  19
ATOM     19  C   UNL     1      -4.032  -1.534  -1.351  1.00  0.00    -0.003 C 
ATOM     20  C   UNL     1      -3.606  -2.270  -2.622  1.00  0.00     0.004 C 
ENDBRANCH  18  19
ENDBRANCH  17  18
ENDBRANCH  16  17
ENDBRANCH  15  16
ENDBRANCH  14  15
ENDBRANCH  13  14
ENDBRANCH  12  13
ENDBRANCH   1  12
TORSDOF 16
ENDMDL
MODEL 7
REMARK VINA RESULT:    -2.921      5.103      9.838
REMARK INTER + INTRA:          -6.259
REMARK INTER:                  -5.755
REMARK INTRA:                  -0.505
REMARK UNBOUND:                -0.606
REMARK SMILES CCCCCCCCCCCCCCCCCC(=O)[O-]
REMARK SMILES IDX 10 1 11 2 12 3 13 4 14 5 15 6 16 7 17 8 18 9 19 10 20 11
REMARK SMILES IDX 9 12 8 13 7 14 6 15 5 16 4 17 3 18 2 19 1 20
REMARK H PARENT
REMARK Flexibility Score: inf
ROOT
ATOM      1  C   UNL     1      -3.462   3.265   0.499  1.00  0.00     0.000 C 
ENDROOT
BRANCH   1   2
ATOM      2  C   UNL     1      -2.871   1.926   0.023  1.00  0.00     0.000 C 
BRANCH   2   3
ATOM      3  C   UNL     1      -3.912   0.881  -0.431  1.00  0.00     0.000 C 
BRANCH   3   4
ATOM      4  C   UNL     1      -3.323  -0.450  -0.936  1.00  0.00     0.000 C 
BRANCH   4   5
ATOM      5  C   UNL     1      -4.169  -1.180  -1.999  1.00  0.00     0.000 C 
BRANCH   5   6
ATOM      6  C   UNL     1      -3.484  -2.394  -2.652  1.00  0.00     0.000 C 
BRANCH   6   7
ATOM      7  C   UNL     1      -3.894  -3.729  -2.006  1.00  0.00     0.006 C 
BRANCH   7   8
ATOM      8  C   UNL     1      -3.573  -3.770  -0.506  1.00  0.00     0.053 C 
BRANCH   8   9
ATOM      9  C   UNL     1      -4.619  -4.515   0.265  1.00  0.00     0.041 C 
ATOM     10  O   UNL     1      -5.103  -4.020   1.317  1.00  0.00    -0.550 OA
ATOM     11  O   UNL     1      -5.033  -5.771  -0.159  1.00  0.00    -0.550 OA
ENDBRANCH   8   9
ENDBRANCH   7   8
ENDBRANCH   6   7
ENDBRANCH   5   6
ENDBRANCH   4   5
ENDBRANCH   3   4
ENDBRANCH   2   3
ENDBRANCH   1   2
BRANCH   1  12
ATOM     12  C   UNL     1      -2.699   4.516   0.022  1.00  0.00     0.000 C 
BRANCH  12  13
ATOM     13  C   UNL     1      -3.358   5.223  -1.183  1.00  0.00    -0.000 C 
BRANCH  13  14
ATOM     14  C   UNL     1      -3.252   4.396  -2.476  1.00  0.00    -0.000 C 
BRANCH  14  15
ATOM     15  C   UNL     1      -3.700   5.182  -3.718  1.00  0.00    -0.000 C 
BRANCH  15  16
ATOM     16  C   UNL     1      -5.184   5.574  -3.663  1.00  0.00    -0.000 C 
BRANCH  16  17
ATOM     17  C   UNL     1      -5.588   6.375  -4.907  1.00  0.00    -0.000 C 
BRANCH  17  18
ATOM     18  C   UNL     1      -7.012   6.014  -5.355  1.00  0.00    -0.000 C 
BRANCH  18  19
ATOM     19  C   UNL     1      -7.303   6.442  -6.802  1.00  0.00    -0.003 C 
ATOM     20  C   UNL     1      -6.529   5.619  -7.830  1.00  0.00     0.004 C 
ENDBRANCH  18  19
ENDBRANCH  17  18
ENDBRANCH  16  17
ENDBRANCH  15  16
ENDBRANCH  14  15
ENDBRANCH  13  14
ENDBRANCH  12  13
ENDBRANCH   1  12
TORSDOF 16
ENDMDL
MODEL 8
REMARK VINA RESULT:    -2.737      2.454      4.990
REMARK INTER + INTRA:          -5.903
REMARK INTER:                  -4.786
REMARK INTRA:                  -1.117
REMARK UNBOUND:                -0.606
REMARK SMILES CCCCCCCCCCCCCCCCCC(=O)[O-]
REMARK SMILES IDX 10 1 11 2 12 3 13 4 14 5 15 6 16 7 17 8 18 9 19 10 20 11
REMARK SMILES IDX 9 12 8 13 7 14 6 15 5 16 4 17 3 18 2 19 1 20
REMARK H PARENT
REMARK Flexibility Score: inf
ROOT
ATOM      1  C   UNL     1      -5.393   5.663  -5.141  1.00  0.00     0.000 C 
ENDROOT
BRANCH   1   2
ATOM      2  C   UNL     1      -6.807   6.267  -5.219  1.00  0.00     0.000 C 
BRANCH   2   3
ATOM      3  C   UNL     1      -7.113   7.039  -6.520  1.00  0.00     0.000 C 
BRANCH   3   4
ATOM      4  C   UNL     1      -7.539   6.163  -7.714  1.00  0.00     0.000 C 
BRANCH   4   5
ATOM      5  C   UNL     1      -8.637   6.769  -8.612  1.00  0.00     0.000 C 
BRANCH   5   6
ATOM      6  C   UNL     1      -8.678   8.308  -8.637  1.00  0.00     0.000 C 
BRANCH   6   7
ATOM      7  C   UNL     1      -8.179   8.897  -9.967  1.00  0.00     0.006 C 
BRANCH   7   8
ATOM      8  C   UNL     1      -7.112   9.980  -9.757  1.00  0.00     0.053 C 
BRANCH   8   9
ATOM      9  C   UNL     1      -5.928   9.453  -9.004  1.00  0.00     0.041 C 
ATOM     10  O   UNL     1      -5.649   9.907  -7.863  1.00  0.00    -0.550 OA
ATOM     11  O   UNL     1      -5.112   8.488  -9.579  1.00  0.00    -0.550 OA
ENDBRANCH   8   9
ENDBRANCH   7   8
ENDBRANCH   6   7
ENDBRANCH   5   6
ENDBRANCH   4   5
ENDBRANCH   3   4
ENDBRANCH   2   3
ENDBRANCH   1   2
BRANCH   1  12
ATOM     12  C   UNL     1      -4.792   5.601  -3.724  1.00  0.00     0.000 C 
BRANCH  12  13
ATOM     13  C   UNL     1      -3.723   4.500  -3.552  1.00  0.00    -0.000 C 
BRANCH  13  14
ATOM     14  C   UNL     1      -2.721   4.826  -2.430  1.00  0.00    -0.000 C 
BRANCH  14  15
ATOM     15  C   UNL     1      -3.377   5.552  -1.245  1.00  0.00    -0.000 C 
BRANCH  15  16
ATOM     16  C   UNL     1      -2.974   4.951   0.110  1.00  0.00    -0.000 C 
BRANCH  16  17
ATOM     17  C   UNL     1      -2.925   3.420   0.040  1.00  0.00    -0.000 C 
BRANCH  17  18
ATOM     18  C   UNL     1      -4.089   2.796   0.825  1.00  0.00    -0.000 C 
BRANCH  18  19
ATOM     19  C   UNL     1      -4.185   1.275   0.629  1.00  0.00    -0.003 C 
ATOM     20  C   UNL     1      -3.419   0.787  -0.600  1.00  0.00     0.004 C 
ENDBRANCH  18  19
ENDBRANCH  17  18
ENDBRANCH  16  17
ENDBRANCH  15  16
ENDBRANCH  14  15
ENDBRANCH  13  14
ENDBRANCH  12  13
ENDBRANCH   1  12
TORSDOF 16
ENDMDL
MODEL 9
REMARK VINA RESULT:    -2.408      5.154      9.578
REMARK INTER + INTRA:          -5.266
REMARK INTER:                  -4.260
REMARK INTRA:                  -1.006
REMARK UNBOUND:                -0.606
REMARK SMILES CCCCCCCCCCCCCCCCCC(=O)[O-]
REMARK SMILES IDX 10 1 11 2 12 3 13 4 14 5 15 6 16 7 17 8 18 9 19 10 20 11
REMARK SMILES IDX 9 12 8 13 7 14 6 15 5 16 4 17 3 18 2 19 1 20
REMARK H PARENT
REMARK Flexibility Score: inf
ROOT
ATOM      1  C   UNL     1      -3.974   2.861   0.782  1.00  0.00     0.000 C 
ENDROOT
BRANCH   1   2
ATOM      2  C   UNL     1      -4.098   1.426   0.238  1.00  0.00     0.000 C 
BRANCH   2   3
ATOM      3  C   UNL     1      -2.761   0.761  -0.152  1.00  0.00     0.000 C 
BRANCH   3   4
ATOM      4  C   UNL     1      -2.825  -0.159  -1.386  1.00  0.00     0.000 C 
BRANCH   4   5
ATOM      5  C   UNL     1      -4.118  -0.990  -1.518  1.00  0.00     0.000 C 
BRANCH   5   6
ATOM      6  C   UNL     1      -4.079  -2.079  -2.605  1.00  0.00     0.000 C 
BRANCH   6   7
ATOM      7  C   UNL     1      -3.777  -3.478  -2.039  1.00  0.00     0.006 C 
BRANCH   7   8
ATOM      8  C   UNL     1      -3.664  -3.471  -0.509  1.00  0.00     0.053 C 
BRANCH   8   9
ATOM      9  C   UNL     1      -4.563  -4.493   0.118  1.00  0.00     0.041 C 
ATOM     10  O   UNL     1      -4.873  -5.538  -0.514  1.00  0.00    -0.550 OA
ATOM     11  O   UNL     1      -5.088  -4.274   1.385  1.00  0.00    -0.550 OA
ENDBRANCH   8   9
ENDBRANCH   7   8
ENDBRANCH   6   7
ENDBRANCH   5   6
ENDBRANCH   4   5
ENDBRANCH   3   4
ENDBRANCH   2   3
ENDBRANCH   1   2
BRANCH   1  12
ATOM     12  C   UNL     1      -2.694   3.606   0.358  1.00  0.00     0.000 C 
BRANCH  12  13
ATOM     13  C   UNL     1      -2.911   5.113   0.098  1.00  0.00    -0.000 C 
BRANCH  13  14
ATOM     14  C   UNL     1      -3.458   5.391  -1.313  1.00  0.00    -0.000 C 
BRANCH  14  15
ATOM     15  C   UNL     1      -2.923   4.402  -2.359  1.00  0.00    -0.000 C 
BRANCH  15  16
ATOM     16  C   UNL     1      -3.424   4.716  -3.778  1.00  0.00    -0.000 C 
BRANCH  16  17
ATOM     17  C   UNL     1      -4.708   5.555  -3.734  1.00  0.00    -0.000 C 
BRANCH  17  18
ATOM     18  C   UNL     1      -5.229   5.835  -5.152  1.00  0.00    -0.000 C 
BRANCH  18  19
ATOM     19  C   UNL     1      -6.763   5.896  -5.216  1.00  0.00    -0.003 C 
ATOM     20  C   UNL     1      -7.275   6.667  -6.432  1.00  0.00     0.004 C 
ENDBRANCH  18  19
ENDBRANCH  17  18
ENDBRANCH  16  17
ENDBRANCH  15  16
ENDBRANCH  14  15
ENDBRANCH  13  14
ENDBRANCH  12  13
ENDBRANCH   1  12
TORSDOF 16
ENDMDL
