MODEL 1
REMARK VINA RESULT:    -4.326      0.000      0.000
REMARK INTER + INTRA:         -10.985
REMARK INTER:                  -8.373
REMARK INTRA:                  -2.612
REMARK UNBOUND:                -2.612
REMARK SMILES CCCCCCCCCCCCCCCCCC(=O)[O-]
REMARK SMILES IDX 10 1 11 2 12 3 13 4 14 5 15 6 16 7 17 8 18 9 19 10 20 11
REMARK SMILES IDX 9 12 8 13 7 14 6 15 5 16 4 17 3 18 2 19 1 20
REMARK H PARENT
REMARK Flexibility Score: inf
ROOT
ATOM      1  C   UNL     1      11.231  54.094  36.116  1.00  0.00     0.000 C 
ENDROOT
BRANCH   1   2
ATOM      2  C   UNL     1      11.255  53.964  34.581  1.00  0.00     0.000 C 
BRANCH   2   3
ATOM      3  C   UNL     1      11.444  55.286  33.814  1.00  0.00     0.000 C 
BRANCH   3   4
ATOM      4  C   UNL     1      11.476  56.518  34.735  1.00  0.00     0.000 C 
BRANCH   4   5
ATOM      5  C   UNL     1      12.667  57.449  34.420  1.00  0.00     0.000 C 
BRANCH   5   6
ATOM      6  C   UNL     1      13.897  56.711  33.860  1.00  0.00     0.000 C 
BRANCH   6   7
ATOM      7  C   UNL     1      15.200  57.500  34.041  1.00  0.00     0.006 C 
BRANCH   7   8
ATOM      8  C   UNL     1      16.257  57.066  33.022  1.00  0.00     0.053 C 
BRANCH   8   9
ATOM      9  C   UNL     1      17.205  58.190  32.747  1.00  0.00     0.041 C 
ATOM     10  O   UNL     1      18.320  58.238  33.330  1.00  0.00    -0.550 OA
ATOM     11  O   UNL     1      16.826  59.224  31.900  1.00  0.00    -0.550 OA
ENDBRANCH   8   9
ENDBRANCH   7   8
ENDBRANCH   6   7
ENDBRANCH   5   6
ENDBRANCH   4   5
ENDBRANCH   3   4
ENDBRANCH   2   3
ENDBRANCH   1   2
BRANCH   1  12
ATOM     12  C   UNL     1      12.440  53.429  36.795  1.00  0.00     0.000 C 
BRANCH  12  13
ATOM     13  C   UNL     1      13.579  54.421  37.096  1.00  0.00    -0.000 C 
BRANCH  13  14
ATOM     14  C   UNL     1      14.863  54.215  36.272  1.00  0.00    -0.000 C 
BRANCH  14  15
ATOM     15  C   UNL     1      14.914  52.849  35.571  1.00  0.00    -0.000 C 
BRANCH  15  16
ATOM     16  C   UNL     1      15.672  52.936  34.241  1.00  0.00    -0.000 C 
BRANCH  16  17
ATOM     17  C   UNL     1      14.722  53.305  33.092  1.00  0.00    -0.000 C 
BRANCH  17  18
ATOM     18  C   UNL     1      13.875  52.114  32.618  1.00  0.00    -0.000 C 
BRANCH  18  19
ATOM     19  C   UNL     1      14.733  50.942  32.121  1.00  0.00    -0.003 C 
ATOM     20  C   UNL     1      14.011  49.611  32.316  1.00  0.00     0.004 C 
ENDBRANCH  18  19
ENDBRANCH  17  18
ENDBRANCH  16  17
ENDBRANCH  15  16
ENDBRANCH  14  15
ENDBRANCH  13  14
ENDBRANCH  12  13
ENDBRANCH   1  12
TORSDOF 16
ENDMDL
MODEL 2
REMARK VINA RESULT:    -4.277      1.634      4.053
REMARK INTER + INTRA:         -10.890
REMARK INTER:                  -8.348
REMARK INTRA:                  -2.542
REMARK UNBOUND:                -2.612
REMARK SMILES CCCCCCCCCCCCCCCCCC(=O)[O-]
REMARK SMILES IDX 10 1 11 2 12 3 13 4 14 5 15 6 16 7 17 8 18 9 19 10 20 11
REMARK SMILES IDX 9 12 8 13 7 14 6 15 5 16 4 17 3 18 2 19 1 20
REMARK H PARENT
REMARK Flexibility Score: inf
ROOT
ATOM      1  C   UNL     1      13.843  54.781  32.378  1.00  0.00     0.000 C 
ENDROOT
BRANCH   1   2
ATOM      2  C   UNL     1      13.276  56.039  33.062  1.00  0.00     0.000 C 
BRANCH   2   3
ATOM      3  C   UNL     1      14.228  57.248  33.106  1.00  0.00     0.000 C 
BRANCH   3   4
ATOM      4  C   UNL     1      15.605  56.910  33.705  1.00  0.00     0.000 C 
BRANCH   4   5
ATOM      5  C   UNL     1      16.711  56.862  32.629  1.00  0.00     0.000 C 
BRANCH   5   6
ATOM      6  C   UNL     1      17.607  58.114  32.606  1.00  0.00     0.000 C 
BRANCH   6   7
ATOM      7  C   UNL     1      17.460  58.975  33.867  1.00  0.00     0.006 C 
BRANCH   7   8
ATOM      8  C   UNL     1      17.221  60.445  33.509  1.00  0.00     0.053 C 
BRANCH   8   9
ATOM      9  C   UNL     1      15.768  60.687  33.247  1.00  0.00     0.041 C 
ATOM     10  O   UNL     1      14.941  60.675  34.196  1.00  0.00    -0.550 OA
ATOM     11  O   UNL     1      15.318  60.852  31.943  1.00  0.00    -0.550 OA
ENDBRANCH   8   9
ENDBRANCH   7   8
ENDBRANCH   6   7
ENDBRANCH   5   6
ENDBRANCH   4   5
ENDBRANCH   3   4
ENDBRANCH   2   3
ENDBRANCH   1   2
BRANCH   1  12
ATOM     12  C   UNL     1      13.190  53.480  32.874  1.00  0.00     0.000 C 
BRANCH  12  13
ATOM     13  C   UNL     1      14.213  52.361  33.146  1.00  0.00    -0.000 C 
BRANCH  13  14
ATOM     14  C   UNL     1      15.413  52.768  34.020  1.00  0.00    -0.000 C 
BRANCH  14  15
ATOM     15  C   UNL     1      15.090  52.766  35.522  1.00  0.00    -0.000 C 
BRANCH  15  16
ATOM     16  C   UNL     1      15.091  54.191  36.090  1.00  0.00    -0.000 C 
BRANCH  16  17
ATOM     17  C   UNL     1      13.864  54.426  36.983  1.00  0.00    -0.000 C 
BRANCH  17  18
ATOM     18  C   UNL     1      12.781  53.353  36.796  1.00  0.00    -0.000 C 
BRANCH  18  19
ATOM     19  C   UNL     1      11.522  53.900  36.108  1.00  0.00    -0.003 C 
ATOM     20  C   UNL     1      11.412  55.412  36.284  1.00  0.00     0.004 C 
ENDBRANCH  18  19
ENDBRANCH  17  18
ENDBRANCH  16  17
ENDBRANCH  15  16
ENDBRANCH  14  15
ENDBRANCH  13  14
ENDBRANCH  12  13
ENDBRANCH   1  12
TORSDOF 16
ENDMDL
MODEL 3
REMARK VINA RESULT:    -4.240      1.282      1.948
REMARK INTER + INTRA:         -10.819
REMARK INTER:                  -8.011
REMARK INTRA:                  -2.808
REMARK UNBOUND:                -2.612
REMARK SMILES CCCCCCCCCCCCCCCCCC(=O)[O-]
REMARK SMILES IDX 10 1 11 2 12 3 13 4 14 5 15 6 16 7 17 8 18 9 19 10 20 11
REMARK SMILES IDX 9 12 8 13 7 14 6 15 5 16 4 17 3 18 2 19 1 20
REMARK H PARENT
REMARK Flexibility Score: inf
ROOT
ATOM      1  C   UNL     1      12.728  54.408  36.963  1.00  0.00     0.000 C 
ENDROOT
BRANCH   1   2
ATOM      2  C   UNL     1      11.540  54.637  36.010  1.00  0.00     0.000 C 
BRANCH   2   3
ATOM      3  C   UNL     1      11.890  55.332  34.681  1.00  0.00     0.000 C 
BRANCH   3   4
ATOM      4  C   UNL     1      12.801  56.559  34.863  1.00  0.00     0.000 C 
BRANCH   4   5
ATOM      5  C   UNL     1      13.665  56.832  33.613  1.00  0.00     0.000 C 
BRANCH   5   6
ATOM      6  C   UNL     1      15.132  57.171  33.937  1.00  0.00     0.000 C 
BRANCH   6   7
ATOM      7  C   UNL     1      16.088  56.843  32.784  1.00  0.00     0.006 C 
BRANCH   7   8
ATOM      8  C   UNL     1      17.378  57.662  32.884  1.00  0.00     0.053 C 
BRANCH   8   9
ATOM      9  C   UNL     1      17.090  59.114  32.663  1.00  0.00     0.041 C 
ATOM     10  O   UNL     1      17.350  59.956  33.562  1.00  0.00    -0.550 OA
ATOM     11  O   UNL     1      16.466  59.526  31.493  1.00  0.00    -0.550 OA
ENDBRANCH   8   9
ENDBRANCH   7   8
ENDBRANCH   6   7
ENDBRANCH   5   6
ENDBRANCH   4   5
ENDBRANCH   3   4
ENDBRANCH   2   3
ENDBRANCH   1   2
BRANCH   1  12
ATOM     12  C   UNL     1      13.084  52.921  37.134  1.00  0.00     0.000 C 
BRANCH  12  13
ATOM     13  C   UNL     1      14.333  52.507  36.332  1.00  0.00    -0.000 C 
BRANCH  13  14
ATOM     14  C   UNL     1      15.101  53.667  35.672  1.00  0.00    -0.000 C 
BRANCH  14  15
ATOM     15  C   UNL     1      15.308  53.468  34.162  1.00  0.00    -0.000 C 
BRANCH  15  16
ATOM     16  C   UNL     1      14.584  52.210  33.665  1.00  0.00    -0.000 C 
BRANCH  16  17
ATOM     17  C   UNL     1      13.395  52.579  32.767  1.00  0.00    -0.000 C 
BRANCH  17  18
ATOM     18  C   UNL     1      13.700  53.765  31.839  1.00  0.00    -0.000 C 
BRANCH  18  19
ATOM     19  C   UNL     1      14.386  53.331  30.535  1.00  0.00    -0.003 C 
ATOM     20  C   UNL     1      15.473  54.323  30.131  1.00  0.00     0.004 C 
ENDBRANCH  18  19
ENDBRANCH  17  18
ENDBRANCH  16  17
ENDBRANCH  15  16
ENDBRANCH  14  15
ENDBRANCH  13  14
ENDBRANCH  12  13
ENDBRANCH   1  12
TORSDOF 16
ENDMDL
MODEL 4
REMARK VINA RESULT:    -4.211      1.288      2.451
REMARK INTER + INTRA:         -10.762
REMARK INTER:                  -8.171
REMARK INTRA:                  -2.591
REMARK UNBOUND:                -2.612
REMARK SMILES CCCCCCCCCCCCCCCCCC(=O)[O-]
REMARK SMILES IDX 10 1 11 2 12 3 13 4 14 5 15 6 16 7 17 8 18 9 19 10 20 11
REMARK SMILES IDX 9 12 8 13 7 14 6 15 5 16 4 17 3 18 2 19 1 20
REMARK H PARENT
REMARK Flexibility Score: inf
ROOT
ATOM      1  C   UNL     1      11.552  55.573  34.315  1.00  0.00     0.000 C 
ENDROOT
BRANCH   1   2
ATOM      2  C   UNL     1      11.839  57.071  34.532  1.00  0.00     0.000 C 
BRANCH   2   3
ATOM      3  C   UNL     1      13.308  57.491  34.342  1.00  0.00     0.000 C 
BRANCH   3   4
ATOM      4  C   UNL     1      14.099  56.528  33.439  1.00  0.00     0.000 C 
BRANCH   4   5
ATOM      5  C   UNL     1      15.613  56.559  33.741  1.00  0.00     0.000 C 
BRANCH   5   6
ATOM      6  C   UNL     1      16.495  56.561  32.479  1.00  0.00     0.000 C 
BRANCH   6   7
ATOM      7  C   UNL     1      17.124  57.931  32.194  1.00  0.00     0.006 C 
BRANCH   7   8
ATOM      8  C   UNL     1      17.741  58.532  33.459  1.00  0.00     0.053 C 
BRANCH   8   9
ATOM      9  C   UNL     1      17.223  59.918  33.682  1.00  0.00     0.041 C 
ATOM     10  O   UNL     1      16.703  60.231  34.785  1.00  0.00    -0.550 OA
ATOM     11  O   UNL     1      17.248  60.842  32.645  1.00  0.00    -0.550 OA
ENDBRANCH   8   9
ENDBRANCH   7   8
ENDBRANCH   6   7
ENDBRANCH   5   6
ENDBRANCH   4   5
ENDBRANCH   3   4
ENDBRANCH   2   3
ENDBRANCH   1   2
BRANCH   1  12
ATOM     12  C   UNL     1      10.995  54.879  35.570  1.00  0.00     0.000 C 
BRANCH  12  13
ATOM     13  C   UNL     1      11.959  53.829  36.152  1.00  0.00    -0.000 C 
BRANCH  13  14
ATOM     14  C   UNL     1      13.067  54.390  37.062  1.00  0.00    -0.000 C 
BRANCH  14  15
ATOM     15  C   UNL     1      14.462  54.322  36.421  1.00  0.00    -0.000 C 
BRANCH  15  16
ATOM     16  C   UNL     1      14.758  52.914  35.890  1.00  0.00    -0.000 C 
BRANCH  16  17
ATOM     17  C   UNL     1      15.457  52.978  34.524  1.00  0.00    -0.000 C 
BRANCH  17  18
ATOM     18  C   UNL     1      14.705  52.197  33.436  1.00  0.00    -0.000 C 
BRANCH  18  19
ATOM     19  C   UNL     1      13.901  53.114  32.502  1.00  0.00    -0.003 C 
ATOM     20  C   UNL     1      12.468  52.613  32.340  1.00  0.00     0.004 C 
ENDBRANCH  18  19
ENDBRANCH  17  18
ENDBRANCH  16  17
ENDBRANCH  15  16
ENDBRANCH  14  15
ENDBRANCH  13  14
ENDBRANCH  12  13
ENDBRANCH   1  12
TORSDOF 16
ENDMDL
MODEL 5
REMARK VINA RESULT:    -4.207      1.534      4.398
REMARK INTER + INTRA:         -10.755
REMARK INTER:                  -8.806
REMARK INTRA:                  -1.949
REMARK UNBOUND:                -2.612
REMARK SMILES CCCCCCCCCCCCCCCCCC(=O)[O-]
REMARK SMILES IDX 10 1 11 2 12 3 13 4 14 5 15 6 16 7 17 8 18 9 19 10 20 11
REMARK SMILES IDX 9 12 8 13 7 14 6 15 5 16 4 17 3 18 2 19 1 20
REMARK H PARENT
REMARK Flexibility Score: inf
ROOT
ATOM      1  C   UNL     1      15.743  53.097  34.472  1.00  0.00     0.000 C 
ENDROOT
BRANCH   1   2
ATOM      2  C   UNL     1      14.684  53.141  33.354  1.00  0.00     0.000 C 
BRANCH   2   3
ATOM      3  C   UNL     1      14.683  54.424  32.503  1.00  0.00     0.000 C 
BRANCH   3   4
ATOM      4  C   UNL     1      14.190  55.661  33.275  1.00  0.00     0.000 C 
BRANCH   4   5
ATOM      5  C   UNL     1      15.332  56.659  33.565  1.00  0.00     0.000 C 
BRANCH   5   6
ATOM      6  C   UNL     1      16.549  56.492  32.636  1.00  0.00     0.000 C 
BRANCH   6   7
ATOM      7  C   UNL     1      17.537  57.661  32.733  1.00  0.00     0.006 C 
BRANCH   7   8
ATOM      8  C   UNL     1      17.019  58.748  33.678  1.00  0.00     0.053 C 
BRANCH   8   9
ATOM      9  C   UNL     1      17.003  60.074  32.985  1.00  0.00     0.041 C 
ATOM     10  O   UNL     1      17.305  61.123  33.614  1.00  0.00    -0.550 OA
ATOM     11  O   UNL     1      16.584  60.160  31.664  1.00  0.00    -0.550 OA
ENDBRANCH   8   9
ENDBRANCH   7   8
ENDBRANCH   6   7
ENDBRANCH   5   6
ENDBRANCH   4   5
ENDBRANCH   3   4
ENDBRANCH   2   3
ENDBRANCH   1   2
BRANCH   1  12
ATOM     12  C   UNL     1      15.172  53.452  35.856  1.00  0.00     0.000 C 
BRANCH  12  13
ATOM     13  C   UNL     1      14.246  52.359  36.422  1.00  0.00    -0.000 C 
BRANCH  13  14
ATOM     14  C   UNL     1      13.091  52.870  37.302  1.00  0.00    -0.000 C 
BRANCH  14  15
ATOM     15  C   UNL     1      12.607  54.272  36.902  1.00  0.00    -0.000 C 
BRANCH  15  16
ATOM     16  C   UNL     1      11.494  54.194  35.849  1.00  0.00    -0.000 C 
BRANCH  16  17
ATOM     17  C   UNL     1      11.097  55.596  35.365  1.00  0.00    -0.000 C 
BRANCH  17  18
ATOM     18  C   UNL     1      10.876  56.582  36.522  1.00  0.00    -0.000 C 
BRANCH  18  19
ATOM     19  C   UNL     1      10.946  58.047  36.069  1.00  0.00    -0.003 C 
ATOM     20  C   UNL     1      11.894  58.212  34.885  1.00  0.00     0.004 C 
ENDBRANCH  18  19
ENDBRANCH  17  18
ENDBRANCH  16  17
ENDBRANCH  15  16
ENDBRANCH  14  15
ENDBRANCH  13  14
ENDBRANCH  12  13
ENDBRANCH   1  12
TORSDOF 16
ENDMDL
MODEL 6
REMARK VINA RESULT:    -4.204      1.600      3.811
REMARK INTER + INTRA:         -10.749
REMARK INTER:                  -8.154
REMARK INTRA:                  -2.594
REMARK UNBOUND:                -2.612
REMARK SMILES CCCCCCCCCCCCCCCCCC(=O)[O-]
REMARK SMILES IDX 10 1 11 2 12 3 13 4 14 5 15 6 16 7 17 8 18 9 19 10 20 11
REMARK SMILES IDX 9 12 8 13 7 14 6 15 5 16 4 17 3 18 2 19 1 20
REMARK H PARENT
REMARK Flexibility Score: inf
ROOT
ATOM      1  C   UNL     1      12.780  57.176  34.609  1.00  0.00     0.000 C 
ENDROOT
BRANCH   1   2
ATOM      2  C   UNL     1      13.812  56.551  33.651  1.00  0.00     0.000 C 
BRANCH   2   3
ATOM      3  C   UNL     1      15.278  56.928  33.928  1.00  0.00     0.000 C 
BRANCH   3   4
ATOM      4  C   UNL     1      16.218  56.602  32.754  1.00  0.00     0.000 C 
BRANCH   4   5
ATOM      5  C   UNL     1      17.281  57.700  32.538  1.00  0.00     0.000 C 
BRANCH   5   6
ATOM      6  C   UNL     1      17.447  58.646  33.741  1.00  0.00     0.000 C 
BRANCH   6   7
ATOM      7  C   UNL     1      17.222  60.119  33.377  1.00  0.00     0.006 C 
BRANCH   7   8
ATOM      8  C   UNL     1      16.072  60.721  34.188  1.00  0.00     0.053 C 
BRANCH   8   9
ATOM      9  C   UNL     1      14.767  60.480  33.498  1.00  0.00     0.041 C 
ATOM     10  O   UNL     1      13.695  60.458  34.158  1.00  0.00    -0.550 OA
ATOM     11  O   UNL     1      14.744  60.208  32.136  1.00  0.00    -0.550 OA
ENDBRANCH   8   9
ENDBRANCH   7   8
ENDBRANCH   6   7
ENDBRANCH   5   6
ENDBRANCH   4   5
ENDBRANCH   3   4
ENDBRANCH   2   3
ENDBRANCH   1   2
BRANCH   1  12
ATOM     12  C   UNL     1      11.420  56.459  34.581  1.00  0.00     0.000 C 
BRANCH  12  13
ATOM     13  C   UNL     1      11.541  54.958  34.256  1.00  0.00    -0.000 C 
BRANCH  13  14
ATOM     14  C   UNL     1      11.222  54.007  35.425  1.00  0.00    -0.000 C 
BRANCH  14  15
ATOM     15  C   UNL     1      12.023  54.328  36.695  1.00  0.00    -0.000 C 
BRANCH  15  16
ATOM     16  C   UNL     1      13.204  53.363  36.865  1.00  0.00    -0.000 C 
BRANCH  16  17
ATOM     17  C   UNL     1      14.491  53.962  36.279  1.00  0.00    -0.000 C 
BRANCH  17  18
ATOM     18  C   UNL     1      15.329  52.929  35.511  1.00  0.00    -0.000 C 
BRANCH  18  19
ATOM     19  C   UNL     1      15.334  53.184  33.997  1.00  0.00    -0.003 C 
ATOM     20  C   UNL     1      14.136  52.520  33.323  1.00  0.00     0.004 C 
ENDBRANCH  18  19
ENDBRANCH  17  18
ENDBRANCH  16  17
ENDBRANCH  15  16
ENDBRANCH  14  15
ENDBRANCH  13  14
ENDBRANCH  12  13
ENDBRANCH   1  12
TORSDOF 16
ENDMDL
MODEL 7
REMARK VINA RESULT:    -4.200      2.847      5.807
REMARK INTER + INTRA:         -10.740
REMARK INTER:                  -8.268
REMARK INTRA:                  -2.472
REMARK UNBOUND:                -2.612
REMARK SMILES CCCCCCCCCCCCCCCCCC(=O)[O-]
REMARK SMILES IDX 10 1 11 2 12 3 13 4 14 5 15 6 16 7 17 8 18 9 19 10 20 11
REMARK SMILES IDX 9 12 8 13 7 14 6 15 5 16 4 17 3 18 2 19 1 20
REMARK H PARENT
REMARK Flexibility Score: inf
ROOT
ATOM      1  C   UNL     1      11.101  54.532  35.666  1.00  0.00     0.000 C 
ENDROOT
BRANCH   1   2
ATOM      2  C   UNL     1      12.090  53.645  36.447  1.00  0.00     0.000 C 
BRANCH   2   3
ATOM      3  C   UNL     1      13.190  54.404  37.209  1.00  0.00     0.000 C 
BRANCH   3   4
ATOM      4  C   UNL     1      14.598  54.163  36.636  1.00  0.00     0.000 C 
BRANCH   4   5
ATOM      5  C   UNL     1      14.674  52.863  35.806  1.00  0.00     0.000 C 
BRANCH   5   6
ATOM      6  C   UNL     1      15.761  52.888  34.716  1.00  0.00     0.000 C 
BRANCH   6   7
ATOM      7  C   UNL     1      15.224  52.513  33.329  1.00  0.00     0.006 C 
BRANCH   7   8
ATOM      8  C   UNL     1      13.710  52.726  33.245  1.00  0.00     0.053 C 
BRANCH   8   9
ATOM      9  C   UNL     1      13.155  52.034  32.040  1.00  0.00     0.041 C 
ATOM     10  O   UNL     1      13.172  50.777  31.966  1.00  0.00    -0.550 OA
ATOM     11  O   UNL     1      12.685  52.781  30.967  1.00  0.00    -0.550 OA
ENDBRANCH   8   9
ENDBRANCH   7   8
ENDBRANCH   6   7
ENDBRANCH   5   6
ENDBRANCH   4   5
ENDBRANCH   3   4
ENDBRANCH   2   3
ENDBRANCH   1   2
BRANCH   1  12
ATOM     12  C   UNL     1      11.626  55.959  35.436  1.00  0.00     0.000 C 
BRANCH  12  13
ATOM     13  C   UNL     1      12.337  56.126  34.079  1.00  0.00    -0.000 C 
BRANCH  13  14
ATOM     14  C   UNL     1      13.758  56.713  34.152  1.00  0.00    -0.000 C 
BRANCH  14  15
ATOM     15  C   UNL     1      14.605  56.392  32.911  1.00  0.00    -0.000 C 
BRANCH  15  16
ATOM     16  C   UNL     1      16.089  56.259  33.273  1.00  0.00    -0.000 C 
BRANCH  16  17
ATOM     17  C   UNL     1      16.958  57.129  32.354  1.00  0.00    -0.000 C 
BRANCH  17  18
ATOM     18  C   UNL     1      17.789  58.164  33.129  1.00  0.00    -0.000 C 
BRANCH  18  19
ATOM     19  C   UNL     1      17.173  59.569  33.080  1.00  0.00    -0.003 C 
ATOM     20  C   UNL     1      16.740  60.028  34.470  1.00  0.00     0.004 C 
ENDBRANCH  18  19
ENDBRANCH  17  18
ENDBRANCH  16  17
ENDBRANCH  15  16
ENDBRANCH  14  15
ENDBRANCH  13  14
ENDBRANCH  12  13
ENDBRANCH   1  12
TORSDOF 16
ENDMDL
MODEL 8
REMARK VINA RESULT:    -4.160      1.249      2.677
REMARK INTER + INTRA:         -10.663
REMARK INTER:                  -8.363
REMARK INTRA:                  -2.300
REMARK UNBOUND:                -2.612
REMARK SMILES CCCCCCCCCCCCCCCCCC(=O)[O-]
REMARK SMILES IDX 10 1 11 2 12 3 13 4 14 5 15 6 16 7 17 8 18 9 19 10 20 11
REMARK SMILES IDX 9 12 8 13 7 14 6 15 5 16 4 17 3 18 2 19 1 20
REMARK H PARENT
REMARK Flexibility Score: inf
ROOT
ATOM      1  C   UNL     1      12.388  54.731  37.119  1.00  0.00     0.000 C 
ENDROOT
BRANCH   1   2
ATOM      2  C   UNL     1      12.743  53.237  36.988  1.00  0.00     0.000 C 
BRANCH   2   3
ATOM      3  C   UNL     1      14.132  52.943  36.392  1.00  0.00     0.000 C 
BRANCH   3   4
ATOM      4  C   UNL     1      14.993  54.206  36.215  1.00  0.00     0.000 C 
BRANCH   4   5
ATOM      5  C   UNL     1      15.219  54.552  34.728  1.00  0.00     0.000 C 
BRANCH   5   6
ATOM      6  C   UNL     1      14.783  55.980  34.352  1.00  0.00     0.000 C 
BRANCH   6   7
ATOM      7  C   UNL     1      15.761  56.670  33.393  1.00  0.00     0.006 C 
BRANCH   7   8
ATOM      8  C   UNL     1      15.718  58.191  33.557  1.00  0.00     0.053 C 
BRANCH   8   9
ATOM      9  C   UNL     1      17.090  58.769  33.409  1.00  0.00     0.041 C 
ATOM     10  O   UNL     1      18.034  58.058  32.973  1.00  0.00    -0.550 OA
ATOM     11  O   UNL     1      17.342  60.072  33.820  1.00  0.00    -0.550 OA
ENDBRANCH   8   9
ENDBRANCH   7   8
ENDBRANCH   6   7
ENDBRANCH   5   6
ENDBRANCH   4   5
ENDBRANCH   3   4
ENDBRANCH   2   3
ENDBRANCH   1   2
BRANCH   1  12
ATOM     12  C   UNL     1      11.292  55.178  36.138  1.00  0.00     0.000 C 
BRANCH  12  13
ATOM     13  C   UNL     1      10.875  54.065  35.157  1.00  0.00    -0.000 C 
BRANCH  13  14
ATOM     14  C   UNL     1      11.292  54.293  33.693  1.00  0.00    -0.000 C 
BRANCH  14  15
ATOM     15  C   UNL     1      12.289  53.241  33.182  1.00  0.00    -0.000 C 
BRANCH  15  16
ATOM     16  C   UNL     1      13.023  53.737  31.929  1.00  0.00    -0.000 C 
BRANCH  16  17
ATOM     17  C   UNL     1      13.816  52.599  31.272  1.00  0.00    -0.000 C 
BRANCH  17  18
ATOM     18  C   UNL     1      14.818  51.942  32.234  1.00  0.00    -0.000 C 
BRANCH  18  19
ATOM     19  C   UNL     1      15.073  50.465  31.900  1.00  0.00    -0.003 C 
ATOM     20  C   UNL     1      13.854  49.608  32.231  1.00  0.00     0.004 C 
ENDBRANCH  18  19
ENDBRANCH  17  18
ENDBRANCH  16  17
ENDBRANCH  15  16
ENDBRANCH  14  15
ENDBRANCH  13  14
ENDBRANCH  12  13
ENDBRANCH   1  12
TORSDOF 16
ENDMDL
MODEL 9
REMARK VINA RESULT:    -4.129      1.646      4.661
REMARK INTER + INTRA:         -10.602
REMARK INTER:                  -7.760
REMARK INTRA:                  -2.842
REMARK UNBOUND:                -2.612
REMARK SMILES CCCCCCCCCCCCCCCCCC(=O)[O-]
REMARK SMILES IDX 10 1 11 2 12 3 13 4 14 5 15 6 16 7 17 8 18 9 19 10 20 11
REMARK SMILES IDX 9 12 8 13 7 14 6 15 5 16 4 17 3 18 2 19 1 20
REMARK H PARENT
REMARK Flexibility Score: inf
ROOT
ATOM      1  C   UNL     1      13.039  52.885  37.127  1.00  0.00     0.000 C 
ENDROOT
BRANCH   1   2
ATOM      2  C   UNL     1      14.322  52.499  36.367  1.00  0.00     0.000 C 
BRANCH   2   3
ATOM      3  C   UNL     1      15.157  53.684  35.848  1.00  0.00     0.000 C 
BRANCH   3   4
ATOM      4  C   UNL     1      15.355  53.661  34.322  1.00  0.00     0.000 C 
BRANCH   4   5
ATOM      5  C   UNL     1      14.620  52.476  33.658  1.00  0.00     0.000 C 
BRANCH   5   6
ATOM      6  C   UNL     1      13.984  52.826  32.300  1.00  0.00     0.000 C 
BRANCH   6   7
ATOM      7  C   UNL     1      14.935  53.598  31.377  1.00  0.00     0.006 C 
BRANCH   7   8
ATOM      8  C   UNL     1      14.289  54.891  30.871  1.00  0.00     0.053 C 
BRANCH   8   9
ATOM      9  C   UNL     1      15.341  55.903  30.543  1.00  0.00     0.041 C 
ATOM     10  O   UNL     1      16.560  55.595  30.606  1.00  0.00    -0.550 OA
ATOM     11  O   UNL     1      14.975  57.208  30.240  1.00  0.00    -0.550 OA
ENDBRANCH   8   9
ENDBRANCH   7   8
ENDBRANCH   6   7
ENDBRANCH   5   6
ENDBRANCH   4   5
ENDBRANCH   3   4
ENDBRANCH   2   3
ENDBRANCH   1   2
BRANCH   1  12
ATOM     12  C   UNL     1      12.810  54.404  37.191  1.00  0.00     0.000 C 
BRANCH  12  13
ATOM     13  C   UNL     1      11.602  54.865  36.354  1.00  0.00    -0.000 C 
BRANCH  13  14
ATOM     14  C   UNL     1      11.584  54.364  34.898  1.00  0.00    -0.000 C 
BRANCH  14  15
ATOM     15  C   UNL     1      12.045  55.428  33.891  1.00  0.00    -0.000 C 
BRANCH  15  16
ATOM     16  C   UNL     1      12.788  56.571  34.594  1.00  0.00    -0.000 C 
BRANCH  16  17
ATOM     17  C   UNL     1      13.733  57.291  33.622  1.00  0.00    -0.000 C 
BRANCH  17  18
ATOM     18  C   UNL     1      15.205  57.206  34.055  1.00  0.00    -0.000 C 
BRANCH  18  19
ATOM     19  C   UNL     1      16.024  58.423  33.602  1.00  0.00    -0.003 C 
ATOM     20  C   UNL     1      17.359  57.994  32.999  1.00  0.00     0.004 C 
ENDBRANCH  18  19
ENDBRANCH  17  18
ENDBRANCH  16  17
ENDBRANCH  15  16
ENDBRANCH  14  15
ENDBRANCH  13  14
ENDBRANCH  12  13
ENDBRANCH   1  12
TORSDOF 16
ENDMDL
