MODEL 1
REMARK VINA RESULT:    -5.329      0.000      0.000
REMARK INTER + INTRA:          -6.272
REMARK INTER:                  -6.263
REMARK INTRA:                  -0.009
REMARK UNBOUND:                -0.009
REMARK SMILES O=c1c(O)c(-c2ccc(O)cc2)oc2cc(O)cc(O)c12
REMARK SMILES IDX 5 1 3 2 2 3 1 4 21 5 19 6 18 7 16 8 15 9 14 10 13 11 6 12
REMARK SMILES IDX 7 13 8 14 9 15 12 16 11 17 10 18 4 20 20 22 17 24
REMARK H PARENT 10 19 4 21 20 23 17 25
REMARK Flexibility Score: inf
ROOT
ATOM      1  C   UNL     1     -13.712  -3.723   2.460  1.00  0.00     0.180 A 
ATOM      2  C   UNL     1     -13.956  -3.303   1.141  1.00  0.00     0.208 A 
ATOM      3  C   UNL     1     -13.984  -1.928   0.858  1.00  0.00     0.238 A 
ATOM      4  O   UNL     1     -14.148  -1.559  -0.334  1.00  0.00    -0.285 OA
ATOM      5  C   UNL     1     -13.783  -0.990   1.900  1.00  0.00     0.111 A 
ATOM      6  C   UNL     1     -13.830   0.427   1.735  1.00  0.00     0.134 A 
ATOM      7  C   UNL     1     -13.487   1.258   2.809  1.00  0.00     0.093 A 
ATOM      8  C   UNL     1     -13.164   0.725   4.058  1.00  0.00     0.123 A 
ATOM      9  C   UNL     1     -13.174  -0.655   4.245  1.00  0.00     0.094 A 
ATOM     10  C   UNL     1     -13.476  -1.512   3.184  1.00  0.00     0.146 A 
ATOM     11  O   UNL     1     -13.463  -2.821   3.402  1.00  0.00    -0.452 OA
ENDROOT
BRANCH   1  12
ATOM     12  C   UNL     1     -13.692  -5.154   2.841  1.00  0.00     0.021 A 
ATOM     13  C   UNL     1     -12.627  -5.652   3.608  1.00  0.00     0.016 A 
ATOM     14  C   UNL     1     -12.600  -6.994   3.997  1.00  0.00     0.047 A 
ATOM     15  C   UNL     1     -13.646  -7.853   3.636  1.00  0.00     0.115 A 
ATOM     16  C   UNL     1     -14.750  -6.018   2.498  1.00  0.00     0.016 A 
ATOM     17  C   UNL     1     -14.721  -7.360   2.890  1.00  0.00     0.047 A 
BRANCH  15  18
ATOM     18  O   UNL     1     -13.630  -9.192   4.018  1.00  0.00    -0.508 OA
ATOM     19  H   UNL     1     -14.486  -9.729   4.102  1.00  0.00     0.293 HD
ENDBRANCH  15  18
ENDBRANCH   1  12
BRANCH   2  20
ATOM     20  O   UNL     1     -14.129  -4.245   0.124  1.00  0.00    -0.502 OA
ATOM     21  H   UNL     1     -13.811  -4.087  -0.825  1.00  0.00     0.293 HD
ENDBRANCH   2  20
BRANCH   6  22
ATOM     22  O   UNL     1     -14.229   1.063   0.556  1.00  0.00    -0.507 OA
ATOM     23  H   UNL     1     -13.638   1.205  -0.249  1.00  0.00     0.293 HD
ENDBRANCH   6  22
BRANCH   8  24
ATOM     24  O   UNL     1     -12.840   1.561   5.125  1.00  0.00    -0.508 OA
ATOM     25  H   UNL     1     -13.254   1.434   6.041  1.00  0.00     0.293 HD
ENDBRANCH   8  24
TORSDOF 5
ENDMDL
MODEL 2
REMARK VINA RESULT:    -5.184      2.349      7.596
REMARK INTER + INTRA:          -6.102
REMARK INTER:                  -6.210
REMARK INTRA:                   0.108
REMARK UNBOUND:                -0.009
REMARK SMILES O=c1c(O)c(-c2ccc(O)cc2)oc2cc(O)cc(O)c12
REMARK SMILES IDX 5 1 3 2 2 3 1 4 21 5 19 6 18 7 16 8 15 9 14 10 13 11 6 12
REMARK SMILES IDX 7 13 8 14 9 15 12 16 11 17 10 18 4 20 20 22 17 24
REMARK H PARENT 10 19 4 21 20 23 17 25
REMARK Flexibility Score: inf
ROOT
ATOM      1  C   UNL     1     -13.857  -6.038   2.795  1.00  0.00     0.180 A 
ATOM      2  C   UNL     1     -15.197  -6.352   2.513  1.00  0.00     0.208 A 
ATOM      3  C   UNL     1     -15.634  -7.677   2.672  1.00  0.00     0.238 A 
ATOM      4  O   UNL     1     -16.848  -7.942   2.472  1.00  0.00    -0.285 OA
ATOM      5  C   UNL     1     -14.721  -8.674   3.095  1.00  0.00     0.111 A 
ATOM      6  C   UNL     1     -15.045 -10.055   3.250  1.00  0.00     0.134 A 
ATOM      7  C   UNL     1     -14.097 -10.928   3.799  1.00  0.00     0.093 A 
ATOM      8  C   UNL     1     -12.817 -10.482   4.136  1.00  0.00     0.123 A 
ATOM      9  C   UNL     1     -12.473  -9.149   3.932  1.00  0.00     0.094 A 
ATOM     10  C   UNL     1     -13.408  -8.246   3.420  1.00  0.00     0.146 A 
ATOM     11  O   UNL     1     -13.042  -6.981   3.251  1.00  0.00    -0.452 OA
ENDROOT
BRANCH   1  12
ATOM     12  C   UNL     1     -13.316  -4.669   2.627  1.00  0.00     0.021 A 
ATOM     13  C   UNL     1     -13.615  -3.945   1.461  1.00  0.00     0.016 A 
ATOM     14  C   UNL     1     -13.134  -2.643   1.292  1.00  0.00     0.047 A 
ATOM     15  C   UNL     1     -12.360  -2.043   2.294  1.00  0.00     0.115 A 
ATOM     16  C   UNL     1     -12.554  -4.053   3.638  1.00  0.00     0.016 A 
ATOM     17  C   UNL     1     -12.076  -2.750   3.466  1.00  0.00     0.047 A 
BRANCH  15  18
ATOM     18  O   UNL     1     -11.875  -0.748   2.137  1.00  0.00    -0.508 OA
ATOM     19  H   UNL     1     -10.915  -0.511   2.359  1.00  0.00     0.293 HD
ENDBRANCH  15  18
ENDBRANCH   1  12
BRANCH   2  20
ATOM     20  O   UNL     1     -16.087  -5.349   2.119  1.00  0.00    -0.502 OA
ATOM     21  H   UNL     1     -15.925  -4.766   1.307  1.00  0.00     0.293 HD
ENDBRANCH   2  20
BRANCH   6  22
ATOM     22  O   UNL     1     -16.261 -10.621   2.860  1.00  0.00    -0.507 OA
ATOM     23  H   UNL     1     -16.856 -11.175   3.458  1.00  0.00     0.293 HD
ENDBRANCH   6  22
BRANCH   8  24
ATOM     24  O   UNL     1     -11.875 -11.362   4.666  1.00  0.00    -0.508 OA
ATOM     25  H   UNL     1     -11.772 -11.488   5.666  1.00  0.00     0.293 HD
ENDBRANCH   8  24
TORSDOF 5
ENDMDL
MODEL 3
REMARK VINA RESULT:    -5.060      1.690      3.679
REMARK INTER + INTRA:          -5.956
REMARK INTER:                  -6.061
REMARK INTRA:                   0.105
REMARK UNBOUND:                -0.009
REMARK SMILES O=c1c(O)c(-c2ccc(O)cc2)oc2cc(O)cc(O)c12
REMARK SMILES IDX 5 1 3 2 2 3 1 4 21 5 19 6 18 7 16 8 15 9 14 10 13 11 6 12
REMARK SMILES IDX 7 13 8 14 9 15 12 16 11 17 10 18 4 20 20 22 17 24
REMARK H PARENT 10 19 4 21 20 23 17 25
REMARK Flexibility Score: inf
ROOT
ATOM      1  C   UNL     1     -13.582  -1.728   2.655  1.00  0.00     0.180 A 
ATOM      2  C   UNL     1     -13.267  -0.810   3.672  1.00  0.00     0.208 A 
ATOM      3  C   UNL     1     -13.414   0.563   3.418  1.00  0.00     0.238 A 
ATOM      4  O   UNL     1     -13.184   1.378   4.349  1.00  0.00    -0.285 OA
ATOM      5  C   UNL     1     -13.859   1.001   2.147  1.00  0.00     0.111 A 
ATOM      6  C   UNL     1     -14.006   2.369   1.768  1.00  0.00     0.134 A 
ATOM      7  C   UNL     1     -14.579   2.683   0.528  1.00  0.00     0.093 A 
ATOM      8  C   UNL     1     -14.947   1.680  -0.370  1.00  0.00     0.123 A 
ATOM      9  C   UNL     1     -14.753   0.343  -0.033  1.00  0.00     0.094 A 
ATOM     10  C   UNL     1     -14.218  -0.003   1.211  1.00  0.00     0.146 A 
ATOM     11  O   UNL     1     -14.058  -1.290   1.497  1.00  0.00    -0.452 OA
ENDROOT
BRANCH   1  12
ATOM     12  C   UNL     1     -13.429  -3.190   2.839  1.00  0.00     0.021 A 
ATOM     13  C   UNL     1     -14.402  -4.059   2.320  1.00  0.00     0.016 A 
ATOM     14  C   UNL     1     -14.266  -5.443   2.462  1.00  0.00     0.047 A 
ATOM     15  C   UNL     1     -13.146  -5.977   3.113  1.00  0.00     0.115 A 
ATOM     16  C   UNL     1     -12.296  -3.734   3.474  1.00  0.00     0.016 A 
ATOM     17  C   UNL     1     -12.162  -5.119   3.614  1.00  0.00     0.047 A 
BRANCH  15  18
ATOM     18  O   UNL     1     -12.999  -7.353   3.261  1.00  0.00    -0.508 OA
ATOM     19  H   UNL     1     -12.446  -7.749   4.013  1.00  0.00     0.293 HD
ENDBRANCH  15  18
ENDBRANCH   1  12
BRANCH   2  20
ATOM     20  O   UNL     1     -12.851  -1.264   4.926  1.00  0.00    -0.502 OA
ATOM     21  H   UNL     1     -12.853  -0.672   5.748  1.00  0.00     0.293 HD
ENDBRANCH   2  20
BRANCH   6  22
ATOM     22  O   UNL     1     -13.585   3.447   2.552  1.00  0.00    -0.507 OA
ATOM     23  H   UNL     1     -12.629   3.621   2.823  1.00  0.00     0.293 HD
ENDBRANCH   6  22
BRANCH   8  24
ATOM     24  O   UNL     1     -15.501   2.003  -1.607  1.00  0.00    -0.508 OA
ATOM     25  H   UNL     1     -15.100   1.659  -2.473  1.00  0.00     0.293 HD
ENDBRANCH   8  24
TORSDOF 5
ENDMDL
MODEL 4
REMARK VINA RESULT:    -4.910      6.112      8.652
REMARK INTER + INTRA:          -5.779
REMARK INTER:                  -5.522
REMARK INTRA:                  -0.257
REMARK UNBOUND:                -0.009
REMARK SMILES O=c1c(O)c(-c2ccc(O)cc2)oc2cc(O)cc(O)c12
REMARK SMILES IDX 5 1 3 2 2 3 1 4 21 5 19 6 18 7 16 8 15 9 14 10 13 11 6 12
REMARK SMILES IDX 7 13 8 14 9 15 12 16 11 17 10 18 4 20 20 22 17 24
REMARK H PARENT 10 19 4 21 20 23 17 25
REMARK Flexibility Score: inf
ROOT
ATOM      1  C   UNL     1     -13.597   3.365  -0.354  1.00  0.00     0.180 A 
ATOM      2  C   UNL     1     -14.502   2.343  -0.017  1.00  0.00     0.208 A 
ATOM      3  C   UNL     1     -14.686   2.017   1.336  1.00  0.00     0.238 A 
ATOM      4  O   UNL     1     -15.538   1.140   1.637  1.00  0.00    -0.285 OA
ATOM      5  C   UNL     1     -13.952   2.705   2.334  1.00  0.00     0.111 A 
ATOM      6  C   UNL     1     -14.031   2.429   3.732  1.00  0.00     0.134 A 
ATOM      7  C   UNL     1     -13.358   3.260   4.637  1.00  0.00     0.093 A 
ATOM      8  C   UNL     1     -12.559   4.314   4.190  1.00  0.00     0.123 A 
ATOM      9  C   UNL     1     -12.429   4.554   2.825  1.00  0.00     0.094 A 
ATOM     10  C   UNL     1     -13.116   3.766   1.899  1.00  0.00     0.146 A 
ATOM     11  O   UNL     1     -12.973   4.035   0.606  1.00  0.00    -0.452 OA
ENDROOT
BRANCH   1  12
ATOM     12  C   UNL     1     -13.330   3.748  -1.759  1.00  0.00     0.021 A 
ATOM     13  C   UNL     1     -12.198   3.236  -2.414  1.00  0.00     0.016 A 
ATOM     14  C   UNL     1     -11.939   3.567  -3.747  1.00  0.00     0.047 A 
ATOM     15  C   UNL     1     -12.818   4.403  -4.448  1.00  0.00     0.115 A 
ATOM     16  C   UNL     1     -14.220   4.571  -2.477  1.00  0.00     0.016 A 
ATOM     17  C   UNL     1     -13.958   4.900  -3.810  1.00  0.00     0.047 A 
BRANCH  15  18
ATOM     18  O   UNL     1     -12.570   4.740  -5.777  1.00  0.00    -0.508 OA
ATOM     19  H   UNL     1     -12.827   4.121  -6.537  1.00  0.00     0.293 HD
ENDBRANCH  15  18
ENDBRANCH   1  12
BRANCH   2  20
ATOM     20  O   UNL     1     -15.232   1.692  -1.015  1.00  0.00    -0.502 OA
ATOM     21  H   UNL     1     -14.794   1.283  -1.831  1.00  0.00     0.293 HD
ENDBRANCH   2  20
BRANCH   6  22
ATOM     22  O   UNL     1     -14.726   1.346   4.277  1.00  0.00    -0.507 OA
ATOM     23  H   UNL     1     -14.506   0.907   5.158  1.00  0.00     0.293 HD
ENDBRANCH   6  22
BRANCH   8  24
ATOM     24  O   UNL     1     -11.880   5.125   5.098  1.00  0.00    -0.508 OA
ATOM     25  H   UNL     1     -11.572   6.057   4.848  1.00  0.00     0.293 HD
ENDBRANCH   8  24
TORSDOF 5
ENDMDL
MODEL 5
REMARK VINA RESULT:    -4.478      2.424      4.750
REMARK INTER + INTRA:          -5.272
REMARK INTER:                  -4.985
REMARK INTRA:                  -0.287
REMARK UNBOUND:                -0.009
REMARK SMILES O=c1c(O)c(-c2ccc(O)cc2)oc2cc(O)cc(O)c12
REMARK SMILES IDX 5 1 3 2 2 3 1 4 21 5 19 6 18 7 16 8 15 9 14 10 13 11 6 12
REMARK SMILES IDX 7 13 8 14 9 15 12 16 11 17 10 18 4 20 20 22 17 24
REMARK H PARENT 10 19 4 21 20 23 17 25
REMARK Flexibility Score: inf
ROOT
ATOM      1  C   UNL     1     -13.300   0.011   2.130  1.00  0.00     0.180 A 
ATOM      2  C   UNL     1     -12.789   0.797   3.177  1.00  0.00     0.208 A 
ATOM      3  C   UNL     1     -12.743   2.192   3.021  1.00  0.00     0.238 A 
ATOM      4  O   UNL     1     -12.336   2.895   3.983  1.00  0.00    -0.285 OA
ATOM      5  C   UNL     1     -13.193   2.782   1.815  1.00  0.00     0.111 A 
ATOM      6  C   UNL     1     -13.154   4.180   1.534  1.00  0.00     0.134 A 
ATOM      7  C   UNL     1     -13.747   4.664   0.360  1.00  0.00     0.093 A 
ATOM      8  C   UNL     1     -14.316   3.794  -0.571  1.00  0.00     0.123 A 
ATOM      9  C   UNL     1     -14.305   2.422  -0.333  1.00  0.00     0.094 A 
ATOM     10  C   UNL     1     -13.755   1.912   0.845  1.00  0.00     0.146 A 
ATOM     11  O   UNL     1     -13.774   0.598   1.038  1.00  0.00    -0.452 OA
ENDROOT
BRANCH   1  12
ATOM     12  C   UNL     1     -13.358  -1.466   2.209  1.00  0.00     0.021 A 
ATOM     13  C   UNL     1     -12.268  -2.227   1.757  1.00  0.00     0.016 A 
ATOM     14  C   UNL     1     -12.292  -3.622   1.844  1.00  0.00     0.047 A 
ATOM     15  C   UNL     1     -13.401  -4.274   2.398  1.00  0.00     0.115 A 
ATOM     16  C   UNL     1     -14.461  -2.127   2.783  1.00  0.00     0.016 A 
ATOM     17  C   UNL     1     -14.482  -3.523   2.869  1.00  0.00     0.047 A 
BRANCH  15  18
ATOM     18  O   UNL     1     -13.437  -5.663   2.489  1.00  0.00    -0.508 OA
ATOM     19  H   UNL     1     -12.911  -6.250   1.852  1.00  0.00     0.293 HD
ENDBRANCH  15  18
ENDBRANCH   1  12
BRANCH   2  20
ATOM     20  O   UNL     1     -12.371   0.197   4.368  1.00  0.00    -0.502 OA
ATOM     21  H   UNL     1     -13.014  -0.037   5.114  1.00  0.00     0.293 HD
ENDBRANCH   2  20
BRANCH   6  22
ATOM     22  O   UNL     1     -12.529   5.125   2.352  1.00  0.00    -0.507 OA
ATOM     23  H   UNL     1     -11.607   5.020   2.750  1.00  0.00     0.293 HD
ENDBRANCH   6  22
BRANCH   8  24
ATOM     24  O   UNL     1     -14.889   4.283  -1.743  1.00  0.00    -0.508 OA
ATOM     25  H   UNL     1     -15.384   5.167  -1.763  1.00  0.00     0.293 HD
ENDBRANCH   8  24
TORSDOF 5
ENDMDL
MODEL 6
REMARK VINA RESULT:    -4.441      3.616      8.493
REMARK INTER + INTRA:          -5.228
REMARK INTER:                  -5.177
REMARK INTRA:                  -0.051
REMARK UNBOUND:                -0.009
REMARK SMILES O=c1c(O)c(-c2ccc(O)cc2)oc2cc(O)cc(O)c12
REMARK SMILES IDX 5 1 3 2 2 3 1 4 21 5 19 6 18 7 16 8 15 9 14 10 13 11 6 12
REMARK SMILES IDX 7 13 8 14 9 15 12 16 11 17 10 18 4 20 20 22 17 24
REMARK H PARENT 10 19 4 21 20 23 17 25
REMARK Flexibility Score: inf
ROOT
ATOM      1  C   UNL     1     -13.535   2.679   0.225  1.00  0.00     0.180 A 
ATOM      2  C   UNL     1     -13.027   3.358   1.346  1.00  0.00     0.208 A 
ATOM      3  C   UNL     1     -12.935   2.676   2.570  1.00  0.00     0.238 A 
ATOM      4  O   UNL     1     -12.429   3.271   3.558  1.00  0.00    -0.285 OA
ATOM      5  C   UNL     1     -13.366   1.330   2.662  1.00  0.00     0.111 A 
ATOM      6  C   UNL     1     -13.355   0.556   3.861  1.00  0.00     0.134 A 
ATOM      7  C   UNL     1     -13.682  -0.806   3.805  1.00  0.00     0.093 A 
ATOM      8  C   UNL     1     -14.082  -1.402   2.608  1.00  0.00     0.123 A 
ATOM      9  C   UNL     1     -14.153  -0.641   1.445  1.00  0.00     0.094 A 
ATOM     10  C   UNL     1     -13.798   0.711   1.460  1.00  0.00     0.146 A 
ATOM     11  O   UNL     1     -13.869   1.399   0.327  1.00  0.00    -0.452 OA
ENDROOT
BRANCH   1  12
ATOM     12  C   UNL     1     -13.686   3.337  -1.093  1.00  0.00     0.021 A 
ATOM     13  C   UNL     1     -13.135   2.735  -2.235  1.00  0.00     0.016 A 
ATOM     14  C   UNL     1     -13.284   3.328  -3.492  1.00  0.00     0.047 A 
ATOM     15  C   UNL     1     -14.001   4.524  -3.625  1.00  0.00     0.115 A 
ATOM     16  C   UNL     1     -14.421   4.529  -1.236  1.00  0.00     0.016 A 
ATOM     17  C   UNL     1     -14.570   5.120  -2.495  1.00  0.00     0.047 A 
BRANCH  15  18
ATOM     18  O   UNL     1     -14.157   5.125  -4.871  1.00  0.00    -0.508 OA
ATOM     19  H   UNL     1     -14.069   6.127  -4.991  1.00  0.00     0.293 HD
ENDBRANCH  15  18
ENDBRANCH   1  12
BRANCH   2  20
ATOM     20  O   UNL     1     -12.587   4.678   1.230  1.00  0.00    -0.502 OA
ATOM     21  H   UNL     1     -11.709   4.996   1.621  1.00  0.00     0.293 HD
ENDBRANCH   2  20
BRANCH   6  22
ATOM     22  O   UNL     1     -13.061   1.076   5.124  1.00  0.00    -0.507 OA
ATOM     23  H   UNL     1     -12.272   1.670   5.331  1.00  0.00     0.293 HD
ENDBRANCH   6  22
BRANCH   8  24
ATOM     24  O   UNL     1     -14.421  -2.753   2.566  1.00  0.00    -0.508 OA
ATOM     25  H   UNL     1     -15.262  -3.074   2.102  1.00  0.00     0.293 HD
ENDBRANCH   8  24
TORSDOF 5
ENDMDL
MODEL 7
REMARK VINA RESULT:    -4.176      4.509      8.039
REMARK INTER + INTRA:          -4.917
REMARK INTER:                  -4.895
REMARK INTRA:                  -0.022
REMARK UNBOUND:                -0.009
REMARK SMILES O=c1c(O)c(-c2ccc(O)cc2)oc2cc(O)cc(O)c12
REMARK SMILES IDX 5 1 3 2 2 3 1 4 21 5 19 6 18 7 16 8 15 9 14 10 13 11 6 12
REMARK SMILES IDX 7 13 8 14 9 15 12 16 11 17 10 18 4 20 20 22 17 24
REMARK H PARENT 10 19 4 21 20 23 17 25
REMARK Flexibility Score: inf
ROOT
ATOM      1  C   UNL     1     -13.559   2.698  -0.029  1.00  0.00     0.180 A 
ATOM      2  C   UNL     1     -13.670   3.896   0.697  1.00  0.00     0.208 A 
ATOM      3  C   UNL     1     -13.733   3.839   2.099  1.00  0.00     0.238 A 
ATOM      4  O   UNL     1     -13.777   4.917   2.747  1.00  0.00    -0.285 OA
ATOM      5  C   UNL     1     -13.700   2.585   2.756  1.00  0.00     0.111 A 
ATOM      6  C   UNL     1     -13.797   2.407   4.168  1.00  0.00     0.134 A 
ATOM      7  C   UNL     1     -13.621   1.130   4.716  1.00  0.00     0.093 A 
ATOM      8  C   UNL     1     -13.418   0.017   3.898  1.00  0.00     0.123 A 
ATOM      9  C   UNL     1     -13.381   0.172   2.515  1.00  0.00     0.094 A 
ATOM     10  C   UNL     1     -13.517   1.438   1.940  1.00  0.00     0.146 A 
ATOM     11  O   UNL     1     -13.465   1.543   0.617  1.00  0.00    -0.452 OA
ENDROOT
BRANCH   1  12
ATOM     12  C   UNL     1     -13.513   2.676  -1.509  1.00  0.00     0.021 A 
ATOM     13  C   UNL     1     -12.507   3.389  -2.181  1.00  0.00     0.016 A 
ATOM     14  C   UNL     1     -12.431   3.363  -3.577  1.00  0.00     0.047 A 
ATOM     15  C   UNL     1     -13.352   2.612  -4.318  1.00  0.00     0.115 A 
ATOM     16  C   UNL     1     -14.423   1.907  -2.260  1.00  0.00     0.016 A 
ATOM     17  C   UNL     1     -14.344   1.883  -3.655  1.00  0.00     0.047 A 
BRANCH  15  18
ATOM     18  O   UNL     1     -13.287   2.579  -5.709  1.00  0.00    -0.508 OA
ATOM     19  H   UNL     1     -14.092   2.804  -6.282  1.00  0.00     0.293 HD
ENDBRANCH  15  18
ENDBRANCH   1  12
BRANCH   2  20
ATOM     20  O   UNL     1     -13.679   5.125   0.032  1.00  0.00    -0.502 OA
ATOM     21  H   UNL     1     -12.956   5.821   0.165  1.00  0.00     0.293 HD
ENDBRANCH   2  20
BRANCH   6  22
ATOM     22  O   UNL     1     -14.089   3.436   5.067  1.00  0.00    -0.507 OA
ATOM     23  H   UNL     1     -14.544   4.303   4.820  1.00  0.00     0.293 HD
ENDBRANCH   6  22
BRANCH   8  24
ATOM     24  O   UNL     1     -13.260  -1.253   4.451  1.00  0.00    -0.508 OA
ATOM     25  H   UNL     1     -14.013  -1.931   4.445  1.00  0.00     0.293 HD
ENDBRANCH   8  24
TORSDOF 5
ENDMDL
