MODEL 1
REMARK VINA RESULT:    -6.456      0.000      0.000
REMARK INTER + INTRA:         -10.763
REMARK INTER:                  -8.909
REMARK INTRA:                  -1.854
REMARK UNBOUND:                -1.854
REMARK SMILES CC[C@@H](CC[C@@H](C)[C@@H]1CC[C@H]2[C@H]3CC=C4C[C@@H](O)CC[C@@]4(C)[C@H]3CC[C@]21C)C(C)C
REMARK SMILES IDX 5 1 4 2 3 3 2 4 1 5 28 6 29 7 30 8 6 9 7 10 8 11 9 12 26 13
REMARK SMILES IDX 10 14 11 15 25 16 27 17 12 18 24 19 23 20 13 21 21 22 14 23
REMARK SMILES IDX 15 24 20 25 22 26 16 27 19 28 17 29 18 30
REMARK H PARENT 18 31
REMARK Flexibility Score: inf
ROOT
ATOM      1  C   UNL     1      11.687 -13.930  28.053  1.00  0.00     0.004 C 
ENDROOT
BRANCH   1   2
ATOM      2  C   UNL     1      12.323 -15.226  28.616  1.00  0.00     0.004 C 
BRANCH   2   3
ATOM      3  C   UNL     1      12.500 -15.277  30.169  1.00  0.00    -0.009 C 
BRANCH   3   4
ATOM      4  C   UNL     1      13.996 -15.512  30.525  1.00  0.00     0.000 C 
ATOM      5  C   UNL     1      14.839 -16.070  29.373  1.00  0.00     0.004 C 
ENDBRANCH   3   4
BRANCH   3   6
ATOM      6  C   UNL     1      11.545 -16.312  30.863  1.00  0.00    -0.014 C 
ATOM      7  C   UNL     1      10.582 -15.640  31.857  1.00  0.00     0.007 C 
ATOM      8  C   UNL     1      12.332 -17.406  31.610  1.00  0.00     0.007 C 
ENDBRANCH   3   6
ENDBRANCH   2   3
ENDBRANCH   1   2
BRANCH   1   9
ATOM      9  C   UNL     1      12.642 -12.734  27.747  1.00  0.00    -0.011 C 
ATOM     10  C   UNL     1      12.797 -11.842  29.000  1.00  0.00     0.008 C 
BRANCH   9  11
ATOM     11  C   UNL     1      14.046 -13.263  27.264  1.00  0.00    -0.002 C 
ATOM     12  C   UNL     1      15.215 -12.802  28.138  1.00  0.00     0.005 C 
ATOM     13  C   UNL     1      14.509 -12.954  25.785  1.00  0.00    -0.026 C 
ATOM     14  C   UNL     1      16.452 -13.070  27.312  1.00  0.00     0.005 C 
ATOM     15  C   UNL     1      16.049 -12.681  25.892  1.00  0.00    -0.001 C 
ATOM     16  C   UNL     1      14.213 -14.173  24.862  1.00  0.00     0.007 C 
ATOM     17  C   UNL     1      13.841 -11.691  25.181  1.00  0.00     0.012 C 
ATOM     18  C   UNL     1      16.928 -13.301  24.752  1.00  0.00     0.000 C 
ATOM     19  C   UNL     1      15.276 -15.268  25.004  1.00  0.00     0.005 C 
ATOM     20  C   UNL     1      16.624 -14.812  24.400  1.00  0.00     0.003 C 
ATOM     21  C   UNL     1      18.431 -13.011  24.974  1.00  0.00     0.031 C 
ATOM     22  C   UNL     1      17.843 -15.818  24.620  1.00  0.00    -0.008 C 
ATOM     23  C   UNL     1      19.044 -14.030  25.884  1.00  0.00    -0.027 C 
ATOM     24  C   UNL     1      18.757 -15.337  25.749  1.00  0.00    -0.065 C 
ATOM     25  C   UNL     1      17.370 -17.271  24.952  1.00  0.00     0.014 C 
ATOM     26  C   UNL     1      18.673 -15.890  23.306  1.00  0.00     0.016 C 
ATOM     27  C   UNL     1      19.263 -16.320  26.783  1.00  0.00     0.063 C 
ATOM     28  C   UNL     1      18.524 -18.250  25.243  1.00  0.00     0.033 C 
ATOM     29  C   UNL     1      19.655 -17.652  26.118  1.00  0.00     0.118 C 
BRANCH  29  30
ATOM     30  O   UNL     1      20.017 -18.584  27.104  1.00  0.00    -0.393 OA
ATOM     31  H   UNL     1      19.344 -18.515  27.831  1.00  0.00     0.210 HD
ENDBRANCH  29  30
ENDBRANCH   9  11
ENDBRANCH   1   9
TORSDOF 7
ENDMDL
MODEL 2
REMARK VINA RESULT:    -6.284      2.290      3.582
REMARK INTER + INTRA:         -10.527
REMARK INTER:                  -9.243
REMARK INTRA:                  -1.284
REMARK UNBOUND:                -1.854
REMARK SMILES CC[C@@H](CC[C@@H](C)[C@@H]1CC[C@H]2[C@H]3CC=C4C[C@@H](O)CC[C@@]4(C)[C@H]3CC[C@]21C)C(C)C
REMARK SMILES IDX 5 1 4 2 3 3 2 4 1 5 28 6 29 7 30 8 6 9 7 10 8 11 9 12 26 13
REMARK SMILES IDX 10 14 11 15 25 16 27 17 12 18 24 19 23 20 13 21 21 22 14 23
REMARK SMILES IDX 15 24 20 25 22 26 16 27 19 28 17 29 18 30
REMARK H PARENT 18 31
REMARK Flexibility Score: inf
ROOT
ATOM      1  C   UNL     1      12.459 -13.599  28.666  1.00  0.00     0.004 C 
ENDROOT
BRANCH   1   2
ATOM      2  C   UNL     1      11.549 -14.510  29.526  1.00  0.00     0.004 C 
BRANCH   2   3
ATOM      3  C   UNL     1      12.236 -15.773  30.140  1.00  0.00    -0.009 C 
BRANCH   3   4
ATOM      4  C   UNL     1      11.360 -16.349  31.289  1.00  0.00     0.000 C 
ATOM      5  C   UNL     1      10.305 -15.376  31.826  1.00  0.00     0.004 C 
ENDBRANCH   3   4
BRANCH   3   6
ATOM      6  C   UNL     1      13.719 -15.511  30.586  1.00  0.00    -0.014 C 
ATOM      7  C   UNL     1      14.737 -16.188  29.653  1.00  0.00     0.007 C 
ATOM      8  C   UNL     1      13.978 -15.996  32.026  1.00  0.00     0.007 C 
ENDBRANCH   3   6
ENDBRANCH   2   3
ENDBRANCH   1   2
BRANCH   1   9
ATOM      9  C   UNL     1      12.469 -13.841  27.123  1.00  0.00    -0.011 C 
ATOM     10  C   UNL     1      11.362 -13.001  26.447  1.00  0.00     0.008 C 
BRANCH   9  11
ATOM     11  C   UNL     1      13.882 -13.487  26.521  1.00  0.00    -0.002 C 
ATOM     12  C   UNL     1      13.906 -12.181  25.725  1.00  0.00     0.005 C 
ATOM     13  C   UNL     1      14.595 -14.539  25.582  1.00  0.00    -0.026 C 
ATOM     14  C   UNL     1      15.191 -12.228  24.932  1.00  0.00     0.005 C 
ATOM     15  C   UNL     1      15.301 -13.681  24.476  1.00  0.00    -0.001 C 
ATOM     16  C   UNL     1      15.628 -15.375  26.395  1.00  0.00     0.007 C 
ATOM     17  C   UNL     1      13.607 -15.507  24.879  1.00  0.00     0.012 C 
ATOM     18  C   UNL     1      16.740 -14.150  24.069  1.00  0.00     0.000 C 
ATOM     19  C   UNL     1      16.942 -14.613  26.600  1.00  0.00     0.005 C 
ATOM     20  C   UNL     1      17.716 -14.477  25.269  1.00  0.00     0.003 C 
ATOM     21  C   UNL     1      17.362 -13.215  23.007  1.00  0.00     0.031 C 
ATOM     22  C   UNL     1      19.033 -13.577  25.337  1.00  0.00    -0.008 C 
ATOM     23  C   UNL     1      18.021 -12.035  23.653  1.00  0.00    -0.027 C 
ATOM     24  C   UNL     1      18.778 -12.185  24.753  1.00  0.00    -0.065 C 
ATOM     25  C   UNL     1      19.573 -13.411  26.795  1.00  0.00     0.014 C 
ATOM     26  C   UNL     1      20.151 -14.266  24.504  1.00  0.00     0.016 C 
ATOM     27  C   UNL     1      19.295 -10.958  25.474  1.00  0.00     0.063 C 
ATOM     28  C   UNL     1      20.800 -12.486  26.902  1.00  0.00     0.033 C 
ATOM     29  C   UNL     1      20.709 -11.210  26.027  1.00  0.00     0.118 C 
BRANCH  29  30
ATOM     30  O   UNL     1      21.125 -10.102  26.783  1.00  0.00    -0.393 OA
ATOM     31  H   UNL     1      21.693 -10.449  27.520  1.00  0.00     0.210 HD
ENDBRANCH  29  30
ENDBRANCH   9  11
ENDBRANCH   1   9
TORSDOF 7
ENDMDL
MODEL 3
REMARK VINA RESULT:    -6.231      2.098      6.550
REMARK INTER + INTRA:         -10.453
REMARK INTER:                  -8.299
REMARK INTRA:                  -2.155
REMARK UNBOUND:                -1.854
REMARK SMILES CC[C@@H](CC[C@@H](C)[C@@H]1CC[C@H]2[C@H]3CC=C4C[C@@H](O)CC[C@@]4(C)[C@H]3CC[C@]21C)C(C)C
REMARK SMILES IDX 5 1 4 2 3 3 2 4 1 5 28 6 29 7 30 8 6 9 7 10 8 11 9 12 26 13
REMARK SMILES IDX 10 14 11 15 25 16 27 17 12 18 24 19 23 20 13 21 21 22 14 23
REMARK SMILES IDX 15 24 20 25 22 26 16 27 19 28 17 29 18 30
REMARK H PARENT 18 31
REMARK Flexibility Score: inf
ROOT
ATOM      1  C   UNL     1      20.606 -14.747  25.350  1.00  0.00     0.004 C 
ENDROOT
BRANCH   1   2
ATOM      2  C   UNL     1      20.073 -14.986  26.785  1.00  0.00     0.004 C 
BRANCH   2   3
ATOM      3  C   UNL     1      20.003 -16.479  27.244  1.00  0.00    -0.009 C 
BRANCH   3   4
ATOM      4  C   UNL     1      19.436 -17.361  26.095  1.00  0.00     0.000 C 
ATOM      5  C   UNL     1      20.278 -18.600  25.776  1.00  0.00     0.004 C 
ENDBRANCH   3   4
BRANCH   3   6
ATOM      6  C   UNL     1      19.223 -16.671  28.593  1.00  0.00    -0.014 C 
ATOM      7  C   UNL     1      19.784 -17.834  29.429  1.00  0.00     0.007 C 
ATOM      8  C   UNL     1      17.721 -16.921  28.355  1.00  0.00     0.007 C 
ENDBRANCH   3   6
ENDBRANCH   2   3
ENDBRANCH   1   2
BRANCH   1   9
ATOM      9  C   UNL     1      19.604 -14.178  24.296  1.00  0.00    -0.011 C 
ATOM     10  C   UNL     1      19.676 -15.006  22.993  1.00  0.00     0.008 C 
BRANCH   9  11
ATOM     11  C   UNL     1      18.138 -14.181  24.876  1.00  0.00    -0.002 C 
ATOM     12  C   UNL     1      17.185 -15.130  24.146  1.00  0.00     0.005 C 
ATOM     13  C   UNL     1      17.350 -12.814  24.962  1.00  0.00    -0.026 C 
ATOM     14  C   UNL     1      15.801 -14.703  24.575  1.00  0.00     0.005 C 
ATOM     15  C   UNL     1      15.868 -13.178  24.605  1.00  0.00    -0.001 C 
ATOM     16  C   UNL     1      17.457 -12.219  26.397  1.00  0.00     0.007 C 
ATOM     17  C   UNL     1      17.841 -11.754  23.940  1.00  0.00     0.012 C 
ATOM     18  C   UNL     1      14.769 -12.475  25.474  1.00  0.00     0.000 C 
ATOM     19  C   UNL     1      16.475 -12.887  27.366  1.00  0.00     0.005 C 
ATOM     20  C   UNL     1      15.017 -12.493  27.035  1.00  0.00     0.003 C 
ATOM     21  C   UNL     1      13.348 -12.934  25.071  1.00  0.00     0.031 C 
ATOM     22  C   UNL     1      13.898 -13.244  27.891  1.00  0.00    -0.008 C 
ATOM     23  C   UNL     1      12.975 -14.201  25.777  1.00  0.00    -0.027 C 
ATOM     24  C   UNL     1      13.250 -14.370  27.082  1.00  0.00    -0.065 C 
ATOM     25  C   UNL     1      14.462 -13.850  29.217  1.00  0.00     0.014 C 
ATOM     26  C   UNL     1      12.797 -12.218  28.282  1.00  0.00     0.016 C 
ATOM     27  C   UNL     1      13.008 -15.719  27.725  1.00  0.00     0.063 C 
ATOM     28  C   UNL     1      13.423 -14.645  30.030  1.00  0.00     0.033 C 
ATOM     29  C   UNL     1      12.504 -15.549  29.169  1.00  0.00     0.118 C 
BRANCH  29  30
ATOM     30  O   UNL     1      12.391 -16.808  29.781  1.00  0.00    -0.393 OA
ATOM     31  H   UNL     1      12.962 -16.790  30.593  1.00  0.00     0.210 HD
ENDBRANCH  29  30
ENDBRANCH   9  11
ENDBRANCH   1   9
TORSDOF 7
ENDMDL
MODEL 4
REMARK VINA RESULT:    -6.182      2.438      4.213
REMARK INTER + INTRA:         -10.386
REMARK INTER:                  -9.747
REMARK INTRA:                  -0.638
REMARK UNBOUND:                -1.854
REMARK SMILES CC[C@@H](CC[C@@H](C)[C@@H]1CC[C@H]2[C@H]3CC=C4C[C@@H](O)CC[C@@]4(C)[C@H]3CC[C@]21C)C(C)C
REMARK SMILES IDX 5 1 4 2 3 3 2 4 1 5 28 6 29 7 30 8 6 9 7 10 8 11 9 12 26 13
REMARK SMILES IDX 10 14 11 15 25 16 27 17 12 18 24 19 23 20 13 21 21 22 14 23
REMARK SMILES IDX 15 24 20 25 22 26 16 27 19 28 17 29 18 30
REMARK H PARENT 18 31
REMARK Flexibility Score: inf
ROOT
ATOM      1  C   UNL     1      11.550 -17.904  31.510  1.00  0.00     0.004 C 
ENDROOT
BRANCH   1   2
ATOM      2  C   UNL     1      10.193 -18.558  31.874  1.00  0.00     0.004 C 
BRANCH   2   3
ATOM      3  C   UNL     1      10.072 -20.086  31.569  1.00  0.00    -0.009 C 
BRANCH   3   4
ATOM      4  C   UNL     1       8.744 -20.372  30.810  1.00  0.00     0.000 C 
ATOM      5  C   UNL     1       8.926 -20.722  29.329  1.00  0.00     0.004 C 
ENDBRANCH   3   4
BRANCH   3   6
ATOM      6  C   UNL     1      10.241 -20.984  32.846  1.00  0.00    -0.014 C 
ATOM      7  C   UNL     1       9.800 -22.437  32.599  1.00  0.00     0.007 C 
ATOM      8  C   UNL     1       9.447 -20.429  34.045  1.00  0.00     0.007 C 
ENDBRANCH   3   6
ENDBRANCH   2   3
ENDBRANCH   1   2
BRANCH   1   9
ATOM      9  C   UNL     1      11.519 -16.449  30.945  1.00  0.00    -0.011 C 
ATOM     10  C   UNL     1      11.440 -15.430  32.103  1.00  0.00     0.008 C 
BRANCH   9  11
ATOM     11  C   UNL     1      12.791 -16.180  30.052  1.00  0.00    -0.002 C 
ATOM     12  C   UNL     1      14.018 -15.728  30.846  1.00  0.00     0.005 C 
ATOM     13  C   UNL     1      12.682 -15.146  28.864  1.00  0.00    -0.026 C 
ATOM     14  C   UNL     1      14.965 -15.161  29.814  1.00  0.00     0.005 C 
ATOM     15  C   UNL     1      14.061 -14.400  28.849  1.00  0.00    -0.001 C 
ATOM     16  C   UNL     1      12.428 -15.892  27.520  1.00  0.00     0.007 C 
ATOM     17  C   UNL     1      11.567 -14.086  29.068  1.00  0.00     0.012 C 
ATOM     18  C   UNL     1      14.670 -14.128  27.431  1.00  0.00     0.000 C 
ATOM     19  C   UNL     1      13.721 -16.478  26.941  1.00  0.00     0.005 C 
ATOM     20  C   UNL     1      14.659 -15.357  26.436  1.00  0.00     0.003 C 
ATOM     21  C   UNL     1      16.046 -13.430  27.529  1.00  0.00     0.031 C 
ATOM     22  C   UNL     1      16.097 -15.843  25.942  1.00  0.00    -0.008 C 
ATOM     23  C   UNL     1      17.143 -14.431  27.716  1.00  0.00    -0.027 C 
ATOM     24  C   UNL     1      17.164 -15.572  27.004  1.00  0.00    -0.065 C 
ATOM     25  C   UNL     1      16.127 -17.366  25.589  1.00  0.00     0.014 C 
ATOM     26  C   UNL     1      16.471 -15.061  24.651  1.00  0.00     0.016 C 
ATOM     27  C   UNL     1      18.193 -16.634  27.331  1.00  0.00     0.063 C 
ATOM     28  C   UNL     1      17.519 -17.882  25.179  1.00  0.00     0.033 C 
ATOM     29  C   UNL     1      18.678 -17.330  26.047  1.00  0.00     0.118 C 
BRANCH  29  30
ATOM     30  O   UNL     1      19.547 -18.382  26.380  1.00  0.00    -0.393 OA
ATOM     31  H   UNL     1      18.993 -19.201  26.470  1.00  0.00     0.210 HD
ENDBRANCH  29  30
ENDBRANCH   9  11
ENDBRANCH   1   9
TORSDOF 7
ENDMDL
MODEL 5
REMARK VINA RESULT:    -6.059      1.684      2.704
REMARK INTER + INTRA:         -10.216
REMARK INTER:                  -9.754
REMARK INTRA:                  -0.462
REMARK UNBOUND:                -1.854
REMARK SMILES CC[C@@H](CC[C@@H](C)[C@@H]1CC[C@H]2[C@H]3CC=C4C[C@@H](O)CC[C@@]4(C)[C@H]3CC[C@]21C)C(C)C
REMARK SMILES IDX 5 1 4 2 3 3 2 4 1 5 28 6 29 7 30 8 6 9 7 10 8 11 9 12 26 13
REMARK SMILES IDX 10 14 11 15 25 16 27 17 12 18 24 19 23 20 13 21 21 22 14 23
REMARK SMILES IDX 15 24 20 25 22 26 16 27 19 28 17 29 18 30
REMARK H PARENT 18 31
REMARK Flexibility Score: inf
ROOT
ATOM      1  C   UNL     1      12.032 -13.896  28.814  1.00  0.00     0.004 C 
ENDROOT
BRANCH   1   2
ATOM      2  C   UNL     1      11.341 -14.947  29.718  1.00  0.00     0.004 C 
BRANCH   2   3
ATOM      3  C   UNL     1      12.042 -15.233  31.086  1.00  0.00    -0.009 C 
BRANCH   3   4
ATOM      4  C   UNL     1      13.427 -15.896  30.844  1.00  0.00     0.000 C 
ATOM      5  C   UNL     1      14.294 -16.025  32.101  1.00  0.00     0.004 C 
ENDBRANCH   3   4
BRANCH   3   6
ATOM      6  C   UNL     1      11.143 -16.056  32.077  1.00  0.00    -0.014 C 
ATOM      7  C   UNL     1      11.028 -17.534  31.666  1.00  0.00     0.007 C 
ATOM      8  C   UNL     1       9.723 -15.467  32.186  1.00  0.00     0.007 C 
ENDBRANCH   3   6
ENDBRANCH   2   3
ENDBRANCH   1   2
BRANCH   1   9
ATOM      9  C   UNL     1      12.105 -14.198  27.284  1.00  0.00    -0.011 C 
ATOM     10  C   UNL     1      11.662 -12.958  26.475  1.00  0.00     0.008 C 
BRANCH   9  11
ATOM     11  C   UNL     1      13.565 -14.634  26.880  1.00  0.00    -0.002 C 
ATOM     12  C   UNL     1      13.911 -16.072  27.271  1.00  0.00     0.005 C 
ATOM     13  C   UNL     1      14.786 -13.775  27.396  1.00  0.00    -0.026 C 
ATOM     14  C   UNL     1      15.417 -16.156  27.163  1.00  0.00     0.005 C 
ATOM     15  C   UNL     1      15.910 -14.821  27.715  1.00  0.00    -0.001 C 
ATOM     16  C   UNL     1      15.243 -12.772  26.295  1.00  0.00     0.007 C 
ATOM     17  C   UNL     1      14.481 -12.988  28.697  1.00  0.00     0.012 C 
ATOM     18  C   UNL     1      17.360 -14.411  27.284  1.00  0.00     0.000 C 
ATOM     19  C   UNL     1      16.120 -13.449  25.235  1.00  0.00     0.005 C 
ATOM     20  C   UNL     1      17.499 -13.831  25.820  1.00  0.00     0.003 C 
ATOM     21  C   UNL     1      18.382 -15.526  27.604  1.00  0.00     0.031 C 
ATOM     22  C   UNL     1      18.443 -14.671  24.844  1.00  0.00    -0.008 C 
ATOM     23  C   UNL     1      18.432 -16.539  26.502  1.00  0.00    -0.027 C 
ATOM     24  C   UNL     1      18.433 -16.156  25.213  1.00  0.00    -0.065 C 
ATOM     25  C   UNL     1      18.030 -14.532  23.343  1.00  0.00     0.014 C 
ATOM     26  C   UNL     1      19.898 -14.138  24.976  1.00  0.00     0.016 C 
ATOM     27  C   UNL     1      18.320 -17.204  24.126  1.00  0.00     0.063 C 
ATOM     28  C   UNL     1      18.876 -15.390  22.383  1.00  0.00     0.033 C 
ATOM     29  C   UNL     1      19.178 -16.816  22.909  1.00  0.00     0.118 C 
BRANCH  29  30
ATOM     30  O   UNL     1      18.974 -17.743  21.873  1.00  0.00    -0.393 OA
ATOM     31  H   UNL     1      18.429 -18.484  22.247  1.00  0.00     0.210 HD
ENDBRANCH  29  30
ENDBRANCH   9  11
ENDBRANCH   1   9
TORSDOF 7
ENDMDL
MODEL 6
REMARK VINA RESULT:    -6.026      2.341      5.064
REMARK INTER + INTRA:         -10.171
REMARK INTER:                  -8.131
REMARK INTRA:                  -2.039
REMARK UNBOUND:                -1.854
REMARK SMILES CC[C@@H](CC[C@@H](C)[C@@H]1CC[C@H]2[C@H]3CC=C4C[C@@H](O)CC[C@@]4(C)[C@H]3CC[C@]21C)C(C)C
REMARK SMILES IDX 5 1 4 2 3 3 2 4 1 5 28 6 29 7 30 8 6 9 7 10 8 11 9 12 26 13
REMARK SMILES IDX 10 14 11 15 25 16 27 17 12 18 24 19 23 20 13 21 21 22 14 23
REMARK SMILES IDX 15 24 20 25 22 26 16 27 19 28 17 29 18 30
REMARK H PARENT 18 31
REMARK Flexibility Score: inf
ROOT
ATOM      1  C   UNL     1      12.642 -13.909  27.251  1.00  0.00     0.004 C 
ENDROOT
BRANCH   1   2
ATOM      2  C   UNL     1      12.081 -13.046  26.094  1.00  0.00     0.004 C 
BRANCH   2   3
ATOM      3  C   UNL     1      12.995 -11.870  25.619  1.00  0.00    -0.009 C 
BRANCH   3   4
ATOM      4  C   UNL     1      12.313 -11.108  24.446  1.00  0.00     0.000 C 
ATOM      5  C   UNL     1      10.820 -11.412  24.281  1.00  0.00     0.004 C 
ENDBRANCH   3   4
BRANCH   3   6
ATOM      6  C   UNL     1      14.456 -12.328  25.270  1.00  0.00    -0.014 C 
ATOM      7  C   UNL     1      15.450 -11.154  25.267  1.00  0.00     0.007 C 
ATOM      8  C   UNL     1      14.525 -13.030  23.900  1.00  0.00     0.007 C 
ENDBRANCH   3   6
ENDBRANCH   2   3
ENDBRANCH   1   2
BRANCH   1   9
ATOM      9  C   UNL     1      12.936 -15.413  26.950  1.00  0.00    -0.011 C 
ATOM     10  C   UNL     1      12.047 -15.907  25.787  1.00  0.00     0.008 C 
BRANCH   9  11
ATOM     11  C   UNL     1      14.462 -15.615  26.608  1.00  0.00    -0.002 C 
ATOM     12  C   UNL     1      14.762 -16.921  25.870  1.00  0.00     0.005 C 
ATOM     13  C   UNL     1      15.518 -15.571  27.783  1.00  0.00    -0.026 C 
ATOM     14  C   UNL     1      16.257 -17.105  25.989  1.00  0.00     0.005 C 
ATOM     15  C   UNL     1      16.580 -16.664  27.414  1.00  0.00    -0.001 C 
ATOM     16  C   UNL     1      16.168 -14.158  27.870  1.00  0.00     0.007 C 
ATOM     17  C   UNL     1      14.918 -15.934  29.167  1.00  0.00     0.012 C 
ATOM     18  C   UNL     1      18.075 -16.272  27.674  1.00  0.00     0.000 C 
ATOM     19  C   UNL     1      17.271 -13.972  26.822  1.00  0.00     0.005 C 
ATOM     20  C   UNL     1      18.505 -14.841  27.158  1.00  0.00     0.003 C 
ATOM     21  C   UNL     1      19.040 -17.399  27.238  1.00  0.00     0.031 C 
ATOM     22  C   UNL     1      19.661 -14.835  26.057  1.00  0.00    -0.008 C 
ATOM     23  C   UNL     1      19.355 -17.298  25.777  1.00  0.00    -0.027 C 
ATOM     24  C   UNL     1      19.619 -16.109  25.209  1.00  0.00    -0.065 C 
ATOM     25  C   UNL     1      19.574 -13.601  25.101  1.00  0.00     0.014 C 
ATOM     26  C   UNL     1      21.037 -14.766  26.779  1.00  0.00     0.016 C 
ATOM     27  C   UNL     1      19.773 -16.020  23.705  1.00  0.00     0.063 C 
ATOM     28  C   UNL     1      20.631 -13.606  23.981  1.00  0.00     0.033 C 
ATOM     29  C   UNL     1      20.858 -14.995  23.332  1.00  0.00     0.118 C 
BRANCH  29  30
ATOM     30  O   UNL     1      20.909 -14.849  21.936  1.00  0.00    -0.393 OA
ATOM     31  H   UNL     1      20.569 -13.940  21.725  1.00  0.00     0.210 HD
ENDBRANCH  29  30
ENDBRANCH   9  11
ENDBRANCH   1   9
TORSDOF 7
ENDMDL
MODEL 7
REMARK VINA RESULT:    -6.011      1.795      3.209
REMARK INTER + INTRA:         -10.150
REMARK INTER:                  -9.179
REMARK INTRA:                  -0.971
REMARK UNBOUND:                -1.854
REMARK SMILES CC[C@@H](CC[C@@H](C)[C@@H]1CC[C@H]2[C@H]3CC=C4C[C@@H](O)CC[C@@]4(C)[C@H]3CC[C@]21C)C(C)C
REMARK SMILES IDX 5 1 4 2 3 3 2 4 1 5 28 6 29 7 30 8 6 9 7 10 8 11 9 12 26 13
REMARK SMILES IDX 10 14 11 15 25 16 27 17 12 18 24 19 23 20 13 21 21 22 14 23
REMARK SMILES IDX 15 24 20 25 22 26 16 27 19 28 17 29 18 30
REMARK H PARENT 18 31
REMARK Flexibility Score: inf
ROOT
ATOM      1  C   UNL     1      12.932 -16.472  30.541  1.00  0.00     0.004 C 
ENDROOT
BRANCH   1   2
ATOM      2  C   UNL     1      12.057 -16.619  31.811  1.00  0.00     0.004 C 
BRANCH   2   3
ATOM      3  C   UNL     1      10.703 -17.376  31.619  1.00  0.00    -0.009 C 
BRANCH   3   4
ATOM      4  C   UNL     1       9.567 -16.633  32.379  1.00  0.00     0.000 C 
ATOM      5  C   UNL     1      10.006 -15.327  33.050  1.00  0.00     0.004 C 
ENDBRANCH   3   4
BRANCH   3   6
ATOM      6  C   UNL     1      10.790 -18.897  32.001  1.00  0.00    -0.014 C 
ATOM      7  C   UNL     1       9.971 -19.784  31.048  1.00  0.00     0.007 C 
ATOM      8  C   UNL     1      10.307 -19.153  33.442  1.00  0.00     0.007 C 
ENDBRANCH   3   6
ENDBRANCH   2   3
ENDBRANCH   1   2
BRANCH   1   9
ATOM      9  C   UNL     1      12.325 -15.685  29.336  1.00  0.00    -0.011 C 
ATOM     10  C   UNL     1      11.431 -14.534  29.848  1.00  0.00     0.008 C 
BRANCH   9  11
ATOM     11  C   UNL     1      13.474 -15.129  28.410  1.00  0.00    -0.002 C 
ATOM     12  C   UNL     1      13.822 -13.662  28.672  1.00  0.00     0.005 C 
ATOM     13  C   UNL     1      13.301 -15.223  26.843  1.00  0.00    -0.026 C 
ATOM     14  C   UNL     1      14.624 -13.228  27.467  1.00  0.00     0.005 C 
ATOM     15  C   UNL     1      13.922 -13.896  26.287  1.00  0.00    -0.001 C 
ATOM     16  C   UNL     1      14.051 -16.473  26.292  1.00  0.00     0.007 C 
ATOM     17  C   UNL     1      11.819 -15.285  26.387  1.00  0.00     0.012 C 
ATOM     18  C   UNL     1      14.787 -14.043  24.988  1.00  0.00     0.000 C 
ATOM     19  C   UNL     1      15.556 -16.216  26.148  1.00  0.00     0.005 C 
ATOM     20  C   UNL     1      15.840 -15.222  24.999  1.00  0.00     0.003 C 
ATOM     21  C   UNL     1      15.387 -12.687  24.549  1.00  0.00     0.031 C 
ATOM     22  C   UNL     1      17.364 -14.772  24.850  1.00  0.00    -0.008 C 
ATOM     23  C   UNL     1      16.669 -12.410  25.270  1.00  0.00    -0.027 C 
ATOM     24  C   UNL     1      17.587 -13.378  25.442  1.00  0.00    -0.065 C 
ATOM     25  C   UNL     1      18.354 -15.766  25.541  1.00  0.00     0.014 C 
ATOM     26  C   UNL     1      17.727 -14.732  23.339  1.00  0.00     0.016 C 
ATOM     27  C   UNL     1      18.796 -13.111  26.313  1.00  0.00     0.063 C 
ATOM     28  C   UNL     1      19.827 -15.320  25.479  1.00  0.00     0.033 C 
ATOM     29  C   UNL     1      20.042 -13.807  25.738  1.00  0.00     0.118 C 
BRANCH  29  30
ATOM     30  O   UNL     1      21.125 -13.639  26.616  1.00  0.00    -0.393 OA
ATOM     31  H   UNL     1      21.085 -14.381  27.274  1.00  0.00     0.210 HD
ENDBRANCH  29  30
ENDBRANCH   9  11
ENDBRANCH   1   9
TORSDOF 7
ENDMDL
MODEL 8
REMARK VINA RESULT:    -5.968      1.898      3.990
REMARK INTER + INTRA:         -10.090
REMARK INTER:                  -7.986
REMARK INTRA:                  -2.104
REMARK UNBOUND:                -1.854
REMARK SMILES CC[C@@H](CC[C@@H](C)[C@@H]1CC[C@H]2[C@H]3CC=C4C[C@@H](O)CC[C@@]4(C)[C@H]3CC[C@]21C)C(C)C
REMARK SMILES IDX 5 1 4 2 3 3 2 4 1 5 28 6 29 7 30 8 6 9 7 10 8 11 9 12 26 13
REMARK SMILES IDX 10 14 11 15 25 16 27 17 12 18 24 19 23 20 13 21 21 22 14 23
REMARK SMILES IDX 15 24 20 25 22 26 16 27 19 28 17 29 18 30
REMARK H PARENT 18 31
REMARK Flexibility Score: inf
ROOT
ATOM      1  C   UNL     1      13.119 -15.994  27.043  1.00  0.00     0.004 C 
ENDROOT
BRANCH   1   2
ATOM      2  C   UNL     1      12.414 -14.989  26.098  1.00  0.00     0.004 C 
BRANCH   2   3
ATOM      3  C   UNL     1      12.697 -13.477  26.381  1.00  0.00    -0.009 C 
BRANCH   3   4
ATOM      4  C   UNL     1      11.750 -12.961  27.503  1.00  0.00     0.000 C 
ATOM      5  C   UNL     1      12.473 -12.380  28.722  1.00  0.00     0.004 C 
ENDBRANCH   3   4
BRANCH   3   6
ATOM      6  C   UNL     1      12.640 -12.588  25.088  1.00  0.00    -0.014 C 
ATOM      7  C   UNL     1      13.768 -11.543  25.050  1.00  0.00     0.007 C 
ATOM      8  C   UNL     1      11.291 -11.855  24.956  1.00  0.00     0.007 C 
ENDBRANCH   3   6
ENDBRANCH   2   3
ENDBRANCH   1   2
BRANCH   1   9
ATOM      9  C   UNL     1      14.228 -15.435  27.989  1.00  0.00    -0.011 C 
ATOM     10  C   UNL     1      14.118 -16.091  29.384  1.00  0.00     0.008 C 
BRANCH   9  11
ATOM     11  C   UNL     1      15.656 -15.685  27.367  1.00  0.00    -0.002 C 
ATOM     12  C   UNL     1      16.598 -16.472  28.280  1.00  0.00     0.005 C 
ATOM     13  C   UNL     1      16.507 -14.442  26.893  1.00  0.00    -0.026 C 
ATOM     14  C   UNL     1      17.976 -16.264  27.695  1.00  0.00     0.005 C 
ATOM     15  C   UNL     1      17.987 -14.798  27.268  1.00  0.00    -0.001 C 
ATOM     16  C   UNL     1      16.348 -14.234  25.357  1.00  0.00     0.007 C 
ATOM     17  C   UNL     1      16.133 -13.123  27.620  1.00  0.00     0.012 C 
ATOM     18  C   UNL     1      19.069 -14.418  26.200  1.00  0.00     0.000 C 
ATOM     19  C   UNL     1      17.236 -15.194  24.557  1.00  0.00     0.005 C 
ATOM     20  C   UNL     1      18.729 -14.825  24.710  1.00  0.00     0.003 C 
ATOM     21  C   UNL     1      20.484 -14.850  26.648  1.00  0.00     0.031 C 
ATOM     22  C   UNL     1      19.755 -15.844  24.035  1.00  0.00    -0.008 C 
ATOM     23  C   UNL     1      20.749 -16.278  26.284  1.00  0.00    -0.027 C 
ATOM     24  C   UNL     1      20.390 -16.762  25.082  1.00  0.00    -0.065 C 
ATOM     25  C   UNL     1      19.083 -16.735  22.939  1.00  0.00     0.014 C 
ATOM     26  C   UNL     1      20.884 -15.029  23.341  1.00  0.00     0.016 C 
ATOM     27  C   UNL     1      20.523 -18.244  24.807  1.00  0.00     0.063 C 
ATOM     28  C   UNL     1      20.030 -17.780  22.320  1.00  0.00     0.033 C 
ATOM     29  C   UNL     1      20.949 -18.488  23.348  1.00  0.00     0.118 C 
BRANCH  29  30
ATOM     30  O   UNL     1      20.960 -19.867  23.084  1.00  0.00    -0.393 OA
ATOM     31  H   UNL     1      20.624 -20.324  23.899  1.00  0.00     0.210 HD
ENDBRANCH  29  30
ENDBRANCH   9  11
ENDBRANCH   1   9
TORSDOF 7
ENDMDL
