MODEL 1
REMARK VINA RESULT:    -5.291      0.000      0.000
REMARK INTER + INTRA:          -6.514
REMARK INTER:                  -6.218
REMARK INTRA:                  -0.295
REMARK UNBOUND:                -0.295
REMARK SMILES O=C([O-])C=Cc1ccc(O)c(O)c1
REMARK SMILES IDX 6 1 13 2 7 3 11 4 8 5 9 6 5 7 4 8 2 9 1 10 3 11 12 12 10 14
REMARK H PARENT 12 13 10 15
REMARK Flexibility Score: inf
ROOT
ATOM      1  C   UNL     1       9.301  -6.794  -8.024  1.00  0.00    -0.022 A 
ATOM      2  C   UNL     1      10.206  -6.013  -7.285  1.00  0.00     0.058 A 
ATOM      3  C   UNL     1       7.973  -6.903  -7.588  1.00  0.00     0.012 A 
ATOM      4  C   UNL     1       9.775  -5.307  -6.152  1.00  0.00     0.157 A 
ATOM      5  C   UNL     1       7.541  -6.200  -6.461  1.00  0.00     0.051 A 
ATOM      6  C   UNL     1       8.434  -5.398  -5.742  1.00  0.00     0.157 A 
ENDROOT
BRANCH   1   7
ATOM      7  C   UNL     1       9.747  -7.587  -9.188  1.00  0.00     0.010 C 
ATOM      8  C   UNL     1       9.821  -7.139 -10.452  1.00  0.00     0.025 C 
BRANCH   8   9
ATOM      9  C   UNL     1       9.305  -5.845 -10.940  1.00  0.00     0.064 C 
ATOM     10  O   UNL     1      10.021  -4.810 -10.945  1.00  0.00    -0.545 OA
ATOM     11  O   UNL     1       7.978  -5.753 -11.339  1.00  0.00    -0.545 OA
ENDBRANCH   8   9
ENDBRANCH   1   7
BRANCH   4  12
ATOM     12  O   UNL     1      10.673  -4.520  -5.433  1.00  0.00    -0.504 OA
ATOM     13  H   UNL     1      10.640  -3.508  -5.472  1.00  0.00     0.293 HD
ENDBRANCH   4  12
BRANCH   6  14
ATOM     14  O   UNL     1       7.972  -4.705  -4.622  1.00  0.00    -0.504 OA
ATOM     15  H   UNL     1       7.366  -3.898  -4.703  1.00  0.00     0.293 HD
ENDBRANCH   6  14
TORSDOF 4
ENDMDL
MODEL 2
REMARK VINA RESULT:    -5.076      1.875      2.663
REMARK INTER + INTRA:          -6.261
REMARK INTER:                  -5.971
REMARK INTRA:                  -0.290
REMARK UNBOUND:                -0.295
REMARK SMILES O=C([O-])C=Cc1ccc(O)c(O)c1
REMARK SMILES IDX 6 1 13 2 7 3 11 4 8 5 9 6 5 7 4 8 2 9 1 10 3 11 12 12 10 14
REMARK H PARENT 12 13 10 15
REMARK Flexibility Score: inf
ROOT
ATOM      1  C   UNL     1       8.354  -7.736  -9.189  1.00  0.00    -0.022 A 
ATOM      2  C   UNL     1       7.824  -6.515  -8.736  1.00  0.00     0.058 A 
ATOM      3  C   UNL     1       9.651  -8.105  -8.806  1.00  0.00     0.012 A 
ATOM      4  C   UNL     1       8.564  -5.698  -7.867  1.00  0.00     0.157 A 
ATOM      5  C   UNL     1      10.389  -7.294  -7.941  1.00  0.00     0.051 A 
ATOM      6  C   UNL     1       9.851  -6.093  -7.464  1.00  0.00     0.157 A 
ENDROOT
BRANCH   1   7
ATOM      7  C   UNL     1       7.613  -8.584 -10.145  1.00  0.00     0.010 C 
ATOM      8  C   UNL     1       7.717  -8.523 -11.482  1.00  0.00     0.025 C 
BRANCH   8   9
ATOM      9  C   UNL     1       8.446  -7.489 -12.244  1.00  0.00     0.064 C 
ATOM     10  O   UNL     1       9.643  -7.652 -12.597  1.00  0.00    -0.545 OA
ATOM     11  O   UNL     1       7.816  -6.282 -12.518  1.00  0.00    -0.545 OA
ENDBRANCH   8   9
ENDBRANCH   1   7
BRANCH   4  12
ATOM     12  O   UNL     1       8.026  -4.497  -7.407  1.00  0.00    -0.504 OA
ATOM     13  H   UNL     1       8.616  -3.746  -7.070  1.00  0.00     0.293 HD
ENDBRANCH   4  12
BRANCH   6  14
ATOM     14  O   UNL     1      10.610  -5.306  -6.599  1.00  0.00    -0.504 OA
ATOM     15  H   UNL     1      11.367  -5.692  -6.047  1.00  0.00     0.293 HD
ENDBRANCH   6  14
TORSDOF 4
ENDMDL
MODEL 3
REMARK VINA RESULT:    -5.035      1.954      2.442
REMARK INTER + INTRA:          -6.213
REMARK INTER:                  -5.928
REMARK INTRA:                  -0.285
REMARK UNBOUND:                -0.295
REMARK SMILES O=C([O-])C=Cc1ccc(O)c(O)c1
REMARK SMILES IDX 6 1 13 2 7 3 11 4 8 5 9 6 5 7 4 8 2 9 1 10 3 11 12 12 10 14
REMARK H PARENT 12 13 10 15
REMARK Flexibility Score: inf
ROOT
ATOM      1  C   UNL     1       8.307  -7.470  -9.214  1.00  0.00    -0.022 A 
ATOM      2  C   UNL     1       9.613  -7.831  -8.836  1.00  0.00     0.058 A 
ATOM      3  C   UNL     1       7.705  -6.352  -8.621  1.00  0.00     0.012 A 
ATOM      4  C   UNL     1      10.326  -7.050  -7.914  1.00  0.00     0.157 A 
ATOM      5  C   UNL     1       8.414  -5.573  -7.703  1.00  0.00     0.051 A 
ATOM      6  C   UNL     1       9.724  -5.912  -7.349  1.00  0.00     0.157 A 
ENDROOT
BRANCH   1   7
ATOM      7  C   UNL     1       7.521  -8.308 -10.143  1.00  0.00     0.010 C 
ATOM      8  C   UNL     1       7.615  -8.284 -11.482  1.00  0.00     0.025 C 
BRANCH   8   9
ATOM      9  C   UNL     1       8.381  -7.303 -12.275  1.00  0.00     0.064 C 
ATOM     10  O   UNL     1       9.576  -7.515 -12.611  1.00  0.00    -0.545 OA
ATOM     11  O   UNL     1       7.790  -6.089 -12.601  1.00  0.00    -0.545 OA
ENDBRANCH   8   9
ENDBRANCH   1   7
BRANCH   4  12
ATOM     12  O   UNL     1      11.626  -7.402  -7.556  1.00  0.00    -0.504 OA
ATOM     13  H   UNL     1      12.148  -6.875  -6.866  1.00  0.00     0.293 HD
ENDBRANCH   4  12
BRANCH   6  14
ATOM     14  O   UNL     1      10.407  -5.113  -6.433  1.00  0.00    -0.504 OA
ATOM     15  H   UNL     1      11.371  -5.292  -6.179  1.00  0.00     0.293 HD
ENDBRANCH   6  14
TORSDOF 4
ENDMDL
MODEL 4
REMARK VINA RESULT:    -4.896      2.161      2.533
REMARK INTER + INTRA:          -6.050
REMARK INTER:                  -5.757
REMARK INTRA:                  -0.293
REMARK UNBOUND:                -0.295
REMARK SMILES O=C([O-])C=Cc1ccc(O)c(O)c1
REMARK SMILES IDX 6 1 13 2 7 3 11 4 8 5 9 6 5 7 4 8 2 9 1 10 3 11 12 12 10 14
REMARK H PARENT 12 13 10 15
REMARK Flexibility Score: inf
ROOT
ATOM      1  C   UNL     1       9.971  -7.973  -8.832  1.00  0.00    -0.022 A 
ATOM      2  C   UNL     1      10.585  -7.149  -7.872  1.00  0.00     0.058 A 
ATOM      3  C   UNL     1       8.681  -7.660  -9.280  1.00  0.00     0.012 A 
ATOM      4  C   UNL     1       9.935  -5.997  -7.406  1.00  0.00     0.157 A 
ATOM      5  C   UNL     1       8.032  -6.512  -8.818  1.00  0.00     0.051 A 
ATOM      6  C   UNL     1       8.654  -5.675  -7.886  1.00  0.00     0.157 A 
ENDROOT
BRANCH   1   7
ATOM      7  C   UNL     1      10.616  -9.219  -9.296  1.00  0.00     0.010 C 
ATOM      8  C   UNL     1      11.487  -9.312 -10.314  1.00  0.00     0.025 C 
BRANCH   8   9
ATOM      9  C   UNL     1      11.821  -8.233 -11.264  1.00  0.00     0.064 C 
ATOM     10  O   UNL     1      12.875  -7.556 -11.148  1.00  0.00    -0.545 OA
ATOM     11  O   UNL     1      10.917  -7.914 -12.270  1.00  0.00    -0.545 OA
ENDBRANCH   8   9
ENDBRANCH   1   7
BRANCH   4  12
ATOM     12  O   UNL     1      10.556  -5.174  -6.467  1.00  0.00    -0.504 OA
ATOM     13  H   UNL     1      11.214  -4.455  -6.745  1.00  0.00     0.293 HD
ENDBRANCH   4  12
BRANCH   6  14
ATOM     14  O   UNL     1       7.983  -4.534  -7.446  1.00  0.00    -0.504 OA
ATOM     15  H   UNL     1       7.988  -3.670  -7.975  1.00  0.00     0.293 HD
ENDBRANCH   6  14
TORSDOF 4
ENDMDL
MODEL 5
REMARK VINA RESULT:    -4.825      1.920      2.408
REMARK INTER + INTRA:          -5.967
REMARK INTER:                  -5.686
REMARK INTRA:                  -0.281
REMARK UNBOUND:                -0.295
REMARK SMILES O=C([O-])C=Cc1ccc(O)c(O)c1
REMARK SMILES IDX 6 1 13 2 7 3 11 4 8 5 9 6 5 7 4 8 2 9 1 10 3 11 12 12 10 14
REMARK H PARENT 12 13 10 15
REMARK Flexibility Score: inf
ROOT
ATOM      1  C   UNL     1       7.965  -6.763  -7.600  1.00  0.00    -0.022 A 
ATOM      2  C   UNL     1       8.121  -5.601  -6.823  1.00  0.00     0.058 A 
ATOM      3  C   UNL     1       7.750  -7.992  -6.962  1.00  0.00     0.012 A 
ATOM      4  C   UNL     1       8.011  -5.662  -5.426  1.00  0.00     0.157 A 
ATOM      5  C   UNL     1       7.639  -8.054  -5.571  1.00  0.00     0.051 A 
ATOM      6  C   UNL     1       7.763  -6.895  -4.798  1.00  0.00     0.157 A 
ENDROOT
BRANCH   1   7
ATOM      7  C   UNL     1       8.130  -6.729  -9.068  1.00  0.00     0.010 C 
ATOM      8  C   UNL     1       9.273  -6.978  -9.728  1.00  0.00     0.025 C 
BRANCH   8   9
ATOM      9  C   UNL     1      10.604  -7.151  -9.113  1.00  0.00     0.064 C 
ATOM     10  O   UNL     1      11.387  -6.178  -8.953  1.00  0.00    -0.545 OA
ATOM     11  O   UNL     1      11.028  -8.427  -8.767  1.00  0.00    -0.545 OA
ENDBRANCH   8   9
ENDBRANCH   1   7
BRANCH   4  12
ATOM     12  O   UNL     1       8.149  -4.504  -4.662  1.00  0.00    -0.504 OA
ATOM     13  H   UNL     1       9.053  -4.197  -4.323  1.00  0.00     0.293 HD
ENDBRANCH   4  12
BRANCH   6  14
ATOM     14  O   UNL     1       7.644  -6.988  -3.411  1.00  0.00    -0.504 OA
ATOM     15  H   UNL     1       8.384  -7.368  -2.833  1.00  0.00     0.293 HD
ENDBRANCH   6  14
TORSDOF 4
ENDMDL
MODEL 6
REMARK VINA RESULT:    -4.783      1.796      2.293
REMARK INTER + INTRA:          -5.917
REMARK INTER:                  -5.624
REMARK INTRA:                  -0.294
REMARK UNBOUND:                -0.295
REMARK SMILES O=C([O-])C=Cc1ccc(O)c(O)c1
REMARK SMILES IDX 6 1 13 2 7 3 11 4 8 5 9 6 5 7 4 8 2 9 1 10 3 11 12 12 10 14
REMARK H PARENT 12 13 10 15
REMARK Flexibility Score: inf
ROOT
ATOM      1  C   UNL     1      10.285  -6.854  -8.044  1.00  0.00    -0.022 A 
ATOM      2  C   UNL     1       9.518  -5.915  -7.331  1.00  0.00     0.058 A 
ATOM      3  C   UNL     1       9.898  -8.201  -8.040  1.00  0.00     0.012 A 
ATOM      4  C   UNL     1       8.349  -6.312  -6.666  1.00  0.00     0.157 A 
ATOM      5  C   UNL     1       8.734  -8.598  -7.378  1.00  0.00     0.051 A 
ATOM      6  C   UNL     1       7.953  -7.660  -6.695  1.00  0.00     0.157 A 
ENDROOT
BRANCH   1   7
ATOM      7  C   UNL     1      11.548  -6.466  -8.706  1.00  0.00     0.010 C 
ATOM      8  C   UNL     1      11.652  -5.953  -9.943  1.00  0.00     0.025 C 
BRANCH   8   9
ATOM      9  C   UNL     1      10.558  -5.850 -10.929  1.00  0.00     0.064 C 
ATOM     10  O   UNL     1       9.822  -4.830 -10.993  1.00  0.00    -0.545 OA
ATOM     11  O   UNL     1      10.291  -6.931 -11.758  1.00  0.00    -0.545 OA
ENDBRANCH   8   9
ENDBRANCH   1   7
BRANCH   4  12
ATOM     12  O   UNL     1       7.583  -5.374  -5.976  1.00  0.00    -0.504 OA
ATOM     13  H   UNL     1       7.959  -4.469  -5.718  1.00  0.00     0.293 HD
ENDBRANCH   4  12
BRANCH   6  14
ATOM     14  O   UNL     1       6.794  -8.086  -6.047  1.00  0.00    -0.504 OA
ATOM     15  H   UNL     1       6.801  -8.846  -5.378  1.00  0.00     0.293 HD
ENDBRANCH   6  14
TORSDOF 4
ENDMDL
MODEL 7
REMARK VINA RESULT:    -4.706      2.359      2.841
REMARK INTER + INTRA:          -5.827
REMARK INTER:                  -5.546
REMARK INTRA:                  -0.281
REMARK UNBOUND:                -0.295
REMARK SMILES O=C([O-])C=Cc1ccc(O)c(O)c1
REMARK SMILES IDX 6 1 13 2 7 3 11 4 8 5 9 6 5 7 4 8 2 9 1 10 3 11 12 12 10 14
REMARK H PARENT 12 13 10 15
REMARK Flexibility Score: inf
ROOT
ATOM      1  C   UNL     1      10.266  -6.889  -8.045  1.00  0.00    -0.022 A 
ATOM      2  C   UNL     1       9.893  -8.243  -8.101  1.00  0.00     0.058 A 
ATOM      3  C   UNL     1       9.445  -5.979  -7.366  1.00  0.00     0.012 A 
ATOM      4  C   UNL     1       8.738  -8.689  -7.441  1.00  0.00     0.157 A 
ATOM      5  C   UNL     1       8.296  -6.421  -6.707  1.00  0.00     0.051 A 
ATOM      6  C   UNL     1       7.939  -7.773  -6.736  1.00  0.00     0.157 A 
ENDROOT
BRANCH   1   7
ATOM      7  C   UNL     1      11.449  -6.390  -8.777  1.00  0.00     0.010 C 
ATOM      8  C   UNL     1      11.435  -5.872 -10.016  1.00  0.00     0.025 C 
BRANCH   8   9
ATOM      9  C   UNL     1      10.282  -5.870 -10.937  1.00  0.00     0.064 C 
ATOM     10  O   UNL     1      10.041  -6.846 -11.694  1.00  0.00    -0.545 OA
ATOM     11  O   UNL     1       9.484  -4.736 -11.018  1.00  0.00    -0.545 OA
ENDBRANCH   8   9
ENDBRANCH   1   7
BRANCH   4  12
ATOM     12  O   UNL     1       8.382 -10.037  -7.486  1.00  0.00    -0.504 OA
ATOM     13  H   UNL     1       8.340 -10.545  -8.362  1.00  0.00     0.293 HD
ENDBRANCH   4  12
BRANCH   6  14
ATOM     14  O   UNL     1       6.787  -8.185  -6.066  1.00  0.00    -0.504 OA
ATOM     15  H   UNL     1       6.749  -8.254  -5.056  1.00  0.00     0.293 HD
ENDBRANCH   6  14
TORSDOF 4
ENDMDL
MODEL 8
REMARK VINA RESULT:    -4.644      2.082      2.950
REMARK INTER + INTRA:          -5.754
REMARK INTER:                  -5.491
REMARK INTRA:                  -0.263
REMARK UNBOUND:                -0.295
REMARK SMILES O=C([O-])C=Cc1ccc(O)c(O)c1
REMARK SMILES IDX 6 1 13 2 7 3 11 4 8 5 9 6 5 7 4 8 2 9 1 10 3 11 12 12 10 14
REMARK H PARENT 12 13 10 15
REMARK Flexibility Score: inf
ROOT
ATOM      1  C   UNL     1       9.143  -5.807  -9.677  1.00  0.00    -0.022 A 
ATOM      2  C   UNL     1       7.857  -5.268  -9.496  1.00  0.00     0.058 A 
ATOM      3  C   UNL     1       9.926  -6.103  -8.554  1.00  0.00     0.012 A 
ATOM      4  C   UNL     1       7.342  -5.077  -8.206  1.00  0.00     0.157 A 
ATOM      5  C   UNL     1       9.415  -5.916  -7.267  1.00  0.00     0.051 A 
ATOM      6  C   UNL     1       8.124  -5.409  -7.086  1.00  0.00     0.157 A 
ENDROOT
BRANCH   1   7
ATOM      7  C   UNL     1       9.723  -5.965 -11.027  1.00  0.00     0.010 C 
ATOM      8  C   UNL     1       9.407  -6.933 -11.901  1.00  0.00     0.025 C 
BRANCH   8   9
ATOM      9  C   UNL     1       8.565  -8.112 -11.616  1.00  0.00     0.064 C 
ATOM     10  O   UNL     1       7.340  -8.132 -11.906  1.00  0.00    -0.545 OA
ATOM     11  O   UNL     1       9.123  -9.196 -10.950  1.00  0.00    -0.545 OA
ENDBRANCH   8   9
ENDBRANCH   1   7
BRANCH   4  12
ATOM     12  O   UNL     1       6.059  -4.559  -8.033  1.00  0.00    -0.504 OA
ATOM     13  H   UNL     1       5.679  -4.381  -7.111  1.00  0.00     0.293 HD
ENDBRANCH   4  12
BRANCH   6  14
ATOM     14  O   UNL     1       7.639  -5.236  -5.790  1.00  0.00    -0.504 OA
ATOM     15  H   UNL     1       6.802  -4.700  -5.596  1.00  0.00     0.293 HD
ENDBRANCH   6  14
TORSDOF 4
ENDMDL
MODEL 9
REMARK VINA RESULT:    -4.608      2.386      3.385
REMARK INTER + INTRA:          -5.712
REMARK INTER:                  -5.481
REMARK INTRA:                  -0.231
REMARK UNBOUND:                -0.295
REMARK SMILES O=C([O-])C=Cc1ccc(O)c(O)c1
REMARK SMILES IDX 6 1 13 2 7 3 11 4 8 5 9 6 5 7 4 8 2 9 1 10 3 11 12 12 10 14
REMARK H PARENT 12 13 10 15
REMARK Flexibility Score: inf
ROOT
ATOM      1  C   UNL     1       8.845  -6.230 -10.572  1.00  0.00    -0.022 A 
ATOM      2  C   UNL     1      10.230  -6.309 -10.345  1.00  0.00     0.058 A 
ATOM      3  C   UNL     1       7.989  -5.946  -9.499  1.00  0.00     0.012 A 
ATOM      4  C   UNL     1      10.757  -6.054  -9.070  1.00  0.00     0.157 A 
ATOM      5  C   UNL     1       8.511  -5.691  -8.229  1.00  0.00     0.051 A 
ATOM      6  C   UNL     1       9.892  -5.739  -8.008  1.00  0.00     0.157 A 
ENDROOT
BRANCH   1   7
ATOM      7  C   UNL     1       8.267  -6.547 -11.894  1.00  0.00     0.010 C 
ATOM      8  C   UNL     1       7.626  -7.683 -12.211  1.00  0.00     0.025 C 
BRANCH   8   9
ATOM      9  C   UNL     1       7.537  -8.889 -11.363  1.00  0.00     0.064 C 
ATOM     10  O   UNL     1       6.480  -9.184 -10.746  1.00  0.00    -0.545 OA
ATOM     11  O   UNL     1       8.667  -9.677 -11.188  1.00  0.00    -0.545 OA
ENDBRANCH   8   9
ENDBRANCH   1   7
BRANCH   4  12
ATOM     12  O   UNL     1      12.133  -6.116  -8.855  1.00  0.00    -0.504 OA
ATOM     13  H   UNL     1      12.712  -6.806  -9.320  1.00  0.00     0.293 HD
ENDBRANCH   4  12
BRANCH   6  14
ATOM     14  O   UNL     1      10.384  -5.476  -6.730  1.00  0.00    -0.504 OA
ATOM     15  H   UNL     1      10.923  -6.159  -6.211  1.00  0.00     0.293 HD
ENDBRANCH   6  14
TORSDOF 4
ENDMDL
