MODEL 1
REMARK VINA RESULT:    -4.642      0.000      0.000
REMARK INTER + INTRA:         -10.404
REMARK INTER:                  -8.440
REMARK INTRA:                  -1.964
REMARK UNBOUND:                -1.964
REMARK SMILES CCCCCCCCCCCCCCCC(=O)[O-]
REMARK SMILES IDX 9 1 10 2 11 3 12 4 13 5 14 6 15 7 16 8 17 9 18 10 8 11 7 12
REMARK SMILES IDX 6 13 5 14 4 15 3 16 2 17 1 18
REMARK H PARENT
REMARK Flexibility Score: inf
ROOT
ATOM      1  C   UNL     1      86.318 124.588 130.927  1.00  0.00     0.000 C 
ENDROOT
BRANCH   1   2
ATOM      2  C   UNL     1      86.730 124.742 129.452  1.00  0.00     0.000 C 
BRANCH   2   3
ATOM      3  C   UNL     1      85.734 125.588 128.643  1.00  0.00     0.000 C 
BRANCH   3   4
ATOM      4  C   UNL     1      84.269 125.261 128.981  1.00  0.00     0.000 C 
BRANCH   4   5
ATOM      5  C   UNL     1      83.564 124.479 127.861  1.00  0.00     0.000 C 
BRANCH   5   6
ATOM      6  C   UNL     1      84.494 124.178 126.672  1.00  0.00     0.006 C 
BRANCH   6   7
ATOM      7  C   UNL     1      83.719 124.024 125.356  1.00  0.00     0.053 C 
BRANCH   7   8
ATOM      8  C   UNL     1      84.257 122.903 124.521  1.00  0.00     0.041 C 
ATOM      9  O   UNL     1      83.493 122.264 123.751  1.00  0.00    -0.550 OA
ATOM     10  O   UNL     1      85.596 122.546 124.614  1.00  0.00    -0.550 OA
ENDBRANCH   7   8
ENDBRANCH   6   7
ENDBRANCH   5   6
ENDBRANCH   4   5
ENDBRANCH   3   4
ENDBRANCH   2   3
ENDBRANCH   1   2
BRANCH   1  11
ATOM     11  C   UNL     1      87.217 123.604 131.692  1.00  0.00     0.000 C 
BRANCH  11  12
ATOM     12  C   UNL     1      88.434 123.150 130.868  1.00  0.00    -0.000 C 
BRANCH  12  13
ATOM     13  C   UNL     1      88.761 121.656 131.078  1.00  0.00    -0.000 C 
BRANCH  13  14
ATOM     14  C   UNL     1      87.589 120.842 131.661  1.00  0.00    -0.000 C 
BRANCH  14  15
ATOM     15  C   UNL     1      86.819 119.986 130.637  1.00  0.00    -0.000 C 
BRANCH  15  16
ATOM     16  C   UNL     1      87.041 120.381 129.166  1.00  0.00    -0.000 C 
BRANCH  16  17
ATOM     17  C   UNL     1      85.748 120.824 128.465  1.00  0.00    -0.003 C 
ATOM     18  C   UNL     1      84.775 121.458 129.454  1.00  0.00     0.004 C 
ENDBRANCH  16  17
ENDBRANCH  15  16
ENDBRANCH  14  15
ENDBRANCH  13  14
ENDBRANCH  12  13
ENDBRANCH  11  12
ENDBRANCH   1  11
TORSDOF 14
ENDMDL
MODEL 2
REMARK VINA RESULT:    -4.629      2.686      5.598
REMARK INTER + INTRA:         -10.381
REMARK INTER:                  -8.185
REMARK INTRA:                  -2.196
REMARK UNBOUND:                -1.964
REMARK SMILES CCCCCCCCCCCCCCCC(=O)[O-]
REMARK SMILES IDX 9 1 10 2 11 3 12 4 13 5 14 6 15 7 16 8 17 9 18 10 8 11 7 12
REMARK SMILES IDX 6 13 5 14 4 15 3 16 2 17 1 18
REMARK H PARENT
REMARK Flexibility Score: inf
ROOT
ATOM      1  C   UNL     1      84.039 124.447 127.957  1.00  0.00     0.000 C 
ENDROOT
BRANCH   1   2
ATOM      2  C   UNL     1      85.551 124.523 127.684  1.00  0.00     0.000 C 
BRANCH   2   3
ATOM      3  C   UNL     1      86.338 125.124 128.861  1.00  0.00     0.000 C 
BRANCH   3   4
ATOM      4  C   UNL     1      85.566 125.044 130.189  1.00  0.00     0.000 C 
BRANCH   4   5
ATOM      5  C   UNL     1      86.451 124.592 131.361  1.00  0.00     0.000 C 
BRANCH   5   6
ATOM      6  C   UNL     1      87.719 123.855 130.896  1.00  0.00     0.006 C 
BRANCH   6   7
ATOM      7  C   UNL     1      87.855 122.471 131.544  1.00  0.00     0.053 C 
BRANCH   7   8
ATOM      8  C   UNL     1      88.873 121.624 130.844  1.00  0.00     0.041 C 
ATOM      9  O   UNL     1      88.650 121.196 129.681  1.00  0.00    -0.550 OA
ATOM     10  O   UNL     1      90.056 121.284 131.488  1.00  0.00    -0.550 OA
ENDBRANCH   7   8
ENDBRANCH   6   7
ENDBRANCH   5   6
ENDBRANCH   4   5
ENDBRANCH   3   4
ENDBRANCH   2   3
ENDBRANCH   1   2
BRANCH   1  11
ATOM     11  C   UNL     1      83.231 124.061 126.708  1.00  0.00     0.000 C 
BRANCH  11  12
ATOM     12  C   UNL     1      84.076 124.096 125.423  1.00  0.00    -0.000 C 
BRANCH  12  13
ATOM     13  C   UNL     1      84.135 122.722 124.722  1.00  0.00    -0.000 C 
BRANCH  13  14
ATOM     14  C   UNL     1      84.873 121.642 125.537  1.00  0.00    -0.000 C 
BRANCH  14  15
ATOM     15  C   UNL     1      83.979 120.506 126.070  1.00  0.00    -0.000 C 
BRANCH  15  16
ATOM     16  C   UNL     1      83.970 120.351 127.601  1.00  0.00    -0.000 C 
BRANCH  16  17
ATOM     17  C   UNL     1      85.266 120.848 128.259  1.00  0.00    -0.003 C 
ATOM     18  C   UNL     1      85.012 121.316 129.689  1.00  0.00     0.004 C 
ENDBRANCH  16  17
ENDBRANCH  15  16
ENDBRANCH  14  15
ENDBRANCH  13  14
ENDBRANCH  12  13
ENDBRANCH  11  12
ENDBRANCH   1  11
TORSDOF 14
ENDMDL
MODEL 3
REMARK VINA RESULT:    -4.551      2.609      5.522
REMARK INTER + INTRA:         -10.240
REMARK INTER:                  -8.558
REMARK INTRA:                  -1.682
REMARK UNBOUND:                -1.964
REMARK SMILES CCCCCCCCCCCCCCCC(=O)[O-]
REMARK SMILES IDX 9 1 10 2 11 3 12 4 13 5 14 6 15 7 16 8 17 9 18 10 8 11 7 12
REMARK SMILES IDX 6 13 5 14 4 15 3 16 2 17 1 18
REMARK H PARENT
REMARK Flexibility Score: inf
ROOT
ATOM      1  C   UNL     1      85.514 125.487 128.369  1.00  0.00     0.000 C 
ENDROOT
BRANCH   1   2
ATOM      2  C   UNL     1      84.518 126.013 129.416  1.00  0.00     0.000 C 
BRANCH   2   3
ATOM      3  C   UNL     1      84.671 125.323 130.782  1.00  0.00     0.000 C 
BRANCH   3   4
ATOM      4  C   UNL     1      85.692 124.173 130.750  1.00  0.00     0.000 C 
BRANCH   4   5
ATOM      5  C   UNL     1      86.971 124.496 131.539  1.00  0.00     0.000 C 
BRANCH   5   6
ATOM      6  C   UNL     1      88.229 123.873 130.911  1.00  0.00     0.006 C 
BRANCH   6   7
ATOM      7  C   UNL     1      87.885 122.847 129.822  1.00  0.00     0.053 C 
BRANCH   7   8
ATOM      8  C   UNL     1      88.414 121.486 130.152  1.00  0.00     0.041 C 
ATOM      9  O   UNL     1      89.247 121.338 131.086  1.00  0.00    -0.550 OA
ATOM     10  O   UNL     1      88.011 120.384 129.409  1.00  0.00    -0.550 OA
ENDBRANCH   7   8
ENDBRANCH   6   7
ENDBRANCH   5   6
ENDBRANCH   4   5
ENDBRANCH   3   4
ENDBRANCH   2   3
ENDBRANCH   1   2
BRANCH   1  11
ATOM     11  C   UNL     1      84.833 124.655 127.271  1.00  0.00     0.000 C 
BRANCH  11  12
ATOM     12  C   UNL     1      83.402 124.237 127.647  1.00  0.00    -0.000 C 
BRANCH  12  13
ATOM     13  C   UNL     1      83.247 122.704 127.755  1.00  0.00    -0.000 C 
BRANCH  13  14
ATOM     14  C   UNL     1      84.579 121.937 127.629  1.00  0.00    -0.000 C 
BRANCH  14  15
ATOM     15  C   UNL     1      84.753 121.150 126.317  1.00  0.00    -0.000 C 
BRANCH  15  16
ATOM     16  C   UNL     1      83.589 121.287 125.319  1.00  0.00    -0.000 C 
BRANCH  16  17
ATOM     17  C   UNL     1      83.934 122.178 124.117  1.00  0.00    -0.003 C 
ATOM     18  C   UNL     1      83.124 121.780 122.886  1.00  0.00     0.004 C 
ENDBRANCH  16  17
ENDBRANCH  15  16
ENDBRANCH  14  15
ENDBRANCH  13  14
ENDBRANCH  12  13
ENDBRANCH  11  12
ENDBRANCH   1  11
TORSDOF 14
ENDMDL
MODEL 4
REMARK VINA RESULT:    -4.518      2.429      5.603
REMARK INTER + INTRA:         -10.180
REMARK INTER:                  -8.788
REMARK INTRA:                  -1.392
REMARK UNBOUND:                -1.964
REMARK SMILES CCCCCCCCCCCCCCCC(=O)[O-]
REMARK SMILES IDX 9 1 10 2 11 3 12 4 13 5 14 6 15 7 16 8 17 9 18 10 8 11 7 12
REMARK SMILES IDX 6 13 5 14 4 15 3 16 2 17 1 18
REMARK H PARENT
REMARK Flexibility Score: inf
ROOT
ATOM      1  C   UNL     1      85.501 125.565 128.419  1.00  0.00     0.000 C 
ENDROOT
BRANCH   1   2
ATOM      2  C   UNL     1      86.766 124.885 128.973  1.00  0.00     0.000 C 
BRANCH   2   3
ATOM      3  C   UNL     1      86.700 124.656 130.492  1.00  0.00     0.000 C 
BRANCH   3   4
ATOM      4  C   UNL     1      87.936 123.917 131.032  1.00  0.00     0.000 C 
BRANCH   4   5
ATOM      5  C   UNL     1      88.296 122.678 130.196  1.00  0.00     0.000 C 
BRANCH   5   6
ATOM      6  C   UNL     1      88.574 121.438 131.063  1.00  0.00     0.006 C 
BRANCH   6   7
ATOM      7  C   UNL     1      87.288 120.682 131.422  1.00  0.00     0.053 C 
BRANCH   7   8
ATOM      8  C   UNL     1      86.748 119.913 130.255  1.00  0.00     0.041 C 
ATOM      9  O   UNL     1      85.542 119.552 130.238  1.00  0.00    -0.550 OA
ATOM     10  O   UNL     1      87.585 119.571 129.201  1.00  0.00    -0.550 OA
ENDBRANCH   7   8
ENDBRANCH   6   7
ENDBRANCH   5   6
ENDBRANCH   4   5
ENDBRANCH   3   4
ENDBRANCH   2   3
ENDBRANCH   1   2
BRANCH   1  11
ATOM     11  C   UNL     1      84.368 125.639 129.455  1.00  0.00     0.000 C 
BRANCH  11  12
ATOM     12  C   UNL     1      83.169 124.750 129.085  1.00  0.00    -0.000 C 
BRANCH  12  13
ATOM     13  C   UNL     1      83.567 123.268 128.916  1.00  0.00    -0.000 C 
BRANCH  13  14
ATOM     14  C   UNL     1      83.326 122.719 127.496  1.00  0.00    -0.000 C 
BRANCH  14  15
ATOM     15  C   UNL     1      82.876 123.769 126.462  1.00  0.00    -0.000 C 
BRANCH  15  16
ATOM     16  C   UNL     1      83.929 124.119 125.395  1.00  0.00    -0.000 C 
BRANCH  16  17
ATOM     17  C   UNL     1      84.588 122.878 124.776  1.00  0.00    -0.003 C 
ATOM     18  C   UNL     1      83.622 122.146 123.850  1.00  0.00     0.004 C 
ENDBRANCH  16  17
ENDBRANCH  15  16
ENDBRANCH  14  15
ENDBRANCH  13  14
ENDBRANCH  12  13
ENDBRANCH  11  12
ENDBRANCH   1  11
TORSDOF 14
ENDMDL
MODEL 5
REMARK VINA RESULT:    -4.441      2.815      6.062
REMARK INTER + INTRA:         -10.040
REMARK INTER:                  -7.790
REMARK INTRA:                  -2.250
REMARK UNBOUND:                -1.964
REMARK SMILES CCCCCCCCCCCCCCCC(=O)[O-]
REMARK SMILES IDX 9 1 10 2 11 3 12 4 13 5 14 6 15 7 16 8 17 9 18 10 8 11 7 12
REMARK SMILES IDX 6 13 5 14 4 15 3 16 2 17 1 18
REMARK H PARENT
REMARK Flexibility Score: inf
ROOT
ATOM      1  C   UNL     1      83.948 122.771 128.948  1.00  0.00     0.000 C 
ENDROOT
BRANCH   1   2
ATOM      2  C   UNL     1      85.447 122.712 128.606  1.00  0.00     0.000 C 
BRANCH   2   3
ATOM      3  C   UNL     1      85.993 124.057 128.098  1.00  0.00     0.000 C 
BRANCH   3   4
ATOM      4  C   UNL     1      87.161 124.581 128.951  1.00  0.00     0.000 C 
BRANCH   4   5
ATOM      5  C   UNL     1      86.872 124.504 130.459  1.00  0.00     0.000 C 
BRANCH   5   6
ATOM      6  C   UNL     1      88.051 123.926 131.260  1.00  0.00     0.006 C 
BRANCH   6   7
ATOM      7  C   UNL     1      87.859 122.437 131.580  1.00  0.00     0.053 C 
BRANCH   7   8
ATOM      8  C   UNL     1      88.850 121.579 130.856  1.00  0.00     0.041 C 
ATOM      9  O   UNL     1      88.612 121.187 129.684  1.00  0.00    -0.550 OA
ATOM     10  O   UNL     1      90.023 121.187 131.488  1.00  0.00    -0.550 OA
ENDBRANCH   7   8
ENDBRANCH   6   7
ENDBRANCH   5   6
ENDBRANCH   4   5
ENDBRANCH   3   4
ENDBRANCH   2   3
ENDBRANCH   1   2
BRANCH   1  11
ATOM     11  C   UNL     1      83.254 124.005 128.352  1.00  0.00     0.000 C 
BRANCH  11  12
ATOM     12  C   UNL     1      81.981 123.647 127.565  1.00  0.00    -0.000 C 
BRANCH  12  13
ATOM     13  C   UNL     1      82.154 123.851 126.045  1.00  0.00    -0.000 C 
BRANCH  13  14
ATOM     14  C   UNL     1      83.559 124.341 125.641  1.00  0.00    -0.000 C 
BRANCH  14  15
ATOM     15  C   UNL     1      84.415 123.306 124.887  1.00  0.00    -0.000 C 
BRANCH  15  16
ATOM     16  C   UNL     1      83.726 121.952 124.639  1.00  0.00    -0.000 C 
BRANCH  16  17
ATOM     17  C   UNL     1      84.207 120.852 125.596  1.00  0.00    -0.003 C 
ATOM     18  C   UNL     1      83.043 120.265 126.389  1.00  0.00     0.004 C 
ENDBRANCH  16  17
ENDBRANCH  15  16
ENDBRANCH  14  15
ENDBRANCH  13  14
ENDBRANCH  12  13
ENDBRANCH  11  12
ENDBRANCH   1  11
TORSDOF 14
ENDMDL
MODEL 6
REMARK VINA RESULT:    -4.420      2.098      5.031
REMARK INTER + INTRA:         -10.001
REMARK INTER:                  -7.563
REMARK INTRA:                  -2.438
REMARK UNBOUND:                -1.964
REMARK SMILES CCCCCCCCCCCCCCCC(=O)[O-]
REMARK SMILES IDX 9 1 10 2 11 3 12 4 13 5 14 6 15 7 16 8 17 9 18 10 8 11 7 12
REMARK SMILES IDX 6 13 5 14 4 15 3 16 2 17 1 18
REMARK H PARENT
REMARK Flexibility Score: inf
ROOT
ATOM      1  C   UNL     1      86.572 123.952 128.517  1.00  0.00     0.000 C 
ENDROOT
BRANCH   1   2
ATOM      2  C   UNL     1      87.856 123.537 129.258  1.00  0.00     0.000 C 
BRANCH   2   3
ATOM      3  C   UNL     1      87.786 123.817 130.768  1.00  0.00     0.000 C 
BRANCH   3   4
ATOM      4  C   UNL     1      87.582 122.537 131.597  1.00  0.00     0.000 C 
BRANCH   4   5
ATOM      5  C   UNL     1      86.099 122.163 131.751  1.00  0.00     0.000 C 
BRANCH   5   6
ATOM      6  C   UNL     1      85.689 120.980 130.857  1.00  0.00     0.006 C 
BRANCH   6   7
ATOM      7  C   UNL     1      86.882 120.081 130.504  1.00  0.00     0.053 C 
BRANCH   7   8
ATOM      8  C   UNL     1      86.990 119.852 129.028  1.00  0.00     0.041 C 
ATOM      9  O   UNL     1      86.119 120.320 128.249  1.00  0.00    -0.550 OA
ATOM     10  O   UNL     1      88.037 119.096 128.516  1.00  0.00    -0.550 OA
ENDBRANCH   7   8
ENDBRANCH   6   7
ENDBRANCH   5   6
ENDBRANCH   4   5
ENDBRANCH   3   4
ENDBRANCH   2   3
ENDBRANCH   1   2
BRANCH   1  11
ATOM     11  C   UNL     1      86.380 125.476 128.476  1.00  0.00     0.000 C 
BRANCH  11  12
ATOM     12  C   UNL     1      85.021 125.917 129.046  1.00  0.00    -0.000 C 
BRANCH  12  13
ATOM     13  C   UNL     1      84.339 124.802 129.867  1.00  0.00    -0.000 C 
BRANCH  13  14
ATOM     14  C   UNL     1      83.029 124.285 129.240  1.00  0.00    -0.000 C 
BRANCH  14  15
ATOM     15  C   UNL     1      83.049 122.801 128.826  1.00  0.00    -0.000 C 
BRANCH  15  16
ATOM     16  C   UNL     1      82.997 122.551 127.308  1.00  0.00    -0.000 C 
BRANCH  16  17
ATOM     17  C   UNL     1      82.797 123.840 126.497  1.00  0.00    -0.003 C 
ATOM     18  C   UNL     1      84.055 124.195 125.709  1.00  0.00     0.004 C 
ENDBRANCH  16  17
ENDBRANCH  15  16
ENDBRANCH  14  15
ENDBRANCH  13  14
ENDBRANCH  12  13
ENDBRANCH  11  12
ENDBRANCH   1  11
TORSDOF 14
ENDMDL
MODEL 7
REMARK VINA RESULT:    -4.399      1.849      3.807
REMARK INTER + INTRA:          -9.963
REMARK INTER:                  -7.843
REMARK INTRA:                  -2.120
REMARK UNBOUND:                -1.964
REMARK SMILES CCCCCCCCCCCCCCCC(=O)[O-]
REMARK SMILES IDX 9 1 10 2 11 3 12 4 13 5 14 6 15 7 16 8 17 9 18 10 8 11 7 12
REMARK SMILES IDX 6 13 5 14 4 15 3 16 2 17 1 18
REMARK H PARENT
REMARK Flexibility Score: inf
ROOT
ATOM      1  C   UNL     1      88.586 122.061 130.194  1.00  0.00     0.000 C 
ENDROOT
BRANCH   1   2
ATOM      2  C   UNL     1      87.868 123.419 130.117  1.00  0.00     0.000 C 
BRANCH   2   3
ATOM      3  C   UNL     1      87.516 123.984 131.503  1.00  0.00     0.000 C 
BRANCH   3   4
ATOM      4  C   UNL     1      86.085 124.545 131.566  1.00  0.00     0.000 C 
BRANCH   4   5
ATOM      5  C   UNL     1      85.057 123.618 130.896  1.00  0.00     0.000 C 
BRANCH   5   6
ATOM      6  C   UNL     1      84.198 124.344 129.848  1.00  0.00     0.006 C 
BRANCH   6   7
ATOM      7  C   UNL     1      84.786 125.707 129.461  1.00  0.00     0.053 C 
BRANCH   7   8
ATOM      8  C   UNL     1      85.534 125.645 128.165  1.00  0.00     0.041 C 
ATOM      9  O   UNL     1      86.697 126.121 128.081  1.00  0.00    -0.550 OA
ATOM     10  O   UNL     1      84.936 125.087 127.042  1.00  0.00    -0.550 OA
ENDBRANCH   7   8
ENDBRANCH   6   7
ENDBRANCH   5   6
ENDBRANCH   4   5
ENDBRANCH   3   4
ENDBRANCH   2   3
ENDBRANCH   1   2
BRANCH   1  11
ATOM     11  C   UNL     1      87.993 121.139 131.272  1.00  0.00     0.000 C 
BRANCH  11  12
ATOM     12  C   UNL     1      86.763 120.362 130.774  1.00  0.00    -0.000 C 
BRANCH  12  13
ATOM     13  C   UNL     1      86.916 119.895 129.311  1.00  0.00    -0.000 C 
BRANCH  13  14
ATOM     14  C   UNL     1      85.622 120.019 128.482  1.00  0.00    -0.000 C 
BRANCH  14  15
ATOM     15  C   UNL     1      85.368 121.414 127.880  1.00  0.00    -0.000 C 
BRANCH  15  16
ATOM     16  C   UNL     1      83.951 121.629 127.316  1.00  0.00    -0.000 C 
BRANCH  16  17
ATOM     17  C   UNL     1      83.881 121.449 125.792  1.00  0.00    -0.003 C 
ATOM     18  C   UNL     1      85.031 122.174 125.099  1.00  0.00     0.004 C 
ENDBRANCH  16  17
ENDBRANCH  15  16
ENDBRANCH  14  15
ENDBRANCH  13  14
ENDBRANCH  12  13
ENDBRANCH  11  12
ENDBRANCH   1  11
TORSDOF 14
ENDMDL
MODEL 8
REMARK VINA RESULT:    -4.323      1.291      3.831
REMARK INTER + INTRA:          -9.825
REMARK INTER:                  -7.448
REMARK INTRA:                  -2.377
REMARK UNBOUND:                -1.964
REMARK SMILES CCCCCCCCCCCCCCCC(=O)[O-]
REMARK SMILES IDX 9 1 10 2 11 3 12 4 13 5 14 6 15 7 16 8 17 9 18 10 8 11 7 12
REMARK SMILES IDX 6 13 5 14 4 15 3 16 2 17 1 18
REMARK H PARENT
REMARK Flexibility Score: inf
ROOT
ATOM      1  C   UNL     1      88.257 122.081 130.136  1.00  0.00     0.000 C 
ENDROOT
BRANCH   1   2
ATOM      2  C   UNL     1      87.659 120.804 130.750  1.00  0.00     0.000 C 
BRANCH   2   3
ATOM      3  C   UNL     1      86.502 120.230 129.917  1.00  0.00     0.000 C 
BRANCH   3   4
ATOM      4  C   UNL     1      85.985 121.222 128.861  1.00  0.00     0.000 C 
BRANCH   4   5
ATOM      5  C   UNL     1      84.452 121.331 128.853  1.00  0.00     0.000 C 
BRANCH   5   6
ATOM      6  C   UNL     1      83.931 122.290 127.769  1.00  0.00     0.006 C 
BRANCH   6   7
ATOM      7  C   UNL     1      84.846 122.324 126.537  1.00  0.00     0.053 C 
BRANCH   7   8
ATOM      8  C   UNL     1      84.372 123.312 125.517  1.00  0.00     0.041 C 
ATOM      9  O   UNL     1      84.111 124.497 125.855  1.00  0.00    -0.550 OA
ATOM     10  O   UNL     1      84.190 122.917 124.198  1.00  0.00    -0.550 OA
ENDBRANCH   7   8
ENDBRANCH   6   7
ENDBRANCH   5   6
ENDBRANCH   4   5
ENDBRANCH   3   4
ENDBRANCH   2   3
ENDBRANCH   1   2
BRANCH   1  11
ATOM     11  C   UNL     1      88.307 123.250 131.133  1.00  0.00     0.000 C 
BRANCH  11  12
ATOM     12  C   UNL     1      87.034 123.351 131.990  1.00  0.00    -0.000 C 
BRANCH  12  13
ATOM     13  C   UNL     1      86.702 124.808 132.377  1.00  0.00    -0.000 C 
BRANCH  13  14
ATOM     14  C   UNL     1      85.337 125.294 131.851  1.00  0.00    -0.000 C 
BRANCH  14  15
ATOM     15  C   UNL     1      84.864 124.617 130.550  1.00  0.00    -0.000 C 
BRANCH  15  16
ATOM     16  C   UNL     1      84.458 125.586 129.425  1.00  0.00    -0.000 C 
BRANCH  16  17
ATOM     17  C   UNL     1      85.658 126.089 128.608  1.00  0.00    -0.003 C 
ATOM     18  C   UNL     1      86.670 124.972 128.372  1.00  0.00     0.004 C 
ENDBRANCH  16  17
ENDBRANCH  15  16
ENDBRANCH  14  15
ENDBRANCH  13  14
ENDBRANCH  12  13
ENDBRANCH  11  12
ENDBRANCH   1  11
TORSDOF 14
ENDMDL
MODEL 9
REMARK VINA RESULT:    -4.271      1.100      2.777
REMARK INTER + INTRA:          -9.731
REMARK INTER:                  -7.415
REMARK INTRA:                  -2.316
REMARK UNBOUND:                -1.964
REMARK SMILES CCCCCCCCCCCCCCCC(=O)[O-]
REMARK SMILES IDX 9 1 10 2 11 3 12 4 13 5 14 6 15 7 16 8 17 9 18 10 8 11 7 12
REMARK SMILES IDX 6 13 5 14 4 15 3 16 2 17 1 18
REMARK H PARENT
REMARK Flexibility Score: inf
ROOT
ATOM      1  C   UNL     1      84.531 125.489 129.823  1.00  0.00     0.000 C 
ENDROOT
BRANCH   1   2
ATOM      2  C   UNL     1      83.220 124.834 129.353  1.00  0.00     0.000 C 
BRANCH   2   3
ATOM      3  C   UNL     1      82.971 123.466 130.010  1.00  0.00     0.000 C 
BRANCH   3   4
ATOM      4  C   UNL     1      84.132 122.483 129.785  1.00  0.00     0.000 C 
BRANCH   4   5
ATOM      5  C   UNL     1      83.984 121.681 128.482  1.00  0.00     0.000 C 
BRANCH   5   6
ATOM      6  C   UNL     1      84.900 122.199 127.360  1.00  0.00     0.006 C 
BRANCH   6   7
ATOM      7  C   UNL     1      84.113 122.921 126.258  1.00  0.00     0.053 C 
BRANCH   7   8
ATOM      8  C   UNL     1      84.497 122.440 124.892  1.00  0.00     0.041 C 
ATOM      9  O   UNL     1      85.702 122.464 124.527  1.00  0.00    -0.550 OA
ATOM     10  O   UNL     1      83.520 121.993 124.012  1.00  0.00    -0.550 OA
ENDBRANCH   7   8
ENDBRANCH   6   7
ENDBRANCH   5   6
ENDBRANCH   4   5
ENDBRANCH   3   4
ENDBRANCH   2   3
ENDBRANCH   1   2
BRANCH   1  11
ATOM     11  C   UNL     1      85.540 125.678 128.679  1.00  0.00     0.000 C 
BRANCH  11  12
ATOM     12  C   UNL     1      86.856 124.918 128.920  1.00  0.00    -0.000 C 
BRANCH  12  13
ATOM     13  C   UNL     1      87.056 124.546 130.405  1.00  0.00    -0.000 C 
BRANCH  13  14
ATOM     14  C   UNL     1      88.232 123.581 130.649  1.00  0.00    -0.000 C 
BRANCH  14  15
ATOM     15  C   UNL     1      88.033 122.160 130.088  1.00  0.00    -0.000 C 
BRANCH  15  16
ATOM     16  C   UNL     1      87.723 121.083 131.144  1.00  0.00    -0.000 C 
BRANCH  16  17
ATOM     17  C   UNL     1      86.809 119.970 130.611  1.00  0.00    -0.003 C 
ATOM     18  C   UNL     1      87.102 119.672 129.144  1.00  0.00     0.004 C 
ENDBRANCH  16  17
ENDBRANCH  15  16
ENDBRANCH  14  15
ENDBRANCH  13  14
ENDBRANCH  12  13
ENDBRANCH  11  12
ENDBRANCH   1  11
TORSDOF 14
ENDMDL
