MODEL 1
REMARK VINA RESULT:    -2.821      0.000      0.000
REMARK INTER + INTRA:         -12.583
REMARK INTER:                  -7.108
REMARK INTRA:                  -5.475
REMARK UNBOUND:                -5.475
REMARK SMILES CCCCCCCCCCCCCCCCCCCCCCCCCCCC(=O)[O-]
REMARK SMILES IDX 15 1 16 2 17 3 18 4 19 5 20 6 21 7 22 8 23 9 24 10 25 11
REMARK SMILES IDX 26 12 27 13 28 14 29 15 30 16 14 17 13 18 12 19 11 20 10 21
REMARK SMILES IDX 9 22 8 23 7 24 6 25 5 26 4 27 3 28 2 29 1 30
REMARK H PARENT
REMARK Flexibility Score: inf
ROOT
ATOM      1  C   UNL     1       0.698   0.203   6.562  1.00  0.00     0.000 C 
ENDROOT
BRANCH   1   2
ATOM      2  C   UNL     1      -0.060   1.528   6.356  1.00  0.00     0.000 C 
BRANCH   2   3
ATOM      3  C   UNL     1      -0.468   2.251   7.654  1.00  0.00     0.000 C 
BRANCH   3   4
ATOM      4  C   UNL     1      -1.949   2.675   7.733  1.00  0.00     0.000 C 
BRANCH   4   5
ATOM      5  C   UNL     1      -2.594   3.052   6.387  1.00  0.00     0.000 C 
BRANCH   5   6
ATOM      6  C   UNL     1      -4.002   3.652   6.547  1.00  0.00     0.000 C 
BRANCH   6   7
ATOM      7  C   UNL     1      -4.987   2.677   7.211  1.00  0.00     0.000 C 
BRANCH   7   8
ATOM      8  C   UNL     1      -6.246   2.433   6.361  1.00  0.00     0.000 C 
BRANCH   8   9
ATOM      9  C   UNL     1      -6.011   2.749   4.868  1.00  0.00     0.000 C 
BRANCH   9  10
ATOM     10  C   UNL     1      -5.831   1.498   3.987  1.00  0.00     0.000 C 
BRANCH  10  11
ATOM     11  C   UNL     1      -7.141   0.874   3.475  1.00  0.00     0.000 C 
BRANCH  11  12
ATOM     12  C   UNL     1      -7.023  -0.641   3.232  1.00  0.00     0.006 C 
BRANCH  12  13
ATOM     13  C   UNL     1      -5.657  -1.028   2.651  1.00  0.00     0.053 C 
BRANCH  13  14
ATOM     14  C   UNL     1      -5.402  -2.500   2.768  1.00  0.00     0.041 C 
ATOM     15  O   UNL     1      -4.569  -2.935   3.608  1.00  0.00    -0.550 OA
ATOM     16  O   UNL     1      -6.061  -3.389   1.927  1.00  0.00    -0.550 OA
ENDBRANCH  13  14
ENDBRANCH  12  13
ENDBRANCH  11  12
ENDBRANCH  10  11
ENDBRANCH   9  10
ENDBRANCH   8   9
ENDBRANCH   7   8
ENDBRANCH   6   7
ENDBRANCH   5   6
ENDBRANCH   4   5
ENDBRANCH   3   4
ENDBRANCH   2   3
ENDBRANCH   1   2
BRANCH   1  17
ATOM     17  C   UNL     1       1.007  -0.081   8.039  1.00  0.00     0.000 C 
BRANCH  17  18
ATOM     18  C   UNL     1       0.705  -1.542   8.391  1.00  0.00     0.000 C 
BRANCH  18  19
ATOM     19  C   UNL     1       0.332  -2.346   7.140  1.00  0.00     0.000 C 
BRANCH  19  20
ATOM     20  C   UNL     1       0.096  -3.825   7.484  1.00  0.00     0.000 C 
BRANCH  20  21
ATOM     21  C   UNL     1      -1.390  -4.213   7.438  1.00  0.00     0.000 C 
BRANCH  21  22
ATOM     22  C   UNL     1      -2.050  -4.204   8.828  1.00  0.00    -0.000 C 
BRANCH  22  23
ATOM     23  C   UNL     1      -3.208  -3.198   8.930  1.00  0.00    -0.000 C 
BRANCH  23  24
ATOM     24  C   UNL     1      -2.757  -1.831   9.472  1.00  0.00    -0.000 C 
BRANCH  24  25
ATOM     25  C   UNL     1      -3.236  -0.653   8.604  1.00  0.00    -0.000 C 
BRANCH  25  26
ATOM     26  C   UNL     1      -2.908  -0.761   7.103  1.00  0.00    -0.000 C 
BRANCH  26  27
ATOM     27  C   UNL     1      -4.163  -0.881   6.222  1.00  0.00    -0.000 C 
BRANCH  27  28
ATOM     28  C   UNL     1      -5.462  -0.989   7.041  1.00  0.00    -0.000 C 
BRANCH  28  29
ATOM     29  C   UNL     1      -6.515  -1.957   6.472  1.00  0.00    -0.003 C 
ATOM     30  C   UNL     1      -6.184  -3.425   6.733  1.00  0.00     0.004 C 
ENDBRANCH  28  29
ENDBRANCH  27  28
ENDBRANCH  26  27
ENDBRANCH  25  26
ENDBRANCH  24  25
ENDBRANCH  23  24
ENDBRANCH  22  23
ENDBRANCH  21  22
ENDBRANCH  20  21
ENDBRANCH  19  20
ENDBRANCH  18  19
ENDBRANCH  17  18
ENDBRANCH   1  17
TORSDOF 26
ENDMDL
MODEL 2
REMARK VINA RESULT:    -2.600      1.466      5.468
REMARK INTER + INTRA:         -12.027
REMARK INTER:                  -6.149
REMARK INTRA:                  -5.878
REMARK UNBOUND:                -5.475
REMARK SMILES CCCCCCCCCCCCCCCCCCCCCCCCCCCC(=O)[O-]
REMARK SMILES IDX 15 1 16 2 17 3 18 4 19 5 20 6 21 7 22 8 23 9 24 10 25 11
REMARK SMILES IDX 26 12 27 13 28 14 29 15 30 16 14 17 13 18 12 19 11 20 10 21
REMARK SMILES IDX 9 22 8 23 7 24 6 25 5 26 4 27 3 28 2 29 1 30
REMARK H PARENT
REMARK Flexibility Score: inf
ROOT
ATOM      1  C   UNL     1      -3.031   3.128   7.992  1.00  0.00     0.000 C 
ENDROOT
BRANCH   1   2
ATOM      2  C   UNL     1      -2.196   2.736   6.758  1.00  0.00     0.000 C 
BRANCH   2   3
ATOM      3  C   UNL     1      -0.751   2.296   7.065  1.00  0.00     0.000 C 
BRANCH   3   4
ATOM      4  C   UNL     1      -0.179   1.217   6.124  1.00  0.00     0.000 C 
BRANCH   4   5
ATOM      5  C   UNL     1       1.029   0.439   6.677  1.00  0.00     0.000 C 
BRANCH   5   6
ATOM      6  C   UNL     1       1.157   0.543   8.207  1.00  0.00     0.000 C 
BRANCH   6   7
ATOM      7  C   UNL     1       1.125  -0.831   8.895  1.00  0.00     0.000 C 
BRANCH   7   8
ATOM      8  C   UNL     1       0.554  -1.937   7.991  1.00  0.00     0.000 C 
BRANCH   8   9
ATOM      9  C   UNL     1       0.624  -3.328   8.659  1.00  0.00     0.000 C 
BRANCH   9  10
ATOM     10  C   UNL     1      -0.754  -3.975   8.897  1.00  0.00     0.000 C 
BRANCH  10  11
ATOM     11  C   UNL     1      -1.467  -4.465   7.625  1.00  0.00     0.000 C 
BRANCH  11  12
ATOM     12  C   UNL     1      -2.933  -4.859   7.878  1.00  0.00     0.006 C 
BRANCH  12  13
ATOM     13  C   UNL     1      -3.780  -4.777   6.603  1.00  0.00     0.053 C 
BRANCH  13  14
ATOM     14  C   UNL     1      -5.117  -4.150   6.865  1.00  0.00     0.041 C 
ATOM     15  O   UNL     1      -5.532  -4.014   8.046  1.00  0.00    -0.550 OA
ATOM     16  O   UNL     1      -5.916  -3.747   5.802  1.00  0.00    -0.550 OA
ENDBRANCH  13  14
ENDBRANCH  12  13
ENDBRANCH  11  12
ENDBRANCH  10  11
ENDBRANCH   9  10
ENDBRANCH   8   9
ENDBRANCH   7   8
ENDBRANCH   6   7
ENDBRANCH   5   6
ENDBRANCH   4   5
ENDBRANCH   3   4
ENDBRANCH   2   3
ENDBRANCH   1   2
BRANCH   1  17
ATOM     17  C   UNL     1      -2.527   2.468   9.283  1.00  0.00     0.000 C 
BRANCH  17  18
ATOM     18  C   UNL     1      -3.299   1.176   9.576  1.00  0.00     0.000 C 
BRANCH  18  19
ATOM     19  C   UNL     1      -2.424  -0.058   9.325  1.00  0.00     0.000 C 
BRANCH  19  20
ATOM     20  C   UNL     1      -3.196  -1.132   8.542  1.00  0.00     0.000 C 
BRANCH  20  21
ATOM     21  C   UNL     1      -2.880  -1.110   7.038  1.00  0.00     0.000 C 
BRANCH  21  22
ATOM     22  C   UNL     1      -4.013  -0.490   6.202  1.00  0.00    -0.000 C 
BRANCH  22  23
ATOM     23  C   UNL     1      -5.348  -0.432   6.962  1.00  0.00    -0.000 C 
BRANCH  23  24
ATOM     24  C   UNL     1      -5.991   0.965   6.921  1.00  0.00    -0.000 C 
BRANCH  24  25
ATOM     25  C   UNL     1      -5.647   1.748   5.642  1.00  0.00    -0.000 C 
BRANCH  25  26
ATOM     26  C   UNL     1      -6.854   2.299   4.858  1.00  0.00    -0.000 C 
BRANCH  26  27
ATOM     27  C   UNL     1      -7.162   1.492   3.586  1.00  0.00    -0.000 C 
BRANCH  27  28
ATOM     28  C   UNL     1      -6.042   0.500   3.220  1.00  0.00    -0.000 C 
BRANCH  28  29
ATOM     29  C   UNL     1      -6.501  -0.954   3.007  1.00  0.00    -0.003 C 
ATOM     30  C   UNL     1      -5.338  -1.939   2.894  1.00  0.00     0.004 C 
ENDBRANCH  28  29
ENDBRANCH  27  28
ENDBRANCH  26  27
ENDBRANCH  25  26
ENDBRANCH  24  25
ENDBRANCH  23  24
ENDBRANCH  22  23
ENDBRANCH  21  22
ENDBRANCH  20  21
ENDBRANCH  19  20
ENDBRANCH  18  19
ENDBRANCH  17  18
ENDBRANCH   1  17
TORSDOF 26
ENDMDL
MODEL 3
REMARK VINA RESULT:    -2.580     11.311     13.384
REMARK INTER + INTRA:         -11.976
REMARK INTER:                  -6.813
REMARK INTRA:                  -5.163
REMARK UNBOUND:                -5.475
REMARK SMILES CCCCCCCCCCCCCCCCCCCCCCCCCCCC(=O)[O-]
REMARK SMILES IDX 15 1 16 2 17 3 18 4 19 5 20 6 21 7 22 8 23 9 24 10 25 11
REMARK SMILES IDX 26 12 27 13 28 14 29 15 30 16 14 17 13 18 12 19 11 20 10 21
REMARK SMILES IDX 9 22 8 23 7 24 6 25 5 26 4 27 3 28 2 29 1 30
REMARK H PARENT
REMARK Flexibility Score: inf
ROOT
ATOM      1  C   UNL     1       6.109   6.617  -0.392  1.00  0.00     0.000 C 
ENDROOT
BRANCH   1   2
ATOM      2  C   UNL     1       6.912   7.858   0.038  1.00  0.00     0.000 C 
BRANCH   2   3
ATOM      3  C   UNL     1       6.622   8.356   1.468  1.00  0.00     0.000 C 
BRANCH   3   4
ATOM      4  C   UNL     1       7.805   8.254   2.452  1.00  0.00     0.000 C 
BRANCH   4   5
ATOM      5  C   UNL     1       7.532   7.426   3.721  1.00  0.00     0.000 C 
BRANCH   5   6
ATOM      6  C   UNL     1       6.159   6.733   3.699  1.00  0.00     0.000 C 
BRANCH   6   7
ATOM      7  C   UNL     1       5.264   7.159   4.874  1.00  0.00     0.000 C 
BRANCH   7   8
ATOM      8  C   UNL     1       5.157   8.687   5.017  1.00  0.00     0.000 C 
BRANCH   8   9
ATOM      9  C   UNL     1       3.761   9.212   4.615  1.00  0.00     0.000 C 
BRANCH   9  10
ATOM     10  C   UNL     1       3.555   9.333   3.093  1.00  0.00     0.000 C 
BRANCH  10  11
ATOM     11  C   UNL     1       2.666   8.241   2.473  1.00  0.00     0.000 C 
BRANCH  11  12
ATOM     12  C   UNL     1       2.907   8.063   0.963  1.00  0.00     0.006 C 
BRANCH  12  13
ATOM     13  C   UNL     1       1.648   7.580   0.231  1.00  0.00     0.053 C 
BRANCH  13  14
ATOM     14  C   UNL     1       1.894   6.297  -0.505  1.00  0.00     0.041 C 
ATOM     15  O   UNL     1       2.673   5.431  -0.026  1.00  0.00    -0.550 OA
ATOM     16  O   UNL     1       1.288   6.075  -1.736  1.00  0.00    -0.550 OA
ENDBRANCH  13  14
ENDBRANCH  12  13
ENDBRANCH  11  12
ENDBRANCH  10  11
ENDBRANCH   9  10
ENDBRANCH   8   9
ENDBRANCH   7   8
ENDBRANCH   6   7
ENDBRANCH   5   6
ENDBRANCH   4   5
ENDBRANCH   3   4
ENDBRANCH   2   3
ENDBRANCH   1   2
BRANCH   1  17
ATOM     17  C   UNL     1       6.794   5.300   0.001  1.00  0.00     0.000 C 
BRANCH  17  18
ATOM     18  C   UNL     1       8.320   5.448  -0.023  1.00  0.00     0.000 C 
BRANCH  18  19
ATOM     19  C   UNL     1       8.949   4.893   1.261  1.00  0.00     0.000 C 
BRANCH  19  20
ATOM     20  C   UNL     1       7.919   4.097   2.080  1.00  0.00     0.000 C 
BRANCH  20  21
ATOM     21  C   UNL     1       8.251   2.598   2.150  1.00  0.00     0.000 C 
BRANCH  21  22
ATOM     22  C   UNL     1       9.645   2.271   1.587  1.00  0.00    -0.000 C 
BRANCH  22  23
ATOM     23  C   UNL     1       9.609   1.174   0.511  1.00  0.00    -0.000 C 
BRANCH  23  24
ATOM     24  C   UNL     1       8.502   1.405  -0.532  1.00  0.00    -0.000 C 
BRANCH  24  25
ATOM     25  C   UNL     1       8.988   2.196  -1.759  1.00  0.00    -0.000 C 
BRANCH  25  26
ATOM     26  C   UNL     1       7.895   2.577  -2.776  1.00  0.00    -0.000 C 
BRANCH  26  27
ATOM     27  C   UNL     1       8.035   4.017  -3.296  1.00  0.00    -0.000 C 
BRANCH  27  28
ATOM     28  C   UNL     1       6.728   4.567  -3.897  1.00  0.00    -0.000 C 
BRANCH  28  29
ATOM     29  C   UNL     1       5.460   3.773  -3.538  1.00  0.00    -0.003 C 
ATOM     30  C   UNL     1       4.315   4.660  -3.050  1.00  0.00     0.004 C 
ENDBRANCH  28  29
ENDBRANCH  27  28
ENDBRANCH  26  27
ENDBRANCH  25  26
ENDBRANCH  24  25
ENDBRANCH  23  24
ENDBRANCH  22  23
ENDBRANCH  21  22
ENDBRANCH  20  21
ENDBRANCH  19  20
ENDBRANCH  18  19
ENDBRANCH  17  18
ENDBRANCH   1  17
TORSDOF 26
ENDMDL
MODEL 4
REMARK VINA RESULT:    -2.560     11.383     13.660
REMARK INTER + INTRA:         -11.925
REMARK INTER:                  -7.288
REMARK INTRA:                  -4.637
REMARK UNBOUND:                -5.475
REMARK SMILES CCCCCCCCCCCCCCCCCCCCCCCCCCCC(=O)[O-]
REMARK SMILES IDX 15 1 16 2 17 3 18 4 19 5 20 6 21 7 22 8 23 9 24 10 25 11
REMARK SMILES IDX 26 12 27 13 28 14 29 15 30 16 14 17 13 18 12 19 11 20 10 21
REMARK SMILES IDX 9 22 8 23 7 24 6 25 5 26 4 27 3 28 2 29 1 30
REMARK H PARENT
REMARK Flexibility Score: inf
ROOT
ATOM      1  C   UNL     1       5.138   4.784  -3.460  1.00  0.00     0.000 C 
ENDROOT
BRANCH   1   2
ATOM      2  C   UNL     1       3.953   3.800  -3.456  1.00  0.00     0.000 C 
BRANCH   2   3
ATOM      3  C   UNL     1       2.631   4.378  -2.917  1.00  0.00     0.000 C 
BRANCH   3   4
ATOM      4  C   UNL     1       2.680   4.885  -1.461  1.00  0.00     0.000 C 
BRANCH   4   5
ATOM      5  C   UNL     1       1.411   5.608  -0.976  1.00  0.00     0.000 C 
BRANCH   5   6
ATOM      6  C   UNL     1       1.718   6.803  -0.057  1.00  0.00     0.000 C 
BRANCH   6   7
ATOM      7  C   UNL     1       3.216   6.930   0.264  1.00  0.00     0.000 C 
BRANCH   7   8
ATOM      8  C   UNL     1       3.804   8.286  -0.166  1.00  0.00     0.000 C 
BRANCH   8   9
ATOM      9  C   UNL     1       3.263   8.745  -1.538  1.00  0.00     0.000 C 
BRANCH   9  10
ATOM     10  C   UNL     1       4.139   8.313  -2.730  1.00  0.00     0.000 C 
BRANCH  10  11
ATOM     11  C   UNL     1       3.360   7.949  -4.006  1.00  0.00     0.000 C 
BRANCH  11  12
ATOM     12  C   UNL     1       1.846   7.820  -3.762  1.00  0.00     0.006 C 
BRANCH  12  13
ATOM     13  C   UNL     1       1.052   7.789  -5.074  1.00  0.00     0.053 C 
BRANCH  13  14
ATOM     14  C   UNL     1       0.817   6.386  -5.547  1.00  0.00     0.041 C 
ATOM     15  O   UNL     1      -0.047   5.663  -4.982  1.00  0.00    -0.550 OA
ATOM     16  O   UNL     1       1.575   5.867  -6.589  1.00  0.00    -0.550 OA
ENDBRANCH  13  14
ENDBRANCH  12  13
ENDBRANCH  11  12
ENDBRANCH  10  11
ENDBRANCH   9  10
ENDBRANCH   8   9
ENDBRANCH   7   8
ENDBRANCH   6   7
ENDBRANCH   5   6
ENDBRANCH   4   5
ENDBRANCH   3   4
ENDBRANCH   2   3
ENDBRANCH   1   2
BRANCH   1  17
ATOM     17  C   UNL     1       6.482   4.097  -3.176  1.00  0.00     0.000 C 
BRANCH  17  18
ATOM     18  C   UNL     1       7.207   4.773  -2.007  1.00  0.00     0.000 C 
BRANCH  18  19
ATOM     19  C   UNL     1       6.246   5.647  -1.191  1.00  0.00     0.000 C 
BRANCH  19  20
ATOM     20  C   UNL     1       6.766   5.852   0.240  1.00  0.00     0.000 C 
BRANCH  20  21
ATOM     21  C   UNL     1       8.295   6.001   0.298  1.00  0.00     0.000 C 
BRANCH  21  22
ATOM     22  C   UNL     1       8.904   5.386   1.570  1.00  0.00    -0.000 C 
BRANCH  22  23
ATOM     23  C   UNL     1       8.016   4.293   2.186  1.00  0.00    -0.000 C 
BRANCH  23  24
ATOM     24  C   UNL     1       8.754   2.953   2.347  1.00  0.00    -0.000 C 
BRANCH  24  25
ATOM     25  C   UNL     1       8.298   1.889   1.332  1.00  0.00    -0.000 C 
BRANCH  25  26
ATOM     26  C   UNL     1       8.721   2.143  -0.128  1.00  0.00    -0.000 C 
BRANCH  26  27
ATOM     27  C   UNL     1       8.946   0.845  -0.921  1.00  0.00    -0.000 C 
BRANCH  27  28
ATOM     28  C   UNL     1       8.564   0.978  -2.407  1.00  0.00    -0.000 C 
BRANCH  28  29
ATOM     29  C   UNL     1       7.168   0.445  -2.773  1.00  0.00    -0.003 C 
ATOM     30  C   UNL     1       6.810  -0.849  -2.045  1.00  0.00     0.004 C 
ENDBRANCH  28  29
ENDBRANCH  27  28
ENDBRANCH  26  27
ENDBRANCH  25  26
ENDBRANCH  24  25
ENDBRANCH  23  24
ENDBRANCH  22  23
ENDBRANCH  21  22
ENDBRANCH  20  21
ENDBRANCH  19  20
ENDBRANCH  18  19
ENDBRANCH  17  18
ENDBRANCH   1  17
TORSDOF 26
ENDMDL
MODEL 5
REMARK VINA RESULT:    -2.545      2.340      4.448
REMARK INTER + INTRA:         -11.888
REMARK INTER:                  -7.334
REMARK INTRA:                  -4.554
REMARK UNBOUND:                -5.475
REMARK SMILES CCCCCCCCCCCCCCCCCCCCCCCCCCCC(=O)[O-]
REMARK SMILES IDX 15 1 16 2 17 3 18 4 19 5 20 6 21 7 22 8 23 9 24 10 25 11
REMARK SMILES IDX 26 12 27 13 28 14 29 15 30 16 14 17 13 18 12 19 11 20 10 21
REMARK SMILES IDX 9 22 8 23 7 24 6 25 5 26 4 27 3 28 2 29 1 30
REMARK H PARENT
REMARK Flexibility Score: inf
ROOT
ATOM      1  C   UNL     1       0.011  -1.761   8.334  1.00  0.00     0.000 C 
ENDROOT
BRANCH   1   2
ATOM      2  C   UNL     1       0.747  -0.440   8.043  1.00  0.00     0.000 C 
BRANCH   2   3
ATOM      3  C   UNL     1       0.753  -0.013   6.561  1.00  0.00     0.000 C 
BRANCH   3   4
ATOM      4  C   UNL     1       0.129   1.367   6.272  1.00  0.00     0.000 C 
BRANCH   4   5
ATOM      5  C   UNL     1      -0.151   2.232   7.515  1.00  0.00     0.000 C 
BRANCH   5   6
ATOM      6  C   UNL     1      -1.633   2.625   7.648  1.00  0.00     0.000 C 
BRANCH   6   7
ATOM      7  C   UNL     1      -2.445   2.300   6.384  1.00  0.00     0.000 C 
BRANCH   7   8
ATOM      8  C   UNL     1      -3.872   1.820   6.700  1.00  0.00     0.000 C 
BRANCH   8   9
ATOM      9  C   UNL     1      -3.882   0.434   7.380  1.00  0.00     0.000 C 
BRANCH   9  10
ATOM     10  C   UNL     1      -3.116  -0.650   6.597  1.00  0.00     0.000 C 
BRANCH  10  11
ATOM     11  C   UNL     1      -3.618  -2.087   6.824  1.00  0.00     0.000 C 
BRANCH  11  12
ATOM     12  C   UNL     1      -3.417  -2.989   5.594  1.00  0.00     0.006 C 
BRANCH  12  13
ATOM     13  C   UNL     1      -4.746  -3.534   5.056  1.00  0.00     0.053 C 
BRANCH  13  14
ATOM     14  C   UNL     1      -5.219  -2.762   3.861  1.00  0.00     0.041 C 
ATOM     15  O   UNL     1      -5.578  -3.369   2.817  1.00  0.00    -0.550 OA
ATOM     16  O   UNL     1      -5.232  -1.373   3.891  1.00  0.00    -0.550 OA
ENDBRANCH  13  14
ENDBRANCH  12  13
ENDBRANCH  11  12
ENDBRANCH  10  11
ENDBRANCH   9  10
ENDBRANCH   8   9
ENDBRANCH   7   8
ENDBRANCH   6   7
ENDBRANCH   5   6
ENDBRANCH   4   5
ENDBRANCH   3   4
ENDBRANCH   2   3
ENDBRANCH   1   2
BRANCH   1  17
ATOM     17  C   UNL     1      -0.017  -2.705   7.124  1.00  0.00     0.000 C 
BRANCH  17  18
ATOM     18  C   UNL     1       0.516  -4.093   7.498  1.00  0.00     0.000 C 
BRANCH  18  19
ATOM     19  C   UNL     1       1.473  -4.012   8.694  1.00  0.00     0.000 C 
BRANCH  19  20
ATOM     20  C   UNL     1       2.672  -4.955   8.505  1.00  0.00     0.000 C 
BRANCH  20  21
ATOM     21  C   UNL     1       2.694  -5.613   7.117  1.00  0.00     0.000 C 
BRANCH  21  22
ATOM     22  C   UNL     1       2.834  -7.144   7.188  1.00  0.00    -0.000 C 
BRANCH  22  23
ATOM     23  C   UNL     1       1.501  -7.849   7.486  1.00  0.00    -0.000 C 
BRANCH  23  24
ATOM     24  C   UNL     1       1.383  -8.294   8.954  1.00  0.00    -0.000 C 
BRANCH  24  25
ATOM     25  C   UNL     1       0.110  -7.769   9.642  1.00  0.00    -0.000 C 
BRANCH  25  26
ATOM     26  C   UNL     1      -1.002  -7.283   8.693  1.00  0.00    -0.000 C 
BRANCH  26  27
ATOM     27  C   UNL     1      -1.867  -6.169   9.304  1.00  0.00    -0.000 C 
BRANCH  27  28
ATOM     28  C   UNL     1      -2.798  -5.501   8.274  1.00  0.00    -0.000 C 
BRANCH  28  29
ATOM     29  C   UNL     1      -3.270  -6.415   7.130  1.00  0.00    -0.003 C 
ATOM     30  C   UNL     1      -4.778  -6.665   7.145  1.00  0.00     0.004 C 
ENDBRANCH  28  29
ENDBRANCH  27  28
ENDBRANCH  26  27
ENDBRANCH  25  26
ENDBRANCH  24  25
ENDBRANCH  23  24
ENDBRANCH  22  23
ENDBRANCH  21  22
ENDBRANCH  20  21
ENDBRANCH  19  20
ENDBRANCH  18  19
ENDBRANCH  17  18
ENDBRANCH   1  17
TORSDOF 26
ENDMDL
MODEL 6
REMARK VINA RESULT:    -2.537     10.787     13.081
REMARK INTER + INTRA:         -11.868
REMARK INTER:                  -6.728
REMARK INTRA:                  -5.140
REMARK UNBOUND:                -5.475
REMARK SMILES CCCCCCCCCCCCCCCCCCCCCCCCCCCC(=O)[O-]
REMARK SMILES IDX 15 1 16 2 17 3 18 4 19 5 20 6 21 7 22 8 23 9 24 10 25 11
REMARK SMILES IDX 26 12 27 13 28 14 29 15 30 16 14 17 13 18 12 19 11 20 10 21
REMARK SMILES IDX 9 22 8 23 7 24 6 25 5 26 4 27 3 28 2 29 1 30
REMARK H PARENT
REMARK Flexibility Score: inf
ROOT
ATOM      1  C   UNL     1       2.660   8.807   2.819  1.00  0.00     0.000 C 
ENDROOT
BRANCH   1   2
ATOM      2  C   UNL     1       1.220   8.496   3.270  1.00  0.00     0.000 C 
BRANCH   2   3
ATOM      3  C   UNL     1       0.365   7.741   2.235  1.00  0.00     0.000 C 
BRANCH   3   4
ATOM      4  C   UNL     1      -1.044   8.322   1.996  1.00  0.00     0.000 C 
BRANCH   4   5
ATOM      5  C   UNL     1      -1.293   8.875   0.581  1.00  0.00     0.000 C 
BRANCH   5   6
ATOM      6  C   UNL     1      -0.125   9.728   0.058  1.00  0.00     0.000 C 
BRANCH   6   7
ATOM      7  C   UNL     1       0.327   9.310  -1.351  1.00  0.00     0.000 C 
BRANCH   7   8
ATOM      8  C   UNL     1      -0.328   7.999  -1.821  1.00  0.00     0.000 C 
BRANCH   8   9
ATOM      9  C   UNL     1       0.720   6.924  -2.184  1.00  0.00     0.000 C 
BRANCH   9  10
ATOM     10  C   UNL     1       1.208   6.097  -0.979  1.00  0.00     0.000 C 
BRANCH  10  11
ATOM     11  C   UNL     1       2.575   5.419  -1.173  1.00  0.00     0.000 C 
BRANCH  11  12
ATOM     12  C   UNL     1       2.582   4.416  -2.341  1.00  0.00     0.006 C 
BRANCH  12  13
ATOM     13  C   UNL     1       3.957   4.324  -3.014  1.00  0.00     0.053 C 
BRANCH  13  14
ATOM     14  C   UNL     1       4.137   5.388  -4.054  1.00  0.00     0.041 C 
ATOM     15  O   UNL     1       3.132   5.933  -4.584  1.00  0.00    -0.550 OA
ATOM     16  O   UNL     1       5.415   5.754  -4.461  1.00  0.00    -0.550 OA
ENDBRANCH  13  14
ENDBRANCH  12  13
ENDBRANCH  11  12
ENDBRANCH  10  11
ENDBRANCH   9  10
ENDBRANCH   8   9
ENDBRANCH   7   8
ENDBRANCH   6   7
ENDBRANCH   5   6
ENDBRANCH   4   5
ENDBRANCH   3   4
ENDBRANCH   2   3
ENDBRANCH   1   2
BRANCH   1  17
ATOM     17  C   UNL     1       3.060   8.049   1.545  1.00  0.00     0.000 C 
BRANCH  17  18
ATOM     18  C   UNL     1       3.526   9.019   0.453  1.00  0.00     0.000 C 
BRANCH  18  19
ATOM     19  C   UNL     1       4.897   9.616   0.795  1.00  0.00     0.000 C 
BRANCH  19  20
ATOM     20  C   UNL     1       5.858   9.509  -0.400  1.00  0.00     0.000 C 
BRANCH  20  21
ATOM     21  C   UNL     1       6.802   8.300  -0.293  1.00  0.00     0.000 C 
BRANCH  21  22
ATOM     22  C   UNL     1       6.446   7.179  -1.285  1.00  0.00    -0.000 C 
BRANCH  22  23
ATOM     23  C   UNL     1       6.336   5.802  -0.610  1.00  0.00    -0.000 C 
BRANCH  23  24
ATOM     24  C   UNL     1       5.933   5.901   0.871  1.00  0.00    -0.000 C 
BRANCH  24  25
ATOM     25  C   UNL     1       7.003   5.340   1.824  1.00  0.00    -0.000 C 
BRANCH  25  26
ATOM     26  C   UNL     1       7.370   6.246   3.015  1.00  0.00    -0.000 C 
BRANCH  26  27
ATOM     27  C   UNL     1       6.302   7.314   3.307  1.00  0.00    -0.000 C 
BRANCH  27  28
ATOM     28  C   UNL     1       5.441   6.978   4.539  1.00  0.00    -0.000 C 
BRANCH  28  29
ATOM     29  C   UNL     1       5.499   8.010   5.678  1.00  0.00    -0.003 C 
ATOM     30  C   UNL     1       5.235   9.440   5.207  1.00  0.00     0.004 C 
ENDBRANCH  28  29
ENDBRANCH  27  28
ENDBRANCH  26  27
ENDBRANCH  25  26
ENDBRANCH  24  25
ENDBRANCH  23  24
ENDBRANCH  22  23
ENDBRANCH  21  22
ENDBRANCH  20  21
ENDBRANCH  19  20
ENDBRANCH  18  19
ENDBRANCH  17  18
ENDBRANCH   1  17
TORSDOF 26
ENDMDL
MODEL 7
REMARK VINA RESULT:    -2.535     10.434     12.781
REMARK INTER + INTRA:         -11.863
REMARK INTER:                  -6.376
REMARK INTRA:                  -5.487
REMARK UNBOUND:                -5.475
REMARK SMILES CCCCCCCCCCCCCCCCCCCCCCCCCCCC(=O)[O-]
REMARK SMILES IDX 15 1 16 2 17 3 18 4 19 5 20 6 21 7 22 8 23 9 24 10 25 11
REMARK SMILES IDX 26 12 27 13 28 14 29 15 30 16 14 17 13 18 12 19 11 20 10 21
REMARK SMILES IDX 9 22 8 23 7 24 6 25 5 26 4 27 3 28 2 29 1 30
REMARK H PARENT
REMARK Flexibility Score: inf
ROOT
ATOM      1  C   UNL     1       3.740   5.234  -1.471  1.00  0.00     0.000 C 
ENDROOT
BRANCH   1   2
ATOM      2  C   UNL     1       2.231   5.105  -1.754  1.00  0.00     0.000 C 
BRANCH   2   3
ATOM      3  C   UNL     1       1.789   5.591  -3.148  1.00  0.00     0.000 C 
BRANCH   3   4
ATOM      4  C   UNL     1       1.094   6.968  -3.174  1.00  0.00     0.000 C 
BRANCH   4   5
ATOM      5  C   UNL     1       0.353   7.352  -1.881  1.00  0.00     0.000 C 
BRANCH   5   6
ATOM      6  C   UNL     1       0.697   8.769  -1.392  1.00  0.00     0.000 C 
BRANCH   6   7
ATOM      7  C   UNL     1       0.976   8.820   0.119  1.00  0.00     0.000 C 
BRANCH   7   8
ATOM      8  C   UNL     1       0.825   7.448   0.799  1.00  0.00     0.000 C 
BRANCH   8   9
ATOM      9  C   UNL     1       0.695   7.570   2.333  1.00  0.00     0.000 C 
BRANCH   9  10
ATOM     10  C   UNL     1       0.458   9.010   2.826  1.00  0.00     0.000 C 
BRANCH  10  11
ATOM     11  C   UNL     1      -0.525   9.136   4.003  1.00  0.00     0.000 C 
BRANCH  11  12
ATOM     12  C   UNL     1      -1.992   9.225   3.546  1.00  0.00     0.006 C 
BRANCH  12  13
ATOM     13  C   UNL     1      -2.120   9.783   2.122  1.00  0.00     0.053 C 
BRANCH  13  14
ATOM     14  C   UNL     1      -2.787   8.805   1.202  1.00  0.00     0.041 C 
ATOM     15  O   UNL     1      -2.601   8.877  -0.042  1.00  0.00    -0.550 OA
ATOM     16  O   UNL     1      -3.638   7.835   1.717  1.00  0.00    -0.550 OA
ENDBRANCH  13  14
ENDBRANCH  12  13
ENDBRANCH  11  12
ENDBRANCH  10  11
ENDBRANCH   9  10
ENDBRANCH   8   9
ENDBRANCH   7   8
ENDBRANCH   6   7
ENDBRANCH   5   6
ENDBRANCH   4   5
ENDBRANCH   3   4
ENDBRANCH   2   3
ENDBRANCH   1   2
BRANCH   1  17
ATOM     17  C   UNL     1       4.051   6.248  -0.361  1.00  0.00     0.000 C 
BRANCH  17  18
ATOM     18  C   UNL     1       4.339   7.635  -0.950  1.00  0.00     0.000 C 
BRANCH  18  19
ATOM     19  C   UNL     1       4.712   8.635   0.151  1.00  0.00     0.000 C 
BRANCH  19  20
ATOM     20  C   UNL     1       4.477   8.034   1.546  1.00  0.00     0.000 C 
BRANCH  20  21
ATOM     21  C   UNL     1       4.078   9.091   2.587  1.00  0.00     0.000 C 
BRANCH  21  22
ATOM     22  C   UNL     1       4.138   8.558   4.029  1.00  0.00    -0.000 C 
BRANCH  22  23
ATOM     23  C   UNL     1       5.084   7.356   4.179  1.00  0.00    -0.000 C 
BRANCH  23  24
ATOM     24  C   UNL     1       6.406   7.727   4.873  1.00  0.00    -0.000 C 
BRANCH  24  25
ATOM     25  C   UNL     1       7.557   7.971   3.881  1.00  0.00    -0.000 C 
BRANCH  25  26
ATOM     26  C   UNL     1       8.134   6.708   3.214  1.00  0.00    -0.000 C 
BRANCH  26  27
ATOM     27  C   UNL     1       7.875   6.658   1.699  1.00  0.00    -0.000 C 
BRANCH  27  28
ATOM     28  C   UNL     1       7.206   5.346   1.249  1.00  0.00    -0.000 C 
BRANCH  28  29
ATOM     29  C   UNL     1       7.580   4.873  -0.167  1.00  0.00    -0.003 C 
ATOM     30  C   UNL     1       7.742   6.024  -1.160  1.00  0.00     0.004 C 
ENDBRANCH  28  29
ENDBRANCH  27  28
ENDBRANCH  26  27
ENDBRANCH  25  26
ENDBRANCH  24  25
ENDBRANCH  23  24
ENDBRANCH  22  23
ENDBRANCH  21  22
ENDBRANCH  20  21
ENDBRANCH  19  20
ENDBRANCH  18  19
ENDBRANCH  17  18
ENDBRANCH   1  17
TORSDOF 26
ENDMDL
MODEL 8
REMARK VINA RESULT:    -2.526      1.710      5.995
REMARK INTER + INTRA:         -11.841
REMARK INTER:                  -6.976
REMARK INTRA:                  -4.865
REMARK UNBOUND:                -5.475
REMARK SMILES CCCCCCCCCCCCCCCCCCCCCCCCCCCC(=O)[O-]
REMARK SMILES IDX 15 1 16 2 17 3 18 4 19 5 20 6 21 7 22 8 23 9 24 10 25 11
REMARK SMILES IDX 26 12 27 13 28 14 29 15 30 16 14 17 13 18 12 19 11 20 10 21
REMARK SMILES IDX 9 22 8 23 7 24 6 25 5 26 4 27 3 28 2 29 1 30
REMARK H PARENT
REMARK Flexibility Score: inf
ROOT
ATOM      1  C   UNL     1      -0.268  -1.263   7.065  1.00  0.00     0.000 C 
ENDROOT
BRANCH   1   2
ATOM      2  C   UNL     1      -0.161  -2.188   8.291  1.00  0.00     0.000 C 
BRANCH   2   3
ATOM      3  C   UNL     1       1.160  -2.074   9.077  1.00  0.00     0.000 C 
BRANCH   3   4
ATOM      4  C   UNL     1       2.002  -3.365   9.139  1.00  0.00     0.000 C 
BRANCH   4   5
ATOM      5  C   UNL     1       1.848  -4.305   7.930  1.00  0.00     0.000 C 
BRANCH   5   6
ATOM      6  C   UNL     1       1.662  -5.777   8.337  1.00  0.00     0.000 C 
BRANCH   6   7
ATOM      7  C   UNL     1       0.223  -6.089   8.780  1.00  0.00     0.000 C 
BRANCH   7   8
ATOM      8  C   UNL     1      -0.811  -5.823   7.672  1.00  0.00     0.000 C 
BRANCH   8   9
ATOM      9  C   UNL     1      -2.121  -5.225   8.231  1.00  0.00     0.000 C 
BRANCH   9  10
ATOM     10  C   UNL     1      -3.187  -4.945   7.155  1.00  0.00     0.000 C 
BRANCH  10  11
ATOM     11  C   UNL     1      -3.549  -3.460   6.976  1.00  0.00     0.000 C 
BRANCH  11  12
ATOM     12  C   UNL     1      -3.764  -3.073   5.502  1.00  0.00     0.006 C 
BRANCH  12  13
ATOM     13  C   UNL     1      -5.164  -2.497   5.256  1.00  0.00     0.053 C 
BRANCH  13  14
ATOM     14  C   UNL     1      -5.387  -2.182   3.807  1.00  0.00     0.041 C 
ATOM     15  O   UNL     1      -6.394  -1.513   3.451  1.00  0.00    -0.550 OA
ATOM     16  O   UNL     1      -4.500  -2.656   2.848  1.00  0.00    -0.550 OA
ENDBRANCH  13  14
ENDBRANCH  12  13
ENDBRANCH  11  12
ENDBRANCH  10  11
ENDBRANCH   9  10
ENDBRANCH   8   9
ENDBRANCH   7   8
ENDBRANCH   6   7
ENDBRANCH   5   6
ENDBRANCH   4   5
ENDBRANCH   3   4
ENDBRANCH   2   3
ENDBRANCH   1   2
BRANCH   1  17
ATOM     17  C   UNL     1       0.769  -0.131   7.082  1.00  0.00     0.000 C 
BRANCH  17  18
ATOM     18  C   UNL     1       0.322   1.037   6.194  1.00  0.00     0.000 C 
BRANCH  18  19
ATOM     19  C   UNL     1      -0.218   2.197   7.040  1.00  0.00     0.000 C 
BRANCH  19  20
ATOM     20  C   UNL     1       0.349   2.149   8.468  1.00  0.00     0.000 C 
BRANCH  20  21
ATOM     21  C   UNL     1      -0.734   2.341   9.541  1.00  0.00     0.000 C 
BRANCH  21  22
ATOM     22  C   UNL     1      -1.564   1.068   9.782  1.00  0.00    -0.000 C 
BRANCH  22  23
ATOM     23  C   UNL     1      -3.007   1.194   9.271  1.00  0.00    -0.000 C 
BRANCH  23  24
ATOM     24  C   UNL     1      -3.446  -0.020   8.433  1.00  0.00    -0.000 C 
BRANCH  24  25
ATOM     25  C   UNL     1      -3.306   0.214   6.918  1.00  0.00    -0.000 C 
BRANCH  25  26
ATOM     26  C   UNL     1      -4.473   0.968   6.254  1.00  0.00    -0.000 C 
BRANCH  26  27
ATOM     27  C   UNL     1      -4.118   2.419   5.886  1.00  0.00    -0.000 C 
BRANCH  27  28
ATOM     28  C   UNL     1      -4.733   3.449   6.852  1.00  0.00    -0.000 C 
BRANCH  28  29
ATOM     29  C   UNL     1      -3.794   4.594   7.270  1.00  0.00    -0.003 C 
ATOM     30  C   UNL     1      -3.555   4.654   8.778  1.00  0.00     0.004 C 
ENDBRANCH  28  29
ENDBRANCH  27  28
ENDBRANCH  26  27
ENDBRANCH  25  26
ENDBRANCH  24  25
ENDBRANCH  23  24
ENDBRANCH  22  23
ENDBRANCH  21  22
ENDBRANCH  20  21
ENDBRANCH  19  20
ENDBRANCH  18  19
ENDBRANCH  17  18
ENDBRANCH   1  17
TORSDOF 26
ENDMDL
MODEL 9
REMARK VINA RESULT:    -2.509      4.464      8.773
REMARK INTER + INTRA:         -11.798
REMARK INTER:                  -6.979
REMARK INTRA:                  -4.819
REMARK UNBOUND:                -5.475
REMARK SMILES CCCCCCCCCCCCCCCCCCCCCCCCCCCC(=O)[O-]
REMARK SMILES IDX 15 1 16 2 17 3 18 4 19 5 20 6 21 7 22 8 23 9 24 10 25 11
REMARK SMILES IDX 26 12 27 13 28 14 29 15 30 16 14 17 13 18 12 19 11 20 10 21
REMARK SMILES IDX 9 22 8 23 7 24 6 25 5 26 4 27 3 28 2 29 1 30
REMARK H PARENT
REMARK Flexibility Score: inf
ROOT
ATOM      1  C   UNL     1       0.027  -2.011   9.575  1.00  0.00     0.000 C 
ENDROOT
BRANCH   1   2
ATOM      2  C   UNL     1       0.800  -3.288   9.956  1.00  0.00     0.000 C 
BRANCH   2   3
ATOM      3  C   UNL     1       2.261  -3.332   9.466  1.00  0.00     0.000 C 
BRANCH   3   4
ATOM      4  C   UNL     1       2.612  -4.525   8.553  1.00  0.00     0.000 C 
BRANCH   4   5
ATOM      5  C   UNL     1       1.538  -4.891   7.512  1.00  0.00     0.000 C 
BRANCH   5   6
ATOM      6  C   UNL     1       1.080  -6.355   7.616  1.00  0.00     0.000 C 
BRANCH   6   7
ATOM      7  C   UNL     1       2.102  -7.243   8.344  1.00  0.00     0.000 C 
BRANCH   7   8
ATOM      8  C   UNL     1       2.208  -8.652   7.733  1.00  0.00     0.000 C 
BRANCH   8   9
ATOM      9  C   UNL     1       1.608  -8.717   6.312  1.00  0.00     0.000 C 
BRANCH   9  10
ATOM     10  C   UNL     1       2.663  -8.791   5.192  1.00  0.00     0.000 C 
BRANCH  10  11
ATOM     11  C   UNL     1       2.985  -7.446   4.517  1.00  0.00     0.000 C 
BRANCH  11  12
ATOM     12  C   UNL     1       4.463  -7.044   4.667  1.00  0.00     0.006 C 
BRANCH  12  13
ATOM     13  C   UNL     1       4.728  -6.301   5.983  1.00  0.00     0.053 C 
BRANCH  13  14
ATOM     14  C   UNL     1       5.691  -7.047   6.856  1.00  0.00     0.041 C 
ATOM     15  O   UNL     1       6.502  -6.417   7.587  1.00  0.00    -0.550 OA
ATOM     16  O   UNL     1       5.715  -8.436   6.838  1.00  0.00    -0.550 OA
ENDBRANCH  13  14
ENDBRANCH  12  13
ENDBRANCH  11  12
ENDBRANCH  10  11
ENDBRANCH   9  10
ENDBRANCH   8   9
ENDBRANCH   7   8
ENDBRANCH   6   7
ENDBRANCH   5   6
ENDBRANCH   4   5
ENDBRANCH   3   4
ENDBRANCH   2   3
ENDBRANCH   1   2
BRANCH   1  17
ATOM     17  C   UNL     1       0.906  -0.976   8.857  1.00  0.00     0.000 C 
BRANCH  17  18
ATOM     18  C   UNL     1       0.525  -0.866   7.376  1.00  0.00     0.000 C 
BRANCH  18  19
ATOM     19  C   UNL     1       1.129   0.394   6.744  1.00  0.00     0.000 C 
BRANCH  19  20
ATOM     20  C   UNL     1       0.032   1.406   6.376  1.00  0.00     0.000 C 
BRANCH  20  21
ATOM     21  C   UNL     1      -0.317   2.349   7.538  1.00  0.00     0.000 C 
BRANCH  21  22
ATOM     22  C   UNL     1      -1.818   2.343   7.877  1.00  0.00    -0.000 C 
BRANCH  22  23
ATOM     23  C   UNL     1      -2.099   1.917   9.327  1.00  0.00    -0.000 C 
BRANCH  23  24
ATOM     24  C   UNL     1      -2.821   0.561   9.415  1.00  0.00    -0.000 C 
BRANCH  24  25
ATOM     25  C   UNL     1      -3.111  -0.057   8.036  1.00  0.00    -0.000 C 
BRANCH  25  26
ATOM     26  C   UNL     1      -3.122  -1.597   7.990  1.00  0.00    -0.000 C 
BRANCH  26  27
ATOM     27  C   UNL     1      -2.808  -2.157   6.593  1.00  0.00    -0.000 C 
BRANCH  27  28
ATOM     28  C   UNL     1      -1.827  -3.344   6.631  1.00  0.00    -0.000 C 
BRANCH  28  29
ATOM     29  C   UNL     1      -2.218  -4.485   7.587  1.00  0.00    -0.003 C 
ATOM     30  C   UNL     1      -3.456  -5.255   7.127  1.00  0.00     0.004 C 
ENDBRANCH  28  29
ENDBRANCH  27  28
ENDBRANCH  26  27
ENDBRANCH  25  26
ENDBRANCH  24  25
ENDBRANCH  23  24
ENDBRANCH  22  23
ENDBRANCH  21  22
ENDBRANCH  20  21
ENDBRANCH  19  20
ENDBRANCH  18  19
ENDBRANCH  17  18
ENDBRANCH   1  17
TORSDOF 26
ENDMDL
