MODEL 1
REMARK VINA RESULT:    -3.921      0.000      0.000
REMARK INTER + INTRA:         -10.952
REMARK INTER:                  -8.505
REMARK INTRA:                  -2.447
REMARK UNBOUND:                -2.447
REMARK SMILES CCCCCCCCCCCCCCCCCCCCCC(=O)[O-]
REMARK SMILES IDX 12 1 11 2 10 3 9 4 8 5 7 6 6 7 5 8 4 9 3 10 2 11 1 12 13 13
REMARK SMILES IDX 14 14 15 15 16 16 17 17 18 18 19 19 20 20 21 21 22 22 23 23
REMARK SMILES IDX 24 24
REMARK H PARENT
REMARK Flexibility Score: inf
ROOT
ATOM      1  C   UNL     1      -6.661  -5.845  -8.906  1.00  0.00     0.000 C 
ENDROOT
BRANCH   1   2
ATOM      2  C   UNL     1      -7.785  -5.660  -9.933  1.00  0.00     0.000 C 
BRANCH   2   3
ATOM      3  C   UNL     1      -8.631  -4.419  -9.609  1.00  0.00     0.000 C 
BRANCH   3   4
ATOM      4  C   UNL     1     -10.056  -4.779  -9.158  1.00  0.00    -0.000 C 
BRANCH   4   5
ATOM      5  C   UNL     1     -10.167  -6.232  -8.665  1.00  0.00    -0.000 C 
BRANCH   5   6
ATOM      6  C   UNL     1     -11.117  -6.382  -7.466  1.00  0.00    -0.000 C 
BRANCH   6   7
ATOM      7  C   UNL     1     -11.066  -5.172  -6.519  1.00  0.00    -0.000 C 
BRANCH   7   8
ATOM      8  C   UNL     1     -10.884  -5.575  -5.046  1.00  0.00    -0.000 C 
BRANCH   8   9
ATOM      9  C   UNL     1     -10.858  -4.372  -4.077  1.00  0.00    -0.000 C 
BRANCH   9  10
ATOM     10  C   UNL     1      -9.425  -3.999  -3.658  1.00  0.00    -0.000 C 
BRANCH  10  11
ATOM     11  C   UNL     1      -9.306  -3.704  -2.155  1.00  0.00    -0.003 C 
ATOM     12  C   UNL     1     -10.633  -3.282  -1.526  1.00  0.00     0.004 C 
ENDBRANCH  10  11
ENDBRANCH   9  10
ENDBRANCH   8   9
ENDBRANCH   7   8
ENDBRANCH   6   7
ENDBRANCH   5   6
ENDBRANCH   4   5
ENDBRANCH   3   4
ENDBRANCH   2   3
ENDBRANCH   1   2
BRANCH   1  13
ATOM     13  C   UNL     1      -6.602  -4.655  -7.936  1.00  0.00     0.000 C 
BRANCH  13  14
ATOM     14  C   UNL     1      -7.469  -4.858  -6.680  1.00  0.00     0.000 C 
BRANCH  14  15
ATOM     15  C   UNL     1      -7.417  -6.274  -6.076  1.00  0.00     0.000 C 
BRANCH  15  16
ATOM     16  C   UNL     1      -6.272  -6.455  -5.069  1.00  0.00     0.000 C 
BRANCH  16  17
ATOM     17  C   UNL     1      -5.109  -7.236  -5.696  1.00  0.00     0.000 C 
BRANCH  17  18
ATOM     18  C   UNL     1      -4.084  -6.324  -6.395  1.00  0.00     0.000 C 
BRANCH  18  19
ATOM     19  C   UNL     1      -2.835  -5.984  -5.557  1.00  0.00     0.000 C 
BRANCH  19  20
ATOM     20  C   UNL     1      -2.499  -4.485  -5.465  1.00  0.00     0.006 C 
BRANCH  20  21
ATOM     21  C   UNL     1      -3.689  -3.585  -5.826  1.00  0.00     0.053 C 
BRANCH  21  22
ATOM     22  C   UNL     1      -3.326  -2.143  -5.657  1.00  0.00     0.041 C 
ATOM     23  O   UNL     1      -3.359  -1.362  -6.644  1.00  0.00    -0.550 OA
ATOM     24  O   UNL     1      -2.983  -1.654  -4.402  1.00  0.00    -0.550 OA
ENDBRANCH  21  22
ENDBRANCH  20  21
ENDBRANCH  19  20
ENDBRANCH  18  19
ENDBRANCH  17  18
ENDBRANCH  16  17
ENDBRANCH  15  16
ENDBRANCH  14  15
ENDBRANCH  13  14
ENDBRANCH   1  13
TORSDOF 20
ENDMDL
MODEL 2
REMARK VINA RESULT:    -3.898      2.059      4.194
REMARK INTER + INTRA:         -10.902
REMARK INTER:                  -9.166
REMARK INTRA:                  -1.735
REMARK UNBOUND:                -2.447
REMARK SMILES CCCCCCCCCCCCCCCCCCCCCC(=O)[O-]
REMARK SMILES IDX 12 1 11 2 10 3 9 4 8 5 7 6 6 7 5 8 4 9 3 10 2 11 1 12 13 13
REMARK SMILES IDX 14 14 15 15 16 16 17 17 18 18 19 19 20 20 21 21 22 22 23 23
REMARK SMILES IDX 24 24
REMARK H PARENT
REMARK Flexibility Score: inf
ROOT
ATOM      1  C   UNL     1      -9.584  -5.555  -6.754  1.00  0.00     0.000 C 
ENDROOT
BRANCH   1   2
ATOM      2  C   UNL     1      -8.718  -4.665  -5.852  1.00  0.00     0.000 C 
BRANCH   2   3
ATOM      3  C   UNL     1      -9.566  -3.589  -5.159  1.00  0.00     0.000 C 
BRANCH   3   4
ATOM      4  C   UNL     1     -10.567  -4.185  -4.155  1.00  0.00    -0.000 C 
BRANCH   4   5
ATOM      5  C   UNL     1     -10.977  -3.178  -3.067  1.00  0.00    -0.000 C 
BRANCH   5   6
ATOM      6  C   UNL     1     -11.125  -3.827  -1.681  1.00  0.00    -0.000 C 
BRANCH   6   7
ATOM      7  C   UNL     1      -9.913  -3.560  -0.774  1.00  0.00    -0.000 C 
BRANCH   7   8
ATOM      8  C   UNL     1      -8.729  -2.933  -1.528  1.00  0.00    -0.000 C 
BRANCH   8   9
ATOM      9  C   UNL     1      -8.366  -1.515  -1.037  1.00  0.00    -0.000 C 
BRANCH   9  10
ATOM     10  C   UNL     1      -7.225  -0.892  -1.861  1.00  0.00    -0.000 C 
BRANCH  10  11
ATOM     11  C   UNL     1      -7.062   0.614  -1.604  1.00  0.00    -0.003 C 
ATOM     12  C   UNL     1      -8.221   1.208  -0.804  1.00  0.00     0.004 C 
ENDBRANCH  10  11
ENDBRANCH   9  10
ENDBRANCH   8   9
ENDBRANCH   7   8
ENDBRANCH   6   7
ENDBRANCH   5   6
ENDBRANCH   4   5
ENDBRANCH   3   4
ENDBRANCH   2   3
ENDBRANCH   1   2
BRANCH   1  13
ATOM     13  C   UNL     1      -9.737  -4.936  -8.151  1.00  0.00     0.000 C 
BRANCH  13  14
ATOM     14  C   UNL     1      -9.711  -5.983  -9.279  1.00  0.00     0.000 C 
BRANCH  14  15
ATOM     15  C   UNL     1      -8.449  -6.863  -9.321  1.00  0.00     0.000 C 
BRANCH  15  16
ATOM     16  C   UNL     1      -7.259  -6.174 -10.006  1.00  0.00     0.000 C 
BRANCH  16  17
ATOM     17  C   UNL     1      -5.939  -6.545  -9.315  1.00  0.00     0.000 C 
BRANCH  17  18
ATOM     18  C   UNL     1      -5.914  -6.156  -7.826  1.00  0.00     0.000 C 
BRANCH  18  19
ATOM     19  C   UNL     1      -4.835  -6.866  -6.984  1.00  0.00     0.000 C 
BRANCH  19  20
ATOM     20  C   UNL     1      -4.136  -5.981  -5.937  1.00  0.00     0.006 C 
BRANCH  20  21
ATOM     21  C   UNL     1      -4.585  -4.515  -6.001  1.00  0.00     0.053 C 
BRANCH  21  22
ATOM     22  C   UNL     1      -3.421  -3.601  -5.785  1.00  0.00     0.041 C 
ATOM     23  O   UNL     1      -2.319  -4.062  -5.387  1.00  0.00    -0.550 OA
ATOM     24  O   UNL     1      -3.542  -2.243  -6.054  1.00  0.00    -0.550 OA
ENDBRANCH  21  22
ENDBRANCH  20  21
ENDBRANCH  19  20
ENDBRANCH  18  19
ENDBRANCH  17  18
ENDBRANCH  16  17
ENDBRANCH  15  16
ENDBRANCH  14  15
ENDBRANCH  13  14
ENDBRANCH   1  13
TORSDOF 20
ENDMDL
MODEL 3
REMARK VINA RESULT:    -3.732      2.571      5.900
REMARK INTER + INTRA:         -10.542
REMARK INTER:                  -8.572
REMARK INTRA:                  -1.970
REMARK UNBOUND:                -2.447
REMARK SMILES CCCCCCCCCCCCCCCCCCCCCC(=O)[O-]
REMARK SMILES IDX 12 1 11 2 10 3 9 4 8 5 7 6 6 7 5 8 4 9 3 10 2 11 1 12 13 13
REMARK SMILES IDX 14 14 15 15 16 16 17 17 18 18 19 19 20 20 21 21 22 22 23 23
REMARK SMILES IDX 24 24
REMARK H PARENT
REMARK Flexibility Score: inf
ROOT
ATOM      1  C   UNL     1      -9.093  -5.322  -6.443  1.00  0.00     0.000 C 
ENDROOT
BRANCH   1   2
ATOM      2  C   UNL     1     -10.289  -5.768  -7.293  1.00  0.00     0.000 C 
BRANCH   2   3
ATOM      3  C   UNL     1      -9.861  -6.060  -8.739  1.00  0.00     0.000 C 
BRANCH   3   4
ATOM      4  C   UNL     1      -8.369  -5.777  -8.980  1.00  0.00    -0.000 C 
BRANCH   4   5
ATOM      5  C   UNL     1      -7.673  -6.910  -9.752  1.00  0.00    -0.000 C 
BRANCH   5   6
ATOM      6  C   UNL     1      -6.264  -7.215  -9.219  1.00  0.00    -0.000 C 
BRANCH   6   7
ATOM      7  C   UNL     1      -5.739  -6.116  -8.281  1.00  0.00    -0.000 C 
BRANCH   7   8
ATOM      8  C   UNL     1      -5.133  -6.678  -6.983  1.00  0.00    -0.000 C 
BRANCH   8   9
ATOM      9  C   UNL     1      -5.052  -5.642  -5.841  1.00  0.00    -0.000 C 
BRANCH   9  10
ATOM     10  C   UNL     1      -4.659  -4.245  -6.355  1.00  0.00    -0.000 C 
BRANCH  10  11
ATOM     11  C   UNL     1      -3.362  -3.724  -5.718  1.00  0.00    -0.003 C 
ATOM     12  C   UNL     1      -3.260  -2.199  -5.744  1.00  0.00     0.004 C 
ENDBRANCH  10  11
ENDBRANCH   9  10
ENDBRANCH   8   9
ENDBRANCH   7   8
ENDBRANCH   6   7
ENDBRANCH   5   6
ENDBRANCH   4   5
ENDBRANCH   3   4
ENDBRANCH   2   3
ENDBRANCH   1   2
BRANCH   1  13
ATOM     13  C   UNL     1      -9.468  -4.127  -5.553  1.00  0.00     0.000 C 
BRANCH  13  14
ATOM     14  C   UNL     1     -10.928  -4.174  -5.065  1.00  0.00     0.000 C 
BRANCH  14  15
ATOM     15  C   UNL     1     -11.107  -4.581  -3.591  1.00  0.00     0.000 C 
BRANCH  15  16
ATOM     16  C   UNL     1     -11.086  -3.383  -2.631  1.00  0.00     0.000 C 
BRANCH  16  17
ATOM     17  C   UNL     1     -10.325  -3.726  -1.342  1.00  0.00     0.000 C 
BRANCH  17  18
ATOM     18  C   UNL     1      -8.797  -3.674  -1.519  1.00  0.00     0.000 C 
BRANCH  18  19
ATOM     19  C   UNL     1      -8.289  -2.596  -2.497  1.00  0.00     0.000 C 
BRANCH  19  20
ATOM     20  C   UNL     1      -7.426  -1.492  -1.861  1.00  0.00     0.006 C 
BRANCH  20  21
ATOM     21  C   UNL     1      -8.216  -0.605  -0.889  1.00  0.00     0.053 C 
BRANCH  21  22
ATOM     22  C   UNL     1      -7.827   0.830  -1.056  1.00  0.00     0.041 C 
ATOM     23  O   UNL     1      -6.650   1.133  -1.386  1.00  0.00    -0.550 OA
ATOM     24  O   UNL     1      -8.773   1.833  -0.880  1.00  0.00    -0.550 OA
ENDBRANCH  21  22
ENDBRANCH  20  21
ENDBRANCH  19  20
ENDBRANCH  18  19
ENDBRANCH  17  18
ENDBRANCH  16  17
ENDBRANCH  15  16
ENDBRANCH  14  15
ENDBRANCH  13  14
ENDBRANCH   1  13
TORSDOF 20
ENDMDL
MODEL 4
REMARK VINA RESULT:    -3.561      1.428      2.836
REMARK INTER + INTRA:         -10.172
REMARK INTER:                  -8.403
REMARK INTRA:                  -1.769
REMARK UNBOUND:                -2.447
REMARK SMILES CCCCCCCCCCCCCCCCCCCCCC(=O)[O-]
REMARK SMILES IDX 12 1 11 2 10 3 9 4 8 5 7 6 6 7 5 8 4 9 3 10 2 11 1 12 13 13
REMARK SMILES IDX 14 14 15 15 16 16 17 17 18 18 19 19 20 20 21 21 22 22 23 23
REMARK SMILES IDX 24 24
REMARK H PARENT
REMARK Flexibility Score: inf
ROOT
ATOM      1  C   UNL     1      -8.792  -4.269  -8.596  1.00  0.00     0.000 C 
ENDROOT
BRANCH   1   2
ATOM      2  C   UNL     1     -10.292  -3.980  -8.734  1.00  0.00     0.000 C 
BRANCH   2   3
ATOM      3  C   UNL     1     -11.124  -4.960  -7.894  1.00  0.00     0.000 C 
BRANCH   3   4
ATOM      4  C   UNL     1     -10.282  -5.689  -6.834  1.00  0.00    -0.000 C 
BRANCH   4   5
ATOM      5  C   UNL     1     -10.704  -5.329  -5.399  1.00  0.00    -0.000 C 
BRANCH   5   6
ATOM      6  C   UNL     1     -10.370  -3.875  -5.028  1.00  0.00    -0.000 C 
BRANCH   6   7
ATOM      7  C   UNL     1     -10.231  -3.672  -3.511  1.00  0.00    -0.000 C 
BRANCH   7   8
ATOM      8  C   UNL     1      -8.931  -4.269  -2.945  1.00  0.00    -0.000 C 
BRANCH   8   9
ATOM      9  C   UNL     1      -8.542  -3.700  -1.563  1.00  0.00    -0.000 C 
BRANCH   9  10
ATOM     10  C   UNL     1      -8.767  -2.180  -1.479  1.00  0.00    -0.000 C 
BRANCH  10  11
ATOM     11  C   UNL     1      -7.453  -1.391  -1.385  1.00  0.00    -0.003 C 
ATOM     12  C   UNL     1      -7.664   0.122  -1.432  1.00  0.00     0.004 C 
ENDBRANCH  10  11
ENDBRANCH   9  10
ENDBRANCH   8   9
ENDBRANCH   7   8
ENDBRANCH   6   7
ENDBRANCH   5   6
ENDBRANCH   4   5
ENDBRANCH   3   4
ENDBRANCH   2   3
ENDBRANCH   1   2
BRANCH   1  13
ATOM     13  C   UNL     1      -8.103  -4.268  -9.969  1.00  0.00     0.000 C 
BRANCH  13  14
ATOM     14  C   UNL     1      -6.735  -4.973  -9.957  1.00  0.00     0.000 C 
BRANCH  14  15
ATOM     15  C   UNL     1      -6.766  -6.443  -9.503  1.00  0.00     0.000 C 
BRANCH  15  16
ATOM     16  C   UNL     1      -5.700  -6.768  -8.446  1.00  0.00     0.000 C 
BRANCH  16  17
ATOM     17  C   UNL     1      -6.255  -6.571  -7.029  1.00  0.00     0.000 C 
BRANCH  17  18
ATOM     18  C   UNL     1      -5.220  -6.881  -5.932  1.00  0.00     0.000 C 
BRANCH  18  19
ATOM     19  C   UNL     1      -3.921  -6.053  -6.008  1.00  0.00     0.000 C 
BRANCH  19  20
ATOM     20  C   UNL     1      -4.121  -4.528  -6.065  1.00  0.00     0.006 C 
BRANCH  20  21
ATOM     21  C   UNL     1      -2.970  -3.752  -5.411  1.00  0.00     0.053 C 
BRANCH  21  22
ATOM     22  C   UNL     1      -3.194  -2.278  -5.538  1.00  0.00     0.041 C 
ATOM     23  O   UNL     1      -2.991  -1.520  -4.553  1.00  0.00    -0.550 OA
ATOM     24  O   UNL     1      -3.593  -1.736  -6.753  1.00  0.00    -0.550 OA
ENDBRANCH  21  22
ENDBRANCH  20  21
ENDBRANCH  19  20
ENDBRANCH  18  19
ENDBRANCH  17  18
ENDBRANCH  16  17
ENDBRANCH  15  16
ENDBRANCH  14  15
ENDBRANCH  13  14
ENDBRANCH   1  13
TORSDOF 20
ENDMDL
MODEL 5
REMARK VINA RESULT:    -3.367      3.036      6.262
REMARK INTER + INTRA:          -9.750
REMARK INTER:                  -7.485
REMARK INTRA:                  -2.266
REMARK UNBOUND:                -2.447
REMARK SMILES CCCCCCCCCCCCCCCCCCCCCC(=O)[O-]
REMARK SMILES IDX 12 1 11 2 10 3 9 4 8 5 7 6 6 7 5 8 4 9 3 10 2 11 1 12 13 13
REMARK SMILES IDX 14 14 15 15 16 16 17 17 18 18 19 19 20 20 21 21 22 22 23 23
REMARK SMILES IDX 24 24
REMARK H PARENT
REMARK Flexibility Score: inf
ROOT
ATOM      1  C   UNL     1      -8.794  -4.657  -4.635  1.00  0.00     0.000 C 
ENDROOT
BRANCH   1   2
ATOM      2  C   UNL     1      -8.730  -5.626  -5.822  1.00  0.00     0.000 C 
BRANCH   2   3
ATOM      3  C   UNL     1      -9.978  -5.498  -6.708  1.00  0.00     0.000 C 
BRANCH   3   4
ATOM      4  C   UNL     1      -9.632  -5.391  -8.202  1.00  0.00    -0.000 C 
BRANCH   4   5
ATOM      5  C   UNL     1      -8.591  -4.295  -8.487  1.00  0.00    -0.000 C 
BRANCH   5   6
ATOM      6  C   UNL     1      -7.394  -4.810  -9.305  1.00  0.00    -0.000 C 
BRANCH   6   7
ATOM      7  C   UNL     1      -7.531  -6.295  -9.677  1.00  0.00    -0.000 C 
BRANCH   7   8
ATOM      8  C   UNL     1      -6.583  -7.202  -8.874  1.00  0.00    -0.000 C 
BRANCH   8   9
ATOM      9  C   UNL     1      -5.516  -6.423  -8.073  1.00  0.00    -0.000 C 
BRANCH   9  10
ATOM     10  C   UNL     1      -5.337  -6.984  -6.651  1.00  0.00    -0.000 C 
BRANCH  10  11
ATOM     11  C   UNL     1      -4.629  -5.997  -5.711  1.00  0.00    -0.003 C 
ATOM     12  C   UNL     1      -4.726  -4.548  -6.188  1.00  0.00     0.004 C 
ENDBRANCH  10  11
ENDBRANCH   9  10
ENDBRANCH   8   9
ENDBRANCH   7   8
ENDBRANCH   6   7
ENDBRANCH   5   6
ENDBRANCH   4   5
ENDBRANCH   3   4
ENDBRANCH   2   3
ENDBRANCH   1   2
BRANCH   1  13
ATOM     13  C   UNL     1      -9.962  -3.671  -4.794  1.00  0.00     0.000 C 
BRANCH  13  14
ATOM     14  C   UNL     1     -11.069  -3.875  -3.744  1.00  0.00     0.000 C 
BRANCH  14  15
ATOM     15  C   UNL     1     -11.120  -2.805  -2.638  1.00  0.00     0.000 C 
BRANCH  15  16
ATOM     16  C   UNL     1     -11.048  -3.400  -1.224  1.00  0.00     0.000 C 
BRANCH  16  17
ATOM     17  C   UNL     1      -9.687  -3.107  -0.576  1.00  0.00     0.000 C 
BRANCH  17  18
ATOM     18  C   UNL     1      -8.514  -3.232  -1.564  1.00  0.00     0.000 C 
BRANCH  18  19
ATOM     19  C   UNL     1      -7.765  -1.917  -1.859  1.00  0.00     0.000 C 
BRANCH  19  20
ATOM     20  C   UNL     1      -8.180  -0.720  -0.986  1.00  0.00     0.006 C 
BRANCH  20  21
ATOM     21  C   UNL     1      -7.600   0.610  -1.485  1.00  0.00     0.053 C 
BRANCH  21  22
ATOM     22  C   UNL     1      -8.160   1.754  -0.700  1.00  0.00     0.041 C 
ATOM     23  O   UNL     1      -9.000   2.531  -1.224  1.00  0.00    -0.550 OA
ATOM     24  O   UNL     1      -7.780   1.942   0.624  1.00  0.00    -0.550 OA
ENDBRANCH  21  22
ENDBRANCH  20  21
ENDBRANCH  19  20
ENDBRANCH  18  19
ENDBRANCH  17  18
ENDBRANCH  16  17
ENDBRANCH  15  16
ENDBRANCH  14  15
ENDBRANCH  13  14
ENDBRANCH   1  13
TORSDOF 20
ENDMDL
MODEL 6
REMARK VINA RESULT:    -3.361      2.297      5.713
REMARK INTER + INTRA:          -9.737
REMARK INTER:                  -7.516
REMARK INTRA:                  -2.221
REMARK UNBOUND:                -2.447
REMARK SMILES CCCCCCCCCCCCCCCCCCCCCC(=O)[O-]
REMARK SMILES IDX 12 1 11 2 10 3 9 4 8 5 7 6 6 7 5 8 4 9 3 10 2 11 1 12 13 13
REMARK SMILES IDX 14 14 15 15 16 16 17 17 18 18 19 19 20 20 21 21 22 22 23 23
REMARK SMILES IDX 24 24
REMARK H PARENT
REMARK Flexibility Score: inf
ROOT
ATOM      1  C   UNL     1      -5.578  -6.271  -5.274  1.00  0.00     0.000 C 
ENDROOT
BRANCH   1   2
ATOM      2  C   UNL     1      -4.841  -6.718  -6.542  1.00  0.00     0.000 C 
BRANCH   2   3
ATOM      3  C   UNL     1      -5.423  -6.036  -7.789  1.00  0.00     0.000 C 
BRANCH   3   4
ATOM      4  C   UNL     1      -5.598  -7.010  -8.965  1.00  0.00    -0.000 C 
BRANCH   4   5
ATOM      5  C   UNL     1      -6.441  -6.410 -10.104  1.00  0.00    -0.000 C 
BRANCH   5   6
ATOM      6  C   UNL     1      -7.882  -6.948 -10.123  1.00  0.00    -0.000 C 
BRANCH   6   7
ATOM      7  C   UNL     1      -8.580  -6.808  -8.761  1.00  0.00    -0.000 C 
BRANCH   7   8
ATOM      8  C   UNL     1      -9.844  -5.934  -8.826  1.00  0.00    -0.000 C 
BRANCH   8   9
ATOM      9  C   UNL     1      -9.896  -5.016 -10.067  1.00  0.00    -0.000 C 
BRANCH   9  10
ATOM     10  C   UNL     1     -10.150  -3.546  -9.689  1.00  0.00    -0.000 C 
BRANCH  10  11
ATOM     11  C   UNL     1      -9.005  -2.618 -10.122  1.00  0.00    -0.003 C 
ATOM     12  C   UNL     1      -7.641  -3.307 -10.100  1.00  0.00     0.004 C 
ENDBRANCH  10  11
ENDBRANCH   9  10
ENDBRANCH   8   9
ENDBRANCH   7   8
ENDBRANCH   6   7
ENDBRANCH   5   6
ENDBRANCH   4   5
ENDBRANCH   3   4
ENDBRANCH   2   3
ENDBRANCH   1   2
BRANCH   1  13
ATOM     13  C   UNL     1      -7.100  -6.350  -5.466  1.00  0.00     0.000 C 
BRANCH  13  14
ATOM     14  C   UNL     1      -7.802  -4.993  -5.283  1.00  0.00     0.000 C 
BRANCH  14  15
ATOM     15  C   UNL     1      -9.341  -5.052  -5.283  1.00  0.00     0.000 C 
BRANCH  15  16
ATOM     16  C   UNL     1      -9.992  -3.727  -5.705  1.00  0.00     0.000 C 
BRANCH  16  17
ATOM     17  C   UNL     1     -10.706  -3.065  -4.519  1.00  0.00     0.000 C 
BRANCH  17  18
ATOM     18  C   UNL     1     -10.980  -4.044  -3.363  1.00  0.00     0.000 C 
BRANCH  18  19
ATOM     19  C   UNL     1     -10.210  -3.747  -2.060  1.00  0.00     0.000 C 
BRANCH  19  20
ATOM     20  C   UNL     1      -8.780  -3.214  -2.253  1.00  0.00     0.006 C 
BRANCH  20  21
ATOM     21  C   UNL     1      -8.363  -2.219  -1.162  1.00  0.00     0.053 C 
BRANCH  21  22
ATOM     22  C   UNL     1      -7.714  -1.016  -1.771  1.00  0.00     0.041 C 
ATOM     23  O   UNL     1      -6.901  -1.149  -2.723  1.00  0.00    -0.550 OA
ATOM     24  O   UNL     1      -8.033   0.256  -1.311  1.00  0.00    -0.550 OA
ENDBRANCH  21  22
ENDBRANCH  20  21
ENDBRANCH  19  20
ENDBRANCH  18  19
ENDBRANCH  17  18
ENDBRANCH  16  17
ENDBRANCH  15  16
ENDBRANCH  14  15
ENDBRANCH  13  14
ENDBRANCH   1  13
TORSDOF 20
ENDMDL
MODEL 7
REMARK VINA RESULT:    -2.883      3.522      6.293
REMARK INTER + INTRA:          -8.700
REMARK INTER:                  -6.668
REMARK INTRA:                  -2.033
REMARK UNBOUND:                -2.447
REMARK SMILES CCCCCCCCCCCCCCCCCCCCCC(=O)[O-]
REMARK SMILES IDX 12 1 11 2 10 3 9 4 8 5 7 6 6 7 5 8 4 9 3 10 2 11 1 12 13 13
REMARK SMILES IDX 14 14 15 15 16 16 17 17 18 18 19 19 20 20 21 21 22 22 23 23
REMARK SMILES IDX 24 24
REMARK H PARENT
REMARK Flexibility Score: inf
ROOT
ATOM      1  C   UNL     1      -6.583  -5.827  -5.313  1.00  0.00     0.000 C 
ENDROOT
BRANCH   1   2
ATOM      2  C   UNL     1      -8.113  -5.731  -5.356  1.00  0.00     0.000 C 
BRANCH   2   3
ATOM      3  C   UNL     1      -8.607  -4.463  -4.645  1.00  0.00     0.000 C 
BRANCH   3   4
ATOM      4  C   UNL     1      -9.652  -3.693  -5.470  1.00  0.00    -0.000 C 
BRANCH   4   5
ATOM      5  C   UNL     1     -10.646  -2.921  -4.586  1.00  0.00    -0.000 C 
BRANCH   5   6
ATOM      6  C   UNL     1     -11.008  -3.678  -3.297  1.00  0.00    -0.000 C 
BRANCH   6   7
ATOM      7  C   UNL     1     -10.522  -2.953  -2.033  1.00  0.00    -0.000 C 
BRANCH   7   8
ATOM      8  C   UNL     1      -9.382  -3.698  -1.318  1.00  0.00    -0.000 C 
BRANCH   8   9
ATOM      9  C   UNL     1      -8.110  -2.843  -1.128  1.00  0.00    -0.000 C 
BRANCH   9  10
ATOM     10  C   UNL     1      -7.812  -1.969  -2.359  1.00  0.00    -0.000 C 
BRANCH  10  11
ATOM     11  C   UNL     1      -7.268  -0.582  -1.982  1.00  0.00    -0.003 C 
ATOM     12  C   UNL     1      -8.125   0.127  -0.934  1.00  0.00     0.004 C 
ENDBRANCH  10  11
ENDBRANCH   9  10
ENDBRANCH   8   9
ENDBRANCH   7   8
ENDBRANCH   6   7
ENDBRANCH   5   6
ENDBRANCH   4   5
ENDBRANCH   3   4
ENDBRANCH   2   3
ENDBRANCH   1   2
BRANCH   1  13
ATOM     13  C   UNL     1      -5.965  -5.339  -6.631  1.00  0.00     0.000 C 
BRANCH  13  14
ATOM     14  C   UNL     1      -6.230  -6.292  -7.810  1.00  0.00     0.000 C 
BRANCH  14  15
ATOM     15  C   UNL     1      -6.470  -5.600  -9.164  1.00  0.00     0.000 C 
BRANCH  15  16
ATOM     16  C   UNL     1      -7.589  -4.550  -9.112  1.00  0.00     0.000 C 
BRANCH  16  17
ATOM     17  C   UNL     1      -8.697  -4.879 -10.122  1.00  0.00     0.000 C 
BRANCH  17  18
ATOM     18  C   UNL     1     -10.079  -4.364  -9.683  1.00  0.00     0.000 C 
BRANCH  18  19
ATOM     19  C   UNL     1     -10.606  -4.954  -8.360  1.00  0.00     0.000 C 
BRANCH  19  20
ATOM     20  C   UNL     1     -10.923  -6.459  -8.396  1.00  0.00     0.006 C 
BRANCH  20  21
ATOM     21  C   UNL     1     -11.076  -7.001  -9.824  1.00  0.00     0.053 C 
BRANCH  21  22
ATOM     22  C   UNL     1     -10.340  -8.295  -9.975  1.00  0.00     0.041 C 
ATOM     23  O   UNL     1      -9.082  -8.315  -9.941  1.00  0.00    -0.550 OA
ATOM     24  O   UNL     1     -11.045  -9.484 -10.119  1.00  0.00    -0.550 OA
ENDBRANCH  21  22
ENDBRANCH  20  21
ENDBRANCH  19  20
ENDBRANCH  18  19
ENDBRANCH  17  18
ENDBRANCH  16  17
ENDBRANCH  15  16
ENDBRANCH  14  15
ENDBRANCH  13  14
ENDBRANCH   1  13
TORSDOF 20
ENDMDL
MODEL 8
REMARK VINA RESULT:    -2.764      2.798      5.403
REMARK INTER + INTRA:          -8.442
REMARK INTER:                  -6.248
REMARK INTRA:                  -2.193
REMARK UNBOUND:                -2.447
REMARK SMILES CCCCCCCCCCCCCCCCCCCCCC(=O)[O-]
REMARK SMILES IDX 12 1 11 2 10 3 9 4 8 5 7 6 6 7 5 8 4 9 3 10 2 11 1 12 13 13
REMARK SMILES IDX 14 14 15 15 16 16 17 17 18 18 19 19 20 20 21 21 22 22 23 23
REMARK SMILES IDX 24 24
REMARK H PARENT
REMARK Flexibility Score: inf
ROOT
ATOM      1  C   UNL     1      -6.187  -6.330  -5.066  1.00  0.00     0.000 C 
ENDROOT
BRANCH   1   2
ATOM      2  C   UNL     1      -7.656  -6.342  -5.508  1.00  0.00     0.000 C 
BRANCH   2   3
ATOM      3  C   UNL     1      -8.233  -4.919  -5.546  1.00  0.00     0.000 C 
BRANCH   3   4
ATOM      4  C   UNL     1      -9.638  -4.836  -4.926  1.00  0.00    -0.000 C 
BRANCH   4   5
ATOM      5  C   UNL     1     -10.169  -3.394  -4.865  1.00  0.00    -0.000 C 
BRANCH   5   6
ATOM      6  C   UNL     1     -10.830  -3.061  -3.517  1.00  0.00    -0.000 C 
BRANCH   6   7
ATOM      7  C   UNL     1     -10.402  -4.024  -2.398  1.00  0.00    -0.000 C 
BRANCH   7   8
ATOM      8  C   UNL     1      -8.994  -3.724  -1.858  1.00  0.00    -0.000 C 
BRANCH   8   9
ATOM      9  C   UNL     1      -8.812  -2.264  -1.389  1.00  0.00    -0.000 C 
BRANCH   9  10
ATOM     10  C   UNL     1      -7.756  -1.516  -2.223  1.00  0.00    -0.000 C 
BRANCH  10  11
ATOM     11  C   UNL     1      -7.068  -0.391  -1.436  1.00  0.00    -0.003 C 
ATOM     12  C   UNL     1      -8.028   0.732  -1.042  1.00  0.00     0.004 C 
ENDBRANCH  10  11
ENDBRANCH   9  10
ENDBRANCH   8   9
ENDBRANCH   7   8
ENDBRANCH   6   7
ENDBRANCH   5   6
ENDBRANCH   4   5
ENDBRANCH   3   4
ENDBRANCH   2   3
ENDBRANCH   1   2
BRANCH   1  13
ATOM     13  C   UNL     1      -5.250  -6.477  -6.274  1.00  0.00     0.000 C 
BRANCH  13  14
ATOM     14  C   UNL     1      -5.978  -6.940  -7.549  1.00  0.00     0.000 C 
BRANCH  14  15
ATOM     15  C   UNL     1      -5.873  -5.976  -8.744  1.00  0.00     0.000 C 
BRANCH  15  16
ATOM     16  C   UNL     1      -6.469  -6.554 -10.036  1.00  0.00     0.000 C 
BRANCH  16  17
ATOM     17  C   UNL     1      -6.956  -7.993  -9.819  1.00  0.00     0.000 C 
BRANCH  17  18
ATOM     18  C   UNL     1      -8.455  -8.169 -10.125  1.00  0.00     0.000 C 
BRANCH  18  19
ATOM     19  C   UNL     1      -9.292  -6.878 -10.050  1.00  0.00     0.000 C 
BRANCH  19  20
ATOM     20  C   UNL     1      -9.629  -6.399  -8.627  1.00  0.00     0.006 C 
BRANCH  20  21
ATOM     21  C   UNL     1     -10.616  -5.224  -8.612  1.00  0.00     0.053 C 
BRANCH  21  22
ATOM     22  C   UNL     1      -9.936  -3.963  -9.044  1.00  0.00     0.041 C 
ATOM     23  O   UNL     1      -8.688  -3.847  -8.932  1.00  0.00    -0.550 OA
ATOM     24  O   UNL     1     -10.677  -2.929  -9.603  1.00  0.00    -0.550 OA
ENDBRANCH  21  22
ENDBRANCH  20  21
ENDBRANCH  19  20
ENDBRANCH  18  19
ENDBRANCH  17  18
ENDBRANCH  16  17
ENDBRANCH  15  16
ENDBRANCH  14  15
ENDBRANCH  13  14
ENDBRANCH   1  13
TORSDOF 20
ENDMDL
