MODEL 1
REMARK VINA RESULT:    -2.261      0.000      0.000
REMARK INTER + INTRA:          -9.316
REMARK INTER:                  -5.170
REMARK INTRA:                  -4.146
REMARK UNBOUND:                -4.146
REMARK SMILES CCCCCCCCCCCCCCCCCCCCCCCC(=O)[O-]
REMARK SMILES IDX 13 1 14 2 15 3 16 4 17 5 18 6 19 7 20 8 21 9 22 10 23 11
REMARK SMILES IDX 24 12 25 13 26 14 12 15 11 16 10 17 9 18 8 19 7 20 6 21 5 22
REMARK SMILES IDX 4 23 3 24 2 25 1 26
REMARK H PARENT
REMARK Flexibility Score: inf
ROOT
ATOM      1  C   UNL     1      -1.385   9.848 -12.336  1.00  0.00     0.000 C 
ENDROOT
BRANCH   1   2
ATOM      2  C   UNL     1      -2.276  10.400 -13.461  1.00  0.00     0.000 C 
BRANCH   2   3
ATOM      3  C   UNL     1      -3.414  11.290 -12.932  1.00  0.00     0.000 C 
BRANCH   3   4
ATOM      4  C   UNL     1      -2.968  12.742 -12.698  1.00  0.00     0.000 C 
BRANCH   4   5
ATOM      5  C   UNL     1      -3.103  13.176 -11.228  1.00  0.00     0.000 C 
BRANCH   5   6
ATOM      6  C   UNL     1      -1.737  13.232 -10.511  1.00  0.00     0.000 C 
BRANCH   6   7
ATOM      7  C   UNL     1      -0.599  13.767 -11.399  1.00  0.00     0.000 C 
BRANCH   7   8
ATOM      8  C   UNL     1       0.645  12.867 -11.384  1.00  0.00     0.000 C 
BRANCH   8   9
ATOM      9  C   UNL     1       0.727  12.063 -10.083  1.00  0.00     0.000 C 
BRANCH   9  10
ATOM     10  C   UNL     1       1.836  12.611  -9.171  1.00  0.00     0.006 C 
BRANCH  10  11
ATOM     11  C   UNL     1       1.342  13.753  -8.273  1.00  0.00     0.053 C 
BRANCH  11  12
ATOM     12  C   UNL     1       0.593  13.238  -7.081  1.00  0.00     0.041 C 
ATOM     13  O   UNL     1      -0.664  13.280  -7.056  1.00  0.00    -0.550 OA
ATOM     14  O   UNL     1       1.287  12.766  -5.973  1.00  0.00    -0.550 OA
ENDBRANCH  11  12
ENDBRANCH  10  11
ENDBRANCH   9  10
ENDBRANCH   8   9
ENDBRANCH   7   8
ENDBRANCH   6   7
ENDBRANCH   5   6
ENDBRANCH   4   5
ENDBRANCH   3   4
ENDBRANCH   2   3
ENDBRANCH   1   2
BRANCH   1  15
ATOM     15  C   UNL     1      -2.182   9.060 -11.283  1.00  0.00     0.000 C 
BRANCH  15  16
ATOM     16  C   UNL     1      -1.887   9.578  -9.870  1.00  0.00     0.000 C 
BRANCH  16  17
ATOM     17  C   UNL     1      -3.191   9.801  -9.088  1.00  0.00     0.000 C 
BRANCH  17  18
ATOM     18  C   UNL     1      -4.441   9.539  -9.940  1.00  0.00    -0.000 C 
BRANCH  18  19
ATOM     19  C   UNL     1      -5.573   8.868  -9.146  1.00  0.00    -0.000 C 
BRANCH  19  20
ATOM     20  C   UNL     1      -5.208   7.452  -8.664  1.00  0.00    -0.000 C 
BRANCH  20  21
ATOM     21  C   UNL     1      -4.532   6.579  -9.744  1.00  0.00    -0.000 C 
BRANCH  21  22
ATOM     22  C   UNL     1      -3.259   5.887  -9.223  1.00  0.00    -0.000 C 
BRANCH  22  23
ATOM     23  C   UNL     1      -2.916   6.281  -7.775  1.00  0.00    -0.000 C 
BRANCH  23  24
ATOM     24  C   UNL     1      -1.463   6.772  -7.583  1.00  0.00    -0.000 C 
BRANCH  24  25
ATOM     25  C   UNL     1      -0.397   5.739  -7.987  1.00  0.00    -0.003 C 
ATOM     26  C   UNL     1      -0.338   4.538  -7.047  1.00  0.00     0.004 C 
ENDBRANCH  24  25
ENDBRANCH  23  24
ENDBRANCH  22  23
ENDBRANCH  21  22
ENDBRANCH  20  21
ENDBRANCH  19  20
ENDBRANCH  18  19
ENDBRANCH  17  18
ENDBRANCH  16  17
ENDBRANCH  15  16
ENDBRANCH   1  15
TORSDOF 22
ENDMDL
MODEL 2
REMARK VINA RESULT:    -2.195      3.620      7.056
REMARK INTER + INTRA:          -9.164
REMARK INTER:                  -4.628
REMARK INTRA:                  -4.536
REMARK UNBOUND:                -4.146
REMARK SMILES CCCCCCCCCCCCCCCCCCCCCCCC(=O)[O-]
REMARK SMILES IDX 13 1 14 2 15 3 16 4 17 5 18 6 19 7 20 8 21 9 22 10 23 11
REMARK SMILES IDX 24 12 25 13 26 14 12 15 11 16 10 17 9 18 8 19 7 20 6 21 5 22
REMARK SMILES IDX 4 23 3 24 2 25 1 26
REMARK H PARENT
REMARK Flexibility Score: inf
ROOT
ATOM      1  C   UNL     1       0.730   3.275  -7.135  1.00  0.00     0.000 C 
ENDROOT
BRANCH   1   2
ATOM      2  C   UNL     1       1.342   3.491  -8.528  1.00  0.00     0.000 C 
BRANCH   2   3
ATOM      3  C   UNL     1       0.277   3.703  -9.618  1.00  0.00     0.000 C 
BRANCH   3   4
ATOM      4  C   UNL     1       0.459   5.030 -10.371  1.00  0.00     0.000 C 
BRANCH   4   5
ATOM      5  C   UNL     1       1.719   5.797  -9.929  1.00  0.00     0.000 C 
BRANCH   5   6
ATOM      6  C   UNL     1       1.394   7.234  -9.471  1.00  0.00     0.000 C 
BRANCH   6   7
ATOM      7  C   UNL     1       2.513   7.881  -8.635  1.00  0.00     0.000 C 
BRANCH   7   8
ATOM      8  C   UNL     1       1.991   8.565  -7.364  1.00  0.00     0.000 C 
BRANCH   8   9
ATOM      9  C   UNL     1       2.831   8.173  -6.143  1.00  0.00     0.000 C 
BRANCH   9  10
ATOM     10  C   UNL     1       3.430   6.769  -6.322  1.00  0.00     0.006 C 
BRANCH  10  11
ATOM     11  C   UNL     1       3.234   5.889  -5.080  1.00  0.00     0.053 C 
BRANCH  11  12
ATOM     12  C   UNL     1       3.934   4.570  -5.216  1.00  0.00     0.041 C 
ATOM     13  O   UNL     1       4.157   4.086  -6.356  1.00  0.00    -0.550 OA
ATOM     14  O   UNL     1       4.290   3.850  -4.081  1.00  0.00    -0.550 OA
ENDBRANCH  11  12
ENDBRANCH  10  11
ENDBRANCH   9  10
ENDBRANCH   8   9
ENDBRANCH   7   8
ENDBRANCH   6   7
ENDBRANCH   5   6
ENDBRANCH   4   5
ENDBRANCH   3   4
ENDBRANCH   2   3
ENDBRANCH   1   2
BRANCH   1  15
ATOM     15  C   UNL     1      -0.508   4.155  -6.890  1.00  0.00     0.000 C 
BRANCH  15  16
ATOM     16  C   UNL     1      -0.102   5.560  -6.431  1.00  0.00     0.000 C 
BRANCH  16  17
ATOM     17  C   UNL     1      -1.137   6.602  -6.882  1.00  0.00     0.000 C 
BRANCH  17  18
ATOM     18  C   UNL     1      -2.146   6.032  -7.889  1.00  0.00    -0.000 C 
BRANCH  18  19
ATOM     19  C   UNL     1      -2.924   7.126  -8.636  1.00  0.00    -0.000 C 
BRANCH  19  20
ATOM     20  C   UNL     1      -2.307   7.473 -10.003  1.00  0.00    -0.000 C 
BRANCH  20  21
ATOM     21  C   UNL     1      -2.055   8.983 -10.210  1.00  0.00    -0.000 C 
BRANCH  21  22
ATOM     22  C   UNL     1      -2.540   9.824  -9.015  1.00  0.00    -0.000 C 
BRANCH  22  23
ATOM     23  C   UNL     1      -1.384  10.340  -8.140  1.00  0.00    -0.000 C 
BRANCH  23  24
ATOM     24  C   UNL     1      -0.223  10.975  -8.939  1.00  0.00    -0.000 C 
BRANCH  24  25
ATOM     25  C   UNL     1       0.585  12.016  -8.144  1.00  0.00    -0.003 C 
ATOM     26  C   UNL     1      -0.259  12.783  -7.131  1.00  0.00     0.004 C 
ENDBRANCH  24  25
ENDBRANCH  23  24
ENDBRANCH  22  23
ENDBRANCH  21  22
ENDBRANCH  20  21
ENDBRANCH  19  20
ENDBRANCH  18  19
ENDBRANCH  17  18
ENDBRANCH  16  17
ENDBRANCH  15  16
ENDBRANCH   1  15
TORSDOF 22
ENDMDL
MODEL 3
REMARK VINA RESULT:    -2.180      1.274      3.694
REMARK INTER + INTRA:          -9.129
REMARK INTER:                  -5.406
REMARK INTRA:                  -3.722
REMARK UNBOUND:                -4.146
REMARK SMILES CCCCCCCCCCCCCCCCCCCCCCCC(=O)[O-]
REMARK SMILES IDX 13 1 14 2 15 3 16 4 17 5 18 6 19 7 20 8 21 9 22 10 23 11
REMARK SMILES IDX 24 12 25 13 26 14 12 15 11 16 10 17 9 18 8 19 7 20 6 21 5 22
REMARK SMILES IDX 4 23 3 24 2 25 1 26
REMARK H PARENT
REMARK Flexibility Score: inf
ROOT
ATOM      1  C   UNL     1      -1.565   9.838  -8.294  1.00  0.00     0.000 C 
ENDROOT
BRANCH   1   2
ATOM      2  C   UNL     1      -3.015   9.956  -8.791  1.00  0.00     0.000 C 
BRANCH   2   3
ATOM      3  C   UNL     1      -3.198   9.409 -10.217  1.00  0.00     0.000 C 
BRANCH   3   4
ATOM      4  C   UNL     1      -4.001  10.363 -11.116  1.00  0.00     0.000 C 
BRANCH   4   5
ATOM      5  C   UNL     1      -3.101  11.259 -11.986  1.00  0.00     0.000 C 
BRANCH   5   6
ATOM      6  C   UNL     1      -3.192  12.745 -11.578  1.00  0.00     0.000 C 
BRANCH   6   7
ATOM      7  C   UNL     1      -2.176  13.147 -10.495  1.00  0.00     0.000 C 
BRANCH   7   8
ATOM      8  C   UNL     1      -0.860  13.681 -11.077  1.00  0.00     0.000 C 
BRANCH   8   9
ATOM      9  C   UNL     1       0.318  12.780 -10.693  1.00  0.00     0.000 C 
BRANCH   9  10
ATOM     10  C   UNL     1       1.161  13.426  -9.583  1.00  0.00     0.006 C 
BRANCH  10  11
ATOM     11  C   UNL     1       1.358  12.492  -8.381  1.00  0.00     0.053 C 
BRANCH  11  12
ATOM     12  C   UNL     1       0.568  12.945  -7.190  1.00  0.00     0.041 C 
ATOM     13  O   UNL     1       1.125  13.060  -6.068  1.00  0.00    -0.550 OA
ATOM     14  O   UNL     1      -0.796  13.184  -7.309  1.00  0.00    -0.550 OA
ENDBRANCH  11  12
ENDBRANCH  10  11
ENDBRANCH   9  10
ENDBRANCH   8   9
ENDBRANCH   7   8
ENDBRANCH   6   7
ENDBRANCH   5   6
ENDBRANCH   4   5
ENDBRANCH   3   4
ENDBRANCH   2   3
ENDBRANCH   1   2
BRANCH   1  15
ATOM     15  C   UNL     1      -0.573   9.536  -9.429  1.00  0.00     0.000 C 
BRANCH  15  16
ATOM     16  C   UNL     1       0.365   8.384  -9.049  1.00  0.00     0.000 C 
BRANCH  16  17
ATOM     17  C   UNL     1      -0.200   7.590  -7.860  1.00  0.00     0.000 C 
BRANCH  17  18
ATOM     18  C   UNL     1      -0.149   6.073  -8.088  1.00  0.00    -0.000 C 
BRANCH  18  19
ATOM     19  C   UNL     1      -1.527   5.405  -7.962  1.00  0.00    -0.000 C 
BRANCH  19  20
ATOM     20  C   UNL     1      -2.664   6.417  -7.733  1.00  0.00    -0.000 C 
BRANCH  20  21
ATOM     21  C   UNL     1      -3.937   6.124  -8.559  1.00  0.00    -0.000 C 
BRANCH  21  22
ATOM     22  C   UNL     1      -5.083   5.577  -7.689  1.00  0.00    -0.000 C 
BRANCH  22  23
ATOM     23  C   UNL     1      -5.837   6.685  -6.931  1.00  0.00    -0.000 C 
BRANCH  23  24
ATOM     24  C   UNL     1      -5.942   8.019  -7.704  1.00  0.00    -0.000 C 
BRANCH  24  25
ATOM     25  C   UNL     1      -7.281   8.212  -8.438  1.00  0.00    -0.003 C 
ATOM     26  C   UNL     1      -7.144   8.993  -9.741  1.00  0.00     0.004 C 
ENDBRANCH  24  25
ENDBRANCH  23  24
ENDBRANCH  22  23
ENDBRANCH  21  22
ENDBRANCH  20  21
ENDBRANCH  19  20
ENDBRANCH  18  19
ENDBRANCH  17  18
ENDBRANCH  16  17
ENDBRANCH  15  16
ENDBRANCH   1  15
TORSDOF 22
ENDMDL
MODEL 4
REMARK VINA RESULT:    -2.167      5.004      9.655
REMARK INTER + INTRA:          -9.099
REMARK INTER:                  -4.427
REMARK INTRA:                  -4.672
REMARK UNBOUND:                -4.146
REMARK SMILES CCCCCCCCCCCCCCCCCCCCCCCC(=O)[O-]
REMARK SMILES IDX 13 1 14 2 15 3 16 4 17 5 18 6 19 7 20 8 21 9 22 10 23 11
REMARK SMILES IDX 24 12 25 13 26 14 12 15 11 16 10 17 9 18 8 19 7 20 6 21 5 22
REMARK SMILES IDX 4 23 3 24 2 25 1 26
REMARK H PARENT
REMARK Flexibility Score: inf
ROOT
ATOM      1  C   UNL     1       3.201  15.704  -0.847  1.00  0.00     0.000 C 
ENDROOT
BRANCH   1   2
ATOM      2  C   UNL     1       3.961  15.628  -2.181  1.00  0.00     0.000 C 
BRANCH   2   3
ATOM      3  C   UNL     1       4.379  14.193  -2.544  1.00  0.00     0.000 C 
BRANCH   3   4
ATOM      4  C   UNL     1       4.456  13.967  -4.062  1.00  0.00     0.000 C 
BRANCH   4   5
ATOM      5  C   UNL     1       4.507  15.284  -4.858  1.00  0.00     0.000 C 
BRANCH   5   6
ATOM      6  C   UNL     1       4.256  15.062  -6.365  1.00  0.00     0.000 C 
BRANCH   6   7
ATOM      7  C   UNL     1       2.903  15.614  -6.849  1.00  0.00     0.000 C 
BRANCH   7   8
ATOM      8  C   UNL     1       2.062  14.568  -7.595  1.00  0.00     0.000 C 
BRANCH   8   9
ATOM      9  C   UNL     1       2.527  13.147  -7.260  1.00  0.00     0.000 C 
BRANCH   9  10
ATOM     10  C   UNL     1       1.348  12.162  -7.299  1.00  0.00     0.006 C 
BRANCH  10  11
ATOM     11  C   UNL     1      -0.010  12.876  -7.241  1.00  0.00     0.053 C 
BRANCH  11  12
ATOM     12  C   UNL     1      -0.938  12.392  -8.314  1.00  0.00     0.041 C 
ATOM     13  O   UNL     1      -1.398  11.222  -8.275  1.00  0.00    -0.550 OA
ATOM     14  O   UNL     1      -1.250  13.218  -9.389  1.00  0.00    -0.550 OA
ENDBRANCH  11  12
ENDBRANCH  10  11
ENDBRANCH   9  10
ENDBRANCH   8   9
ENDBRANCH   7   8
ENDBRANCH   6   7
ENDBRANCH   5   6
ENDBRANCH   4   5
ENDBRANCH   3   4
ENDBRANCH   2   3
ENDBRANCH   1   2
BRANCH   1  15
ATOM     15  C   UNL     1       1.728  16.110  -1.028  1.00  0.00     0.000 C 
BRANCH  15  16
ATOM     16  C   UNL     1       1.510  16.806  -2.376  1.00  0.00     0.000 C 
BRANCH  16  17
ATOM     17  C   UNL     1       0.284  16.227  -3.098  1.00  0.00     0.000 C 
BRANCH  17  18
ATOM     18  C   UNL     1       0.663  15.192  -4.166  1.00  0.00    -0.000 C 
BRANCH  18  19
ATOM     19  C   UNL     1       0.085  13.798  -3.876  1.00  0.00    -0.000 C 
BRANCH  19  20
ATOM     20  C   UNL     1       1.097  12.859  -3.197  1.00  0.00    -0.000 C 
BRANCH  20  21
ATOM     21  C   UNL     1       0.833  12.640  -1.691  1.00  0.00    -0.000 C 
BRANCH  21  22
ATOM     22  C   UNL     1      -0.620  12.965  -1.300  1.00  0.00    -0.000 C 
BRANCH  22  23
ATOM     23  C   UNL     1      -0.737  13.573   0.109  1.00  0.00    -0.000 C 
BRANCH  23  24
ATOM     24  C   UNL     1      -1.586  14.864   0.171  1.00  0.00    -0.000 C 
BRANCH  24  25
ATOM     25  C   UNL     1      -2.573  15.018  -0.999  1.00  0.00    -0.003 C 
ATOM     26  C   UNL     1      -2.857  16.474  -1.356  1.00  0.00     0.004 C 
ENDBRANCH  24  25
ENDBRANCH  23  24
ENDBRANCH  22  23
ENDBRANCH  21  22
ENDBRANCH  20  21
ENDBRANCH  19  20
ENDBRANCH  18  19
ENDBRANCH  17  18
ENDBRANCH  16  17
ENDBRANCH  15  16
ENDBRANCH   1  15
TORSDOF 22
ENDMDL
MODEL 5
REMARK VINA RESULT:    -2.156      2.955      6.430
REMARK INTER + INTRA:          -9.075
REMARK INTER:                  -4.479
REMARK INTRA:                  -4.596
REMARK UNBOUND:                -4.146
REMARK SMILES CCCCCCCCCCCCCCCCCCCCCCCC(=O)[O-]
REMARK SMILES IDX 13 1 14 2 15 3 16 4 17 5 18 6 19 7 20 8 21 9 22 10 23 11
REMARK SMILES IDX 24 12 25 13 26 14 12 15 11 16 10 17 9 18 8 19 7 20 6 21 5 22
REMARK SMILES IDX 4 23 3 24 2 25 1 26
REMARK H PARENT
REMARK Flexibility Score: inf
ROOT
ATOM      1  C   UNL     1      -4.384   6.468 -10.125  1.00  0.00     0.000 C 
ENDROOT
BRANCH   1   2
ATOM      2  C   UNL     1      -3.187   5.624  -9.658  1.00  0.00     0.000 C 
BRANCH   2   3
ATOM      3  C   UNL     1      -1.940   5.826 -10.536  1.00  0.00     0.000 C 
BRANCH   3   4
ATOM      4  C   UNL     1      -1.990   7.135 -11.340  1.00  0.00     0.000 C 
BRANCH   4   5
ATOM      5  C   UNL     1      -0.600   7.769 -11.532  1.00  0.00     0.000 C 
BRANCH   5   6
ATOM      6  C   UNL     1      -0.151   8.572 -10.292  1.00  0.00     0.000 C 
BRANCH   6   7
ATOM      7  C   UNL     1       1.144   8.041  -9.652  1.00  0.00     0.000 C 
BRANCH   7   8
ATOM      8  C   UNL     1       0.923   7.461  -8.247  1.00  0.00     0.000 C 
BRANCH   8   9
ATOM      9  C   UNL     1      -0.486   7.779  -7.736  1.00  0.00     0.000 C 
BRANCH   9  10
ATOM     10  C   UNL     1      -1.030   6.623  -6.881  1.00  0.00     0.006 C 
BRANCH  10  11
ATOM     11  C   UNL     1       0.056   5.599  -6.526  1.00  0.00     0.053 C 
BRANCH  11  12
ATOM     12  C   UNL     1      -0.246   4.247  -7.099  1.00  0.00     0.041 C 
ATOM     13  O   UNL     1      -0.760   3.353  -6.379  1.00  0.00    -0.550 OA
ATOM     14  O   UNL     1       0.096   3.958  -8.416  1.00  0.00    -0.550 OA
ENDBRANCH  11  12
ENDBRANCH  10  11
ENDBRANCH   9  10
ENDBRANCH   8   9
ENDBRANCH   7   8
ENDBRANCH   6   7
ENDBRANCH   5   6
ENDBRANCH   4   5
ENDBRANCH   3   4
ENDBRANCH   2   3
ENDBRANCH   1   2
BRANCH   1  15
ATOM     15  C   UNL     1      -5.029   7.266  -8.980  1.00  0.00     0.000 C 
BRANCH  15  16
ATOM     16  C   UNL     1      -4.904   8.774  -9.221  1.00  0.00     0.000 C 
BRANCH  16  17
ATOM     17  C   UNL     1      -3.577   9.309  -8.660  1.00  0.00     0.000 C 
BRANCH  17  18
ATOM     18  C   UNL     1      -3.003  10.459  -9.499  1.00  0.00    -0.000 C 
BRANCH  18  19
ATOM     19  C   UNL     1      -3.586  10.507 -10.921  1.00  0.00    -0.000 C 
BRANCH  19  20
ATOM     20  C   UNL     1      -2.563  10.978 -11.971  1.00  0.00    -0.000 C 
BRANCH  20  21
ATOM     21  C   UNL     1      -2.835  12.399 -12.514  1.00  0.00    -0.000 C 
BRANCH  21  22
ATOM     22  C   UNL     1      -2.536  13.489 -11.469  1.00  0.00    -0.000 C 
BRANCH  22  23
ATOM     23  C   UNL     1      -1.036  13.611 -11.147  1.00  0.00    -0.000 C 
BRANCH  23  24
ATOM     24  C   UNL     1      -0.685  13.335  -9.667  1.00  0.00    -0.000 C 
BRANCH  24  25
ATOM     25  C   UNL     1       0.339  12.203  -9.469  1.00  0.00    -0.003 C 
ATOM     26  C   UNL     1       0.263  11.561  -8.088  1.00  0.00     0.004 C 
ENDBRANCH  24  25
ENDBRANCH  23  24
ENDBRANCH  22  23
ENDBRANCH  21  22
ENDBRANCH  20  21
ENDBRANCH  19  20
ENDBRANCH  18  19
ENDBRANCH  17  18
ENDBRANCH  16  17
ENDBRANCH  15  16
ENDBRANCH   1  15
TORSDOF 22
ENDMDL
MODEL 6
REMARK VINA RESULT:    -2.154      2.068      3.032
REMARK INTER + INTRA:          -9.071
REMARK INTER:                  -4.415
REMARK INTRA:                  -4.656
REMARK UNBOUND:                -4.146
REMARK SMILES CCCCCCCCCCCCCCCCCCCCCCCC(=O)[O-]
REMARK SMILES IDX 13 1 14 2 15 3 16 4 17 5 18 6 19 7 20 8 21 9 22 10 23 11
REMARK SMILES IDX 24 12 25 13 26 14 12 15 11 16 10 17 9 18 8 19 7 20 6 21 5 22
REMARK SMILES IDX 4 23 3 24 2 25 1 26
REMARK H PARENT
REMARK Flexibility Score: inf
ROOT
ATOM      1  C   UNL     1       0.035   9.181  -9.915  1.00  0.00     0.000 C 
ENDROOT
BRANCH   1   2
ATOM      2  C   UNL     1       1.546   9.412 -10.075  1.00  0.00     0.000 C 
BRANCH   2   3
ATOM      3  C   UNL     1       1.871  10.581 -11.021  1.00  0.00     0.000 C 
BRANCH   3   4
ATOM      4  C   UNL     1       0.709  10.910 -11.972  1.00  0.00     0.000 C 
BRANCH   4   5
ATOM      5  C   UNL     1       0.237  12.370 -11.850  1.00  0.00     0.000 C 
BRANCH   5   6
ATOM      6  C   UNL     1       0.800  13.060 -10.589  1.00  0.00     0.000 C 
BRANCH   6   7
ATOM      7  C   UNL     1      -0.285  13.474  -9.579  1.00  0.00     0.000 C 
BRANCH   7   8
ATOM      8  C   UNL     1       0.171  13.338  -8.120  1.00  0.00     0.000 C 
BRANCH   8   9
ATOM      9  C   UNL     1       1.577  12.734  -8.037  1.00  0.00     0.000 C 
BRANCH   9  10
ATOM     10  C   UNL     1       1.736  11.894  -6.760  1.00  0.00     0.006 C 
BRANCH  10  11
ATOM     11  C   UNL     1       2.832  10.828  -6.895  1.00  0.00     0.053 C 
BRANCH  11  12
ATOM     12  C   UNL     1       3.538  10.588  -5.595  1.00  0.00     0.041 C 
ATOM     13  O   UNL     1       2.986  10.896  -4.508  1.00  0.00    -0.550 OA
ATOM     14  O   UNL     1       4.831  10.077  -5.590  1.00  0.00    -0.550 OA
ENDBRANCH  11  12
ENDBRANCH  10  11
ENDBRANCH   9  10
ENDBRANCH   8   9
ENDBRANCH   7   8
ENDBRANCH   6   7
ENDBRANCH   5   6
ENDBRANCH   4   5
ENDBRANCH   3   4
ENDBRANCH   2   3
ENDBRANCH   1   2
BRANCH   1  15
ATOM     15  C   UNL     1      -0.492   9.643  -8.546  1.00  0.00     0.000 C 
BRANCH  15  16
ATOM     16  C   UNL     1      -1.875  10.290  -8.678  1.00  0.00     0.000 C 
BRANCH  16  17
ATOM     17  C   UNL     1      -2.429  10.109 -10.100  1.00  0.00     0.000 C 
BRANCH  17  18
ATOM     18  C   UNL     1      -3.888   9.632 -10.108  1.00  0.00    -0.000 C 
BRANCH  18  19
ATOM     19  C   UNL     1      -4.357   9.128  -8.733  1.00  0.00    -0.000 C 
BRANCH  19  20
ATOM     20  C   UNL     1      -4.824   7.662  -8.761  1.00  0.00    -0.000 C 
BRANCH  20  21
ATOM     21  C   UNL     1      -3.806   6.671  -8.154  1.00  0.00    -0.000 C 
BRANCH  21  22
ATOM     22  C   UNL     1      -3.165   5.766  -9.222  1.00  0.00    -0.000 C 
BRANCH  22  23
ATOM     23  C   UNL     1      -1.692   6.119  -9.496  1.00  0.00    -0.000 C 
BRANCH  23  24
ATOM     24  C   UNL     1      -0.679   5.254  -8.713  1.00  0.00    -0.000 C 
BRANCH  24  25
ATOM     25  C   UNL     1       0.241   6.061  -7.780  1.00  0.00    -0.003 C 
ATOM     26  C   UNL     1      -0.465   6.548  -6.518  1.00  0.00     0.004 C 
ENDBRANCH  24  25
ENDBRANCH  23  24
ENDBRANCH  22  23
ENDBRANCH  21  22
ENDBRANCH  20  21
ENDBRANCH  19  20
ENDBRANCH  18  19
ENDBRANCH  17  18
ENDBRANCH  16  17
ENDBRANCH  15  16
ENDBRANCH   1  15
TORSDOF 22
ENDMDL
MODEL 7
REMARK VINA RESULT:    -2.145      2.109      4.145
REMARK INTER + INTRA:          -9.050
REMARK INTER:                  -4.136
REMARK INTRA:                  -4.914
REMARK UNBOUND:                -4.146
REMARK SMILES CCCCCCCCCCCCCCCCCCCCCCCC(=O)[O-]
REMARK SMILES IDX 13 1 14 2 15 3 16 4 17 5 18 6 19 7 20 8 21 9 22 10 23 11
REMARK SMILES IDX 24 12 25 13 26 14 12 15 11 16 10 17 9 18 8 19 7 20 6 21 5 22
REMARK SMILES IDX 4 23 3 24 2 25 1 26
REMARK H PARENT
REMARK Flexibility Score: inf
ROOT
ATOM      1  C   UNL     1       1.042  12.335 -11.705  1.00  0.00     0.000 C 
ENDROOT
BRANCH   1   2
ATOM      2  C   UNL     1      -0.384  12.640 -12.191  1.00  0.00     0.000 C 
BRANCH   2   3
ATOM      3  C   UNL     1      -1.169  13.525 -11.207  1.00  0.00     0.000 C 
BRANCH   3   4
ATOM      4  C   UNL     1      -2.648  13.122 -11.102  1.00  0.00     0.000 C 
BRANCH   4   5
ATOM      5  C   UNL     1      -3.014  11.951 -12.031  1.00  0.00     0.000 C 
BRANCH   5   6
ATOM      6  C   UNL     1      -3.927  10.920 -11.335  1.00  0.00     0.000 C 
BRANCH   6   7
ATOM      7  C   UNL     1      -3.162   9.725 -10.738  1.00  0.00     0.000 C 
BRANCH   7   8
ATOM      8  C   UNL     1      -2.971   9.836  -9.219  1.00  0.00     0.000 C 
BRANCH   8   9
ATOM      9  C   UNL     1      -1.557   9.408  -8.809  1.00  0.00     0.000 C 
BRANCH   9  10
ATOM     10  C   UNL     1      -0.610  10.617  -8.770  1.00  0.00     0.006 C 
BRANCH  10  11
ATOM     11  C   UNL     1      -1.221  11.813  -8.026  1.00  0.00     0.053 C 
BRANCH  11  12
ATOM     12  C   UNL     1      -0.175  12.801  -7.608  1.00  0.00     0.041 C 
ATOM     13  O   UNL     1       0.892  12.911  -8.266  1.00  0.00    -0.550 OA
ATOM     14  O   UNL     1      -0.354  13.560  -6.457  1.00  0.00    -0.550 OA
ENDBRANCH  11  12
ENDBRANCH  10  11
ENDBRANCH   9  10
ENDBRANCH   8   9
ENDBRANCH   7   8
ENDBRANCH   6   7
ENDBRANCH   5   6
ENDBRANCH   4   5
ENDBRANCH   3   4
ENDBRANCH   2   3
ENDBRANCH   1   2
BRANCH   1  15
ATOM     15  C   UNL     1       1.417  10.853 -11.868  1.00  0.00     0.000 C 
BRANCH  15  16
ATOM     16  C   UNL     1       0.204  10.022 -12.301  1.00  0.00     0.000 C 
BRANCH  16  17
ATOM     17  C   UNL     1       0.592   8.547 -12.488  1.00  0.00     0.000 C 
BRANCH  17  18
ATOM     18  C   UNL     1      -0.365   7.590 -11.764  1.00  0.00    -0.000 C 
BRANCH  18  19
ATOM     19  C   UNL     1       0.311   6.829 -10.613  1.00  0.00    -0.000 C 
BRANCH  19  20
ATOM     20  C   UNL     1       1.847   6.825 -10.719  1.00  0.00    -0.000 C 
BRANCH  20  21
ATOM     21  C   UNL     1       2.567   6.997  -9.363  1.00  0.00    -0.000 C 
BRANCH  21  22
ATOM     22  C   UNL     1       2.333   8.389  -8.750  1.00  0.00    -0.000 C 
BRANCH  22  23
ATOM     23  C   UNL     1       1.847   8.324  -7.290  1.00  0.00    -0.000 C 
BRANCH  23  24
ATOM     24  C   UNL     1       1.383   6.919  -6.842  1.00  0.00    -0.000 C 
BRANCH  24  25
ATOM     25  C   UNL     1      -0.137   6.801  -6.635  1.00  0.00    -0.003 C 
ATOM     26  C   UNL     1      -0.718   5.503  -7.186  1.00  0.00     0.004 C 
ENDBRANCH  24  25
ENDBRANCH  23  24
ENDBRANCH  22  23
ENDBRANCH  21  22
ENDBRANCH  20  21
ENDBRANCH  19  20
ENDBRANCH  18  19
ENDBRANCH  17  18
ENDBRANCH  16  17
ENDBRANCH  15  16
ENDBRANCH   1  15
TORSDOF 22
ENDMDL
MODEL 8
REMARK VINA RESULT:    -2.134      6.223      9.638
REMARK INTER + INTRA:          -9.025
REMARK INTER:                  -4.108
REMARK INTRA:                  -4.917
REMARK UNBOUND:                -4.146
REMARK SMILES CCCCCCCCCCCCCCCCCCCCCCCC(=O)[O-]
REMARK SMILES IDX 13 1 14 2 15 3 16 4 17 5 18 6 19 7 20 8 21 9 22 10 23 11
REMARK SMILES IDX 24 12 25 13 26 14 12 15 11 16 10 17 9 18 8 19 7 20 6 21 5 22
REMARK SMILES IDX 4 23 3 24 2 25 1 26
REMARK H PARENT
REMARK Flexibility Score: inf
ROOT
ATOM      1  C   UNL     1       0.449  12.965  -1.763  1.00  0.00     0.000 C 
ENDROOT
BRANCH   1   2
ATOM      2  C   UNL     1       1.610  12.422  -2.613  1.00  0.00     0.000 C 
BRANCH   2   3
ATOM      3  C   UNL     1       2.955  13.084  -2.270  1.00  0.00     0.000 C 
BRANCH   3   4
ATOM      4  C   UNL     1       2.874  13.974  -1.020  1.00  0.00     0.000 C 
BRANCH   4   5
ATOM      5  C   UNL     1       3.145  15.458  -1.327  1.00  0.00     0.000 C 
BRANCH   5   6
ATOM      6  C   UNL     1       3.108  15.753  -2.842  1.00  0.00     0.000 C 
BRANCH   6   7
ATOM      7  C   UNL     1       1.990  16.730  -3.250  1.00  0.00     0.000 C 
BRANCH   7   8
ATOM      8  C   UNL     1       0.982  16.110  -4.228  1.00  0.00     0.000 C 
BRANCH   8   9
ATOM      9  C   UNL     1       1.670  15.124  -5.178  1.00  0.00     0.000 C 
BRANCH   9  10
ATOM     10  C   UNL     1       0.661  14.110  -5.738  1.00  0.00     0.006 C 
BRANCH  10  11
ATOM     11  C   UNL     1       1.344  12.859  -6.306  1.00  0.00     0.053 C 
BRANCH  11  12
ATOM     12  C   UNL     1       1.235  12.796  -7.800  1.00  0.00     0.041 C 
ATOM     13  O   UNL     1       1.208  11.684  -8.387  1.00  0.00    -0.550 OA
ATOM     14  O   UNL     1       1.221  13.969  -8.547  1.00  0.00    -0.550 OA
ENDBRANCH  11  12
ENDBRANCH  10  11
ENDBRANCH   9  10
ENDBRANCH   8   9
ENDBRANCH   7   8
ENDBRANCH   6   7
ENDBRANCH   5   6
ENDBRANCH   4   5
ENDBRANCH   3   4
ENDBRANCH   2   3
ENDBRANCH   1   2
BRANCH   1  15
ATOM     15  C   UNL     1      -0.790  13.311  -2.605  1.00  0.00     0.000 C 
BRANCH  15  16
ATOM     16  C   UNL     1      -1.464  14.589  -2.093  1.00  0.00     0.000 C 
BRANCH  16  17
ATOM     17  C   UNL     1      -0.711  15.154  -0.878  1.00  0.00     0.000 C 
BRANCH  17  18
ATOM     18  C   UNL     1      -1.591  15.223   0.378  1.00  0.00    -0.000 C 
BRANCH  18  19
ATOM     19  C   UNL     1      -2.997  14.646   0.154  1.00  0.00    -0.000 C 
BRANCH  19  20
ATOM     20  C   UNL     1      -3.281  13.408   1.024  1.00  0.00    -0.000 C 
BRANCH  20  21
ATOM     21  C   UNL     1      -2.032  12.546   1.312  1.00  0.00    -0.000 C 
BRANCH  21  22
ATOM     22  C   UNL     1      -1.996  11.267   0.456  1.00  0.00    -0.000 C 
BRANCH  22  23
ATOM     23  C   UNL     1      -0.679  10.485   0.607  1.00  0.00    -0.000 C 
BRANCH  23  24
ATOM     24  C   UNL     1       0.336  11.140   1.571  1.00  0.00    -0.000 C 
BRANCH  24  25
ATOM     25  C   UNL     1       1.798  11.037   1.102  1.00  0.00    -0.003 C 
ATOM     26  C   UNL     1       2.014   9.959   0.045  1.00  0.00     0.004 C 
ENDBRANCH  24  25
ENDBRANCH  23  24
ENDBRANCH  22  23
ENDBRANCH  21  22
ENDBRANCH  20  21
ENDBRANCH  19  20
ENDBRANCH  18  19
ENDBRANCH  17  18
ENDBRANCH  16  17
ENDBRANCH  15  16
ENDBRANCH   1  15
TORSDOF 22
ENDMDL
MODEL 9
REMARK VINA RESULT:    -2.132      6.221      9.692
REMARK INTER + INTRA:          -9.020
REMARK INTER:                  -4.010
REMARK INTRA:                  -5.010
REMARK UNBOUND:                -4.146
REMARK SMILES CCCCCCCCCCCCCCCCCCCCCCCC(=O)[O-]
REMARK SMILES IDX 13 1 14 2 15 3 16 4 17 5 18 6 19 7 20 8 21 9 22 10 23 11
REMARK SMILES IDX 24 12 25 13 26 14 12 15 11 16 10 17 9 18 8 19 7 20 6 21 5 22
REMARK SMILES IDX 4 23 3 24 2 25 1 26
REMARK H PARENT
REMARK Flexibility Score: inf
ROOT
ATOM      1  C   UNL     1       2.011  14.751  -3.448  1.00  0.00     0.000 C 
ENDROOT
BRANCH   1   2
ATOM      2  C   UNL     1       0.545  14.746  -3.910  1.00  0.00     0.000 C 
BRANCH   2   3
ATOM      3  C   UNL     1      -0.082  13.342  -3.876  1.00  0.00     0.000 C 
BRANCH   3   4
ATOM      4  C   UNL     1      -1.344  13.280  -3.001  1.00  0.00     0.000 C 
BRANCH   4   5
ATOM      5  C   UNL     1      -1.431  14.446  -1.999  1.00  0.00     0.000 C 
BRANCH   5   6
ATOM      6  C   UNL     1      -0.958  14.034  -0.588  1.00  0.00     0.000 C 
BRANCH   6   7
ATOM      7  C   UNL     1      -0.991  12.514  -0.348  1.00  0.00     0.000 C 
BRANCH   7   8
ATOM      8  C   UNL     1       0.404  11.915  -0.118  1.00  0.00     0.000 C 
BRANCH   8   9
ATOM      9  C   UNL     1       1.471  13.013  -0.051  1.00  0.00     0.000 C 
BRANCH   9  10
ATOM     10  C   UNL     1       2.824  12.491  -0.559  1.00  0.00     0.006 C 
BRANCH  10  11
ATOM     11  C   UNL     1       2.666  11.448  -1.673  1.00  0.00     0.053 C 
BRANCH  11  12
ATOM     12  C   UNL     1       3.611  10.297  -1.496  1.00  0.00     0.041 C 
ATOM     13  O   UNL     1       4.410  10.277  -0.525  1.00  0.00    -0.550 OA
ATOM     14  O   UNL     1       3.646   9.275  -2.437  1.00  0.00    -0.550 OA
ENDBRANCH  11  12
ENDBRANCH  10  11
ENDBRANCH   9  10
ENDBRANCH   8   9
ENDBRANCH   7   8
ENDBRANCH   6   7
ENDBRANCH   5   6
ENDBRANCH   4   5
ENDBRANCH   3   4
ENDBRANCH   2   3
ENDBRANCH   1   2
BRANCH   1  15
ATOM     15  C   UNL     1       2.882  15.729  -4.255  1.00  0.00     0.000 C 
BRANCH  15  16
ATOM     16  C   UNL     1       4.331  15.236  -4.335  1.00  0.00     0.000 C 
BRANCH  16  17
ATOM     17  C   UNL     1       4.435  13.770  -3.888  1.00  0.00     0.000 C 
BRANCH  17  18
ATOM     18  C   UNL     1       5.165  12.892  -4.915  1.00  0.00    -0.000 C 
BRANCH  18  19
ATOM     19  C   UNL     1       4.442  11.562  -5.182  1.00  0.00    -0.000 C 
BRANCH  19  20
ATOM     20  C   UNL     1       2.919  11.729  -5.335  1.00  0.00    -0.000 C 
BRANCH  20  21
ATOM     21  C   UNL     1       2.396  11.412  -6.753  1.00  0.00    -0.000 C 
BRANCH  21  22
ATOM     22  C   UNL     1       1.330  12.420  -7.221  1.00  0.00    -0.000 C 
BRANCH  22  23
ATOM     23  C   UNL     1       1.834  13.875  -7.199  1.00  0.00    -0.000 C 
BRANCH  23  24
ATOM     24  C   UNL     1       2.752  14.242  -8.387  1.00  0.00    -0.000 C 
BRANCH  24  25
ATOM     25  C   UNL     1       4.176  14.652  -7.971  1.00  0.00    -0.003 C 
ATOM     26  C   UNL     1       5.252  13.712  -8.508  1.00  0.00     0.004 C 
ENDBRANCH  24  25
ENDBRANCH  23  24
ENDBRANCH  22  23
ENDBRANCH  21  22
ENDBRANCH  20  21
ENDBRANCH  19  20
ENDBRANCH  18  19
ENDBRANCH  17  18
ENDBRANCH  16  17
ENDBRANCH  15  16
ENDBRANCH   1  15
TORSDOF 22
ENDMDL
