MODEL 1
REMARK VINA RESULT:    -3.367      0.000      0.000
REMARK INTER + INTRA:          -6.477
REMARK INTER:                  -5.336
REMARK INTRA:                  -1.141
REMARK UNBOUND:                -1.141
REMARK SMILES CCCCCCCCCCCC(=O)[O-]
REMARK SMILES IDX 7 1 8 2 9 3 10 4 11 5 12 6 13 7 14 8 6 9 5 10 4 11 3 12 2 13
REMARK SMILES IDX 1 14
REMARK H PARENT
REMARK Flexibility Score: inf
ROOT
ATOM      1  C   UNL     1      57.331  29.180  51.879  1.00  0.00     0.000 C 
ENDROOT
BRANCH   1   2
ATOM      2  C   UNL     1      56.418  28.665  50.748  1.00  0.00     0.000 C 
BRANCH   2   3
ATOM      3  C   UNL     1      54.908  28.884  50.974  1.00  0.00     0.000 C 
BRANCH   3   4
ATOM      4  C   UNL     1      53.995  27.820  50.339  1.00  0.00     0.006 C 
BRANCH   4   5
ATOM      5  C   UNL     1      54.750  26.543  49.950  1.00  0.00     0.053 C 
BRANCH   5   6
ATOM      6  C   UNL     1      54.190  25.363  50.678  1.00  0.00     0.041 C 
ATOM      7  O   UNL     1      53.496  24.511  50.065  1.00  0.00    -0.550 OA
ATOM      8  O   UNL     1      54.392  25.231  52.046  1.00  0.00    -0.550 OA
ENDBRANCH   5   6
ENDBRANCH   4   5
ENDBRANCH   3   4
ENDBRANCH   2   3
ENDBRANCH   1   2
BRANCH   1   9
ATOM      9  C   UNL     1      58.799  29.401  51.474  1.00  0.00     0.000 C 
BRANCH   9  10
ATOM     10  C   UNL     1      59.028  29.245  49.961  1.00  0.00    -0.000 C 
BRANCH  10  11
ATOM     11  C   UNL     1      59.965  28.074  49.624  1.00  0.00    -0.000 C 
BRANCH  11  12
ATOM     12  C   UNL     1      60.053  27.043  50.760  1.00  0.00    -0.000 C 
BRANCH  12  13
ATOM     13  C   UNL     1      59.305  25.757  50.393  1.00  0.00    -0.003 C 
ATOM     14  C   UNL     1      58.141  25.504  51.346  1.00  0.00     0.004 C 
ENDBRANCH  12  13
ENDBRANCH  11  12
ENDBRANCH  10  11
ENDBRANCH   9  10
ENDBRANCH   1   9
TORSDOF 10
ENDMDL
MODEL 2
REMARK VINA RESULT:    -3.363     12.297     13.934
REMARK INTER + INTRA:          -6.471
REMARK INTER:                  -5.297
REMARK INTRA:                  -1.174
REMARK UNBOUND:                -1.141
REMARK SMILES CCCCCCCCCCCC(=O)[O-]
REMARK SMILES IDX 7 1 8 2 9 3 10 4 11 5 12 6 13 7 14 8 6 9 5 10 4 11 3 12 2 13
REMARK SMILES IDX 1 14
REMARK H PARENT
REMARK Flexibility Score: inf
ROOT
ATOM      1  C   UNL     1      60.750  31.301  59.808  1.00  0.00     0.000 C 
ENDROOT
BRANCH   1   2
ATOM      2  C   UNL     1      61.406  32.619  59.350  1.00  0.00     0.000 C 
BRANCH   2   3
ATOM      3  C   UNL     1      61.819  33.576  60.487  1.00  0.00     0.000 C 
BRANCH   3   4
ATOM      4  C   UNL     1      63.061  34.437  60.194  1.00  0.00     0.006 C 
BRANCH   4   5
ATOM      5  C   UNL     1      64.133  34.325  61.285  1.00  0.00     0.053 C 
BRANCH   5   6
ATOM      6  C   UNL     1      64.869  35.618  61.427  1.00  0.00     0.041 C 
ATOM      7  O   UNL     1      65.913  35.830  60.756  1.00  0.00    -0.550 OA
ATOM      8  O   UNL     1      64.432  36.570  62.339  1.00  0.00    -0.550 OA
ENDBRANCH   5   6
ENDBRANCH   4   5
ENDBRANCH   3   4
ENDBRANCH   2   3
ENDBRANCH   1   2
BRANCH   1   9
ATOM      9  C   UNL     1      60.888  30.999  61.310  1.00  0.00     0.000 C 
BRANCH   9  10
ATOM     10  C   UNL     1      61.850  29.833  61.596  1.00  0.00    -0.000 C 
BRANCH  10  11
ATOM     11  C   UNL     1      63.322  30.216  61.377  1.00  0.00    -0.000 C 
BRANCH  11  12
ATOM     12  C   UNL     1      64.142  29.078  60.748  1.00  0.00    -0.000 C 
BRANCH  12  13
ATOM     13  C   UNL     1      65.034  29.604  59.618  1.00  0.00    -0.003 C 
ATOM     14  C   UNL     1      64.890  31.115  59.459  1.00  0.00     0.004 C 
ENDBRANCH  12  13
ENDBRANCH  11  12
ENDBRANCH  10  11
ENDBRANCH   9  10
ENDBRANCH   1   9
TORSDOF 10
ENDMDL
MODEL 3
REMARK VINA RESULT:    -3.362      3.055      5.625
REMARK INTER + INTRA:          -6.468
REMARK INTER:                  -5.139
REMARK INTRA:                  -1.329
REMARK UNBOUND:                -1.141
REMARK SMILES CCCCCCCCCCCC(=O)[O-]
REMARK SMILES IDX 7 1 8 2 9 3 10 4 11 5 12 6 13 7 14 8 6 9 5 10 4 11 3 12 2 13
REMARK SMILES IDX 1 14
REMARK H PARENT
REMARK Flexibility Score: inf
ROOT
ATOM      1  C   UNL     1      57.312  26.816  51.854  1.00  0.00     0.000 C 
ENDROOT
BRANCH   1   2
ATOM      2  C   UNL     1      57.806  28.277  51.860  1.00  0.00     0.000 C 
BRANCH   2   3
ATOM      3  C   UNL     1      57.615  29.039  50.533  1.00  0.00     0.000 C 
BRANCH   3   4
ATOM      4  C   UNL     1      58.892  29.206  49.690  1.00  0.00     0.006 C 
BRANCH   4   5
ATOM      5  C   UNL     1      60.170  28.901  50.479  1.00  0.00     0.053 C 
BRANCH   5   6
ATOM      6  C   UNL     1      60.837  27.676  49.941  1.00  0.00     0.041 C 
ATOM      7  O   UNL     1      60.157  26.650  49.673  1.00  0.00    -0.550 OA
ATOM      8  O   UNL     1      62.217  27.648  49.781  1.00  0.00    -0.550 OA
ENDBRANCH   5   6
ENDBRANCH   4   5
ENDBRANCH   3   4
ENDBRANCH   2   3
ENDBRANCH   1   2
BRANCH   1   9
ATOM      9  C   UNL     1      56.710  26.342  50.520  1.00  0.00     0.000 C 
BRANCH   9  10
ATOM     10  C   UNL     1      55.221  25.973  50.637  1.00  0.00    -0.000 C 
BRANCH  10  11
ATOM     11  C   UNL     1      54.300  27.030  50.005  1.00  0.00    -0.000 C 
BRANCH  11  12
ATOM     12  C   UNL     1      53.633  27.934  51.053  1.00  0.00    -0.000 C 
BRANCH  12  13
ATOM     13  C   UNL     1      53.920  29.412  50.765  1.00  0.00    -0.003 C 
ATOM     14  C   UNL     1      54.450  30.123  52.005  1.00  0.00     0.004 C 
ENDBRANCH  12  13
ENDBRANCH  11  12
ENDBRANCH  10  11
ENDBRANCH   9  10
ENDBRANCH   1   9
TORSDOF 10
ENDMDL
MODEL 4
REMARK VINA RESULT:    -3.344      2.148      5.037
REMARK INTER + INTRA:          -6.439
REMARK INTER:                  -5.684
REMARK INTRA:                  -0.755
REMARK UNBOUND:                -1.141
REMARK SMILES CCCCCCCCCCCC(=O)[O-]
REMARK SMILES IDX 7 1 8 2 9 3 10 4 11 5 12 6 13 7 14 8 6 9 5 10 4 11 3 12 2 13
REMARK SMILES IDX 1 14
REMARK H PARENT
REMARK Flexibility Score: inf
ROOT
ATOM      1  C   UNL     1      58.480  29.289  50.126  1.00  0.00     0.000 C 
ENDROOT
BRANCH   1   2
ATOM      2  C   UNL     1      59.958  28.909  50.354  1.00  0.00     0.000 C 
BRANCH   2   3
ATOM      3  C   UNL     1      60.433  27.648  49.605  1.00  0.00     0.000 C 
BRANCH   3   4
ATOM      4  C   UNL     1      61.452  26.784  50.368  1.00  0.00     0.006 C 
BRANCH   4   5
ATOM      5  C   UNL     1      60.939  25.365  50.647  1.00  0.00     0.053 C 
BRANCH   5   6
ATOM      6  C   UNL     1      59.711  25.412  51.498  1.00  0.00     0.041 C 
ATOM      7  O   UNL     1      58.628  24.930  51.074  1.00  0.00    -0.550 OA
ATOM      8  O   UNL     1      59.749  26.033  52.740  1.00  0.00    -0.550 OA
ENDBRANCH   5   6
ENDBRANCH   4   5
ENDBRANCH   3   4
ENDBRANCH   2   3
ENDBRANCH   1   2
BRANCH   1   9
ATOM      9  C   UNL     1      57.461  28.252  50.629  1.00  0.00     0.000 C 
BRANCH   9  10
ATOM     10  C   UNL     1      56.072  28.862  50.890  1.00  0.00    -0.000 C 
BRANCH  10  11
ATOM     11  C   UNL     1      54.944  27.823  50.785  1.00  0.00    -0.000 C 
BRANCH  11  12
ATOM     12  C   UNL     1      55.431  26.476  50.228  1.00  0.00    -0.000 C 
BRANCH  12  13
ATOM     13  C   UNL     1      54.278  25.702  49.579  1.00  0.00    -0.003 C 
ATOM     14  C   UNL     1      52.997  26.530  49.563  1.00  0.00     0.004 C 
ENDBRANCH  12  13
ENDBRANCH  11  12
ENDBRANCH  10  11
ENDBRANCH   9  10
ENDBRANCH   1   9
TORSDOF 10
ENDMDL
MODEL 5
REMARK VINA RESULT:    -3.320      1.742      3.352
REMARK INTER + INTRA:          -6.401
REMARK INTER:                  -4.984
REMARK INTRA:                  -1.417
REMARK UNBOUND:                -1.141
REMARK SMILES CCCCCCCCCCCC(=O)[O-]
REMARK SMILES IDX 7 1 8 2 9 3 10 4 11 5 12 6 13 7 14 8 6 9 5 10 4 11 3 12 2 13
REMARK SMILES IDX 1 14
REMARK H PARENT
REMARK Flexibility Score: inf
ROOT
ATOM      1  C   UNL     1      59.792  26.017  51.414  1.00  0.00     0.000 C 
ENDROOT
BRANCH   1   2
ATOM      2  C   UNL     1      58.438  25.279  51.424  1.00  0.00     0.000 C 
BRANCH   2   3
ATOM      3  C   UNL     1      57.378  25.843  50.457  1.00  0.00     0.000 C 
BRANCH   3   4
ATOM      4  C   UNL     1      56.152  26.480  51.135  1.00  0.00     0.006 C 
BRANCH   4   5
ATOM      5  C   UNL     1      54.947  26.602  50.195  1.00  0.00     0.053 C 
BRANCH   5   6
ATOM      6  C   UNL     1      54.332  27.960  50.308  1.00  0.00     0.041 C 
ATOM      7  O   UNL     1      55.000  28.922  50.769  1.00  0.00    -0.550 OA
ATOM      8  O   UNL     1      53.003  28.153  49.951  1.00  0.00    -0.550 OA
ENDBRANCH   5   6
ENDBRANCH   4   5
ENDBRANCH   3   4
ENDBRANCH   2   3
ENDBRANCH   1   2
BRANCH   1   9
ATOM      9  C   UNL     1      60.272  26.471  50.024  1.00  0.00     0.000 C 
BRANCH   9  10
ATOM     10  C   UNL     1      60.628  27.966  49.977  1.00  0.00    -0.000 C 
BRANCH  10  11
ATOM     11  C   UNL     1      59.541  28.810  49.293  1.00  0.00    -0.000 C 
BRANCH  11  12
ATOM     12  C   UNL     1      58.445  29.266  50.269  1.00  0.00    -0.000 C 
BRANCH  12  13
ATOM     13  C   UNL     1      59.049  29.691  51.612  1.00  0.00    -0.003 C 
ATOM     14  C   UNL     1      58.211  29.180  52.780  1.00  0.00     0.004 C 
ENDBRANCH  12  13
ENDBRANCH  11  12
ENDBRANCH  10  11
ENDBRANCH   9  10
ENDBRANCH   1   9
TORSDOF 10
ENDMDL
MODEL 6
REMARK VINA RESULT:    -3.278      1.364      2.314
REMARK INTER + INTRA:          -6.335
REMARK INTER:                  -4.891
REMARK INTRA:                  -1.444
REMARK UNBOUND:                -1.141
REMARK SMILES CCCCCCCCCCCC(=O)[O-]
REMARK SMILES IDX 7 1 8 2 9 3 10 4 11 5 12 6 13 7 14 8 6 9 5 10 4 11 3 12 2 13
REMARK SMILES IDX 1 14
REMARK H PARENT
REMARK Flexibility Score: inf
ROOT
ATOM      1  C   UNL     1      59.138  29.257  49.958  1.00  0.00     0.000 C 
ENDROOT
BRANCH   1   2
ATOM      2  C   UNL     1      58.888  29.228  51.480  1.00  0.00     0.000 C 
BRANCH   2   3
ATOM      3  C   UNL     1      57.483  28.754  51.904  1.00  0.00     0.000 C 
BRANCH   3   4
ATOM      4  C   UNL     1      56.530  28.424  50.742  1.00  0.00     0.006 C 
BRANCH   4   5
ATOM      5  C   UNL     1      56.336  26.916  50.542  1.00  0.00     0.053 C 
BRANCH   5   6
ATOM      6  C   UNL     1      54.929  26.622  50.129  1.00  0.00     0.041 C 
ATOM      7  O   UNL     1      54.582  25.442  49.856  1.00  0.00    -0.550 OA
ATOM      8  O   UNL     1      54.012  27.656  49.996  1.00  0.00    -0.550 OA
ENDBRANCH   5   6
ENDBRANCH   4   5
ENDBRANCH   3   4
ENDBRANCH   2   3
ENDBRANCH   1   2
BRANCH   1   9
ATOM      9  C   UNL     1      59.922  28.052  49.409  1.00  0.00     0.000 C 
BRANCH   9  10
ATOM     10  C   UNL     1      61.218  27.779  50.192  1.00  0.00    -0.000 C 
BRANCH  10  11
ATOM     11  C   UNL     1      61.257  26.366  50.794  1.00  0.00    -0.000 C 
BRANCH  11  12
ATOM     12  C   UNL     1      60.076  25.496  50.334  1.00  0.00    -0.000 C 
BRANCH  12  13
ATOM     13  C   UNL     1      59.367  24.856  51.533  1.00  0.00    -0.003 C 
ATOM     14  C   UNL     1      59.462  25.744  52.769  1.00  0.00     0.004 C 
ENDBRANCH  12  13
ENDBRANCH  11  12
ENDBRANCH  10  11
ENDBRANCH   9  10
ENDBRANCH   1   9
TORSDOF 10
ENDMDL
MODEL 7
REMARK VINA RESULT:    -3.270     10.979     12.687
REMARK INTER + INTRA:          -6.323
REMARK INTER:                  -4.989
REMARK INTRA:                  -1.334
REMARK UNBOUND:                -1.141
REMARK SMILES CCCCCCCCCCCC(=O)[O-]
REMARK SMILES IDX 7 1 8 2 9 3 10 4 11 5 12 6 13 7 14 8 6 9 5 10 4 11 3 12 2 13
REMARK SMILES IDX 1 14
REMARK H PARENT
REMARK Flexibility Score: inf
ROOT
ATOM      1  C   UNL     1      62.833  32.125  58.816  1.00  0.00     0.000 C 
ENDROOT
BRANCH   1   2
ATOM      2  C   UNL     1      61.377  31.965  59.297  1.00  0.00     0.000 C 
BRANCH   2   3
ATOM      3  C   UNL     1      61.186  31.979  60.827  1.00  0.00     0.000 C 
BRANCH   3   4
ATOM      4  C   UNL     1      60.801  30.623  61.446  1.00  0.00     0.006 C 
BRANCH   4   5
ATOM      5  C   UNL     1      62.005  29.694  61.640  1.00  0.00     0.053 C 
BRANCH   5   6
ATOM      6  C   UNL     1      61.786  28.400  60.925  1.00  0.00     0.041 C 
ATOM      7  O   UNL     1      62.277  27.333  61.380  1.00  0.00    -0.550 OA
ATOM      8  O   UNL     1      61.082  28.377  59.728  1.00  0.00    -0.550 OA
ENDBRANCH   5   6
ENDBRANCH   4   5
ENDBRANCH   3   4
ENDBRANCH   2   3
ENDBRANCH   1   2
BRANCH   1   9
ATOM      9  C   UNL     1      63.870  32.293  59.940  1.00  0.00     0.000 C 
BRANCH   9  10
ATOM     10  C   UNL     1      64.464  33.711  59.995  1.00  0.00    -0.000 C 
BRANCH  10  11
ATOM     11  C   UNL     1      64.046  34.477  61.260  1.00  0.00    -0.000 C 
BRANCH  11  12
ATOM     12  C   UNL     1      63.370  35.820  60.941  1.00  0.00    -0.000 C 
BRANCH  12  13
ATOM     13  C   UNL     1      61.847  35.664  60.869  1.00  0.00    -0.003 C 
ATOM     14  C   UNL     1      61.347  35.779  59.433  1.00  0.00     0.004 C 
ENDBRANCH  12  13
ENDBRANCH  11  12
ENDBRANCH  10  11
ENDBRANCH   9  10
ENDBRANCH   1   9
TORSDOF 10
ENDMDL
MODEL 8
REMARK VINA RESULT:    -3.266     11.015     12.891
REMARK INTER + INTRA:          -6.316
REMARK INTER:                  -5.052
REMARK INTRA:                  -1.264
REMARK UNBOUND:                -1.141
REMARK SMILES CCCCCCCCCCCC(=O)[O-]
REMARK SMILES IDX 7 1 8 2 9 3 10 4 11 5 12 6 13 7 14 8 6 9 5 10 4 11 3 12 2 13
REMARK SMILES IDX 1 14
REMARK H PARENT
REMARK Flexibility Score: inf
ROOT
ATOM      1  C   UNL     1      63.905  32.582  58.596  1.00  0.00     0.000 C 
ENDROOT
BRANCH   1   2
ATOM      2  C   UNL     1      64.564  31.446  59.403  1.00  0.00     0.000 C 
BRANCH   2   3
ATOM      3  C   UNL     1      63.625  30.284  59.786  1.00  0.00     0.000 C 
BRANCH   3   4
ATOM      4  C   UNL     1      63.307  30.172  61.288  1.00  0.00     0.006 C 
BRANCH   4   5
ATOM      5  C   UNL     1      62.002  29.416  61.565  1.00  0.00     0.053 C 
BRANCH   5   6
ATOM      6  C   UNL     1      60.824  30.239  61.154  1.00  0.00     0.041 C 
ATOM      7  O   UNL     1      60.447  31.206  61.867  1.00  0.00    -0.550 OA
ATOM      8  O   UNL     1      60.111  29.909  60.008  1.00  0.00    -0.550 OA
ENDBRANCH   5   6
ENDBRANCH   4   5
ENDBRANCH   3   4
ENDBRANCH   2   3
ENDBRANCH   1   2
BRANCH   1   9
ATOM      9  C   UNL     1      62.379  32.461  58.436  1.00  0.00     0.000 C 
BRANCH   9  10
ATOM     10  C   UNL     1      61.617  33.615  59.111  1.00  0.00    -0.000 C 
BRANCH  10  11
ATOM     11  C   UNL     1      62.168  33.948  60.507  1.00  0.00    -0.000 C 
BRANCH  11  12
ATOM     12  C   UNL     1      62.076  35.447  60.836  1.00  0.00    -0.000 C 
BRANCH  12  13
ATOM     13  C   UNL     1      63.438  35.998  61.269  1.00  0.00    -0.003 C 
ATOM     14  C   UNL     1      64.420  34.870  61.570  1.00  0.00     0.004 C 
ENDBRANCH  12  13
ENDBRANCH  11  12
ENDBRANCH  10  11
ENDBRANCH   9  10
ENDBRANCH   1   9
TORSDOF 10
ENDMDL
MODEL 9
REMARK VINA RESULT:    -3.227      3.170      5.578
REMARK INTER + INTRA:          -6.254
REMARK INTER:                  -5.549
REMARK INTRA:                  -0.705
REMARK UNBOUND:                -1.141
REMARK SMILES CCCCCCCCCCCC(=O)[O-]
REMARK SMILES IDX 7 1 8 2 9 3 10 4 11 5 12 6 13 7 14 8 6 9 5 10 4 11 3 12 2 13
REMARK SMILES IDX 1 14
REMARK H PARENT
REMARK Flexibility Score: inf
ROOT
ATOM      1  C   UNL     1      59.601  28.169  49.551  1.00  0.00     0.000 C 
ENDROOT
BRANCH   1   2
ATOM      2  C   UNL     1      60.966  27.588  49.970  1.00  0.00     0.000 C 
BRANCH   2   3
ATOM      3  C   UNL     1      60.904  26.459  51.019  1.00  0.00     0.000 C 
BRANCH   3   4
ATOM      4  C   UNL     1      60.438  25.095  50.479  1.00  0.00     0.006 C 
BRANCH   4   5
ATOM      5  C   UNL     1      61.492  23.995  50.653  1.00  0.00     0.053 C 
BRANCH   5   6
ATOM      6  C   UNL     1      60.906  22.656  50.334  1.00  0.00     0.041 C 
ATOM      7  O   UNL     1      60.254  22.026  51.208  1.00  0.00    -0.550 OA
ATOM      8  O   UNL     1      61.122  22.081  49.088  1.00  0.00    -0.550 OA
ENDBRANCH   5   6
ENDBRANCH   4   5
ENDBRANCH   3   4
ENDBRANCH   2   3
ENDBRANCH   1   2
BRANCH   1   9
ATOM      9  C   UNL     1      58.901  29.016  50.629  1.00  0.00     0.000 C 
BRANCH   9  10
ATOM     10  C   UNL     1      57.411  28.664  50.786  1.00  0.00    -0.000 C 
BRANCH  10  11
ATOM     11  C   UNL     1      57.149  27.152  50.693  1.00  0.00    -0.000 C 
BRANCH  11  12
ATOM     12  C   UNL     1      55.651  26.812  50.676  1.00  0.00    -0.000 C 
BRANCH  12  13
ATOM     13  C   UNL     1      54.808  28.063  50.403  1.00  0.00    -0.003 C 
ATOM     14  C   UNL     1      53.321  27.727  50.359  1.00  0.00     0.004 C 
ENDBRANCH  12  13
ENDBRANCH  11  12
ENDBRANCH  10  11
ENDBRANCH   9  10
ENDBRANCH   1   9
TORSDOF 10
ENDMDL
