MODEL 1
REMARK VINA RESULT:    -6.947      0.000      0.000
REMARK INTER + INTRA:          -8.456
REMARK INTER:                  -8.165
REMARK INTRA:                  -0.290
REMARK UNBOUND:                -0.290
REMARK SMILES O=c1c(O)c(-c2ccc(O)cc2)oc2cc(O)cc(O)c12
REMARK SMILES IDX 5 1 3 2 2 3 1 4 21 5 19 6 18 7 16 8 15 9 14 10 13 11 6 12
REMARK SMILES IDX 7 13 8 14 9 15 12 16 11 17 10 18 4 20 20 22 17 24
REMARK H PARENT 10 19 4 21 20 23 17 25
REMARK Flexibility Score: inf
ROOT
ATOM      1  C   UNL     1      18.003 -10.168  19.144  1.00  0.00     0.180 A 
ATOM      2  C   UNL     1      17.379  -8.950  18.812  1.00  0.00     0.208 A 
ATOM      3  C   UNL     1      17.546  -7.847  19.664  1.00  0.00     0.238 A 
ATOM      4  O   UNL     1      16.984  -6.753  19.383  1.00  0.00    -0.285 OA
ATOM      5  C   UNL     1      18.348  -7.973  20.817  1.00  0.00     0.111 A 
ATOM      6  C   UNL     1      18.572  -6.909  21.725  1.00  0.00     0.134 A 
ATOM      7  C   UNL     1      19.391  -7.112  22.845  1.00  0.00     0.093 A 
ATOM      8  C   UNL     1      19.990  -8.357  23.074  1.00  0.00     0.123 A 
ATOM      9  C   UNL     1      19.772  -9.407  22.183  1.00  0.00     0.094 A 
ATOM     10  C   UNL     1      18.958  -9.226  21.061  1.00  0.00     0.146 A 
ATOM     11  O   UNL     1      18.764 -10.245  20.232  1.00  0.00    -0.452 OA
ENDROOT
BRANCH   1  12
ATOM     12  C   UNL     1      17.858 -11.380  18.306  1.00  0.00     0.021 A 
ATOM     13  C   UNL     1      18.752 -11.597  17.244  1.00  0.00     0.016 A 
ATOM     14  C   UNL     1      18.647 -12.745  16.454  1.00  0.00     0.047 A 
ATOM     15  C   UNL     1      17.659 -13.697  16.724  1.00  0.00     0.115 A 
ATOM     16  C   UNL     1      16.879 -12.351  18.585  1.00  0.00     0.016 A 
ATOM     17  C   UNL     1      16.777 -13.500  17.794  1.00  0.00     0.047 A 
BRANCH  15  18
ATOM     18  O   UNL     1      17.566 -14.837  15.928  1.00  0.00    -0.508 OA
ATOM     19  H   UNL     1      17.743 -15.762  16.304  1.00  0.00     0.293 HD
ENDBRANCH  15  18
ENDBRANCH   1  12
BRANCH   2  20
ATOM     20  O   UNL     1      16.630  -8.836  17.637  1.00  0.00    -0.502 OA
ATOM     21  H   UNL     1      16.489  -7.951  17.167  1.00  0.00     0.293 HD
ENDBRANCH   2  20
BRANCH   6  22
ATOM     22  O   UNL     1      17.989  -5.657  21.522  1.00  0.00    -0.507 OA
ATOM     23  H   UNL     1      17.009  -5.489  21.718  1.00  0.00     0.293 HD
ENDBRANCH   6  22
BRANCH   8  24
ATOM     24  O   UNL     1      20.804  -8.558  24.187  1.00  0.00    -0.508 OA
ATOM     25  H   UNL     1      21.159  -9.477  24.425  1.00  0.00     0.293 HD
ENDBRANCH   8  24
TORSDOF 5
ENDMDL
MODEL 2
REMARK VINA RESULT:    -6.922      0.088      1.061
REMARK INTER + INTRA:          -8.426
REMARK INTER:                  -8.140
REMARK INTRA:                  -0.286
REMARK UNBOUND:                -0.290
REMARK SMILES O=c1c(O)c(-c2ccc(O)cc2)oc2cc(O)cc(O)c12
REMARK SMILES IDX 5 1 3 2 2 3 1 4 21 5 19 6 18 7 16 8 15 9 14 10 13 11 6 12
REMARK SMILES IDX 7 13 8 14 9 15 12 16 11 17 10 18 4 20 20 22 17 24
REMARK H PARENT 10 19 4 21 20 23 17 25
REMARK Flexibility Score: inf
ROOT
ATOM      1  C   UNL     1      18.102 -10.197  19.132  1.00  0.00     0.180 A 
ATOM      2  C   UNL     1      17.457  -8.996  18.778  1.00  0.00     0.208 A 
ATOM      3  C   UNL     1      17.579  -7.883  19.624  1.00  0.00     0.238 A 
ATOM      4  O   UNL     1      16.998  -6.806  19.323  1.00  0.00    -0.285 OA
ATOM      5  C   UNL     1      18.359  -7.982  20.795  1.00  0.00     0.111 A 
ATOM      6  C   UNL     1      18.537  -6.906  21.700  1.00  0.00     0.134 A 
ATOM      7  C   UNL     1      19.336  -7.081  22.839  1.00  0.00     0.093 A 
ATOM      8  C   UNL     1      19.959  -8.309  23.091  1.00  0.00     0.123 A 
ATOM      9  C   UNL     1      19.786  -9.371  22.204  1.00  0.00     0.094 A 
ATOM     10  C   UNL     1      18.993  -9.218  21.063  1.00  0.00     0.146 A 
ATOM     11  O   UNL     1      18.840 -10.247  20.238  1.00  0.00    -0.452 OA
ENDROOT
BRANCH   1  12
ATOM     12  C   UNL     1      18.004 -11.418  18.301  1.00  0.00     0.021 A 
ATOM     13  C   UNL     1      16.985 -12.350  18.561  1.00  0.00     0.016 A 
ATOM     14  C   UNL     1      16.860 -13.499  17.775  1.00  0.00     0.047 A 
ATOM     15  C   UNL     1      17.739 -13.724  16.712  1.00  0.00     0.115 A 
ATOM     16  C   UNL     1      18.873 -11.640  17.218  1.00  0.00     0.016 A 
ATOM     17  C   UNL     1      18.744 -12.789  16.432  1.00  0.00     0.047 A 
BRANCH  15  18
ATOM     18  O   UNL     1      17.603 -14.873  15.937  1.00  0.00    -0.508 OA
ATOM     19  H   UNL     1      18.334 -15.176  15.304  1.00  0.00     0.293 HD
ENDBRANCH  15  18
ENDBRANCH   1  12
BRANCH   2  20
ATOM     20  O   UNL     1      16.731  -8.909  17.586  1.00  0.00    -0.502 OA
ATOM     21  H   UNL     1      15.719  -8.895  17.567  1.00  0.00     0.293 HD
ENDBRANCH   2  20
BRANCH   6  22
ATOM     22  O   UNL     1      17.929  -5.670  21.474  1.00  0.00    -0.507 OA
ATOM     23  H   UNL     1      18.031  -4.900  22.124  1.00  0.00     0.293 HD
ENDBRANCH   6  22
BRANCH   8  24
ATOM     24  O   UNL     1      20.753  -8.483  24.223  1.00  0.00    -0.508 OA
ATOM     25  H   UNL     1      21.185  -9.375  24.435  1.00  0.00     0.293 HD
ENDBRANCH   8  24
TORSDOF 5
ENDMDL
MODEL 3
REMARK VINA RESULT:    -6.901      1.918      7.274
REMARK INTER + INTRA:          -8.401
REMARK INTER:                  -8.113
REMARK INTRA:                  -0.288
REMARK UNBOUND:                -0.290
REMARK SMILES O=c1c(O)c(-c2ccc(O)cc2)oc2cc(O)cc(O)c12
REMARK SMILES IDX 5 1 3 2 2 3 1 4 21 5 19 6 18 7 16 8 15 9 14 10 13 11 6 12
REMARK SMILES IDX 7 13 8 14 9 15 12 16 11 17 10 18 4 20 20 22 17 24
REMARK H PARENT 10 19 4 21 20 23 17 25
REMARK Flexibility Score: inf
ROOT
ATOM      1  C   UNL     1      18.140 -10.723  18.003  1.00  0.00     0.180 A 
ATOM      2  C   UNL     1      17.499 -11.915  18.389  1.00  0.00     0.208 A 
ATOM      3  C   UNL     1      17.614 -13.046  17.566  1.00  0.00     0.238 A 
ATOM      4  O   UNL     1      17.036 -14.117  17.897  1.00  0.00    -0.285 OA
ATOM      5  C   UNL     1      18.383 -12.973  16.386  1.00  0.00     0.111 A 
ATOM      6  C   UNL     1      18.553 -14.068  15.504  1.00  0.00     0.134 A 
ATOM      7  C   UNL     1      19.341 -13.918  14.354  1.00  0.00     0.093 A 
ATOM      8  C   UNL     1      19.961 -12.695  14.069  1.00  0.00     0.123 A 
ATOM      9  C   UNL     1      19.796 -11.614  14.935  1.00  0.00     0.094 A 
ATOM     10  C   UNL     1      19.014 -11.743  16.086  1.00  0.00     0.146 A 
ATOM     11  O   UNL     1      18.869 -10.696  16.890  1.00  0.00    -0.452 OA
ENDROOT
BRANCH   1  12
ATOM     12  C   UNL     1      18.049  -9.483  18.808  1.00  0.00     0.021 A 
ATOM     13  C   UNL     1      16.956  -8.620  18.626  1.00  0.00     0.016 A 
ATOM     14  C   UNL     1      16.838  -7.456  19.391  1.00  0.00     0.047 A 
ATOM     15  C   UNL     1      17.801  -7.148  20.356  1.00  0.00     0.115 A 
ATOM     16  C   UNL     1      19.004  -9.178  19.794  1.00  0.00     0.016 A 
ATOM     17  C   UNL     1      18.884  -8.014  20.559  1.00  0.00     0.047 A 
BRANCH  15  18
ATOM     18  O   UNL     1      17.672  -5.984  21.111  1.00  0.00    -0.508 OA
ATOM     19  H   UNL     1      16.925  -5.871  21.787  1.00  0.00     0.293 HD
ENDBRANCH  15  18
ENDBRANCH   1  12
BRANCH   2  20
ATOM     20  O   UNL     1      16.785 -11.976  19.589  1.00  0.00    -0.502 OA
ATOM     21  H   UNL     1      16.404 -12.842  19.951  1.00  0.00     0.293 HD
ENDBRANCH   2  20
BRANCH   6  22
ATOM     22  O   UNL     1      17.948 -15.299  15.762  1.00  0.00    -0.507 OA
ATOM     23  H   UNL     1      17.088 -15.576  15.304  1.00  0.00     0.293 HD
ENDBRANCH   6  22
BRANCH   8  24
ATOM     24  O   UNL     1      20.745 -12.546  12.927  1.00  0.00    -0.508 OA
ATOM     25  H   UNL     1      21.314 -13.306  12.571  1.00  0.00     0.293 HD
ENDBRANCH   8  24
TORSDOF 5
ENDMDL
MODEL 4
REMARK VINA RESULT:    -6.454      2.422      3.518
REMARK INTER + INTRA:          -7.876
REMARK INTER:                  -8.430
REMARK INTRA:                   0.554
REMARK UNBOUND:                -0.290
REMARK SMILES O=c1c(O)c(-c2ccc(O)cc2)oc2cc(O)cc(O)c12
REMARK SMILES IDX 5 1 3 2 2 3 1 4 21 5 19 6 18 7 16 8 15 9 14 10 13 11 6 12
REMARK SMILES IDX 7 13 8 14 9 15 12 16 11 17 10 18 4 20 20 22 17 24
REMARK H PARENT 10 19 4 21 20 23 17 25
REMARK Flexibility Score: inf
ROOT
ATOM      1  C   UNL     1      19.153 -11.419  16.465  1.00  0.00     0.180 A 
ATOM      2  C   UNL     1      18.727 -10.103  16.198  1.00  0.00     0.208 A 
ATOM      3  C   UNL     1      18.365  -9.276  17.273  1.00  0.00     0.238 A 
ATOM      4  O   UNL     1      17.973  -8.099  17.046  1.00  0.00    -0.285 OA
ATOM      5  C   UNL     1      18.455  -9.768  18.591  1.00  0.00     0.111 A 
ATOM      6  C   UNL     1      18.114  -8.997  19.730  1.00  0.00     0.134 A 
ATOM      7  C   UNL     1      18.239  -9.556  21.010  1.00  0.00     0.093 A 
ATOM      8  C   UNL     1      18.698 -10.868  21.173  1.00  0.00     0.123 A 
ATOM      9  C   UNL     1      19.035 -11.631  20.055  1.00  0.00     0.094 A 
ATOM     10  C   UNL     1      18.916 -11.093  18.770  1.00  0.00     0.146 A 
ATOM     11  O   UNL     1      19.238 -11.843  17.723  1.00  0.00    -0.452 OA
ENDROOT
BRANCH   1  12
ATOM     12  C   UNL     1      19.532 -12.358  15.384  1.00  0.00     0.021 A 
ATOM     13  C   UNL     1      19.680 -11.877  14.072  1.00  0.00     0.016 A 
ATOM     14  C   UNL     1      20.059 -12.741  13.041  1.00  0.00     0.047 A 
ATOM     15  C   UNL     1      20.310 -14.090  13.309  1.00  0.00     0.115 A 
ATOM     16  C   UNL     1      19.805 -13.711  15.651  1.00  0.00     0.016 A 
ATOM     17  C   UNL     1      20.185 -14.573  14.618  1.00  0.00     0.047 A 
BRANCH  15  18
ATOM     18  O   UNL     1      20.686 -14.939  12.271  1.00  0.00    -0.508 OA
ATOM     19  H   UNL     1      20.311 -14.833  11.336  1.00  0.00     0.293 HD
ENDBRANCH  15  18
ENDBRANCH   1  12
BRANCH   2  20
ATOM     20  O   UNL     1      18.695  -9.623  14.886  1.00  0.00    -0.502 OA
ATOM     21  H   UNL     1      19.116  -8.742  14.620  1.00  0.00     0.293 HD
ENDBRANCH   2  20
BRANCH   6  22
ATOM     22  O   UNL     1      17.654  -7.686  19.598  1.00  0.00    -0.507 OA
ATOM     23  H   UNL     1      17.929  -7.101  18.819  1.00  0.00     0.293 HD
ENDBRANCH   6  22
BRANCH   8  24
ATOM     24  O   UNL     1      18.823 -11.423  22.445  1.00  0.00    -0.508 OA
ATOM     25  H   UNL     1      19.427 -12.218  22.620  1.00  0.00     0.293 HD
ENDBRANCH   8  24
TORSDOF 5
ENDMDL
MODEL 5
REMARK VINA RESULT:    -6.401      2.954      6.907
REMARK INTER + INTRA:          -7.813
REMARK INTER:                  -7.674
REMARK INTRA:                  -0.140
REMARK UNBOUND:                -0.290
REMARK SMILES O=c1c(O)c(-c2ccc(O)cc2)oc2cc(O)cc(O)c12
REMARK SMILES IDX 5 1 3 2 2 3 1 4 21 5 19 6 18 7 16 8 15 9 14 10 13 11 6 12
REMARK SMILES IDX 7 13 8 14 9 15 12 16 11 17 10 18 4 20 20 22 17 24
REMARK H PARENT 10 19 4 21 20 23 17 25
REMARK Flexibility Score: inf
ROOT
ATOM      1  C   UNL     1      20.038  -7.257  20.505  1.00  0.00     0.180 A 
ATOM      2  C   UNL     1      20.074  -7.713  21.837  1.00  0.00     0.208 A 
ATOM      3  C   UNL     1      19.588  -8.998  22.128  1.00  0.00     0.238 A 
ATOM      4  O   UNL     1      19.606  -9.413  23.319  1.00  0.00    -0.285 OA
ATOM      5  C   UNL     1      19.097  -9.809  21.085  1.00  0.00     0.111 A 
ATOM      6  C   UNL     1      18.595 -11.117  21.293  1.00  0.00     0.134 A 
ATOM      7  C   UNL     1      18.132 -11.866  20.201  1.00  0.00     0.093 A 
ATOM      8  C   UNL     1      18.162 -11.332  18.907  1.00  0.00     0.123 A 
ATOM      9  C   UNL     1      18.656 -10.044  18.698  1.00  0.00     0.094 A 
ATOM     10  C   UNL     1      19.121  -9.282  19.773  1.00  0.00     0.146 A 
ATOM     11  O   UNL     1      19.581  -8.057  19.546  1.00  0.00    -0.452 OA
ENDROOT
BRANCH   1  12
ATOM     12  C   UNL     1      20.513  -5.908  20.122  1.00  0.00     0.021 A 
ATOM     13  C   UNL     1      21.562  -5.782  19.196  1.00  0.00     0.016 A 
ATOM     14  C   UNL     1      22.012  -4.518  18.804  1.00  0.00     0.047 A 
ATOM     15  C   UNL     1      21.410  -3.366  19.318  1.00  0.00     0.115 A 
ATOM     16  C   UNL     1      19.898  -4.745  20.620  1.00  0.00     0.016 A 
ATOM     17  C   UNL     1      20.349  -3.482  20.225  1.00  0.00     0.047 A 
BRANCH  15  18
ATOM     18  O   UNL     1      21.869  -2.113  18.918  1.00  0.00    -0.508 OA
ATOM     19  H   UNL     1      21.436  -1.609  18.152  1.00  0.00     0.293 HD
ENDBRANCH  15  18
ENDBRANCH   1  12
BRANCH   2  20
ATOM     20  O   UNL     1      20.612  -6.908  22.845  1.00  0.00    -0.502 OA
ATOM     21  H   UNL     1      20.357  -7.015  23.819  1.00  0.00     0.293 HD
ENDBRANCH   2  20
BRANCH   6  22
ATOM     22  O   UNL     1      18.552 -11.675  22.572  1.00  0.00    -0.507 OA
ATOM     23  H   UNL     1      17.842 -12.347  22.836  1.00  0.00     0.293 HD
ENDBRANCH   6  22
BRANCH   8  24
ATOM     24  O   UNL     1      17.703 -12.076  17.822  1.00  0.00    -0.508 OA
ATOM     25  H   UNL     1      18.154 -12.025  16.916  1.00  0.00     0.293 HD
ENDBRANCH   8  24
TORSDOF 5
ENDMDL
MODEL 6
REMARK VINA RESULT:    -6.298      1.382      3.084
REMARK INTER + INTRA:          -7.692
REMARK INTER:                  -7.402
REMARK INTRA:                  -0.291
REMARK UNBOUND:                -0.290
REMARK SMILES O=c1c(O)c(-c2ccc(O)cc2)oc2cc(O)cc(O)c12
REMARK SMILES IDX 5 1 3 2 2 3 1 4 21 5 19 6 18 7 16 8 15 9 14 10 13 11 6 12
REMARK SMILES IDX 7 13 8 14 9 15 12 16 11 17 10 18 4 20 20 22 17 24
REMARK H PARENT 10 19 4 21 20 23 17 25
REMARK Flexibility Score: inf
ROOT
ATOM      1  C   UNL     1      19.246 -10.945  19.299  1.00  0.00     0.180 A 
ATOM      2  C   UNL     1      20.093 -11.360  20.346  1.00  0.00     0.208 A 
ATOM      3  C   UNL     1      20.344 -10.476  21.407  1.00  0.00     0.238 A 
ATOM      4  O   UNL     1      21.108 -10.832  22.345  1.00  0.00    -0.285 OA
ATOM      5  C   UNL     1      19.731  -9.206  21.416  1.00  0.00     0.111 A 
ATOM      6  C   UNL     1      19.927  -8.258  22.450  1.00  0.00     0.134 A 
ATOM      7  C   UNL     1      19.275  -7.019  22.390  1.00  0.00     0.093 A 
ATOM      8  C   UNL     1      18.429  -6.709  21.318  1.00  0.00     0.123 A 
ATOM      9  C   UNL     1      18.232  -7.639  20.297  1.00  0.00     0.094 A 
ATOM     10  C   UNL     1      18.875  -8.880  20.337  1.00  0.00     0.146 A 
ATOM     11  O   UNL     1      18.674  -9.745  19.349  1.00  0.00    -0.452 OA
ENDROOT
BRANCH   1  12
ATOM     12  C   UNL     1      18.949 -11.812  18.137  1.00  0.00     0.021 A 
ATOM     13  C   UNL     1      19.794 -11.777  17.015  1.00  0.00     0.016 A 
ATOM     14  C   UNL     1      19.545 -12.603  15.915  1.00  0.00     0.047 A 
ATOM     15  C   UNL     1      18.460 -13.485  15.929  1.00  0.00     0.115 A 
ATOM     16  C   UNL     1      17.871 -12.716  18.153  1.00  0.00     0.016 A 
ATOM     17  C   UNL     1      17.625 -13.542  17.052  1.00  0.00     0.047 A 
BRANCH  15  18
ATOM     18  O   UNL     1      18.224 -14.303  14.826  1.00  0.00    -0.508 OA
ATOM     19  H   UNL     1      18.965 -14.550  14.181  1.00  0.00     0.293 HD
ENDBRANCH  15  18
ENDBRANCH   1  12
BRANCH   2  20
ATOM     20  O   UNL     1      20.648 -12.642  20.339  1.00  0.00    -0.502 OA
ATOM     21  H   UNL     1      21.194 -13.001  21.112  1.00  0.00     0.293 HD
ENDBRANCH   2  20
BRANCH   6  22
ATOM     22  O   UNL     1      20.764  -8.539  23.531  1.00  0.00    -0.507 OA
ATOM     23  H   UNL     1      21.133  -9.468  23.692  1.00  0.00     0.293 HD
ENDBRANCH   6  22
BRANCH   8  24
ATOM     24  O   UNL     1      17.779  -5.478  21.259  1.00  0.00    -0.508 OA
ATOM     25  H   UNL     1      17.291  -5.176  20.424  1.00  0.00     0.293 HD
ENDBRANCH   8  24
TORSDOF 5
ENDMDL
MODEL 7
REMARK VINA RESULT:    -6.264      2.279      7.031
REMARK INTER + INTRA:          -7.653
REMARK INTER:                  -7.363
REMARK INTRA:                  -0.290
REMARK UNBOUND:                -0.290
REMARK SMILES O=c1c(O)c(-c2ccc(O)cc2)oc2cc(O)cc(O)c12
REMARK SMILES IDX 5 1 3 2 2 3 1 4 21 5 19 6 18 7 16 8 15 9 14 10 13 11 6 12
REMARK SMILES IDX 7 13 8 14 9 15 12 16 11 17 10 18 4 20 20 22 17 24
REMARK H PARENT 10 19 4 21 20 23 17 25
REMARK Flexibility Score: inf
ROOT
ATOM      1  C   UNL     1      19.279  -9.902  18.065  1.00  0.00     0.180 A 
ATOM      2  C   UNL     1      20.123  -9.487  17.017  1.00  0.00     0.208 A 
ATOM      3  C   UNL     1      20.333 -10.353  15.931  1.00  0.00     0.238 A 
ATOM      4  O   UNL     1      21.094  -9.996  14.991  1.00  0.00    -0.285 OA
ATOM      5  C   UNL     1      19.683 -11.603  15.902  1.00  0.00     0.111 A 
ATOM      6  C   UNL     1      19.837 -12.532  14.843  1.00  0.00     0.134 A 
ATOM      7  C   UNL     1      19.149 -13.753  14.883  1.00  0.00     0.093 A 
ATOM      8  C   UNL     1      18.310 -14.063  15.960  1.00  0.00     0.123 A 
ATOM      9  C   UNL     1      18.155 -13.152  17.005  1.00  0.00     0.094 A 
ATOM     10  C   UNL     1      18.833 -11.930  16.985  1.00  0.00     0.146 A 
ATOM     11  O   UNL     1      18.672 -11.083  17.995  1.00  0.00    -0.452 OA
ENDROOT
BRANCH   1  12
ATOM     12  C   UNL     1      19.024  -9.054  19.252  1.00  0.00     0.021 A 
ATOM     13  C   UNL     1      19.870  -9.156  20.369  1.00  0.00     0.016 A 
ATOM     14  C   UNL     1      19.661  -8.350  21.491  1.00  0.00     0.047 A 
ATOM     15  C   UNL     1      18.615  -7.422  21.506  1.00  0.00     0.115 A 
ATOM     16  C   UNL     1      17.986  -8.105  19.265  1.00  0.00     0.016 A 
ATOM     17  C   UNL     1      17.780  -7.299  20.388  1.00  0.00     0.047 A 
BRANCH  15  18
ATOM     18  O   UNL     1      18.418  -6.625  22.631  1.00  0.00    -0.508 OA
ATOM     19  H   UNL     1      17.909  -5.750  22.579  1.00  0.00     0.293 HD
ENDBRANCH  15  18
ENDBRANCH   1  12
BRANCH   2  20
ATOM     20  O   UNL     1      20.716  -8.222  17.045  1.00  0.00    -0.502 OA
ATOM     21  H   UNL     1      20.739  -7.653  17.882  1.00  0.00     0.293 HD
ENDBRANCH   2  20
BRANCH   6  22
ATOM     22  O   UNL     1      20.667 -12.250  13.756  1.00  0.00    -0.507 OA
ATOM     23  H   UNL     1      21.600 -11.876  13.882  1.00  0.00     0.293 HD
ENDBRANCH   6  22
BRANCH   8  24
ATOM     24  O   UNL     1      17.625 -15.275  16.000  1.00  0.00    -0.508 OA
ATOM     25  H   UNL     1      17.606 -15.846  16.837  1.00  0.00     0.293 HD
ENDBRANCH   8  24
TORSDOF 5
ENDMDL
MODEL 8
REMARK VINA RESULT:    -6.215      3.492      5.960
REMARK INTER + INTRA:          -7.595
REMARK INTER:                  -7.505
REMARK INTRA:                  -0.090
REMARK UNBOUND:                -0.290
REMARK SMILES O=c1c(O)c(-c2ccc(O)cc2)oc2cc(O)cc(O)c12
REMARK SMILES IDX 5 1 3 2 2 3 1 4 21 5 19 6 18 7 16 8 15 9 14 10 13 11 6 12
REMARK SMILES IDX 7 13 8 14 9 15 12 16 11 17 10 18 4 20 20 22 17 24
REMARK H PARENT 10 19 4 21 20 23 17 25
REMARK Flexibility Score: inf
ROOT
ATOM      1  C   UNL     1      20.162 -13.901  16.725  1.00  0.00     0.180 A 
ATOM      2  C   UNL     1      20.135 -13.511  15.372  1.00  0.00     0.208 A 
ATOM      3  C   UNL     1      19.650 -12.235  15.042  1.00  0.00     0.238 A 
ATOM      4  O   UNL     1      19.611 -11.879  13.833  1.00  0.00    -0.285 OA
ATOM      5  C   UNL     1      19.222 -11.367  16.067  1.00  0.00     0.111 A 
ATOM      6  C   UNL     1      18.724 -10.064  15.821  1.00  0.00     0.134 A 
ATOM      7  C   UNL     1      18.326  -9.257  16.896  1.00  0.00     0.093 A 
ATOM      8  C   UNL     1      18.416  -9.727  18.212  1.00  0.00     0.123 A 
ATOM      9  C   UNL     1      18.905 -11.009  18.459  1.00  0.00     0.094 A 
ATOM     10  C   UNL     1      19.306 -11.830  17.401  1.00  0.00     0.146 A 
ATOM     11  O   UNL     1      19.763 -13.049  17.665  1.00  0.00    -0.452 OA
ENDROOT
BRANCH   1  12
ATOM     12  C   UNL     1      20.640 -15.236  17.150  1.00  0.00     0.021 A 
ATOM     13  C   UNL     1      21.672 -15.330  18.099  1.00  0.00     0.016 A 
ATOM     14  C   UNL     1      22.125 -16.580  18.530  1.00  0.00     0.047 A 
ATOM     15  C   UNL     1      21.543 -17.750  18.033  1.00  0.00     0.115 A 
ATOM     16  C   UNL     1      20.045 -16.416  16.668  1.00  0.00     0.016 A 
ATOM     17  C   UNL     1      20.499 -17.665  17.103  1.00  0.00     0.047 A 
BRANCH  15  18
ATOM     18  O   UNL     1      22.004 -18.989  18.472  1.00  0.00    -0.508 OA
ATOM     19  H   UNL     1      21.696 -19.388  19.351  1.00  0.00     0.293 HD
ENDBRANCH  15  18
ENDBRANCH   1  12
BRANCH   2  20
ATOM     20  O   UNL     1      20.611 -14.371  14.379  1.00  0.00    -0.502 OA
ATOM     21  H   UNL     1      19.995 -14.941  13.813  1.00  0.00     0.293 HD
ENDBRANCH   2  20
BRANCH   6  22
ATOM     22  O   UNL     1      18.623  -9.568  14.520  1.00  0.00    -0.507 OA
ATOM     23  H   UNL     1      17.778  -9.121  14.185  1.00  0.00     0.293 HD
ENDBRANCH   6  22
BRANCH   8  24
ATOM     24  O   UNL     1      18.022  -8.924  19.280  1.00  0.00    -0.508 OA
ATOM     25  H   UNL     1      18.574  -8.128  19.577  1.00  0.00     0.293 HD
ENDBRANCH   8  24
TORSDOF 5
ENDMDL
MODEL 9
REMARK VINA RESULT:    -6.122      1.603      2.845
REMARK INTER + INTRA:          -7.486
REMARK INTER:                  -7.390
REMARK INTRA:                  -0.095
REMARK UNBOUND:                -0.290
REMARK SMILES O=c1c(O)c(-c2ccc(O)cc2)oc2cc(O)cc(O)c12
REMARK SMILES IDX 5 1 3 2 2 3 1 4 21 5 19 6 18 7 16 8 15 9 14 10 13 11 6 12
REMARK SMILES IDX 7 13 8 14 9 15 12 16 11 17 10 18 4 20 20 22 17 24
REMARK H PARENT 10 19 4 21 20 23 17 25
REMARK Flexibility Score: inf
ROOT
ATOM      1  C   UNL     1      18.721 -10.416  19.657  1.00  0.00     0.180 A 
ATOM      2  C   UNL     1      18.770 -10.628  21.048  1.00  0.00     0.208 A 
ATOM      3  C   UNL     1      19.189  -9.578  21.881  1.00  0.00     0.238 A 
ATOM      4  O   UNL     1      19.247  -9.759  23.127  1.00  0.00    -0.285 OA
ATOM      5  C   UNL     1      19.530  -8.333  21.313  1.00  0.00     0.111 A 
ATOM      6  C   UNL     1      19.958  -7.223  22.082  1.00  0.00     0.134 A 
ATOM      7  C   UNL     1      20.271  -6.014  21.444  1.00  0.00     0.093 A 
ATOM      8  C   UNL     1      20.164  -5.895  20.053  1.00  0.00     0.123 A 
ATOM      9  C   UNL     1      19.744  -6.985  19.291  1.00  0.00     0.094 A 
ATOM     10  C   UNL     1      19.428  -8.199  19.908  1.00  0.00     0.146 A 
ATOM     11  O   UNL     1      19.036  -9.223  19.159  1.00  0.00    -0.452 OA
ENDROOT
BRANCH   1  12
ATOM     12  C   UNL     1      18.308 -11.479  18.712  1.00  0.00     0.021 A 
ATOM     13  C   UNL     1      19.232 -11.965  17.772  1.00  0.00     0.016 A 
ATOM     14  C   UNL     1      18.871 -12.984  16.886  1.00  0.00     0.047 A 
ATOM     15  C   UNL     1      17.589 -13.540  16.939  1.00  0.00     0.115 A 
ATOM     16  C   UNL     1      17.027 -12.057  18.774  1.00  0.00     0.016 A 
ATOM     17  C   UNL     1      16.669 -13.077  17.887  1.00  0.00     0.047 A 
BRANCH  15  18
ATOM     18  O   UNL     1      17.243 -14.555  16.049  1.00  0.00    -0.508 OA
ATOM     19  H   UNL     1      17.217 -15.527  16.337  1.00  0.00     0.293 HD
ENDBRANCH  15  18
ENDBRANCH   1  12
BRANCH   2  20
ATOM     20  O   UNL     1      18.379 -11.855  21.590  1.00  0.00    -0.502 OA
ATOM     21  H   UNL     1      17.411 -12.150  21.623  1.00  0.00     0.293 HD
ENDBRANCH   2  20
BRANCH   6  22
ATOM     22  O   UNL     1      20.073  -7.312  23.470  1.00  0.00    -0.507 OA
ATOM     23  H   UNL     1      20.022  -8.202  23.952  1.00  0.00     0.293 HD
ENDBRANCH   6  22
BRANCH   8  24
ATOM     24  O   UNL     1      20.474  -4.694  19.418  1.00  0.00    -0.508 OA
ATOM     25  H   UNL     1      21.421  -4.331  19.403  1.00  0.00     0.293 HD
ENDBRANCH   8  24
TORSDOF 5
ENDMDL
