MODEL 1
REMARK VINA RESULT:    -8.337      0.000      0.000
REMARK INTER + INTRA:          -9.325
REMARK INTER:                  -9.068
REMARK INTRA:                  -0.257
REMARK UNBOUND:                -0.257
REMARK SMILES C[C@@H]1[C@H]2C3=CC[C@H]4[C@]5(C)CC[C@@H](O)C(C)(C)[C@@H]5CC[C@@]4(C)[C@@]3(C)CC[C@@]2(C(=O)[O-])CC[C@@H]1C
REMARK SMILES IDX 26 1 30 2 25 3 3 4 31 5 24 6 4 7 2 8 32 9 22 10 5 11 1 12
REMARK SMILES IDX 33 13 23 14 20 15 6 16 7 17 19 18 21 19 8 20 18 21 17 22
REMARK SMILES IDX 10 23 9 24 14 25 11 26 12 27 15 28 16 29 27 30 28 31 29 32
REMARK SMILES IDX 13 33
REMARK H PARENT 13 34
REMARK Flexibility Score: inf
ROOT
ATOM      1  C   UNL     1      15.072  23.269  46.617  1.00  0.00     0.017 C 
ATOM      2  C   UNL     1      13.719  22.613  47.054  1.00  0.00     0.014 C 
ATOM      3  C   UNL     1      14.746  24.732  46.150  1.00  0.00     0.014 C 
ATOM      4  C   UNL     1      15.786  22.378  45.496  1.00  0.00     0.030 C 
ATOM      5  C   UNL     1      13.830  21.097  47.154  1.00  0.00     0.004 C 
ATOM      6  C   UNL     1      15.041  25.006  44.676  1.00  0.00     0.013 C 
ATOM      7  C   UNL     1      16.689  23.179  44.525  1.00  0.00    -0.063 C 
ATOM      8  C   UNL     1      14.760  21.445  44.756  1.00  0.00    -0.003 C 
ATOM      9  C   UNL     1      14.066  20.458  45.765  1.00  0.00    -0.011 C 
ATOM     10  C   UNL     1      16.515  24.674  44.279  1.00  0.00    -0.006 C 
ATOM     11  C   UNL     1      17.739  22.554  43.982  1.00  0.00    -0.027 C 
ATOM     12  C   UNL     1      15.321  20.685  43.536  1.00  0.00     0.008 C 
ATOM     13  C   UNL     1      14.811  19.121  45.956  1.00  0.00     0.008 C 
ATOM     14  C   UNL     1      17.502  25.406  45.247  1.00  0.00     0.017 C 
ATOM     15  C   UNL     1      16.843  25.089  42.753  1.00  0.00    -0.020 C 
ATOM     16  C   UNL     1      18.435  23.020  42.748  1.00  0.00     0.032 C 
ATOM     17  C   UNL     1      18.250  24.509  42.290  1.00  0.00     0.006 C 
ATOM     18  C   UNL     1      15.769  24.521  41.790  1.00  0.00     0.008 C 
ATOM     19  C   UNL     1      16.836  26.658  42.669  1.00  0.00     0.012 C 
ATOM     20  C   UNL     1      18.622  24.652  40.725  1.00  0.00    -0.025 C 
ATOM     21  C   UNL     1      16.074  24.710  40.298  1.00  0.00     0.005 C 
ATOM     22  C   UNL     1      17.436  24.125  39.817  1.00  0.00     0.003 C 
ATOM     23  C   UNL     1      18.959  26.126  40.329  1.00  0.00     0.010 C 
ATOM     24  C   UNL     1      19.941  23.830  40.500  1.00  0.00     0.012 C 
ATOM     25  C   UNL     1      17.647  24.359  38.250  1.00  0.00    -0.006 C 
ATOM     26  C   UNL     1      19.219  26.335  38.826  1.00  0.00     0.033 C 
ATOM     27  C   UNL     1      18.050  25.843  37.960  1.00  0.00     0.120 C 
ATOM     28  C   UNL     1      16.332  24.066  37.467  1.00  0.00     0.014 C 
ATOM     29  C   UNL     1      18.701  23.373  37.663  1.00  0.00     0.014 C 
ENDROOT
BRANCH   1  30
ATOM     30  C   UNL     1      15.955  23.370  47.864  1.00  0.00     0.048 C 
ATOM     31  O   UNL     1      15.624  24.077  48.853  1.00  0.00    -0.550 OA
ATOM     32  O   UNL     1      17.125  22.623  47.946  1.00  0.00    -0.550 OA
ENDBRANCH   1  30
BRANCH  27  33
ATOM     33  O   UNL     1      18.401  26.001  36.605  1.00  0.00    -0.393 OA
ATOM     34  H   UNL     1      19.354  26.276  36.573  1.00  0.00     0.210 HD
ENDBRANCH  27  33
TORSDOF 2
ENDMDL
MODEL 2
REMARK VINA RESULT:    -7.423      2.167      8.087
REMARK INTER + INTRA:          -8.331
REMARK INTER:                  -8.232
REMARK INTRA:                  -0.099
REMARK UNBOUND:                -0.257
REMARK SMILES C[C@@H]1[C@H]2C3=CC[C@H]4[C@]5(C)CC[C@@H](O)C(C)(C)[C@@H]5CC[C@@]4(C)[C@@]3(C)CC[C@@]2(C(=O)[O-])CC[C@@H]1C
REMARK SMILES IDX 26 1 30 2 25 3 3 4 31 5 24 6 4 7 2 8 32 9 22 10 5 11 1 12
REMARK SMILES IDX 33 13 23 14 20 15 6 16 7 17 19 18 21 19 8 20 18 21 17 22
REMARK SMILES IDX 10 23 9 24 14 25 11 26 12 27 15 28 16 29 27 30 28 31 29 32
REMARK SMILES IDX 13 33
REMARK H PARENT 13 34
REMARK Flexibility Score: inf
ROOT
ATOM      1  C   UNL     1      16.694  25.258  41.551  1.00  0.00     0.017 C 
ATOM      2  C   UNL     1      17.946  26.008  40.984  1.00  0.00     0.014 C 
ATOM      3  C   UNL     1      16.154  26.106  42.757  1.00  0.00     0.014 C 
ATOM      4  C   UNL     1      17.075  23.752  41.939  1.00  0.00     0.030 C 
ATOM      5  C   UNL     1      18.784  25.111  40.082  1.00  0.00     0.004 C 
ATOM      6  C   UNL     1      16.215  25.393  44.108  1.00  0.00     0.013 C 
ATOM      7  C   UNL     1      16.217  23.152  43.081  1.00  0.00    -0.063 C 
ATOM      8  C   UNL     1      18.620  23.590  42.178  1.00  0.00    -0.003 C 
ATOM      9  C   UNL     1      19.433  23.957  40.882  1.00  0.00    -0.011 C 
ATOM     10  C   UNL     1      15.481  24.014  44.102  1.00  0.00    -0.006 C 
ATOM     11  C   UNL     1      16.016  21.830  43.088  1.00  0.00    -0.027 C 
ATOM     12  C   UNL     1      19.059  22.220  42.736  1.00  0.00     0.008 C 
ATOM     13  C   UNL     1      19.675  22.769  39.929  1.00  0.00     0.008 C 
ATOM     14  C   UNL     1      14.021  24.192  43.568  1.00  0.00     0.017 C 
ATOM     15  C   UNL     1      15.445  23.336  45.567  1.00  0.00    -0.020 C 
ATOM     16  C   UNL     1      15.596  21.062  44.295  1.00  0.00     0.032 C 
ATOM     17  C   UNL     1      14.936  21.831  45.492  1.00  0.00     0.006 C 
ATOM     18  C   UNL     1      16.864  23.312  46.193  1.00  0.00     0.008 C 
ATOM     19  C   UNL     1      14.495  24.198  46.473  1.00  0.00     0.012 C 
ATOM     20  C   UNL     1      15.050  20.951  46.840  1.00  0.00    -0.025 C 
ATOM     21  C   UNL     1      16.976  22.538  47.512  1.00  0.00     0.005 C 
ATOM     22  C   UNL     1      16.507  21.053  47.454  1.00  0.00     0.003 C 
ATOM     23  C   UNL     1      14.005  21.382  47.920  1.00  0.00     0.010 C 
ATOM     24  C   UNL     1      14.683  19.476  46.447  1.00  0.00     0.012 C 
ATOM     25  C   UNL     1      16.681  20.334  48.871  1.00  0.00    -0.006 C 
ATOM     26  C   UNL     1      14.140  20.644  49.264  1.00  0.00     0.033 C 
ATOM     27  C   UNL     1      15.550  20.774  49.859  1.00  0.00     0.120 C 
ATOM     28  C   UNL     1      18.047  20.714  49.519  1.00  0.00     0.014 C 
ATOM     29  C   UNL     1      16.717  18.783  48.723  1.00  0.00     0.014 C 
ENDROOT
BRANCH   1  30
ATOM     30  C   UNL     1      15.619  25.273  40.460  1.00  0.00     0.048 C 
ATOM     31  O   UNL     1      15.709  24.549  39.433  1.00  0.00    -0.550 OA
ATOM     32  O   UNL     1      14.480  26.055  40.621  1.00  0.00    -0.550 OA
ENDBRANCH   1  30
BRANCH  27  33
ATOM     33  O   UNL     1      15.608  20.011  51.042  1.00  0.00    -0.393 OA
ATOM     34  H   UNL     1      16.485  20.190  51.471  1.00  0.00     0.210 HD
ENDBRANCH  27  33
TORSDOF 2
ENDMDL
MODEL 3
REMARK VINA RESULT:    -6.857      1.402      1.750
REMARK INTER + INTRA:          -7.716
REMARK INTER:                  -7.461
REMARK INTRA:                  -0.256
REMARK UNBOUND:                -0.257
REMARK SMILES C[C@@H]1[C@H]2C3=CC[C@H]4[C@]5(C)CC[C@@H](O)C(C)(C)[C@@H]5CC[C@@]4(C)[C@@]3(C)CC[C@@]2(C(=O)[O-])CC[C@@H]1C
REMARK SMILES IDX 26 1 30 2 25 3 3 4 31 5 24 6 4 7 2 8 32 9 22 10 5 11 1 12
REMARK SMILES IDX 33 13 23 14 20 15 6 16 7 17 19 18 21 19 8 20 18 21 17 22
REMARK SMILES IDX 10 23 9 24 14 25 11 26 12 27 15 28 16 29 27 30 28 31 29 32
REMARK SMILES IDX 13 33
REMARK H PARENT 13 34
REMARK Flexibility Score: inf
ROOT
ATOM      1  C   UNL     1      13.740  22.737  47.470  1.00  0.00     0.017 C 
ATOM      2  C   UNL     1      12.222  22.438  47.713  1.00  0.00     0.014 C 
ATOM      3  C   UNL     1      13.885  24.292  47.311  1.00  0.00     0.014 C 
ATOM      4  C   UNL     1      14.277  21.906  46.211  1.00  0.00     0.030 C 
ATOM      5  C   UNL     1      11.892  20.967  47.494  1.00  0.00     0.004 C 
ATOM      6  C   UNL     1      14.383  24.743  45.939  1.00  0.00     0.013 C 
ATOM      7  C   UNL     1      15.456  22.576  45.463  1.00  0.00    -0.063 C 
ATOM      8  C   UNL     1      13.103  21.478  45.258  1.00  0.00    -0.003 C 
ATOM      9  C   UNL     1      12.068  20.565  46.011  1.00  0.00    -0.011 C 
ATOM     10  C   UNL     1      15.734  24.074  45.531  1.00  0.00    -0.006 C 
ATOM     11  C   UNL     1      16.334  21.784  44.837  1.00  0.00    -0.027 C 
ATOM     12  C   UNL     1      13.541  20.834  43.925  1.00  0.00     0.008 C 
ATOM     13  C   UNL     1      12.385  19.057  45.942  1.00  0.00     0.008 C 
ATOM     14  C   UNL     1      16.791  24.282  46.665  1.00  0.00     0.017 C 
ATOM     15  C   UNL     1      16.308  24.657  44.139  1.00  0.00    -0.020 C 
ATOM     16  C   UNL     1      17.246  22.252  43.753  1.00  0.00     0.032 C 
ATOM     17  C   UNL     1      17.532  23.788  43.613  1.00  0.00     0.006 C 
ATOM     18  C   UNL     1      15.213  24.627  43.041  1.00  0.00     0.008 C 
ATOM     19  C   UNL     1      16.751  26.144  44.387  1.00  0.00     0.012 C 
ATOM     20  C   UNL     1      18.075  24.111  42.127  1.00  0.00    -0.025 C 
ATOM     21  C   UNL     1      15.698  25.000  41.634  1.00  0.00     0.005 C 
ATOM     22  C   UNL     1      16.880  24.142  41.088  1.00  0.00     0.003 C 
ATOM     23  C   UNL     1      18.849  25.468  42.062  1.00  0.00     0.010 C 
ATOM     24  C   UNL     1      19.124  22.996  41.779  1.00  0.00     0.012 C 
ATOM     25  C   UNL     1      17.294  24.600  39.614  1.00  0.00    -0.006 C 
ATOM     26  C   UNL     1      19.298  25.875  40.646  1.00  0.00     0.033 C 
ATOM     27  C   UNL     1      18.124  25.924  39.657  1.00  0.00     0.120 C 
ATOM     28  C   UNL     1      16.030  24.863  38.741  1.00  0.00     0.014 C 
ATOM     29  C   UNL     1      18.078  23.477  38.868  1.00  0.00     0.014 C 
ENDROOT
BRANCH   1  30
ATOM     30  C   UNL     1      14.495  22.332  48.740  1.00  0.00     0.048 C 
ATOM     31  O   UNL     1      14.258  22.876  49.852  1.00  0.00    -0.550 OA
ATOM     32  O   UNL     1      15.424  21.298  48.693  1.00  0.00    -0.550 OA
ENDBRANCH   1  30
BRANCH  27  33
ATOM     33  O   UNL     1      18.631  26.228  38.378  1.00  0.00    -0.393 OA
ATOM     34  H   UNL     1      19.255  26.994  38.478  1.00  0.00     0.210 HD
ENDBRANCH  27  33
TORSDOF 2
ENDMDL
MODEL 4
REMARK VINA RESULT:    -6.630      2.783      8.711
REMARK INTER + INTRA:          -7.469
REMARK INTER:                  -7.226
REMARK INTRA:                  -0.243
REMARK UNBOUND:                -0.257
REMARK SMILES C[C@@H]1[C@H]2C3=CC[C@H]4[C@]5(C)CC[C@@H](O)C(C)(C)[C@@H]5CC[C@@]4(C)[C@@]3(C)CC[C@@]2(C(=O)[O-])CC[C@@H]1C
REMARK SMILES IDX 26 1 30 2 25 3 3 4 31 5 24 6 4 7 2 8 32 9 22 10 5 11 1 12
REMARK SMILES IDX 33 13 23 14 20 15 6 16 7 17 19 18 21 19 8 20 18 21 17 22
REMARK SMILES IDX 10 23 9 24 14 25 11 26 12 27 15 28 16 29 27 30 28 31 29 32
REMARK SMILES IDX 13 33
REMARK H PARENT 13 34
REMARK Flexibility Score: inf
ROOT
ATOM      1  C   UNL     1      16.235  24.366  42.733  1.00  0.00     0.017 C 
ATOM      2  C   UNL     1      16.024  25.877  42.380  1.00  0.00     0.014 C 
ATOM      3  C   UNL     1      14.871  23.635  42.471  1.00  0.00     0.014 C 
ATOM      4  C   UNL     1      16.772  24.215  44.234  1.00  0.00     0.030 C 
ATOM      5  C   UNL     1      17.131  26.753  42.952  1.00  0.00     0.004 C 
ATOM      6  C   UNL     1      14.230  23.028  43.718  1.00  0.00     0.013 C 
ATOM      7  C   UNL     1      16.377  22.883  44.919  1.00  0.00    -0.063 C 
ATOM      8  C   UNL     1      16.429  25.480  45.101  1.00  0.00    -0.003 C 
ATOM      9  C   UNL     1      17.090  26.773  44.498  1.00  0.00    -0.011 C 
ATOM     10  C   UNL     1      15.182  22.047  44.475  1.00  0.00    -0.006 C 
ATOM     11  C   UNL     1      17.198  22.390  45.854  1.00  0.00    -0.027 C 
ATOM     12  C   UNL     1      16.741  25.350  46.607  1.00  0.00     0.008 C 
ATOM     13  C   UNL     1      18.510  27.064  45.026  1.00  0.00     0.008 C 
ATOM     14  C   UNL     1      15.732  20.970  43.482  1.00  0.00     0.017 C 
ATOM     15  C   UNL     1      14.446  21.318  45.714  1.00  0.00    -0.020 C 
ATOM     16  C   UNL     1      16.781  21.389  46.878  1.00  0.00     0.032 C 
ATOM     17  C   UNL     1      15.491  20.535  46.623  1.00  0.00     0.006 C 
ATOM     18  C   UNL     1      13.738  22.360  46.618  1.00  0.00     0.008 C 
ATOM     19  C   UNL     1      13.376  20.331  45.125  1.00  0.00     0.012 C 
ATOM     20  C   UNL     1      14.944  19.937  48.019  1.00  0.00    -0.025 C 
ATOM     21  C   UNL     1      13.150  21.795  47.918  1.00  0.00     0.005 C 
ATOM     22  C   UNL     1      14.163  21.047  48.836  1.00  0.00     0.003 C 
ATOM     23  C   UNL     1      14.011  18.700  47.809  1.00  0.00     0.010 C 
ATOM     24  C   UNL     1      16.196  19.406  48.803  1.00  0.00     0.012 C 
ATOM     25  C   UNL     1      13.455  20.516  50.167  1.00  0.00    -0.006 C 
ATOM     26  C   UNL     1      13.378  18.156  49.103  1.00  0.00     0.033 C 
ATOM     27  C   UNL     1      12.604  19.238  49.870  1.00  0.00     0.120 C 
ATOM     28  C   UNL     1      12.496  21.596  50.752  1.00  0.00     0.014 C 
ATOM     29  C   UNL     1      14.495  20.239  51.295  1.00  0.00     0.014 C 
ENDROOT
BRANCH   1  30
ATOM     30  C   UNL     1      17.257  23.803  41.741  1.00  0.00     0.048 C 
ATOM     31  O   UNL     1      17.112  23.935  40.496  1.00  0.00    -0.550 OA
ATOM     32  O   UNL     1      18.408  23.180  42.211  1.00  0.00    -0.550 OA
ENDBRANCH   1  30
BRANCH  27  33
ATOM     33  O   UNL     1      12.125  18.676  51.070  1.00  0.00    -0.393 OA
ATOM     34  H   UNL     1      11.133  18.697  51.035  1.00  0.00     0.210 HD
ENDBRANCH  27  33
TORSDOF 2
ENDMDL
MODEL 5
REMARK VINA RESULT:    -6.459      4.684      9.892
REMARK INTER + INTRA:          -7.282
REMARK INTER:                  -7.038
REMARK INTRA:                  -0.244
REMARK UNBOUND:                -0.257
REMARK SMILES C[C@@H]1[C@H]2C3=CC[C@H]4[C@]5(C)CC[C@@H](O)C(C)(C)[C@@H]5CC[C@@]4(C)[C@@]3(C)CC[C@@]2(C(=O)[O-])CC[C@@H]1C
REMARK SMILES IDX 26 1 30 2 25 3 3 4 31 5 24 6 4 7 2 8 32 9 22 10 5 11 1 12
REMARK SMILES IDX 33 13 23 14 20 15 6 16 7 17 19 18 21 19 8 20 18 21 17 22
REMARK SMILES IDX 10 23 9 24 14 25 11 26 12 27 15 28 16 29 27 30 28 31 29 32
REMARK SMILES IDX 13 33
REMARK H PARENT 13 34
REMARK Flexibility Score: inf
ROOT
ATOM      1  C   UNL     1      15.380  24.009  45.548  1.00  0.00     0.017 C 
ATOM      2  C   UNL     1      16.688  23.364  44.978  1.00  0.00     0.014 C 
ATOM      3  C   UNL     1      15.592  25.564  45.541  1.00  0.00     0.014 C 
ATOM      4  C   UNL     1      15.047  23.408  46.994  1.00  0.00     0.030 C 
ATOM      5  C   UNL     1      16.769  21.875  45.291  1.00  0.00     0.004 C 
ATOM      6  C   UNL     1      15.578  26.210  46.926  1.00  0.00     0.013 C 
ATOM      7  C   UNL     1      14.267  24.375  47.919  1.00  0.00    -0.063 C 
ATOM      8  C   UNL     1      16.325  22.797  47.675  1.00  0.00    -0.003 C 
ATOM      9  C   UNL     1      16.920  21.627  46.810  1.00  0.00    -0.011 C 
ATOM     10  C   UNL     1      14.281  25.888  47.734  1.00  0.00    -0.006 C 
ATOM     11  C   UNL     1      13.451  23.844  48.836  1.00  0.00    -0.027 C 
ATOM     12  C   UNL     1      16.142  22.362  49.144  1.00  0.00     0.008 C 
ATOM     13  C   UNL     1      16.343  20.236  47.144  1.00  0.00     0.008 C 
ATOM     14  C   UNL     1      13.021  26.247  46.879  1.00  0.00     0.017 C 
ATOM     15  C   UNL     1      14.226  26.681  49.140  1.00  0.00    -0.020 C 
ATOM     16  C   UNL     1      12.972  24.578  50.044  1.00  0.00     0.032 C 
ATOM     17  C   UNL     1      13.042  26.144  50.057  1.00  0.00     0.006 C 
ATOM     18  C   UNL     1      15.547  26.484  49.930  1.00  0.00     0.008 C 
ATOM     19  C   UNL     1      14.034  28.208  48.825  1.00  0.00     0.012 C 
ATOM     20  C   UNL     1      12.991  26.684  51.578  1.00  0.00    -0.025 C 
ATOM     21  C   UNL     1      15.539  27.053  51.355  1.00  0.00     0.005 C 
ATOM     22  C   UNL     1      14.402  26.520  52.278  1.00  0.00     0.003 C 
ATOM     23  C   UNL     1      12.545  28.179  51.661  1.00  0.00     0.010 C 
ATOM     24  C   UNL     1      11.875  25.857  52.310  1.00  0.00     0.012 C 
ATOM     25  C   UNL     1      14.496  27.160  53.740  1.00  0.00    -0.006 C 
ATOM     26  C   UNL     1      12.580  28.774  53.081  1.00  0.00     0.033 C 
ATOM     27  C   UNL     1      13.961  28.630  53.736  1.00  0.00     0.120 C 
ATOM     28  C   UNL     1      15.973  27.196  54.233  1.00  0.00     0.014 C 
ATOM     29  C   UNL     1      13.735  26.295  54.790  1.00  0.00     0.014 C 
ENDROOT
BRANCH   1  30
ATOM     30  C   UNL     1      14.249  23.695  44.564  1.00  0.00     0.048 C 
ATOM     31  O   UNL     1      13.412  22.780  44.789  1.00  0.00    -0.550 OA
ATOM     32  O   UNL     1      14.093  24.468  43.418  1.00  0.00    -0.550 OA
ENDBRANCH   1  30
BRANCH  27  33
ATOM     33  O   UNL     1      13.885  29.128  55.052  1.00  0.00    -0.393 OA
ATOM     34  H   UNL     1      13.058  28.762  55.462  1.00  0.00     0.210 HD
ENDBRANCH  27  33
TORSDOF 2
ENDMDL
MODEL 6
REMARK VINA RESULT:    -6.404      2.724      8.290
REMARK INTER + INTRA:          -7.223
REMARK INTER:                  -7.073
REMARK INTRA:                  -0.150
REMARK UNBOUND:                -0.257
REMARK SMILES C[C@@H]1[C@H]2C3=CC[C@H]4[C@]5(C)CC[C@@H](O)C(C)(C)[C@@H]5CC[C@@]4(C)[C@@]3(C)CC[C@@]2(C(=O)[O-])CC[C@@H]1C
REMARK SMILES IDX 26 1 30 2 25 3 3 4 31 5 24 6 4 7 2 8 32 9 22 10 5 11 1 12
REMARK SMILES IDX 33 13 23 14 20 15 6 16 7 17 19 18 21 19 8 20 18 21 17 22
REMARK SMILES IDX 10 23 9 24 14 25 11 26 12 27 15 28 16 29 27 30 28 31 29 32
REMARK SMILES IDX 13 33
REMARK H PARENT 13 34
REMARK Flexibility Score: inf
ROOT
ATOM      1  C   UNL     1      14.981  25.001  41.771  1.00  0.00     0.017 C 
ATOM      2  C   UNL     1      15.405  26.504  41.882  1.00  0.00     0.014 C 
ATOM      3  C   UNL     1      13.534  24.884  42.368  1.00  0.00     0.014 C 
ATOM      4  C   UNL     1      16.058  24.063  42.496  1.00  0.00     0.030 C 
ATOM      5  C   UNL     1      16.908  26.684  41.705  1.00  0.00     0.004 C 
ATOM      6  C   UNL     1      13.435  24.005  43.615  1.00  0.00     0.013 C 
ATOM      7  C   UNL     1      15.476  22.741  43.056  1.00  0.00    -0.063 C 
ATOM      8  C   UNL     1      16.903  24.863  43.553  1.00  0.00    -0.003 C 
ATOM      9  C   UNL     1      17.693  26.039  42.871  1.00  0.00    -0.011 C 
ATOM     10  C   UNL     1      13.999  22.566  43.392  1.00  0.00    -0.006 C 
ATOM     11  C   UNL     1      16.285  21.678  43.125  1.00  0.00    -0.027 C 
ATOM     12  C   UNL     1      17.837  24.006  44.433  1.00  0.00     0.008 C 
ATOM     13  C   UNL     1      19.097  25.649  42.366  1.00  0.00     0.008 C 
ATOM     14  C   UNL     1      13.327  21.922  42.134  1.00  0.00     0.017 C 
ATOM     15  C   UNL     1      13.769  21.615  44.677  1.00  0.00    -0.020 C 
ATOM     16  C   UNL     1      16.028  20.497  43.999  1.00  0.00     0.032 C 
ATOM     17  C   UNL     1      14.575  20.251  44.534  1.00  0.00     0.006 C 
ATOM     18  C   UNL     1      14.268  22.313  45.968  1.00  0.00     0.008 C 
ATOM     19  C   UNL     1      12.228  21.337  44.800  1.00  0.00     0.012 C 
ATOM     20  C   UNL     1      14.623  19.289  45.830  1.00  0.00    -0.025 C 
ATOM     21  C   UNL     1      14.254  21.432  47.225  1.00  0.00     0.005 C 
ATOM     22  C   UNL     1      15.060  20.103  47.116  1.00  0.00     0.003 C 
ATOM     23  C   UNL     1      13.249  18.593  46.102  1.00  0.00     0.010 C 
ATOM     24  C   UNL     1      15.634  18.135  45.496  1.00  0.00     0.012 C 
ATOM     25  C   UNL     1      14.996  19.273  48.480  1.00  0.00    -0.006 C 
ATOM     26  C   UNL     1      13.211  17.747  47.387  1.00  0.00     0.033 C 
ATOM     27  C   UNL     1      13.613  18.557  48.629  1.00  0.00     0.120 C 
ATOM     28  C   UNL     1      15.174  20.215  49.709  1.00  0.00     0.014 C 
ATOM     29  C   UNL     1      16.166  18.247  48.579  1.00  0.00     0.014 C 
ENDROOT
BRANCH   1  30
ATOM     30  C   UNL     1      14.893  24.660  40.280  1.00  0.00     0.048 C 
ATOM     31  O   UNL     1      13.797  24.689  39.659  1.00  0.00    -0.550 OA
ATOM     32  O   UNL     1      16.050  24.367  39.567  1.00  0.00    -0.550 OA
ENDBRANCH   1  30
BRANCH  27  33
ATOM     33  O   UNL     1      13.625  17.692  49.741  1.00  0.00    -0.393 OA
ATOM     34  H   UNL     1      14.013  16.828  49.444  1.00  0.00     0.210 HD
ENDBRANCH  27  33
TORSDOF 2
ENDMDL
MODEL 7
REMARK VINA RESULT:    -6.381      4.073      9.079
REMARK INTER + INTRA:          -7.198
REMARK INTER:                  -6.942
REMARK INTRA:                  -0.256
REMARK UNBOUND:                -0.257
REMARK SMILES C[C@@H]1[C@H]2C3=CC[C@H]4[C@]5(C)CC[C@@H](O)C(C)(C)[C@@H]5CC[C@@]4(C)[C@@]3(C)CC[C@@]2(C(=O)[O-])CC[C@@H]1C
REMARK SMILES IDX 26 1 30 2 25 3 3 4 31 5 24 6 4 7 2 8 32 9 22 10 5 11 1 12
REMARK SMILES IDX 33 13 23 14 20 15 6 16 7 17 19 18 21 19 8 20 18 21 17 22
REMARK SMILES IDX 10 23 9 24 14 25 11 26 12 27 15 28 16 29 27 30 28 31 29 32
REMARK SMILES IDX 13 33
REMARK H PARENT 13 34
REMARK Flexibility Score: inf
ROOT
ATOM      1  C   UNL     1      14.721  22.934  44.303  1.00  0.00     0.017 C 
ATOM      2  C   UNL     1      15.979  22.449  43.507  1.00  0.00     0.014 C 
ATOM      3  C   UNL     1      14.689  24.501  44.205  1.00  0.00     0.014 C 
ATOM      4  C   UNL     1      14.764  22.380  45.804  1.00  0.00     0.030 C 
ATOM      5  C   UNL     1      16.343  21.008  43.845  1.00  0.00     0.004 C 
ATOM      6  C   UNL     1      14.841  25.220  45.546  1.00  0.00     0.013 C 
ATOM      7  C   UNL     1      14.036  23.280  46.835  1.00  0.00    -0.063 C 
ATOM      8  C   UNL     1      16.225  22.000  46.240  1.00  0.00    -0.003 C 
ATOM      9  C   UNL     1      16.816  20.877  45.311  1.00  0.00    -0.011 C 
ATOM     10  C   UNL     1      13.785  24.766  46.603  1.00  0.00    -0.006 C 
ATOM     11  C   UNL     1      13.499  22.694  47.911  1.00  0.00    -0.027 C 
ATOM     12  C   UNL     1      16.393  21.633  47.729  1.00  0.00     0.008 C 
ATOM     13  C   UNL     1      16.531  19.440  45.796  1.00  0.00     0.008 C 
ATOM     14  C   UNL     1      12.346  24.888  46.002  1.00  0.00     0.017 C 
ATOM     15  C   UNL     1      13.879  25.626  47.967  1.00  0.00    -0.020 C 
ATOM     16  C   UNL     1      13.153  23.424  49.165  1.00  0.00     0.032 C 
ATOM     17  C   UNL     1      12.986  24.982  49.115  1.00  0.00     0.006 C 
ATOM     18  C   UNL     1      15.339  25.667  48.486  1.00  0.00     0.008 C 
ATOM     19  C   UNL     1      13.401  27.088  47.647  1.00  0.00     0.012 C 
ATOM     20  C   UNL     1      13.143  25.599  50.598  1.00  0.00    -0.025 C 
ATOM     21  C   UNL     1      15.516  26.314  49.866  1.00  0.00     0.005 C 
ATOM     22  C   UNL     1      14.670  25.681  51.012  1.00  0.00     0.003 C 
ATOM     23  C   UNL     1      12.499  27.018  50.721  1.00  0.00     0.010 C 
ATOM     24  C   UNL     1      12.326  24.668  51.562  1.00  0.00     0.012 C 
ATOM     25  C   UNL     1      14.941  26.415  52.406  1.00  0.00    -0.006 C 
ATOM     26  C   UNL     1      12.713  27.696  52.087  1.00  0.00     0.033 C 
ATOM     27  C   UNL     1      14.199  27.791  52.461  1.00  0.00     0.120 C 
ATOM     28  C   UNL     1      16.463  26.691  52.597  1.00  0.00     0.014 C 
ATOM     29  C   UNL     1      14.534  25.516  53.612  1.00  0.00     0.014 C 
ENDROOT
BRANCH   1  30
ATOM     30  C   UNL     1      13.485  22.403  43.571  1.00  0.00     0.048 C 
ATOM     31  O   UNL     1      13.167  22.815  42.424  1.00  0.00    -0.550 OA
ATOM     32  O   UNL     1      12.717  21.397  44.149  1.00  0.00    -0.550 OA
ENDBRANCH   1  30
BRANCH  27  33
ATOM     33  O   UNL     1      14.299  28.351  53.750  1.00  0.00    -0.393 OA
ATOM     34  H   UNL     1      13.420  28.235  54.196  1.00  0.00     0.210 HD
ENDBRANCH  27  33
TORSDOF 2
ENDMDL
MODEL 8
REMARK VINA RESULT:    -6.359      2.466      4.191
REMARK INTER + INTRA:          -7.175
REMARK INTER:                  -6.923
REMARK INTRA:                  -0.251
REMARK UNBOUND:                -0.257
REMARK SMILES C[C@@H]1[C@H]2C3=CC[C@H]4[C@]5(C)CC[C@@H](O)C(C)(C)[C@@H]5CC[C@@]4(C)[C@@]3(C)CC[C@@]2(C(=O)[O-])CC[C@@H]1C
REMARK SMILES IDX 26 1 30 2 25 3 3 4 31 5 24 6 4 7 2 8 32 9 22 10 5 11 1 12
REMARK SMILES IDX 33 13 23 14 20 15 6 16 7 17 19 18 21 19 8 20 18 21 17 22
REMARK SMILES IDX 10 23 9 24 14 25 11 26 12 27 15 28 16 29 27 30 28 31 29 32
REMARK SMILES IDX 13 33
REMARK H PARENT 13 34
REMARK Flexibility Score: inf
ROOT
ATOM      1  C   UNL     1      13.892  19.762  48.887  1.00  0.00     0.017 C 
ATOM      2  C   UNL     1      12.439  19.293  49.231  1.00  0.00     0.014 C 
ATOM      3  C   UNL     1      14.025  21.249  49.372  1.00  0.00     0.014 C 
ATOM      4  C   UNL     1      14.187  19.561  47.326  1.00  0.00     0.030 C 
ATOM      5  C   UNL     1      12.057  18.026  48.476  1.00  0.00     0.004 C 
ATOM      6  C   UNL     1      14.277  22.258  48.252  1.00  0.00     0.013 C 
ATOM      7  C   UNL     1      15.223  20.555  46.742  1.00  0.00    -0.063 C 
ATOM      8  C   UNL     1      12.858  19.492  46.491  1.00  0.00    -0.003 C 
ATOM      9  C   UNL     1      11.962  18.285  46.954  1.00  0.00    -0.011 C 
ATOM     10  C   UNL     1      15.526  21.904  47.383  1.00  0.00    -0.006 C 
ATOM     11  C   UNL     1      15.966  20.151  45.706  1.00  0.00    -0.027 C 
ATOM     12  C   UNL     1      13.044  19.487  44.959  1.00  0.00     0.008 C 
ATOM     13  C   UNL     1      12.244  16.965  46.209  1.00  0.00     0.008 C 
ATOM     14  C   UNL     1      16.771  21.692  48.307  1.00  0.00     0.017 C 
ATOM     15  C   UNL     1      15.851  23.047  46.289  1.00  0.00    -0.020 C 
ATOM     16  C   UNL     1      16.676  21.082  44.782  1.00  0.00     0.032 C 
ATOM     17  C   UNL     1      16.951  22.553  45.251  1.00  0.00     0.006 C 
ATOM     18  C   UNL     1      14.578  23.403  45.478  1.00  0.00     0.008 C 
ATOM     19  C   UNL     1      16.348  24.323  47.058  1.00  0.00     0.012 C 
ATOM     20  C   UNL     1      17.225  23.496  43.970  1.00  0.00    -0.025 C 
ATOM     21  C   UNL     1      14.810  24.355  44.297  1.00  0.00     0.005 C 
ATOM     22  C   UNL     1      15.865  23.877  43.254  1.00  0.00     0.003 C 
ATOM     23  C   UNL     1      17.991  24.804  44.350  1.00  0.00     0.010 C 
ATOM     24  C   UNL     1      18.182  22.694  43.018  1.00  0.00     0.012 C 
ATOM     25  C   UNL     1      16.016  24.929  42.060  1.00  0.00    -0.006 C 
ATOM     26  C   UNL     1      18.186  25.787  43.182  1.00  0.00     0.033 C 
ATOM     27  C   UNL     1      16.856  26.167  42.514  1.00  0.00     0.120 C 
ATOM     28  C   UNL     1      14.620  25.448  41.601  1.00  0.00     0.014 C 
ATOM     29  C   UNL     1      16.641  24.268  40.794  1.00  0.00     0.014 C 
ENDROOT
BRANCH   1  30
ATOM     30  C   UNL     1      14.856  18.917  49.726  1.00  0.00     0.048 C 
ATOM     31  O   UNL     1      14.769  18.866  50.982  1.00  0.00    -0.550 OA
ATOM     32  O   UNL     1      15.818  18.133  49.097  1.00  0.00    -0.550 OA
ENDBRANCH   1  30
BRANCH  27  33
ATOM     33  O   UNL     1      17.132  27.004  41.415  1.00  0.00    -0.393 OA
ATOM     34  H   UNL     1      18.062  26.817  41.123  1.00  0.00     0.210 HD
ENDBRANCH  27  33
TORSDOF 2
ENDMDL
MODEL 9
REMARK VINA RESULT:    -6.261      2.536      4.818
REMARK INTER + INTRA:          -7.068
REMARK INTER:                  -6.930
REMARK INTRA:                  -0.137
REMARK UNBOUND:                -0.257
REMARK SMILES C[C@@H]1[C@H]2C3=CC[C@H]4[C@]5(C)CC[C@@H](O)C(C)(C)[C@@H]5CC[C@@]4(C)[C@@]3(C)CC[C@@]2(C(=O)[O-])CC[C@@H]1C
REMARK SMILES IDX 26 1 30 2 25 3 3 4 31 5 24 6 4 7 2 8 32 9 22 10 5 11 1 12
REMARK SMILES IDX 33 13 23 14 20 15 6 16 7 17 19 18 21 19 8 20 18 21 17 22
REMARK SMILES IDX 10 23 9 24 14 25 11 26 12 27 15 28 16 29 27 30 28 31 29 32
REMARK SMILES IDX 13 33
REMARK H PARENT 13 34
REMARK Flexibility Score: inf
ROOT
ATOM      1  C   UNL     1      14.197  19.503  47.673  1.00  0.00     0.017 C 
ATOM      2  C   UNL     1      14.278  19.387  49.232  1.00  0.00     0.014 C 
ATOM      3  C   UNL     1      15.592  19.062  47.104  1.00  0.00     0.014 C 
ATOM      4  C   UNL     1      13.763  20.983  47.246  1.00  0.00     0.030 C 
ATOM      5  C   UNL     1      13.146  20.144  49.916  1.00  0.00     0.004 C 
ATOM      6  C   UNL     1      16.348  20.164  46.361  1.00  0.00     0.013 C 
ATOM      7  C   UNL     1      14.291  21.426  45.858  1.00  0.00    -0.063 C 
ATOM      8  C   UNL     1      14.065  22.025  48.383  1.00  0.00    -0.003 C 
ATOM      9  C   UNL     1      13.278  21.670  49.697  1.00  0.00    -0.011 C 
ATOM     10  C   UNL     1      15.515  20.797  45.201  1.00  0.00    -0.006 C 
ATOM     11  C   UNL     1      13.565  22.307  45.161  1.00  0.00    -0.027 C 
ATOM     12  C   UNL     1      13.853  23.504  47.994  1.00  0.00     0.008 C 
ATOM     13  C   UNL     1      11.875  22.305  49.787  1.00  0.00     0.008 C 
ATOM     14  C   UNL     1      14.986  19.671  44.253  1.00  0.00     0.017 C 
ATOM     15  C   UNL     1      16.374  21.867  44.349  1.00  0.00    -0.020 C 
ATOM     16  C   UNL     1      14.112  23.136  44.048  1.00  0.00     0.032 C 
ATOM     17  C   UNL     1      15.444  22.686  43.351  1.00  0.00     0.006 C 
ATOM     18  C   UNL     1      17.058  22.892  45.289  1.00  0.00     0.008 C 
ATOM     19  C   UNL     1      17.475  21.077  43.555  1.00  0.00     0.012 C 
ATOM     20  C   UNL     1      16.114  23.941  42.588  1.00  0.00    -0.025 C 
ATOM     21  C   UNL     1      17.760  24.055  44.576  1.00  0.00     0.005 C 
ATOM     22  C   UNL     1      16.860  24.888  43.615  1.00  0.00     0.003 C 
ATOM     23  C   UNL     1      17.119  23.491  41.478  1.00  0.00     0.010 C 
ATOM     24  C   UNL     1      14.951  24.687  41.842  1.00  0.00     0.012 C 
ATOM     25  C   UNL     1      17.682  26.081  42.940  1.00  0.00    -0.006 C 
ATOM     26  C   UNL     1      17.865  24.648  40.790  1.00  0.00     0.033 C 
ATOM     27  C   UNL     1      18.604  25.542  41.797  1.00  0.00     0.120 C 
ATOM     28  C   UNL     1      18.594  26.786  43.989  1.00  0.00     0.014 C 
ATOM     29  C   UNL     1      16.733  27.197  42.408  1.00  0.00     0.014 C 
ENDROOT
BRANCH   1  30
ATOM     30  C   UNL     1      13.161  18.482  47.192  1.00  0.00     0.048 C 
ATOM     31  O   UNL     1      13.007  17.373  47.771  1.00  0.00    -0.550 OA
ATOM     32  O   UNL     1      12.321  18.796  46.128  1.00  0.00    -0.550 OA
ENDBRANCH   1  30
BRANCH  27  33
ATOM     33  O   UNL     1      19.192  26.612  41.095  1.00  0.00    -0.393 OA
ATOM     34  H   UNL     1      18.778  27.451  41.426  1.00  0.00     0.210 HD
ENDBRANCH  27  33
TORSDOF 2
ENDMDL
