MODEL 1
REMARK VINA RESULT:    -5.622      0.000      0.000
REMARK INTER + INTRA:         -11.740
REMARK INTER:                 -10.881
REMARK INTRA:                  -0.859
REMARK UNBOUND:                -0.859
REMARK SMILES CCCCCCCCCCCCCCCCCC(=O)[O-]
REMARK SMILES IDX 10 1 11 2 12 3 13 4 14 5 15 6 16 7 17 8 18 9 19 10 20 11
REMARK SMILES IDX 9 12 8 13 7 14 6 15 5 16 4 17 3 18 2 19 1 20
REMARK H PARENT
REMARK Flexibility Score: inf
ROOT
ATOM      1  C   UNL     1      40.258  67.061  25.419  1.00  0.00     0.000 C 
ENDROOT
BRANCH   1   2
ATOM      2  C   UNL     1      41.369  66.007  25.536  1.00  0.00     0.000 C 
BRANCH   2   3
ATOM      3  C   UNL     1      41.532  65.163  24.259  1.00  0.00     0.000 C 
BRANCH   3   4
ATOM      4  C   UNL     1      41.721  63.653  24.497  1.00  0.00     0.000 C 
BRANCH   4   5
ATOM      5  C   UNL     1      42.413  63.339  25.832  1.00  0.00     0.000 C 
BRANCH   5   6
ATOM      6  C   UNL     1      42.989  61.915  25.828  1.00  0.00     0.000 C 
BRANCH   6   7
ATOM      7  C   UNL     1      44.389  61.835  26.463  1.00  0.00     0.006 C 
BRANCH   7   8
ATOM      8  C   UNL     1      45.547  62.036  25.471  1.00  0.00     0.053 C 
BRANCH   8   9
ATOM      9  C   UNL     1      46.611  62.933  26.024  1.00  0.00     0.041 C 
ATOM     10  O   UNL     1      47.532  63.357  25.278  1.00  0.00    -0.550 OA
ATOM     11  O   UNL     1      46.605  63.272  27.371  1.00  0.00    -0.550 OA
ENDBRANCH   8   9
ENDBRANCH   7   8
ENDBRANCH   6   7
ENDBRANCH   5   6
ENDBRANCH   4   5
ENDBRANCH   3   4
ENDBRANCH   2   3
ENDBRANCH   1   2
BRANCH   1  12
ATOM     12  C   UNL     1      39.311  66.734  24.255  1.00  0.00     0.000 C 
BRANCH  12  13
ATOM     13  C   UNL     1      37.942  67.427  24.378  1.00  0.00    -0.000 C 
BRANCH  13  14
ATOM     14  C   UNL     1      37.152  67.098  25.658  1.00  0.00    -0.000 C 
BRANCH  14  15
ATOM     15  C   UNL     1      35.744  67.717  25.668  1.00  0.00    -0.000 C 
BRANCH  15  16
ATOM     16  C   UNL     1      34.710  66.839  26.396  1.00  0.00    -0.000 C 
BRANCH  16  17
ATOM     17  C   UNL     1      34.918  65.318  26.247  1.00  0.00    -0.000 C 
BRANCH  17  18
ATOM     18  C   UNL     1      34.990  64.533  27.572  1.00  0.00    -0.000 C 
BRANCH  18  19
ATOM     19  C   UNL     1      34.727  63.022  27.441  1.00  0.00    -0.003 C 
ATOM     20  C   UNL     1      33.914  62.457  28.605  1.00  0.00     0.004 C 
ENDBRANCH  18  19
ENDBRANCH  17  18
ENDBRANCH  16  17
ENDBRANCH  15  16
ENDBRANCH  14  15
ENDBRANCH  13  14
ENDBRANCH  12  13
ENDBRANCH   1  12
TORSDOF 16
ENDMDL
MODEL 2
REMARK VINA RESULT:    -5.509      4.063      6.750
REMARK INTER + INTRA:         -11.521
REMARK INTER:                 -10.533
REMARK INTRA:                  -0.988
REMARK UNBOUND:                -0.859
REMARK SMILES CCCCCCCCCCCCCCCCCC(=O)[O-]
REMARK SMILES IDX 10 1 11 2 12 3 13 4 14 5 15 6 16 7 17 8 18 9 19 10 20 11
REMARK SMILES IDX 9 12 8 13 7 14 6 15 5 16 4 17 3 18 2 19 1 20
REMARK H PARENT
REMARK Flexibility Score: inf
ROOT
ATOM      1  C   UNL     1      41.371  67.477  25.367  1.00  0.00     0.000 C 
ENDROOT
BRANCH   1   2
ATOM      2  C   UNL     1      41.244  65.959  25.563  1.00  0.00     0.000 C 
BRANCH   2   3
ATOM      3  C   UNL     1      41.625  65.156  24.306  1.00  0.00     0.000 C 
BRANCH   3   4
ATOM      4  C   UNL     1      41.723  63.633  24.511  1.00  0.00     0.000 C 
BRANCH   4   5
ATOM      5  C   UNL     1      42.302  63.249  25.881  1.00  0.00     0.000 C 
BRANCH   5   6
ATOM      6  C   UNL     1      42.983  61.874  25.821  1.00  0.00     0.000 C 
BRANCH   6   7
ATOM      7  C   UNL     1      44.392  61.877  26.443  1.00  0.00     0.006 C 
BRANCH   7   8
ATOM      8  C   UNL     1      45.533  62.020  25.422  1.00  0.00     0.053 C 
BRANCH   8   9
ATOM      9  C   UNL     1      46.594  62.966  25.895  1.00  0.00     0.041 C 
ATOM     10  O   UNL     1      47.481  63.372  25.099  1.00  0.00    -0.550 OA
ATOM     11  O   UNL     1      46.623  63.370  27.224  1.00  0.00    -0.550 OA
ENDBRANCH   8   9
ENDBRANCH   7   8
ENDBRANCH   6   7
ENDBRANCH   5   6
ENDBRANCH   4   5
ENDBRANCH   3   4
ENDBRANCH   2   3
ENDBRANCH   1   2
BRANCH   1  12
ATOM     12  C   UNL     1      41.645  67.818  23.895  1.00  0.00     0.000 C 
BRANCH  12  13
ATOM     13  C   UNL     1      42.779  68.844  23.715  1.00  0.00    -0.000 C 
BRANCH  13  14
ATOM     14  C   UNL     1      42.983  69.812  24.895  1.00  0.00    -0.000 C 
BRANCH  14  15
ATOM     15  C   UNL     1      44.383  70.447  24.912  1.00  0.00    -0.000 C 
BRANCH  15  16
ATOM     16  C   UNL     1      44.366  71.944  24.551  1.00  0.00    -0.000 C 
BRANCH  16  17
ATOM     17  C   UNL     1      43.170  72.741  25.112  1.00  0.00    -0.000 C 
BRANCH  17  18
ATOM     18  C   UNL     1      42.249  73.377  24.052  1.00  0.00    -0.000 C 
BRANCH  18  19
ATOM     19  C   UNL     1      40.969  74.020  24.612  1.00  0.00    -0.003 C 
ATOM     20  C   UNL     1      41.005  74.193  26.129  1.00  0.00     0.004 C 
ENDBRANCH  18  19
ENDBRANCH  17  18
ENDBRANCH  16  17
ENDBRANCH  15  16
ENDBRANCH  14  15
ENDBRANCH  13  14
ENDBRANCH  12  13
ENDBRANCH   1  12
TORSDOF 16
ENDMDL
MODEL 3
REMARK VINA RESULT:    -5.428      5.126      6.726
REMARK INTER + INTRA:         -11.364
REMARK INTER:                 -10.575
REMARK INTRA:                  -0.789
REMARK UNBOUND:                -0.859
REMARK SMILES CCCCCCCCCCCCCCCCCC(=O)[O-]
REMARK SMILES IDX 10 1 11 2 12 3 13 4 14 5 15 6 16 7 17 8 18 9 19 10 20 11
REMARK SMILES IDX 9 12 8 13 7 14 6 15 5 16 4 17 3 18 2 19 1 20
REMARK H PARENT
REMARK Flexibility Score: inf
ROOT
ATOM      1  C   UNL     1      40.593  66.174  23.736  1.00  0.00     0.000 C 
ENDROOT
BRANCH   1   2
ATOM      2  C   UNL     1      41.616  67.210  23.248  1.00  0.00     0.000 C 
BRANCH   2   3
ATOM      3  C   UNL     1      41.967  68.259  24.320  1.00  0.00     0.000 C 
BRANCH   3   4
ATOM      4  C   UNL     1      43.090  69.237  23.929  1.00  0.00     0.000 C 
BRANCH   4   5
ATOM      5  C   UNL     1      43.659  70.007  25.131  1.00  0.00     0.000 C 
BRANCH   5   6
ATOM      6  C   UNL     1      44.362  71.293  24.674  1.00  0.00     0.000 C 
BRANCH   6   7
ATOM      7  C   UNL     1      43.658  72.568  25.174  1.00  0.00     0.006 C 
BRANCH   7   8
ATOM      8  C   UNL     1      42.610  73.135  24.202  1.00  0.00     0.053 C 
BRANCH   8   9
ATOM      9  C   UNL     1      41.447  73.744  24.923  1.00  0.00     0.041 C 
ATOM     10  O   UNL     1      41.409  73.738  26.182  1.00  0.00    -0.550 OA
ATOM     11  O   UNL     1      40.389  74.287  24.204  1.00  0.00    -0.550 OA
ENDBRANCH   8   9
ENDBRANCH   7   8
ENDBRANCH   6   7
ENDBRANCH   5   6
ENDBRANCH   4   5
ENDBRANCH   3   4
ENDBRANCH   2   3
ENDBRANCH   1   2
BRANCH   1  12
ATOM     12  C   UNL     1      39.797  66.711  24.935  1.00  0.00     0.000 C 
BRANCH  12  13
ATOM     13  C   UNL     1      38.341  67.068  24.581  1.00  0.00    -0.000 C 
BRANCH  13  14
ATOM     14  C   UNL     1      37.418  67.330  25.785  1.00  0.00    -0.000 C 
BRANCH  14  15
ATOM     15  C   UNL     1      36.018  67.812  25.371  1.00  0.00    -0.000 C 
BRANCH  15  16
ATOM     16  C   UNL     1      34.888  67.099  26.138  1.00  0.00    -0.000 C 
BRANCH  16  17
ATOM     17  C   UNL     1      34.918  65.559  26.067  1.00  0.00    -0.000 C 
BRANCH  17  18
ATOM     18  C   UNL     1      34.975  64.841  27.430  1.00  0.00    -0.000 C 
BRANCH  18  19
ATOM     19  C   UNL     1      34.884  63.306  27.355  1.00  0.00    -0.003 C 
ATOM     20  C   UNL     1      34.011  62.707  28.456  1.00  0.00     0.004 C 
ENDBRANCH  18  19
ENDBRANCH  17  18
ENDBRANCH  16  17
ENDBRANCH  15  16
ENDBRANCH  14  15
ENDBRANCH  13  14
ENDBRANCH  12  13
ENDBRANCH   1  12
TORSDOF 16
ENDMDL
MODEL 4
REMARK VINA RESULT:    -5.251      5.350      9.093
REMARK INTER + INTRA:         -11.021
REMARK INTER:                 -10.202
REMARK INTRA:                  -0.819
REMARK UNBOUND:                -0.859
REMARK SMILES CCCCCCCCCCCCCCCCCC(=O)[O-]
REMARK SMILES IDX 10 1 11 2 12 3 13 4 14 5 15 6 16 7 17 8 18 9 19 10 20 11
REMARK SMILES IDX 9 12 8 13 7 14 6 15 5 16 4 17 3 18 2 19 1 20
REMARK H PARENT
REMARK Flexibility Score: inf
ROOT
ATOM      1  C   UNL     1      40.622  66.742  25.409  1.00  0.00     0.000 C 
ENDROOT
BRANCH   1   2
ATOM      2  C   UNL     1      41.696  67.840  25.376  1.00  0.00     0.000 C 
BRANCH   2   3
ATOM      3  C   UNL     1      42.050  68.292  23.947  1.00  0.00     0.000 C 
BRANCH   3   4
ATOM      4  C   UNL     1      43.310  69.169  23.836  1.00  0.00     0.000 C 
BRANCH   4   5
ATOM      5  C   UNL     1      43.518  70.077  25.057  1.00  0.00     0.000 C 
BRANCH   5   6
ATOM      6  C   UNL     1      44.345  71.316  24.684  1.00  0.00     0.000 C 
BRANCH   6   7
ATOM      7  C   UNL     1      43.692  72.632  25.145  1.00  0.00     0.006 C 
BRANCH   7   8
ATOM      8  C   UNL     1      42.587  73.152  24.210  1.00  0.00     0.053 C 
BRANCH   8   9
ATOM      9  C   UNL     1      41.443  73.748  24.971  1.00  0.00     0.041 C 
ATOM     10  O   UNL     1      40.474  74.267  24.355  1.00  0.00    -0.550 OA
ATOM     11  O   UNL     1      41.462  73.761  26.360  1.00  0.00    -0.550 OA
ENDBRANCH   8   9
ENDBRANCH   7   8
ENDBRANCH   6   7
ENDBRANCH   5   6
ENDBRANCH   4   5
ENDBRANCH   3   4
ENDBRANCH   2   3
ENDBRANCH   1   2
BRANCH   1  12
ATOM     12  C   UNL     1      40.551  66.003  24.064  1.00  0.00     0.000 C 
BRANCH  12  13
ATOM     13  C   UNL     1      41.684  64.976  23.881  1.00  0.00    -0.000 C 
BRANCH  13  14
ATOM     14  C   UNL     1      41.469  63.628  24.592  1.00  0.00    -0.000 C 
BRANCH  14  15
ATOM     15  C   UNL     1      42.443  63.407  25.762  1.00  0.00    -0.000 C 
BRANCH  15  16
ATOM     16  C   UNL     1      43.113  62.020  25.729  1.00  0.00    -0.000 C 
BRANCH  16  17
ATOM     17  C   UNL     1      44.533  61.962  26.329  1.00  0.00    -0.000 C 
BRANCH  17  18
ATOM     18  C   UNL     1      45.681  61.990  25.301  1.00  0.00    -0.000 C 
BRANCH  18  19
ATOM     19  C   UNL     1      46.759  63.056  25.566  1.00  0.00    -0.003 C 
ATOM     20  C   UNL     1      46.955  63.347  27.052  1.00  0.00     0.004 C 
ENDBRANCH  18  19
ENDBRANCH  17  18
ENDBRANCH  16  17
ENDBRANCH  15  16
ENDBRANCH  14  15
ENDBRANCH  13  14
ENDBRANCH  12  13
ENDBRANCH   1  12
TORSDOF 16
ENDMDL
MODEL 5
REMARK VINA RESULT:    -5.240      5.296      9.441
REMARK INTER + INTRA:         -10.999
REMARK INTER:                 -10.164
REMARK INTRA:                  -0.836
REMARK UNBOUND:                -0.859
REMARK SMILES CCCCCCCCCCCCCCCCCC(=O)[O-]
REMARK SMILES IDX 10 1 11 2 12 3 13 4 14 5 15 6 16 7 17 8 18 9 19 10 20 11
REMARK SMILES IDX 9 12 8 13 7 14 6 15 5 16 4 17 3 18 2 19 1 20
REMARK H PARENT
REMARK Flexibility Score: inf
ROOT
ATOM      1  C   UNL     1      40.427  66.348  23.628  1.00  0.00     0.000 C 
ENDROOT
BRANCH   1   2
ATOM      2  C   UNL     1      39.655  66.847  24.858  1.00  0.00     0.000 C 
BRANCH   2   3
ATOM      3  C   UNL     1      38.172  67.135  24.560  1.00  0.00     0.000 C 
BRANCH   3   4
ATOM      4  C   UNL     1      37.297  67.391  25.802  1.00  0.00     0.000 C 
BRANCH   4   5
ATOM      5  C   UNL     1      35.916  67.967  25.453  1.00  0.00     0.000 C 
BRANCH   5   6
ATOM      6  C   UNL     1      34.804  67.210  26.194  1.00  0.00     0.000 C 
BRANCH   6   7
ATOM      7  C   UNL     1      34.935  65.681  26.066  1.00  0.00     0.006 C 
BRANCH   7   8
ATOM      8  C   UNL     1      34.935  64.932  27.409  1.00  0.00     0.053 C 
BRANCH   8   9
ATOM      9  C   UNL     1      34.733  63.459  27.229  1.00  0.00     0.041 C 
ATOM     10  O   UNL     1      34.761  62.951  26.077  1.00  0.00    -0.550 OA
ATOM     11  O   UNL     1      34.478  62.652  28.331  1.00  0.00    -0.550 OA
ENDBRANCH   8   9
ENDBRANCH   7   8
ENDBRANCH   6   7
ENDBRANCH   5   6
ENDBRANCH   4   5
ENDBRANCH   3   4
ENDBRANCH   2   3
ENDBRANCH   1   2
BRANCH   1  12
ATOM     12  C   UNL     1      41.474  67.380  23.182  1.00  0.00     0.000 C 
BRANCH  12  13
ATOM     13  C   UNL     1      42.104  68.147  24.359  1.00  0.00    -0.000 C 
BRANCH  13  14
ATOM     14  C   UNL     1      43.153  69.203  23.967  1.00  0.00    -0.000 C 
BRANCH  14  15
ATOM     15  C   UNL     1      43.513  70.148  25.127  1.00  0.00    -0.000 C 
BRANCH  15  16
ATOM     16  C   UNL     1      44.217  71.434  24.655  1.00  0.00    -0.000 C 
BRANCH  16  17
ATOM     17  C   UNL     1      43.517  72.749  25.051  1.00  0.00    -0.000 C 
BRANCH  17  18
ATOM     18  C   UNL     1      42.423  73.230  24.077  1.00  0.00    -0.000 C 
BRANCH  18  19
ATOM     19  C   UNL     1      41.218  73.914  24.746  1.00  0.00    -0.003 C 
ATOM     20  C   UNL     1      41.296  73.898  26.271  1.00  0.00     0.004 C 
ENDBRANCH  18  19
ENDBRANCH  17  18
ENDBRANCH  16  17
ENDBRANCH  15  16
ENDBRANCH  14  15
ENDBRANCH  13  14
ENDBRANCH  12  13
ENDBRANCH   1  12
TORSDOF 16
ENDMDL
MODEL 6
REMARK VINA RESULT:    -5.182      4.016      9.199
REMARK INTER + INTRA:         -10.888
REMARK INTER:                  -9.983
REMARK INTRA:                  -0.905
REMARK UNBOUND:                -0.859
REMARK SMILES CCCCCCCCCCCCCCCCCC(=O)[O-]
REMARK SMILES IDX 10 1 11 2 12 3 13 4 14 5 15 6 16 7 17 8 18 9 19 10 20 11
REMARK SMILES IDX 9 12 8 13 7 14 6 15 5 16 4 17 3 18 2 19 1 20
REMARK H PARENT
REMARK Flexibility Score: inf
ROOT
ATOM      1  C   UNL     1      40.931  66.942  23.736  1.00  0.00     0.000 C 
ENDROOT
BRANCH   1   2
ATOM      2  C   UNL     1      39.431  66.791  23.445  1.00  0.00     0.000 C 
BRANCH   2   3
ATOM      3  C   UNL     1      38.571  66.768  24.723  1.00  0.00     0.000 C 
BRANCH   3   4
ATOM      4  C   UNL     1      37.351  67.708  24.702  1.00  0.00     0.000 C 
BRANCH   4   5
ATOM      5  C   UNL     1      36.606  67.751  26.045  1.00  0.00     0.000 C 
BRANCH   5   6
ATOM      6  C   UNL     1      35.098  67.541  25.841  1.00  0.00     0.000 C 
BRANCH   6   7
ATOM      7  C   UNL     1      34.700  66.054  25.822  1.00  0.00     0.006 C 
BRANCH   7   8
ATOM      8  C   UNL     1      34.950  65.315  27.146  1.00  0.00     0.053 C 
BRANCH   8   9
ATOM      9  C   UNL     1      34.787  63.833  27.001  1.00  0.00     0.041 C 
ATOM     10  O   UNL     1      34.849  63.087  28.014  1.00  0.00    -0.550 OA
ATOM     11  O   UNL     1      34.602  63.273  25.744  1.00  0.00    -0.550 OA
ENDBRANCH   8   9
ENDBRANCH   7   8
ENDBRANCH   6   7
ENDBRANCH   5   6
ENDBRANCH   4   5
ENDBRANCH   3   4
ENDBRANCH   2   3
ENDBRANCH   1   2
BRANCH   1  12
ATOM     12  C   UNL     1      41.345  66.089  24.944  1.00  0.00     0.000 C 
BRANCH  12  13
ATOM     13  C   UNL     1      41.731  64.649  24.561  1.00  0.00    -0.000 C 
BRANCH  13  14
ATOM     14  C   UNL     1      42.193  63.759  25.730  1.00  0.00    -0.000 C 
BRANCH  14  15
ATOM     15  C   UNL     1      42.447  62.302  25.309  1.00  0.00    -0.000 C 
BRANCH  15  16
ATOM     16  C   UNL     1      43.214  61.496  26.374  1.00  0.00    -0.000 C 
BRANCH  16  17
ATOM     17  C   UNL     1      44.676  61.933  26.601  1.00  0.00    -0.000 C 
BRANCH  17  18
ATOM     18  C   UNL     1      45.509  62.129  25.318  1.00  0.00    -0.000 C 
BRANCH  18  19
ATOM     19  C   UNL     1      46.804  62.939  25.508  1.00  0.00    -0.003 C 
ATOM     20  C   UNL     1      46.986  63.444  26.938  1.00  0.00     0.004 C 
ENDBRANCH  18  19
ENDBRANCH  17  18
ENDBRANCH  16  17
ENDBRANCH  15  16
ENDBRANCH  14  15
ENDBRANCH  13  14
ENDBRANCH  12  13
ENDBRANCH   1  12
TORSDOF 16
ENDMDL
MODEL 7
REMARK VINA RESULT:    -4.397      0.996      1.983
REMARK INTER + INTRA:          -9.369
REMARK INTER:                  -8.554
REMARK INTRA:                  -0.815
REMARK UNBOUND:                -0.859
REMARK SMILES CCCCCCCCCCCCCCCCCC(=O)[O-]
REMARK SMILES IDX 10 1 11 2 12 3 13 4 14 5 15 6 16 7 17 8 18 9 19 10 20 11
REMARK SMILES IDX 9 12 8 13 7 14 6 15 5 16 4 17 3 18 2 19 1 20
REMARK H PARENT
REMARK Flexibility Score: inf
ROOT
ATOM      1  C   UNL     1      38.255  67.331  24.306  1.00  0.00     0.000 C 
ENDROOT
BRANCH   1   2
ATOM      2  C   UNL     1      39.693  66.851  24.555  1.00  0.00     0.000 C 
BRANCH   2   3
ATOM      3  C   UNL     1      40.430  66.464  23.259  1.00  0.00     0.000 C 
BRANCH   3   4
ATOM      4  C   UNL     1      41.387  65.265  23.388  1.00  0.00     0.000 C 
BRANCH   4   5
ATOM      5  C   UNL     1      41.500  64.741  24.827  1.00  0.00     0.000 C 
BRANCH   5   6
ATOM      6  C   UNL     1      42.045  63.305  24.846  1.00  0.00     0.000 C 
BRANCH   6   7
ATOM      7  C   UNL     1      42.806  62.972  26.143  1.00  0.00     0.006 C 
BRANCH   7   8
ATOM      8  C   UNL     1      43.681  61.711  26.057  1.00  0.00     0.053 C 
BRANCH   8   9
ATOM      9  C   UNL     1      45.124  62.043  25.838  1.00  0.00     0.041 C 
ATOM     10  O   UNL     1      45.723  61.620  24.814  1.00  0.00    -0.550 OA
ATOM     11  O   UNL     1      45.818  62.791  26.781  1.00  0.00    -0.550 OA
ENDBRANCH   8   9
ENDBRANCH   7   8
ENDBRANCH   6   7
ENDBRANCH   5   6
ENDBRANCH   4   5
ENDBRANCH   3   4
ENDBRANCH   2   3
ENDBRANCH   1   2
BRANCH   1  12
ATOM     12  C   UNL     1      37.420  67.254  25.592  1.00  0.00     0.000 C 
BRANCH  12  13
ATOM     13  C   UNL     1      36.105  68.050  25.506  1.00  0.00    -0.000 C 
BRANCH  13  14
ATOM     14  C   UNL     1      34.843  67.283  25.942  1.00  0.00    -0.000 C 
BRANCH  14  15
ATOM     15  C   UNL     1      35.162  65.920  26.580  1.00  0.00    -0.000 C 
BRANCH  15  16
ATOM     16  C   UNL     1      34.506  64.743  25.834  1.00  0.00    -0.000 C 
BRANCH  16  17
ATOM     17  C   UNL     1      34.611  63.377  26.542  1.00  0.00    -0.000 C 
BRANCH  17  18
ATOM     18  C   UNL     1      35.003  63.438  28.031  1.00  0.00    -0.000 C 
BRANCH  18  19
ATOM     19  C   UNL     1      33.926  62.924  29.003  1.00  0.00    -0.003 C 
ATOM     20  C   UNL     1      33.181  61.700  28.473  1.00  0.00     0.004 C 
ENDBRANCH  18  19
ENDBRANCH  17  18
ENDBRANCH  16  17
ENDBRANCH  15  16
ENDBRANCH  14  15
ENDBRANCH  13  14
ENDBRANCH  12  13
ENDBRANCH   1  12
TORSDOF 16
ENDMDL
MODEL 8
REMARK VINA RESULT:    -4.391     12.967     16.237
REMARK INTER + INTRA:          -9.356
REMARK INTER:                  -8.440
REMARK INTRA:                  -0.916
REMARK UNBOUND:                -0.859
REMARK SMILES CCCCCCCCCCCCCCCCCC(=O)[O-]
REMARK SMILES IDX 10 1 11 2 12 3 13 4 14 5 15 6 16 7 17 8 18 9 19 10 20 11
REMARK SMILES IDX 9 12 8 13 7 14 6 15 5 16 4 17 3 18 2 19 1 20
REMARK H PARENT
REMARK Flexibility Score: inf
ROOT
ATOM      1  C   UNL     1      37.214  62.825  14.075  1.00  0.00     0.000 C 
ENDROOT
BRANCH   1   2
ATOM      2  C   UNL     1      36.121  62.875  12.996  1.00  0.00     0.000 C 
BRANCH   2   3
ATOM      3  C   UNL     1      36.399  63.930  11.909  1.00  0.00     0.000 C 
BRANCH   3   4
ATOM      4  C   UNL     1      35.522  65.193  11.989  1.00  0.00     0.000 C 
BRANCH   4   5
ATOM      5  C   UNL     1      34.032  64.876  12.183  1.00  0.00     0.000 C 
BRANCH   5   6
ATOM      6  C   UNL     1      33.462  65.641  13.387  1.00  0.00     0.000 C 
BRANCH   6   7
ATOM      7  C   UNL     1      31.950  65.905  13.266  1.00  0.00     0.006 C 
BRANCH   7   8
ATOM      8  C   UNL     1      31.205  65.944  14.610  1.00  0.00     0.053 C 
BRANCH   8   9
ATOM      9  C   UNL     1      31.943  66.746  15.638  1.00  0.00     0.041 C 
ATOM     10  O   UNL     1      32.537  66.167  16.586  1.00  0.00    -0.550 OA
ATOM     11  O   UNL     1      31.947  68.133  15.567  1.00  0.00    -0.550 OA
ENDBRANCH   8   9
ENDBRANCH   7   8
ENDBRANCH   6   7
ENDBRANCH   5   6
ENDBRANCH   4   5
ENDBRANCH   3   4
ENDBRANCH   2   3
ENDBRANCH   1   2
BRANCH   1  12
ATOM     12  C   UNL     1      37.895  61.449  14.103  1.00  0.00     0.000 C 
BRANCH  12  13
ATOM     13  C   UNL     1      38.288  60.942  12.703  1.00  0.00    -0.000 C 
BRANCH  13  14
ATOM     14  C   UNL     1      39.573  61.558  12.119  1.00  0.00    -0.000 C 
BRANCH  14  15
ATOM     15  C   UNL     1      40.694  60.525  11.917  1.00  0.00    -0.000 C 
BRANCH  15  16
ATOM     16  C   UNL     1      41.936  60.812  12.781  1.00  0.00    -0.000 C 
BRANCH  16  17
ATOM     17  C   UNL     1      43.224  61.129  11.995  1.00  0.00    -0.000 C 
BRANCH  17  18
ATOM     18  C   UNL     1      44.026  62.340  12.509  1.00  0.00    -0.000 C 
BRANCH  18  19
ATOM     19  C   UNL     1      43.371  63.708  12.245  1.00  0.00    -0.003 C 
ATOM     20  C   UNL     1      43.787  64.772  13.259  1.00  0.00     0.004 C 
ENDBRANCH  18  19
ENDBRANCH  17  18
ENDBRANCH  16  17
ENDBRANCH  15  16
ENDBRANCH  14  15
ENDBRANCH  13  14
ENDBRANCH  12  13
ENDBRANCH   1  12
TORSDOF 16
ENDMDL
MODEL 9
REMARK VINA RESULT:    -4.351     12.949     16.146
REMARK INTER + INTRA:          -9.280
REMARK INTER:                  -8.573
REMARK INTRA:                  -0.706
REMARK UNBOUND:                -0.859
REMARK SMILES CCCCCCCCCCCCCCCCCC(=O)[O-]
REMARK SMILES IDX 10 1 11 2 12 3 13 4 14 5 15 6 16 7 17 8 18 9 19 10 20 11
REMARK SMILES IDX 9 12 8 13 7 14 6 15 5 16 4 17 3 18 2 19 1 20
REMARK H PARENT
REMARK Flexibility Score: inf
ROOT
ATOM      1  C   UNL     1      37.124  62.471  14.085  1.00  0.00     0.000 C 
ENDROOT
BRANCH   1   2
ATOM      2  C   UNL     1      36.047  62.959  13.105  1.00  0.00     0.000 C 
BRANCH   2   3
ATOM      3  C   UNL     1      36.490  64.185  12.286  1.00  0.00     0.000 C 
BRANCH   3   4
ATOM      4  C   UNL     1      35.362  65.169  11.925  1.00  0.00     0.000 C 
BRANCH   4   5
ATOM      5  C   UNL     1      33.980  64.696  12.400  1.00  0.00     0.000 C 
BRANCH   5   6
ATOM      6  C   UNL     1      33.400  65.662  13.444  1.00  0.00     0.000 C 
BRANCH   6   7
ATOM      7  C   UNL     1      31.890  65.902  13.261  1.00  0.00     0.006 C 
BRANCH   7   8
ATOM      8  C   UNL     1      31.107  66.039  14.577  1.00  0.00     0.053 C 
BRANCH   8   9
ATOM      9  C   UNL     1      31.922  66.694  15.649  1.00  0.00     0.041 C 
ATOM     10  O   UNL     1      32.035  67.948  15.682  1.00  0.00    -0.550 OA
ATOM     11  O   UNL     1      32.585  65.918  16.591  1.00  0.00    -0.550 OA
ENDBRANCH   8   9
ENDBRANCH   7   8
ENDBRANCH   6   7
ENDBRANCH   5   6
ENDBRANCH   4   5
ENDBRANCH   3   4
ENDBRANCH   2   3
ENDBRANCH   1   2
BRANCH   1  12
ATOM     12  C   UNL     1      37.575  61.044  13.739  1.00  0.00     0.000 C 
BRANCH  12  13
ATOM     13  C   UNL     1      38.403  60.971  12.443  1.00  0.00    -0.000 C 
BRANCH  13  14
ATOM     14  C   UNL     1      39.772  61.673  12.498  1.00  0.00    -0.000 C 
BRANCH  14  15
ATOM     15  C   UNL     1      40.951  60.697  12.343  1.00  0.00    -0.000 C 
BRANCH  15  16
ATOM     16  C   UNL     1      42.321  61.392  12.452  1.00  0.00    -0.000 C 
BRANCH  16  17
ATOM     17  C   UNL     1      43.541  60.482  12.200  1.00  0.00    -0.000 C 
BRANCH  17  18
ATOM     18  C   UNL     1      43.375  59.020  12.659  1.00  0.00    -0.000 C 
BRANCH  18  19
ATOM     19  C   UNL     1      43.335  58.823  14.185  1.00  0.00    -0.003 C 
ATOM     20  C   UNL     1      43.685  57.398  14.611  1.00  0.00     0.004 C 
ENDBRANCH  18  19
ENDBRANCH  17  18
ENDBRANCH  16  17
ENDBRANCH  15  16
ENDBRANCH  14  15
ENDBRANCH  13  14
ENDBRANCH  12  13
ENDBRANCH   1  12
TORSDOF 16
ENDMDL
