MODEL 1
REMARK VINA RESULT:    -4.103      0.000      0.000
REMARK INTER + INTRA:         -12.641
REMARK INTER:                  -8.901
REMARK INTRA:                  -3.740
REMARK UNBOUND:                -3.740
REMARK SMILES CCCCCCCCCCCCCCCCCCCCCC(=O)[O-]
REMARK SMILES IDX 12 1 11 2 10 3 9 4 8 5 7 6 6 7 5 8 4 9 3 10 2 11 1 12 13 13
REMARK SMILES IDX 14 14 15 15 16 16 17 17 18 18 19 19 20 20 21 21 22 22 23 23
REMARK SMILES IDX 24 24
REMARK H PARENT
REMARK Flexibility Score: inf
ROOT
ATOM      1  C   UNL     1      -9.426  -9.661  16.294  1.00  0.00     0.000 C 
ENDROOT
BRANCH   1   2
ATOM      2  C   UNL     1      -8.327 -10.302  15.419  1.00  0.00     0.000 C 
BRANCH   2   3
ATOM      3  C   UNL     1      -7.420 -11.245  16.229  1.00  0.00     0.000 C 
BRANCH   3   4
ATOM      4  C   UNL     1      -6.980 -12.481  15.428  1.00  0.00    -0.000 C 
BRANCH   4   5
ATOM      5  C   UNL     1      -7.442 -13.798  16.076  1.00  0.00    -0.000 C 
BRANCH   5   6
ATOM      6  C   UNL     1      -8.080 -13.584  17.458  1.00  0.00    -0.000 C 
BRANCH   6   7
ATOM      7  C   UNL     1      -9.452 -14.264  17.588  1.00  0.00    -0.000 C 
BRANCH   7   8
ATOM      8  C   UNL     1     -10.579 -13.222  17.656  1.00  0.00    -0.000 C 
BRANCH   8   9
ATOM      9  C   UNL     1     -11.631 -13.423  16.547  1.00  0.00    -0.000 C 
BRANCH   9  10
ATOM     10  C   UNL     1     -11.225 -12.833  15.182  1.00  0.00    -0.000 C 
BRANCH  10  11
ATOM     11  C   UNL     1     -11.064 -13.882  14.064  1.00  0.00    -0.003 C 
ATOM     12  C   UNL     1      -9.939 -13.534  13.087  1.00  0.00     0.004 C 
ENDBRANCH  10  11
ENDBRANCH   9  10
ENDBRANCH   8   9
ENDBRANCH   7   8
ENDBRANCH   6   7
ENDBRANCH   5   6
ENDBRANCH   4   5
ENDBRANCH   3   4
ENDBRANCH   2   3
ENDBRANCH   1   2
BRANCH   1  13
ATOM     13  C   UNL     1      -9.345 -10.040  17.786  1.00  0.00     0.000 C 
BRANCH  13  14
ATOM     14  C   UNL     1      -9.687  -8.910  18.778  1.00  0.00     0.000 C 
BRANCH  14  15
ATOM     15  C   UNL     1      -9.022  -7.550  18.470  1.00  0.00     0.000 C 
BRANCH  15  16
ATOM     16  C   UNL     1      -8.170  -6.984  19.623  1.00  0.00     0.000 C 
BRANCH  16  17
ATOM     17  C   UNL     1      -6.659  -6.937  19.320  1.00  0.00     0.000 C 
BRANCH  17  18
ATOM     18  C   UNL     1      -6.254  -7.945  18.233  1.00  0.00     0.000 C 
BRANCH  18  19
ATOM     19  C   UNL     1      -5.426  -7.309  17.102  1.00  0.00     0.000 C 
BRANCH  19  20
ATOM     20  C   UNL     1      -6.001  -7.562  15.692  1.00  0.00     0.006 C 
BRANCH  20  21
ATOM     21  C   UNL     1      -7.219  -6.680  15.391  1.00  0.00     0.053 C 
BRANCH  21  22
ATOM     22  C   UNL     1      -7.422  -6.555  13.913  1.00  0.00     0.041 C 
ATOM     23  O   UNL     1      -6.749  -7.265  13.118  1.00  0.00    -0.550 OA
ATOM     24  O   UNL     1      -8.322  -5.622  13.413  1.00  0.00    -0.550 OA
ENDBRANCH  21  22
ENDBRANCH  20  21
ENDBRANCH  19  20
ENDBRANCH  18  19
ENDBRANCH  17  18
ENDBRANCH  16  17
ENDBRANCH  15  16
ENDBRANCH  14  15
ENDBRANCH  13  14
ENDBRANCH   1  13
TORSDOF 20
ENDMDL
MODEL 2
REMARK VINA RESULT:    -4.037      2.352      3.470
REMARK INTER + INTRA:         -12.497
REMARK INTER:                  -8.754
REMARK INTRA:                  -3.743
REMARK UNBOUND:                -3.740
REMARK SMILES CCCCCCCCCCCCCCCCCCCCCC(=O)[O-]
REMARK SMILES IDX 12 1 11 2 10 3 9 4 8 5 7 6 6 7 5 8 4 9 3 10 2 11 1 12 13 13
REMARK SMILES IDX 14 14 15 15 16 16 17 17 18 18 19 19 20 20 21 21 22 22 23 23
REMARK SMILES IDX 24 24
REMARK H PARENT
REMARK Flexibility Score: inf
ROOT
ATOM      1  C   UNL     1      -6.791 -10.290  16.790  1.00  0.00     0.000 C 
ENDROOT
BRANCH   1   2
ATOM      2  C   UNL     1      -6.078 -11.632  16.518  1.00  0.00     0.000 C 
BRANCH   2   3
ATOM      3  C   UNL     1      -6.792 -12.456  15.433  1.00  0.00     0.000 C 
BRANCH   3   4
ATOM      4  C   UNL     1      -7.165 -13.870  15.908  1.00  0.00    -0.000 C 
BRANCH   4   5
ATOM      5  C   UNL     1      -7.415 -13.935  17.424  1.00  0.00    -0.000 C 
BRANCH   5   6
ATOM      6  C   UNL     1      -8.895 -14.163  17.771  1.00  0.00    -0.000 C 
BRANCH   6   7
ATOM      7  C   UNL     1      -9.597 -12.879  18.238  1.00  0.00    -0.000 C 
BRANCH   7   8
ATOM      8  C   UNL     1     -10.891 -12.639  17.444  1.00  0.00    -0.000 C 
BRANCH   8   9
ATOM      9  C   UNL     1     -11.386 -13.914  16.732  1.00  0.00    -0.000 C 
BRANCH   9  10
ATOM     10  C   UNL     1     -11.693 -13.718  15.236  1.00  0.00    -0.000 C 
BRANCH  10  11
ATOM     11  C   UNL     1     -10.738 -12.746  14.517  1.00  0.00    -0.003 C 
ATOM     12  C   UNL     1      -9.862 -13.442  13.473  1.00  0.00     0.004 C 
ENDBRANCH  10  11
ENDBRANCH   9  10
ENDBRANCH   8   9
ENDBRANCH   7   8
ENDBRANCH   6   7
ENDBRANCH   5   6
ENDBRANCH   4   5
ENDBRANCH   3   4
ENDBRANCH   2   3
ENDBRANCH   1   2
BRANCH   1  13
ATOM     13  C   UNL     1      -8.213 -10.201  16.200  1.00  0.00     0.000 C 
BRANCH  13  14
ATOM     14  C   UNL     1      -8.565  -8.864  15.515  1.00  0.00     0.000 C 
BRANCH  14  15
ATOM     15  C   UNL     1      -7.400  -8.200  14.749  1.00  0.00     0.000 C 
BRANCH  15  16
ATOM     16  C   UNL     1      -7.505  -6.666  14.639  1.00  0.00     0.000 C 
BRANCH  16  17
ATOM     17  C   UNL     1      -6.342  -5.909  15.312  1.00  0.00     0.000 C 
BRANCH  17  18
ATOM     18  C   UNL     1      -6.013  -6.473  16.704  1.00  0.00     0.000 C 
BRANCH  18  19
ATOM     19  C   UNL     1      -7.024  -6.040  17.781  1.00  0.00     0.000 C 
BRANCH  19  20
ATOM     20  C   UNL     1      -7.469  -7.186  18.714  1.00  0.00     0.006 C 
BRANCH  20  21
ATOM     21  C   UNL     1      -8.995  -7.334  18.772  1.00  0.00     0.053 C 
BRANCH  21  22
ATOM     22  C   UNL     1      -9.371  -8.614  19.448  1.00  0.00     0.041 C 
ATOM     23  O   UNL     1      -8.803  -8.957  20.520  1.00  0.00    -0.550 OA
ATOM     24  O   UNL     1     -10.317  -9.453  18.870  1.00  0.00    -0.550 OA
ENDBRANCH  21  22
ENDBRANCH  20  21
ENDBRANCH  19  20
ENDBRANCH  18  19
ENDBRANCH  17  18
ENDBRANCH  16  17
ENDBRANCH  15  16
ENDBRANCH  14  15
ENDBRANCH  13  14
ENDBRANCH   1  13
TORSDOF 20
ENDMDL
MODEL 3
REMARK VINA RESULT:    -4.026      2.586      6.600
REMARK INTER + INTRA:         -12.472
REMARK INTER:                  -8.846
REMARK INTRA:                  -3.626
REMARK UNBOUND:                -3.740
REMARK SMILES CCCCCCCCCCCCCCCCCCCCCC(=O)[O-]
REMARK SMILES IDX 12 1 11 2 10 3 9 4 8 5 7 6 6 7 5 8 4 9 3 10 2 11 1 12 13 13
REMARK SMILES IDX 14 14 15 15 16 16 17 17 18 18 19 19 20 20 21 21 22 22 23 23
REMARK SMILES IDX 24 24
REMARK H PARENT
REMARK Flexibility Score: inf
ROOT
ATOM      1  C   UNL     1      -7.831 -10.764  15.763  1.00  0.00     0.000 C 
ENDROOT
BRANCH   1   2
ATOM      2  C   UNL     1      -8.419  -9.409  15.317  1.00  0.00     0.000 C 
BRANCH   2   3
ATOM      3  C   UNL     1      -7.329  -8.429  14.852  1.00  0.00     0.000 C 
BRANCH   3   4
ATOM      4  C   UNL     1      -7.327  -7.115  15.650  1.00  0.00    -0.000 C 
BRANCH   4   5
ATOM      5  C   UNL     1      -7.149  -7.344  17.160  1.00  0.00    -0.000 C 
BRANCH   5   6
ATOM      6  C   UNL     1      -7.950  -6.343  18.009  1.00  0.00    -0.000 C 
BRANCH   6   7
ATOM      7  C   UNL     1      -8.788  -7.030  19.099  1.00  0.00    -0.000 C 
BRANCH   7   8
ATOM      8  C   UNL     1      -9.485  -8.283  18.549  1.00  0.00    -0.000 C 
BRANCH   8   9
ATOM      9  C   UNL     1      -9.296  -9.509  19.465  1.00  0.00    -0.000 C 
BRANCH   9  10
ATOM     10  C   UNL     1      -7.931 -10.206  19.307  1.00  0.00    -0.000 C 
BRANCH  10  11
ATOM     11  C   UNL     1      -7.127 -10.322  20.617  1.00  0.00    -0.003 C 
ATOM     12  C   UNL     1      -7.737  -9.506  21.758  1.00  0.00     0.004 C 
ENDBRANCH  10  11
ENDBRANCH   9  10
ENDBRANCH   8   9
ENDBRANCH   7   8
ENDBRANCH   6   7
ENDBRANCH   5   6
ENDBRANCH   4   5
ENDBRANCH   3   4
ENDBRANCH   2   3
ENDBRANCH   1   2
BRANCH   1  13
ATOM     13  C   UNL     1      -6.297 -10.764  15.921  1.00  0.00     0.000 C 
BRANCH  13  14
ATOM     14  C   UNL     1      -5.723 -11.865  16.835  1.00  0.00     0.000 C 
BRANCH  14  15
ATOM     15  C   UNL     1      -6.156 -13.303  16.473  1.00  0.00     0.000 C 
BRANCH  15  16
ATOM     16  C   UNL     1      -6.858 -14.061  17.617  1.00  0.00     0.000 C 
BRANCH  16  17
ATOM     17  C   UNL     1      -8.373 -14.251  17.405  1.00  0.00     0.000 C 
BRANCH  17  18
ATOM     18  C   UNL     1      -9.205 -13.362  18.343  1.00  0.00     0.000 C 
BRANCH  18  19
ATOM     19  C   UNL     1     -10.460 -12.783  17.665  1.00  0.00     0.000 C 
BRANCH  19  20
ATOM     20  C   UNL     1     -10.953 -13.610  16.458  1.00  0.00     0.006 C 
BRANCH  20  21
ATOM     21  C   UNL     1     -11.032 -12.776  15.173  1.00  0.00     0.053 C 
BRANCH  21  22
ATOM     22  C   UNL     1     -10.311 -13.465  14.057  1.00  0.00     0.041 C 
ATOM     23  O   UNL     1     -10.954 -13.932  13.079  1.00  0.00    -0.550 OA
ATOM     24  O   UNL     1      -8.932 -13.633  14.121  1.00  0.00    -0.550 OA
ENDBRANCH  21  22
ENDBRANCH  20  21
ENDBRANCH  19  20
ENDBRANCH  18  19
ENDBRANCH  17  18
ENDBRANCH  16  17
ENDBRANCH  15  16
ENDBRANCH  14  15
ENDBRANCH  13  14
ENDBRANCH   1  13
TORSDOF 20
ENDMDL
MODEL 4
REMARK VINA RESULT:    -4.007      2.543      6.672
REMARK INTER + INTRA:         -12.431
REMARK INTER:                  -8.474
REMARK INTRA:                  -3.958
REMARK UNBOUND:                -3.740
REMARK SMILES CCCCCCCCCCCCCCCCCCCCCC(=O)[O-]
REMARK SMILES IDX 12 1 11 2 10 3 9 4 8 5 7 6 6 7 5 8 4 9 3 10 2 11 1 12 13 13
REMARK SMILES IDX 14 14 15 15 16 16 17 17 18 18 19 19 20 20 21 21 22 22 23 23
REMARK SMILES IDX 24 24
REMARK H PARENT
REMARK Flexibility Score: inf
ROOT
ATOM      1  C   UNL     1     -10.154 -10.911  17.107  1.00  0.00     0.000 C 
ENDROOT
BRANCH   1   2
ATOM      2  C   UNL     1      -9.892 -10.032  18.348  1.00  0.00     0.000 C 
BRANCH   2   3
ATOM      3  C   UNL     1      -9.397  -8.625  17.967  1.00  0.00     0.000 C 
BRANCH   3   4
ATOM      4  C   UNL     1      -8.860  -7.836  19.172  1.00  0.00    -0.000 C 
BRANCH   4   5
ATOM      5  C   UNL     1      -7.917  -8.674  20.051  1.00  0.00    -0.000 C 
BRANCH   5   6
ATOM      6  C   UNL     1      -6.516  -8.829  19.436  1.00  0.00    -0.000 C 
BRANCH   6   7
ATOM      7  C   UNL     1      -6.050  -7.561  18.702  1.00  0.00    -0.000 C 
BRANCH   7   8
ATOM      8  C   UNL     1      -5.002  -7.900  17.631  1.00  0.00    -0.000 C 
BRANCH   8   9
ATOM      9  C   UNL     1      -5.257  -7.155  16.305  1.00  0.00    -0.000 C 
BRANCH   9  10
ATOM     10  C   UNL     1      -6.574  -6.355  16.278  1.00  0.00    -0.000 C 
BRANCH  10  11
ATOM     11  C   UNL     1      -7.287  -6.360  14.911  1.00  0.00    -0.003 C 
ATOM     12  C   UNL     1      -7.268  -7.736  14.241  1.00  0.00     0.004 C 
ENDBRANCH  10  11
ENDBRANCH   9  10
ENDBRANCH   8   9
ENDBRANCH   7   8
ENDBRANCH   6   7
ENDBRANCH   5   6
ENDBRANCH   4   5
ENDBRANCH   3   4
ENDBRANCH   2   3
ENDBRANCH   1   2
BRANCH   1  13
ATOM     13  C   UNL     1      -9.406 -10.452  15.840  1.00  0.00     0.000 C 
BRANCH  13  14
ATOM     14  C   UNL     1      -8.109 -11.222  15.519  1.00  0.00     0.000 C 
BRANCH  14  15
ATOM     15  C   UNL     1      -6.861 -10.749  16.298  1.00  0.00     0.000 C 
BRANCH  15  16
ATOM     16  C   UNL     1      -6.173 -11.853  17.125  1.00  0.00     0.000 C 
BRANCH  16  17
ATOM     17  C   UNL     1      -7.097 -12.530  18.157  1.00  0.00     0.000 C 
BRANCH  17  18
ATOM     18  C   UNL     1      -7.384 -13.998  17.803  1.00  0.00     0.000 C 
BRANCH  18  19
ATOM     19  C   UNL     1      -8.888 -14.315  17.727  1.00  0.00     0.000 C 
BRANCH  19  20
ATOM     20  C   UNL     1      -9.400 -14.567  16.293  1.00  0.00     0.006 C 
BRANCH  20  21
ATOM     21  C   UNL     1     -10.929 -14.489  16.195  1.00  0.00     0.053 C 
BRANCH  21  22
ATOM     22  C   UNL     1     -11.338 -13.784  14.940  1.00  0.00     0.041 C 
ATOM     23  O   UNL     1     -12.550 -13.504  14.737  1.00  0.00    -0.550 OA
ATOM     24  O   UNL     1     -10.388 -13.477  13.974  1.00  0.00    -0.550 OA
ENDBRANCH  21  22
ENDBRANCH  20  21
ENDBRANCH  19  20
ENDBRANCH  18  19
ENDBRANCH  17  18
ENDBRANCH  16  17
ENDBRANCH  15  16
ENDBRANCH  14  15
ENDBRANCH  13  14
ENDBRANCH   1  13
TORSDOF 20
ENDMDL
MODEL 5
REMARK VINA RESULT:    -3.966      2.499      4.335
REMARK INTER + INTRA:         -12.343
REMARK INTER:                  -8.713
REMARK INTRA:                  -3.631
REMARK UNBOUND:                -3.740
REMARK SMILES CCCCCCCCCCCCCCCCCCCCCC(=O)[O-]
REMARK SMILES IDX 12 1 11 2 10 3 9 4 8 5 7 6 6 7 5 8 4 9 3 10 2 11 1 12 13 13
REMARK SMILES IDX 14 14 15 15 16 16 17 17 18 18 19 19 20 20 21 21 22 22 23 23
REMARK SMILES IDX 24 24
REMARK H PARENT
REMARK Flexibility Score: inf
ROOT
ATOM      1  C   UNL     1      -9.873 -10.755  16.031  1.00  0.00     0.000 C 
ENDROOT
BRANCH   1   2
ATOM      2  C   UNL     1     -10.058 -11.960  15.084  1.00  0.00     0.000 C 
BRANCH   2   3
ATOM      3  C   UNL     1     -11.363 -12.724  15.366  1.00  0.00     0.000 C 
BRANCH   3   4
ATOM      4  C   UNL     1     -11.252 -13.665  16.577  1.00  0.00    -0.000 C 
BRANCH   4   5
ATOM      5  C   UNL     1     -10.070 -14.642  16.456  1.00  0.00    -0.000 C 
BRANCH   5   6
ATOM      6  C   UNL     1      -9.209 -14.688  17.729  1.00  0.00    -0.000 C 
BRANCH   6   7
ATOM      7  C   UNL     1      -9.112 -13.322  18.426  1.00  0.00    -0.000 C 
BRANCH   7   8
ATOM      8  C   UNL     1      -7.704 -12.725  18.273  1.00  0.00    -0.000 C 
BRANCH   8   9
ATOM      9  C   UNL     1      -6.725 -13.702  17.591  1.00  0.00    -0.000 C 
BRANCH   9  10
ATOM     10  C   UNL     1      -5.585 -13.010  16.819  1.00  0.00    -0.000 C 
BRANCH  10  11
ATOM     11  C   UNL     1      -5.524 -13.376  15.323  1.00  0.00    -0.003 C 
ATOM     12  C   UNL     1      -6.890 -13.764  14.754  1.00  0.00     0.004 C 
ENDBRANCH  10  11
ENDBRANCH   9  10
ENDBRANCH   8   9
ENDBRANCH   7   8
ENDBRANCH   6   7
ENDBRANCH   5   6
ENDBRANCH   4   5
ENDBRANCH   3   4
ENDBRANCH   2   3
ENDBRANCH   1   2
BRANCH   1  13
ATOM     13  C   UNL     1      -8.902  -9.681  15.502  1.00  0.00     0.000 C 
BRANCH  13  14
ATOM     14  C   UNL     1      -7.411 -10.077  15.497  1.00  0.00     0.000 C 
BRANCH  14  15
ATOM     15  C   UNL     1      -6.430  -8.914  15.235  1.00  0.00     0.000 C 
BRANCH  15  16
ATOM     16  C   UNL     1      -7.028  -7.750  14.420  1.00  0.00     0.000 C 
BRANCH  16  17
ATOM     17  C   UNL     1      -7.161  -6.434  15.213  1.00  0.00     0.000 C 
BRANCH  17  18
ATOM     18  C   UNL     1      -6.329  -6.450  16.505  1.00  0.00     0.000 C 
BRANCH  18  19
ATOM     19  C   UNL     1      -7.159  -6.121  17.758  1.00  0.00     0.000 C 
BRANCH  19  20
ATOM     20  C   UNL     1      -8.308  -7.119  18.023  1.00  0.00     0.006 C 
BRANCH  20  21
ATOM     21  C   UNL     1      -7.842  -8.352  18.806  1.00  0.00     0.053 C 
BRANCH  21  22
ATOM     22  C   UNL     1      -8.975  -8.930  19.595  1.00  0.00     0.041 C 
ATOM     23  O   UNL     1      -8.815  -9.226  20.810  1.00  0.00    -0.550 OA
ATOM     24  O   UNL     1     -10.193  -9.184  18.977  1.00  0.00    -0.550 OA
ENDBRANCH  21  22
ENDBRANCH  20  21
ENDBRANCH  19  20
ENDBRANCH  18  19
ENDBRANCH  17  18
ENDBRANCH  16  17
ENDBRANCH  15  16
ENDBRANCH  14  15
ENDBRANCH  13  14
ENDBRANCH   1  13
TORSDOF 20
ENDMDL
MODEL 6
REMARK VINA RESULT:    -3.943      3.055      4.521
REMARK INTER + INTRA:         -12.292
REMARK INTER:                  -8.965
REMARK INTRA:                  -3.328
REMARK UNBOUND:                -3.740
REMARK SMILES CCCCCCCCCCCCCCCCCCCCCC(=O)[O-]
REMARK SMILES IDX 12 1 11 2 10 3 9 4 8 5 7 6 6 7 5 8 4 9 3 10 2 11 1 12 13 13
REMARK SMILES IDX 14 14 15 15 16 16 17 17 18 18 19 19 20 20 21 21 22 22 23 23
REMARK SMILES IDX 24 24
REMARK H PARENT
REMARK Flexibility Score: inf
ROOT
ATOM      1  C   UNL     1      -9.246 -10.603  17.827  1.00  0.00     0.000 C 
ENDROOT
BRANCH   1   2
ATOM      2  C   UNL     1      -7.933 -11.362  18.114  1.00  0.00     0.000 C 
BRANCH   2   3
ATOM      3  C   UNL     1      -8.174 -12.860  18.369  1.00  0.00     0.000 C 
BRANCH   3   4
ATOM      4  C   UNL     1      -7.092 -13.753  17.740  1.00  0.00    -0.000 C 
BRANCH   4   5
ATOM      5  C   UNL     1      -7.096 -13.689  16.203  1.00  0.00    -0.000 C 
BRANCH   5   6
ATOM      6  C   UNL     1      -8.412 -14.198  15.594  1.00  0.00    -0.000 C 
BRANCH   6   7
ATOM      7  C   UNL     1      -8.604 -13.745  14.138  1.00  0.00    -0.000 C 
BRANCH   7   8
ATOM      8  C   UNL     1      -9.966 -13.058  13.951  1.00  0.00    -0.000 C 
BRANCH   8   9
ATOM      9  C   UNL     1     -11.122 -13.874  14.563  1.00  0.00    -0.000 C 
BRANCH   9  10
ATOM     10  C   UNL     1     -11.941 -13.108  15.619  1.00  0.00    -0.000 C 
BRANCH  10  11
ATOM     11  C   UNL     1     -11.604 -13.486  17.075  1.00  0.00    -0.003 C 
ATOM     12  C   UNL     1     -11.978 -12.387  18.072  1.00  0.00     0.004 C 
ENDBRANCH  10  11
ENDBRANCH   9  10
ENDBRANCH   8   9
ENDBRANCH   7   8
ENDBRANCH   6   7
ENDBRANCH   5   6
ENDBRANCH   4   5
ENDBRANCH   3   4
ENDBRANCH   2   3
ENDBRANCH   1   2
BRANCH   1  13
ATOM     13  C   UNL     1      -9.375 -10.094  16.377  1.00  0.00     0.000 C 
BRANCH  13  14
ATOM     14  C   UNL     1      -8.131 -10.297  15.489  1.00  0.00     0.000 C 
BRANCH  14  15
ATOM     15  C   UNL     1      -7.348  -9.005  15.162  1.00  0.00     0.000 C 
BRANCH  15  16
ATOM     16  C   UNL     1      -7.927  -7.731  15.809  1.00  0.00     0.000 C 
BRANCH  16  17
ATOM     17  C   UNL     1      -6.881  -6.879  16.555  1.00  0.00     0.000 C 
BRANCH  17  18
ATOM     18  C   UNL     1      -7.465  -6.219  17.815  1.00  0.00     0.000 C 
BRANCH  18  19
ATOM     19  C   UNL     1      -8.638  -7.012  18.420  1.00  0.00     0.000 C 
BRANCH  19  20
ATOM     20  C   UNL     1      -8.617  -7.075  19.962  1.00  0.00     0.006 C 
BRANCH  20  21
ATOM     21  C   UNL     1      -7.995  -8.376  20.486  1.00  0.00     0.053 C 
BRANCH  21  22
ATOM     22  C   UNL     1      -8.499  -8.680  21.861  1.00  0.00     0.041 C 
ATOM     23  O   UNL     1      -9.716  -8.949  22.046  1.00  0.00    -0.550 OA
ATOM     24  O   UNL     1      -7.633  -8.620  22.947  1.00  0.00    -0.550 OA
ENDBRANCH  21  22
ENDBRANCH  20  21
ENDBRANCH  19  20
ENDBRANCH  18  19
ENDBRANCH  17  18
ENDBRANCH  16  17
ENDBRANCH  15  16
ENDBRANCH  14  15
ENDBRANCH  13  14
ENDBRANCH   1  13
TORSDOF 20
ENDMDL
MODEL 7
REMARK VINA RESULT:    -3.940      1.056      2.033
REMARK INTER + INTRA:         -12.287
REMARK INTER:                  -8.524
REMARK INTRA:                  -3.763
REMARK UNBOUND:                -3.740
REMARK SMILES CCCCCCCCCCCCCCCCCCCCCC(=O)[O-]
REMARK SMILES IDX 12 1 11 2 10 3 9 4 8 5 7 6 6 7 5 8 4 9 3 10 2 11 1 12 13 13
REMARK SMILES IDX 14 14 15 15 16 16 17 17 18 18 19 19 20 20 21 21 22 22 23 23
REMARK SMILES IDX 24 24
REMARK H PARENT
REMARK Flexibility Score: inf
ROOT
ATOM      1  C   UNL     1     -10.202  -9.843  19.046  1.00  0.00     0.000 C 
ENDROOT
BRANCH   1   2
ATOM      2  C   UNL     1     -10.215 -10.659  17.736  1.00  0.00     0.000 C 
BRANCH   2   3
ATOM      3  C   UNL     1      -9.486  -9.931  16.594  1.00  0.00     0.000 C 
BRANCH   3   4
ATOM      4  C   UNL     1      -8.850 -10.897  15.581  1.00  0.00    -0.000 C 
BRANCH   4   5
ATOM      5  C   UNL     1      -7.641 -11.649  16.164  1.00  0.00    -0.000 C 
BRANCH   5   6
ATOM      6  C   UNL     1      -7.760 -13.174  16.004  1.00  0.00    -0.000 C 
BRANCH   6   7
ATOM      7  C   UNL     1      -7.777 -13.909  17.354  1.00  0.00    -0.000 C 
BRANCH   7   8
ATOM      8  C   UNL     1      -9.217 -14.171  17.820  1.00  0.00    -0.000 C 
BRANCH   8   9
ATOM      9  C   UNL     1     -10.082 -14.813  16.716  1.00  0.00    -0.000 C 
BRANCH   9  10
ATOM     10  C   UNL     1     -11.474 -14.172  16.558  1.00  0.00    -0.000 C 
BRANCH  10  11
ATOM     11  C   UNL     1     -11.581 -13.178  15.385  1.00  0.00    -0.003 C 
ATOM     12  C   UNL     1     -10.897 -13.688  14.115  1.00  0.00     0.004 C 
ENDBRANCH  10  11
ENDBRANCH   9  10
ENDBRANCH   8   9
ENDBRANCH   7   8
ENDBRANCH   6   7
ENDBRANCH   5   6
ENDBRANCH   4   5
ENDBRANCH   3   4
ENDBRANCH   2   3
ENDBRANCH   1   2
BRANCH   1  13
ATOM     13  C   UNL     1      -9.278  -8.609  19.011  1.00  0.00     0.000 C 
BRANCH  13  14
ATOM     14  C   UNL     1      -8.451  -8.362  20.289  1.00  0.00     0.000 C 
BRANCH  14  15
ATOM     15  C   UNL     1      -6.980  -8.828  20.212  1.00  0.00     0.000 C 
BRANCH  15  16
ATOM     16  C   UNL     1      -6.642  -9.657  18.957  1.00  0.00     0.000 C 
BRANCH  16  17
ATOM     17  C   UNL     1      -5.411  -9.145  18.183  1.00  0.00     0.000 C 
BRANCH  17  18
ATOM     18  C   UNL     1      -5.802  -8.433  16.878  1.00  0.00     0.000 C 
BRANCH  18  19
ATOM     19  C   UNL     1      -6.690  -7.197  17.111  1.00  0.00     0.000 C 
BRANCH  19  20
ATOM     20  C   UNL     1      -7.444  -6.726  15.850  1.00  0.00     0.006 C 
BRANCH  20  21
ATOM     21  C   UNL     1      -7.191  -7.638  14.642  1.00  0.00     0.053 C 
BRANCH  21  22
ATOM     22  C   UNL     1      -6.892  -6.822  13.424  1.00  0.00     0.041 C 
ATOM     23  O   UNL     1      -5.941  -7.144  12.663  1.00  0.00    -0.550 OA
ATOM     24  O   UNL     1      -7.636  -5.679  13.154  1.00  0.00    -0.550 OA
ENDBRANCH  21  22
ENDBRANCH  20  21
ENDBRANCH  19  20
ENDBRANCH  18  19
ENDBRANCH  17  18
ENDBRANCH  16  17
ENDBRANCH  15  16
ENDBRANCH  14  15
ENDBRANCH  13  14
ENDBRANCH   1  13
TORSDOF 20
ENDMDL
MODEL 8
REMARK VINA RESULT:    -3.906      1.458      2.501
REMARK INTER + INTRA:         -12.213
REMARK INTER:                  -8.562
REMARK INTRA:                  -3.651
REMARK UNBOUND:                -3.740
REMARK SMILES CCCCCCCCCCCCCCCCCCCCCC(=O)[O-]
REMARK SMILES IDX 12 1 11 2 10 3 9 4 8 5 7 6 6 7 5 8 4 9 3 10 2 11 1 12 13 13
REMARK SMILES IDX 14 14 15 15 16 16 17 17 18 18 19 19 20 20 21 21 22 22 23 23
REMARK SMILES IDX 24 24
REMARK H PARENT
REMARK Flexibility Score: inf
ROOT
ATOM      1  C   UNL     1      -6.467 -10.444  20.258  1.00  0.00     0.000 C 
ENDROOT
BRANCH   1   2
ATOM      2  C   UNL     1      -5.754 -10.430  18.889  1.00  0.00     0.000 C 
BRANCH   2   3
ATOM      3  C   UNL     1      -6.406 -11.398  17.887  1.00  0.00     0.000 C 
BRANCH   3   4
ATOM      4  C   UNL     1      -5.827 -12.820  17.969  1.00  0.00    -0.000 C 
BRANCH   4   5
ATOM      5  C   UNL     1      -6.902 -13.905  17.786  1.00  0.00    -0.000 C 
BRANCH   5   6
ATOM      6  C   UNL     1      -8.330 -13.355  17.941  1.00  0.00    -0.000 C 
BRANCH   6   7
ATOM      7  C   UNL     1      -9.402 -14.447  17.808  1.00  0.00    -0.000 C 
BRANCH   7   8
ATOM      8  C   UNL     1     -10.706 -13.871  17.236  1.00  0.00    -0.000 C 
BRANCH   8   9
ATOM      9  C   UNL     1     -10.923 -14.265  15.761  1.00  0.00    -0.000 C 
BRANCH   9  10
ATOM     10  C   UNL     1     -10.683 -13.116  14.763  1.00  0.00    -0.000 C 
BRANCH  10  11
ATOM     11  C   UNL     1      -9.645 -13.437  13.669  1.00  0.00    -0.003 C 
ATOM     12  C   UNL     1      -8.279 -13.815  14.245  1.00  0.00     0.004 C 
ENDBRANCH  10  11
ENDBRANCH   9  10
ENDBRANCH   8   9
ENDBRANCH   7   8
ENDBRANCH   6   7
ENDBRANCH   5   6
ENDBRANCH   4   5
ENDBRANCH   3   4
ENDBRANCH   2   3
ENDBRANCH   1   2
BRANCH   1  13
ATOM     13  C   UNL     1      -7.912  -9.907  20.220  1.00  0.00     0.000 C 
BRANCH  13  14
ATOM     14  C   UNL     1      -8.102  -8.558  19.496  1.00  0.00     0.000 C 
BRANCH  14  15
ATOM     15  C   UNL     1      -9.361  -8.469  18.606  1.00  0.00     0.000 C 
BRANCH  15  16
ATOM     16  C   UNL     1      -9.923  -9.835  18.162  1.00  0.00     0.000 C 
BRANCH  16  17
ATOM     17  C   UNL     1      -9.604 -10.196  16.698  1.00  0.00     0.000 C 
BRANCH  17  18
ATOM     18  C   UNL     1      -9.022  -9.005  15.921  1.00  0.00     0.000 C 
BRANCH  18  19
ATOM     19  C   UNL     1      -7.730  -9.357  15.161  1.00  0.00     0.000 C 
BRANCH  19  20
ATOM     20  C   UNL     1      -6.522  -8.476  15.545  1.00  0.00     0.006 C 
BRANCH  20  21
ATOM     21  C   UNL     1      -6.822  -6.978  15.402  1.00  0.00     0.053 C 
BRANCH  21  22
ATOM     22  C   UNL     1      -6.986  -6.613  13.961  1.00  0.00     0.041 C 
ATOM     23  O   UNL     1      -6.048  -6.818  13.144  1.00  0.00    -0.550 OA
ATOM     24  O   UNL     1      -8.156  -6.002  13.528  1.00  0.00    -0.550 OA
ENDBRANCH  21  22
ENDBRANCH  20  21
ENDBRANCH  19  20
ENDBRANCH  18  19
ENDBRANCH  17  18
ENDBRANCH  16  17
ENDBRANCH  15  16
ENDBRANCH  14  15
ENDBRANCH  13  14
ENDBRANCH   1  13
TORSDOF 20
ENDMDL
MODEL 9
REMARK VINA RESULT:    -3.897      2.724      6.874
REMARK INTER + INTRA:         -12.192
REMARK INTER:                  -7.949
REMARK INTRA:                  -4.243
REMARK UNBOUND:                -3.740
REMARK SMILES CCCCCCCCCCCCCCCCCCCCCC(=O)[O-]
REMARK SMILES IDX 12 1 11 2 10 3 9 4 8 5 7 6 6 7 5 8 4 9 3 10 2 11 1 12 13 13
REMARK SMILES IDX 14 14 15 15 16 16 17 17 18 18 19 19 20 20 21 21 22 22 23 23
REMARK SMILES IDX 24 24
REMARK H PARENT
REMARK Flexibility Score: inf
ROOT
ATOM      1  C   UNL     1      -8.216 -10.248  19.742  1.00  0.00     0.000 C 
ENDROOT
BRANCH   1   2
ATOM      2  C   UNL     1      -9.294  -9.681  18.795  1.00  0.00     0.000 C 
BRANCH   2   3
ATOM      3  C   UNL     1      -9.901 -10.768  17.892  1.00  0.00     0.000 C 
BRANCH   3   4
ATOM      4  C   UNL     1      -9.404 -10.683  16.439  1.00  0.00    -0.000 C 
BRANCH   4   5
ATOM      5  C   UNL     1      -8.934  -9.268  16.060  1.00  0.00    -0.000 C 
BRANCH   5   6
ATOM      6  C   UNL     1      -7.492  -9.247  15.527  1.00  0.00    -0.000 C 
BRANCH   6   7
ATOM      7  C   UNL     1      -6.660  -8.099  16.121  1.00  0.00    -0.000 C 
BRANCH   7   8
ATOM      8  C   UNL     1      -7.556  -6.913  16.507  1.00  0.00    -0.000 C 
BRANCH   8   9
ATOM      9  C   UNL     1      -7.322  -6.450  17.960  1.00  0.00    -0.000 C 
BRANCH   9  10
ATOM     10  C   UNL     1      -8.616  -6.137  18.735  1.00  0.00    -0.000 C 
BRANCH  10  11
ATOM     11  C   UNL     1      -8.502  -6.333  20.259  1.00  0.00    -0.003 C 
ATOM     12  C   UNL     1      -7.052  -6.459  20.731  1.00  0.00     0.004 C 
ENDBRANCH  10  11
ENDBRANCH   9  10
ENDBRANCH   8   9
ENDBRANCH   7   8
ENDBRANCH   6   7
ENDBRANCH   5   6
ENDBRANCH   4   5
ENDBRANCH   3   4
ENDBRANCH   2   3
ENDBRANCH   1   2
BRANCH   1  13
ATOM     13  C   UNL     1      -6.777  -9.823  19.386  1.00  0.00     0.000 C 
BRANCH  13  14
ATOM     14  C   UNL     1      -5.760 -10.974  19.243  1.00  0.00     0.000 C 
BRANCH  14  15
ATOM     15  C   UNL     1      -5.176 -11.154  17.825  1.00  0.00     0.000 C 
BRANCH  15  16
ATOM     16  C   UNL     1      -5.882 -12.232  16.979  1.00  0.00     0.000 C 
BRANCH  16  17
ATOM     17  C   UNL     1      -6.785 -13.177  17.797  1.00  0.00     0.000 C 
BRANCH  17  18
ATOM     18  C   UNL     1      -7.772 -13.950  16.907  1.00  0.00     0.000 C 
BRANCH  18  19
ATOM     19  C   UNL     1      -9.063 -14.345  17.644  1.00  0.00     0.000 C 
BRANCH  19  20
ATOM     20  C   UNL     1     -10.154 -14.928  16.721  1.00  0.00     0.006 C 
BRANCH  20  21
ATOM     21  C   UNL     1     -11.350 -13.980  16.558  1.00  0.00     0.053 C 
BRANCH  21  22
ATOM     22  C   UNL     1     -11.488 -13.553  15.130  1.00  0.00     0.041 C 
ATOM     23  O   UNL     1     -12.630 -13.371  14.630  1.00  0.00    -0.550 OA
ATOM     24  O   UNL     1     -10.356 -13.400  14.339  1.00  0.00    -0.550 OA
ENDBRANCH  21  22
ENDBRANCH  20  21
ENDBRANCH  19  20
ENDBRANCH  18  19
ENDBRANCH  17  18
ENDBRANCH  16  17
ENDBRANCH  15  16
ENDBRANCH  14  15
ENDBRANCH  13  14
ENDBRANCH   1  13
TORSDOF 20
ENDMDL
