MODEL 1
REMARK VINA RESULT:    -7.910      0.000      0.000
REMARK INTER + INTRA:          -9.192
REMARK INTER:                  -9.528
REMARK INTRA:                   0.336
REMARK UNBOUND:                 0.336
REMARK SMILES O=c1c(O)c(-c2ccc(O)c(O)c2)oc2cc(O)cc(O)c12
REMARK SMILES IDX 5 1 3 2 2 3 1 4 22 5 20 6 19 7 17 8 16 9 15 10 14 11 6 12
REMARK SMILES IDX 7 13 8 14 9 15 13 16 11 17 10 18 12 20 4 22 21 24 18 26
REMARK H PARENT 10 19 12 21 4 23 21 25 18 27
REMARK Flexibility Score: inf
ROOT
ATOM      1  C   UNL     1      26.398 -21.042   2.397  1.00  0.00     0.180 A 
ATOM      2  C   UNL     1      27.459 -20.142   2.204  1.00  0.00     0.208 A 
ATOM      3  C   UNL     1      28.643 -20.317   2.938  1.00  0.00     0.238 A 
ATOM      4  O   UNL     1      29.616 -19.553   2.705  1.00  0.00    -0.285 OA
ATOM      5  C   UNL     1      28.732 -21.356   3.896  1.00  0.00     0.111 A 
ATOM      6  C   UNL     1      29.867 -21.599   4.729  1.00  0.00     0.134 A 
ATOM      7  C   UNL     1      29.881 -22.722   5.565  1.00  0.00     0.093 A 
ATOM      8  C   UNL     1      28.780 -23.573   5.649  1.00  0.00     0.123 A 
ATOM      9  C   UNL     1      27.644 -23.314   4.881  1.00  0.00     0.094 A 
ATOM     10  C   UNL     1      27.614 -22.223   4.007  1.00  0.00     0.146 A 
ATOM     11  O   UNL     1      26.521 -22.026   3.279  1.00  0.00    -0.452 OA
ENDROOT
BRANCH   1  12
ATOM     12  C   UNL     1      25.124 -20.931   1.650  1.00  0.00     0.025 A 
ATOM     13  C   UNL     1      24.354 -22.083   1.425  1.00  0.00     0.016 A 
ATOM     14  C   UNL     1      23.159 -22.005   0.705  1.00  0.00     0.051 A 
ATOM     15  C   UNL     1      22.724 -20.782   0.187  1.00  0.00     0.157 A 
ATOM     16  C   UNL     1      24.695 -19.705   1.110  1.00  0.00     0.062 A 
ATOM     17  C   UNL     1      23.497 -19.626   0.384  1.00  0.00     0.158 A 
BRANCH  15  18
ATOM     18  O   UNL     1      21.527 -20.735  -0.526  1.00  0.00    -0.504 OA
ATOM     19  H   UNL     1      21.484 -20.925  -1.520  1.00  0.00     0.293 HD
ENDBRANCH  15  18
BRANCH  17  20
ATOM     20  O   UNL     1      23.077 -18.406  -0.143  1.00  0.00    -0.504 OA
ATOM     21  H   UNL     1      22.131 -18.271  -0.482  1.00  0.00     0.293 HD
ENDBRANCH  17  20
ENDBRANCH   1  12
BRANCH   2  22
ATOM     22  O   UNL     1      27.325 -19.076   1.309  1.00  0.00    -0.502 OA
ATOM     23  H   UNL     1      26.852 -18.215   1.555  1.00  0.00     0.293 HD
ENDBRANCH   2  22
BRANCH   6  24
ATOM     24  O   UNL     1      30.985 -20.764   4.790  1.00  0.00    -0.507 OA
ATOM     25  H   UNL     1      31.276 -20.246   5.606  1.00  0.00     0.293 HD
ENDBRANCH   6  24
BRANCH   8  26
ATOM     26  O   UNL     1      28.823 -24.671   6.505  1.00  0.00    -0.508 OA
ATOM     27  H   UNL     1      29.694 -24.993   6.911  1.00  0.00     0.293 HD
ENDBRANCH   8  26
TORSDOF 6
ENDMDL
MODEL 2
REMARK VINA RESULT:    -7.838      0.593      1.435
REMARK INTER + INTRA:          -9.106
REMARK INTER:                  -9.637
REMARK INTRA:                   0.532
REMARK UNBOUND:                 0.336
REMARK SMILES O=c1c(O)c(-c2ccc(O)c(O)c2)oc2cc(O)cc(O)c12
REMARK SMILES IDX 5 1 3 2 2 3 1 4 22 5 20 6 19 7 17 8 16 9 15 10 14 11 6 12
REMARK SMILES IDX 7 13 8 14 9 15 13 16 11 17 10 18 12 20 4 22 21 24 18 26
REMARK H PARENT 10 19 12 21 4 23 21 25 18 27
REMARK Flexibility Score: inf
ROOT
ATOM      1  C   UNL     1      26.420 -21.010   2.327  1.00  0.00     0.180 A 
ATOM      2  C   UNL     1      27.456 -20.069   2.198  1.00  0.00     0.208 A 
ATOM      3  C   UNL     1      28.615 -20.222   2.975  1.00  0.00     0.238 A 
ATOM      4  O   UNL     1      29.569 -19.420   2.801  1.00  0.00    -0.285 OA
ATOM      5  C   UNL     1      28.703 -21.282   3.911  1.00  0.00     0.111 A 
ATOM      6  C   UNL     1      29.811 -21.507   4.783  1.00  0.00     0.134 A 
ATOM      7  C   UNL     1      29.832 -22.649   5.592  1.00  0.00     0.093 A 
ATOM      8  C   UNL     1      28.759 -23.540   5.610  1.00  0.00     0.123 A 
ATOM      9  C   UNL     1      27.646 -23.300   4.804  1.00  0.00     0.094 A 
ATOM     10  C   UNL     1      27.612 -22.190   3.956  1.00  0.00     0.146 A 
ATOM     11  O   UNL     1      26.543 -22.011   3.189  1.00  0.00    -0.452 OA
ENDROOT
BRANCH   1  12
ATOM     12  C   UNL     1      25.173 -20.924   1.532  1.00  0.00     0.025 A 
ATOM     13  C   UNL     1      24.917 -19.769   0.777  1.00  0.00     0.016 A 
ATOM     14  C   UNL     1      23.738 -19.657   0.035  1.00  0.00     0.051 A 
ATOM     15  C   UNL     1      22.792 -20.686   0.050  1.00  0.00     0.157 A 
ATOM     16  C   UNL     1      24.212 -21.950   1.562  1.00  0.00     0.062 A 
ATOM     17  C   UNL     1      23.026 -21.837   0.821  1.00  0.00     0.158 A 
BRANCH  15  18
ATOM     18  O   UNL     1      21.626 -20.547  -0.702  1.00  0.00    -0.504 OA
ATOM     19  H   UNL     1      20.762 -20.208  -0.297  1.00  0.00     0.293 HD
ENDBRANCH  15  18
BRANCH  17  20
ATOM     20  O   UNL     1      22.081 -22.862   0.851  1.00  0.00    -0.504 OA
ATOM     21  H   UNL     1      22.051 -23.534   1.609  1.00  0.00     0.293 HD
ENDBRANCH  17  20
ENDBRANCH   1  12
BRANCH   2  22
ATOM     22  O   UNL     1      27.319 -18.987   1.325  1.00  0.00    -0.502 OA
ATOM     23  H   UNL     1      26.529 -18.887   0.700  1.00  0.00     0.293 HD
ENDBRANCH   2  22
BRANCH   6  24
ATOM     24  O   UNL     1      30.897 -20.636   4.910  1.00  0.00    -0.507 OA
ATOM     25  H   UNL     1      31.207 -20.221   5.775  1.00  0.00     0.293 HD
ENDBRANCH   6  24
BRANCH   8  26
ATOM     26  O   UNL     1      28.807 -24.657   6.441  1.00  0.00    -0.508 OA
ATOM     27  H   UNL     1      28.881 -25.595   6.065  1.00  0.00     0.293 HD
ENDBRANCH   8  26
TORSDOF 6
ENDMDL
MODEL 3
REMARK VINA RESULT:    -7.527      1.527      6.727
REMARK INTER + INTRA:          -8.731
REMARK INTER:                  -8.516
REMARK INTRA:                  -0.214
REMARK UNBOUND:                 0.336
REMARK SMILES O=c1c(O)c(-c2ccc(O)c(O)c2)oc2cc(O)cc(O)c12
REMARK SMILES IDX 5 1 3 2 2 3 1 4 22 5 20 6 19 7 17 8 16 9 15 10 14 11 6 12
REMARK SMILES IDX 7 13 8 14 9 15 13 16 11 17 10 18 12 20 4 22 21 24 18 26
REMARK H PARENT 10 19 12 21 4 23 21 25 18 27
REMARK Flexibility Score: inf
ROOT
ATOM      1  C   UNL     1      27.296 -21.435   2.324  1.00  0.00     0.180 A 
ATOM      2  C   UNL     1      27.812 -20.218   1.844  1.00  0.00     0.208 A 
ATOM      3  C   UNL     1      26.988 -19.389   1.064  1.00  0.00     0.238 A 
ATOM      4  O   UNL     1      27.431 -18.269   0.702  1.00  0.00    -0.285 OA
ATOM      5  C   UNL     1      25.678 -19.811   0.729  1.00  0.00     0.111 A 
ATOM      6  C   UNL     1      24.772 -19.073  -0.092  1.00  0.00     0.134 A 
ATOM      7  C   UNL     1      23.464 -19.540  -0.269  1.00  0.00     0.093 A 
ATOM      8  C   UNL     1      23.048 -20.748   0.290  1.00  0.00     0.123 A 
ATOM      9  C   UNL     1      23.942 -21.505   1.047  1.00  0.00     0.094 A 
ATOM     10  C   UNL     1      25.242 -21.047   1.275  1.00  0.00     0.146 A 
ATOM     11  O   UNL     1      26.053 -21.789   2.020  1.00  0.00    -0.452 OA
ENDROOT
BRANCH   1  12
ATOM     12  C   UNL     1      28.098 -22.354   3.162  1.00  0.00     0.025 A 
ATOM     13  C   UNL     1      27.796 -22.483   4.527  1.00  0.00     0.016 A 
ATOM     14  C   UNL     1      28.552 -23.330   5.342  1.00  0.00     0.051 A 
ATOM     15  C   UNL     1      29.629 -24.046   4.811  1.00  0.00     0.157 A 
ATOM     16  C   UNL     1      29.194 -23.060   2.635  1.00  0.00     0.062 A 
ATOM     17  C   UNL     1      29.957 -23.907   3.452  1.00  0.00     0.158 A 
BRANCH  15  18
ATOM     18  O   UNL     1      30.364 -24.884   5.648  1.00  0.00    -0.504 OA
ATOM     19  H   UNL     1      31.369 -24.980   5.566  1.00  0.00     0.293 HD
ENDBRANCH  15  18
BRANCH  17  20
ATOM     20  O   UNL     1      31.038 -24.608   2.920  1.00  0.00    -0.504 OA
ATOM     21  H   UNL     1      31.866 -24.130   2.583  1.00  0.00     0.293 HD
ENDBRANCH  17  20
ENDBRANCH   1  12
BRANCH   2  22
ATOM     22  O   UNL     1      29.132 -19.855   2.121  1.00  0.00    -0.502 OA
ATOM     23  H   UNL     1      29.535 -19.931   3.048  1.00  0.00     0.293 HD
ENDBRANCH   2  22
BRANCH   6  24
ATOM     24  O   UNL     1      25.110 -17.898  -0.770  1.00  0.00    -0.507 OA
ATOM     25  H   UNL     1      24.818 -17.668  -1.707  1.00  0.00     0.293 HD
ENDBRANCH   6  24
BRANCH   8  26
ATOM     26  O   UNL     1      21.744 -21.190   0.078  1.00  0.00    -0.508 OA
ATOM     27  H   UNL     1      21.432 -21.503  -0.834  1.00  0.00     0.293 HD
ENDBRANCH   8  26
TORSDOF 6
ENDMDL
MODEL 4
REMARK VINA RESULT:    -7.427      1.674      6.811
REMARK INTER + INTRA:          -8.611
REMARK INTER:                  -8.295
REMARK INTRA:                  -0.316
REMARK UNBOUND:                 0.336
REMARK SMILES O=c1c(O)c(-c2ccc(O)c(O)c2)oc2cc(O)cc(O)c12
REMARK SMILES IDX 5 1 3 2 2 3 1 4 22 5 20 6 19 7 17 8 16 9 15 10 14 11 6 12
REMARK SMILES IDX 7 13 8 14 9 15 13 16 11 17 10 18 12 20 4 22 21 24 18 26
REMARK H PARENT 10 19 12 21 4 23 21 25 18 27
REMARK Flexibility Score: inf
ROOT
ATOM      1  C   UNL     1      28.463 -22.197   3.339  1.00  0.00     0.180 A 
ATOM      2  C   UNL     1      29.182 -21.010   3.112  1.00  0.00     0.208 A 
ATOM      3  C   UNL     1      28.588 -19.989   2.354  1.00  0.00     0.238 A 
ATOM      4  O   UNL     1      29.206 -18.901   2.218  1.00  0.00    -0.285 OA
ATOM      5  C   UNL     1      27.306 -20.186   1.785  1.00  0.00     0.111 A 
ATOM      6  C   UNL     1      26.627 -19.237   0.962  1.00  0.00     0.134 A 
ATOM      7  C   UNL     1      25.317 -19.500   0.543  1.00  0.00     0.093 A 
ATOM      8  C   UNL     1      24.684 -20.701   0.862  1.00  0.00     0.123 A 
ATOM      9  C   UNL     1      25.359 -21.659   1.619  1.00  0.00     0.094 A 
ATOM     10  C   UNL     1      26.653 -21.411   2.085  1.00  0.00     0.146 A 
ATOM     11  O   UNL     1      27.250 -22.341   2.821  1.00  0.00    -0.452 OA
ENDROOT
BRANCH   1  12
ATOM     12  C   UNL     1      29.017 -23.312   4.140  1.00  0.00     0.025 A 
ATOM     13  C   UNL     1      28.742 -23.376   5.514  1.00  0.00     0.016 A 
ATOM     14  C   UNL     1      29.271 -24.409   6.294  1.00  0.00     0.051 A 
ATOM     15  C   UNL     1      30.092 -25.381   5.717  1.00  0.00     0.157 A 
ATOM     16  C   UNL     1      29.861 -24.280   3.565  1.00  0.00     0.062 A 
ATOM     17  C   UNL     1      30.395 -25.315   4.347  1.00  0.00     0.158 A 
BRANCH  15  18
ATOM     18  O   UNL     1      30.604 -26.400   6.519  1.00  0.00    -0.504 OA
ATOM     19  H   UNL     1      30.723 -27.346   6.178  1.00  0.00     0.293 HD
ENDBRANCH  15  18
BRANCH  17  20
ATOM     20  O   UNL     1      31.225 -26.273   3.767  1.00  0.00    -0.504 OA
ATOM     21  H   UNL     1      31.528 -26.200   2.803  1.00  0.00     0.293 HD
ENDBRANCH  17  20
ENDBRANCH   1  12
BRANCH   2  22
ATOM     22  O   UNL     1      30.477 -20.864   3.616  1.00  0.00    -0.502 OA
ATOM     23  H   UNL     1      30.749 -21.211   4.529  1.00  0.00     0.293 HD
ENDBRANCH   2  22
BRANCH   6  24
ATOM     24  O   UNL     1      27.196 -18.043   0.511  1.00  0.00    -0.507 OA
ATOM     25  H   UNL     1      27.612 -17.341   1.103  1.00  0.00     0.293 HD
ENDBRANCH   6  24
BRANCH   8  26
ATOM     26  O   UNL     1      23.387 -20.935   0.413  1.00  0.00    -0.508 OA
ATOM     27  H   UNL     1      23.008 -21.873   0.352  1.00  0.00     0.293 HD
ENDBRANCH   8  26
TORSDOF 6
ENDMDL
MODEL 5
REMARK VINA RESULT:    -7.275      1.408      3.165
REMARK INTER + INTRA:          -8.428
REMARK INTER:                  -8.443
REMARK INTRA:                   0.015
REMARK UNBOUND:                 0.336
REMARK SMILES O=c1c(O)c(-c2ccc(O)c(O)c2)oc2cc(O)cc(O)c12
REMARK SMILES IDX 5 1 3 2 2 3 1 4 22 5 20 6 19 7 17 8 16 9 15 10 14 11 6 12
REMARK SMILES IDX 7 13 8 14 9 15 13 16 11 17 10 18 12 20 4 22 21 24 18 26
REMARK H PARENT 10 19 12 21 4 23 21 25 18 27
REMARK Flexibility Score: inf
ROOT
ATOM      1  C   UNL     1      26.638 -20.624   2.066  1.00  0.00     0.180 A 
ATOM      2  C   UNL     1      26.763 -21.514   3.146  1.00  0.00     0.208 A 
ATOM      3  C   UNL     1      27.961 -21.534   3.878  1.00  0.00     0.238 A 
ATOM      4  O   UNL     1      28.039 -22.278   4.889  1.00  0.00    -0.285 OA
ATOM      5  C   UNL     1      29.040 -20.702   3.488  1.00  0.00     0.111 A 
ATOM      6  C   UNL     1      30.315 -20.671   4.130  1.00  0.00     0.134 A 
ATOM      7  C   UNL     1      31.270 -19.731   3.722  1.00  0.00     0.093 A 
ATOM      8  C   UNL     1      31.021 -18.865   2.657  1.00  0.00     0.123 A 
ATOM      9  C   UNL     1      29.799 -18.925   1.987  1.00  0.00     0.094 A 
ATOM     10  C   UNL     1      28.811 -19.825   2.395  1.00  0.00     0.146 A 
ATOM     11  O   UNL     1      27.654 -19.833   1.743  1.00  0.00    -0.452 OA
ENDROOT
BRANCH   1  12
ATOM     12  C   UNL     1      25.402 -20.536   1.256  1.00  0.00     0.025 A 
ATOM     13  C   UNL     1      24.857 -21.704   0.701  1.00  0.00     0.016 A 
ATOM     14  C   UNL     1      23.703 -21.643  -0.084  1.00  0.00     0.051 A 
ATOM     15  C   UNL     1      23.085 -20.415  -0.339  1.00  0.00     0.157 A 
ATOM     16  C   UNL     1      24.791 -19.299   0.981  1.00  0.00     0.062 A 
ATOM     17  C   UNL     1      23.634 -19.235   0.191  1.00  0.00     0.158 A 
BRANCH  15  18
ATOM     18  O   UNL     1      21.933 -20.385  -1.124  1.00  0.00    -0.504 OA
ATOM     19  H   UNL     1      21.659 -21.166  -1.707  1.00  0.00     0.293 HD
ENDBRANCH  15  18
BRANCH  17  20
ATOM     20  O   UNL     1      23.032 -18.006  -0.071  1.00  0.00    -0.504 OA
ATOM     21  H   UNL     1      22.269 -17.656   0.498  1.00  0.00     0.293 HD
ENDBRANCH  17  20
ENDBRANCH   1  12
BRANCH   2  22
ATOM     22  O   UNL     1      25.716 -22.382   3.468  1.00  0.00    -0.502 OA
ATOM     23  H   UNL     1      24.742 -22.128   3.352  1.00  0.00     0.293 HD
ENDBRANCH   2  22
BRANCH   6  24
ATOM     24  O   UNL     1      30.702 -21.549   5.146  1.00  0.00    -0.507 OA
ATOM     25  H   UNL     1      30.072 -22.121   5.686  1.00  0.00     0.293 HD
ENDBRANCH   6  24
BRANCH   8  26
ATOM     26  O   UNL     1      32.001 -17.955   2.268  1.00  0.00    -0.508 OA
ATOM     27  H   UNL     1      32.576 -17.471   2.948  1.00  0.00     0.293 HD
ENDBRANCH   8  26
TORSDOF 6
ENDMDL
MODEL 6
REMARK VINA RESULT:    -7.033      2.662      6.951
REMARK INTER + INTRA:          -8.135
REMARK INTER:                  -7.851
REMARK INTRA:                  -0.284
REMARK UNBOUND:                 0.336
REMARK SMILES O=c1c(O)c(-c2ccc(O)c(O)c2)oc2cc(O)cc(O)c12
REMARK SMILES IDX 5 1 3 2 2 3 1 4 22 5 20 6 19 7 17 8 16 9 15 10 14 11 6 12
REMARK SMILES IDX 7 13 8 14 9 15 13 16 11 17 10 18 12 20 4 22 21 24 18 26
REMARK H PARENT 10 19 12 21 4 23 21 25 18 27
REMARK Flexibility Score: inf
ROOT
ATOM      1  C   UNL     1      28.772 -22.093   3.308  1.00  0.00     0.180 A 
ATOM      2  C   UNL     1      27.438 -21.731   3.051  1.00  0.00     0.208 A 
ATOM      3  C   UNL     1      27.180 -20.618   2.235  1.00  0.00     0.238 A 
ATOM      4  O   UNL     1      25.986 -20.344   1.948  1.00  0.00    -0.285 OA
ATOM      5  C   UNL     1      28.257 -19.848   1.731  1.00  0.00     0.111 A 
ATOM      6  C   UNL     1      28.112 -18.674   0.931  1.00  0.00     0.134 A 
ATOM      7  C   UNL     1      29.250 -18.055   0.401  1.00  0.00     0.093 A 
ATOM      8  C   UNL     1      30.530 -18.527   0.693  1.00  0.00     0.123 A 
ATOM      9  C   UNL     1      30.685 -19.640   1.519  1.00  0.00     0.094 A 
ATOM     10  C   UNL     1      29.567 -20.303   2.032  1.00  0.00     0.146 A 
ATOM     11  O   UNL     1      29.761 -21.372   2.796  1.00  0.00    -0.452 OA
ENDROOT
BRANCH   1  12
ATOM     12  C   UNL     1      29.123 -23.262   4.147  1.00  0.00     0.025 A 
ATOM     13  C   UNL     1      29.067 -23.149   5.545  1.00  0.00     0.016 A 
ATOM     14  C   UNL     1      29.414 -24.232   6.357  1.00  0.00     0.051 A 
ATOM     15  C   UNL     1      29.836 -25.436   5.786  1.00  0.00     0.157 A 
ATOM     16  C   UNL     1      29.568 -24.467   3.575  1.00  0.00     0.062 A 
ATOM     17  C   UNL     1      29.919 -25.555   4.389  1.00  0.00     0.158 A 
BRANCH  15  18
ATOM     18  O   UNL     1      30.174 -26.500   6.622  1.00  0.00    -0.504 OA
ATOM     19  H   UNL     1      31.024 -26.504   7.171  1.00  0.00     0.293 HD
ENDBRANCH  15  18
BRANCH  17  20
ATOM     20  O   UNL     1      30.353 -26.748   3.814  1.00  0.00    -0.504 OA
ATOM     21  H   UNL     1      29.712 -27.509   3.620  1.00  0.00     0.293 HD
ENDBRANCH  17  20
ENDBRANCH   1  12
BRANCH   2  22
ATOM     22  O   UNL     1      26.389 -22.457   3.620  1.00  0.00    -0.502 OA
ATOM     23  H   UNL     1      25.474 -22.521   3.190  1.00  0.00     0.293 HD
ENDBRANCH   2  22
BRANCH   6  24
ATOM     24  O   UNL     1      26.885 -18.065   0.649  1.00  0.00    -0.507 OA
ATOM     25  H   UNL     1      26.580 -17.777  -0.268  1.00  0.00     0.293 HD
ENDBRANCH   6  24
BRANCH   8  26
ATOM     26  O   UNL     1      31.640 -17.875   0.162  1.00  0.00    -0.508 OA
ATOM     27  H   UNL     1      32.248 -18.326  -0.512  1.00  0.00     0.293 HD
ENDBRANCH   8  26
TORSDOF 6
ENDMDL
MODEL 7
REMARK VINA RESULT:    -7.032      3.531      5.711
REMARK INTER + INTRA:          -8.135
REMARK INTER:                  -7.889
REMARK INTRA:                  -0.246
REMARK UNBOUND:                 0.336
REMARK SMILES O=c1c(O)c(-c2ccc(O)c(O)c2)oc2cc(O)cc(O)c12
REMARK SMILES IDX 5 1 3 2 2 3 1 4 22 5 20 6 19 7 17 8 16 9 15 10 14 11 6 12
REMARK SMILES IDX 7 13 8 14 9 15 13 16 11 17 10 18 12 20 4 22 21 24 18 26
REMARK H PARENT 10 19 12 21 4 23 21 25 18 27
REMARK Flexibility Score: inf
ROOT
ATOM      1  C   UNL     1      29.517 -23.283   3.274  1.00  0.00     0.180 A 
ATOM      2  C   UNL     1      29.371 -23.848   4.553  1.00  0.00     0.208 A 
ATOM      3  C   UNL     1      29.817 -25.161   4.772  1.00  0.00     0.238 A 
ATOM      4  O   UNL     1      29.752 -25.634   5.936  1.00  0.00    -0.285 OA
ATOM      5  C   UNL     1      30.352 -25.913   3.697  1.00  0.00     0.111 A 
ATOM      6  C   UNL     1      30.793 -27.268   3.794  1.00  0.00     0.134 A 
ATOM      7  C   UNL     1      31.402 -27.876   2.690  1.00  0.00     0.093 A 
ATOM      8  C   UNL     1      31.529 -27.203   1.475  1.00  0.00     0.123 A 
ATOM      9  C   UNL     1      31.051 -25.898   1.353  1.00  0.00     0.094 A 
ATOM     10  C   UNL     1      30.473 -25.251   2.448  1.00  0.00     0.146 A 
ATOM     11  O   UNL     1      30.051 -24.001   2.294  1.00  0.00    -0.452 OA
ENDROOT
BRANCH   1  12
ATOM     12  C   UNL     1      29.084 -21.900   2.969  1.00  0.00     0.025 A 
ATOM     13  C   UNL     1      30.049 -20.889   2.839  1.00  0.00     0.016 A 
ATOM     14  C   UNL     1      29.663 -19.573   2.573  1.00  0.00     0.051 A 
ATOM     15  C   UNL     1      28.310 -19.244   2.448  1.00  0.00     0.157 A 
ATOM     16  C   UNL     1      27.723 -21.564   2.864  1.00  0.00     0.062 A 
ATOM     17  C   UNL     1      27.333 -20.242   2.600  1.00  0.00     0.158 A 
BRANCH  15  18
ATOM     18  O   UNL     1      27.955 -17.923   2.180  1.00  0.00    -0.504 OA
ATOM     19  H   UNL     1      27.157 -17.481   2.618  1.00  0.00     0.293 HD
ENDBRANCH  15  18
BRANCH  17  20
ATOM     20  O   UNL     1      25.981 -19.919   2.491  1.00  0.00    -0.504 OA
ATOM     21  H   UNL     1      25.618 -19.035   2.828  1.00  0.00     0.293 HD
ENDBRANCH  17  20
ENDBRANCH   1  12
BRANCH   2  22
ATOM     22  O   UNL     1      28.771 -23.117   5.581  1.00  0.00    -0.502 OA
ATOM     23  H   UNL     1      28.275 -22.249   5.416  1.00  0.00     0.293 HD
ENDBRANCH   2  22
BRANCH   6  24
ATOM     24  O   UNL     1      30.636 -28.063   4.933  1.00  0.00    -0.507 OA
ATOM     25  H   UNL     1      30.462 -29.056   4.925  1.00  0.00     0.293 HD
ENDBRANCH   6  24
BRANCH   8  26
ATOM     26  O   UNL     1      32.125 -27.846   0.392  1.00  0.00    -0.508 OA
ATOM     27  H   UNL     1      31.600 -28.072  -0.445  1.00  0.00     0.293 HD
ENDBRANCH   8  26
TORSDOF 6
ENDMDL
MODEL 8
REMARK VINA RESULT:    -6.871      3.583      5.947
REMARK INTER + INTRA:          -7.940
REMARK INTER:                  -7.639
REMARK INTRA:                  -0.301
REMARK UNBOUND:                 0.336
REMARK SMILES O=c1c(O)c(-c2ccc(O)c(O)c2)oc2cc(O)cc(O)c12
REMARK SMILES IDX 5 1 3 2 2 3 1 4 22 5 20 6 19 7 17 8 16 9 15 10 14 11 6 12
REMARK SMILES IDX 7 13 8 14 9 15 13 16 11 17 10 18 12 20 4 22 21 24 18 26
REMARK H PARENT 10 19 12 21 4 23 21 25 18 27
REMARK Flexibility Score: inf
ROOT
ATOM      1  C   UNL     1      29.551 -23.497   3.462  1.00  0.00     0.180 A 
ATOM      2  C   UNL     1      29.569 -24.077   4.742  1.00  0.00     0.208 A 
ATOM      3  C   UNL     1      30.047 -25.389   4.890  1.00  0.00     0.238 A 
ATOM      4  O   UNL     1      30.130 -25.874   6.047  1.00  0.00    -0.285 OA
ATOM      5  C   UNL     1      30.450 -26.125   3.748  1.00  0.00     0.111 A 
ATOM      6  C   UNL     1      30.909 -27.477   3.774  1.00  0.00     0.134 A 
ATOM      7  C   UNL     1      31.381 -28.068   2.596  1.00  0.00     0.093 A 
ATOM      8  C   UNL     1      31.351 -27.382   1.383  1.00  0.00     0.123 A 
ATOM      9  C   UNL     1      30.853 -26.079   1.336  1.00  0.00     0.094 A 
ATOM     10  C   UNL     1      30.411 -25.448   2.501  1.00  0.00     0.146 A 
ATOM     11  O   UNL     1      29.965 -24.200   2.415  1.00  0.00    -0.452 OA
ENDROOT
BRANCH   1  12
ATOM     12  C   UNL     1      29.075 -22.115   3.229  1.00  0.00     0.025 A 
ATOM     13  C   UNL     1      27.698 -21.870   3.116  1.00  0.00     0.016 A 
ATOM     14  C   UNL     1      27.227 -20.576   2.876  1.00  0.00     0.051 A 
ATOM     15  C   UNL     1      28.123 -19.513   2.730  1.00  0.00     0.157 A 
ATOM     16  C   UNL     1      29.976 -21.047   3.062  1.00  0.00     0.062 A 
ATOM     17  C   UNL     1      29.505 -19.749   2.818  1.00  0.00     0.158 A 
BRANCH  15  18
ATOM     18  O   UNL     1      27.623 -18.233   2.493  1.00  0.00    -0.504 OA
ATOM     19  H   UNL     1      26.961 -17.789   3.118  1.00  0.00     0.293 HD
ENDBRANCH  15  18
BRANCH  17  20
ATOM     20  O   UNL     1      30.404 -18.695   2.660  1.00  0.00    -0.504 OA
ATOM     21  H   UNL     1      30.911 -18.556   1.793  1.00  0.00     0.293 HD
ENDBRANCH  17  20
ENDBRANCH   1  12
BRANCH   2  22
ATOM     22  O   UNL     1      29.095 -23.362   5.846  1.00  0.00    -0.502 OA
ATOM     23  H   UNL     1      28.584 -23.801   6.602  1.00  0.00     0.293 HD
ENDBRANCH   2  22
BRANCH   6  24
ATOM     24  O   UNL     1      30.899 -28.286   4.914  1.00  0.00    -0.507 OA
ATOM     25  H   UNL     1      30.084 -28.746   5.290  1.00  0.00     0.293 HD
ENDBRANCH   6  24
BRANCH   8  26
ATOM     26  O   UNL     1      31.813 -28.007   0.227  1.00  0.00    -0.508 OA
ATOM     27  H   UNL     1      32.226 -27.480  -0.533  1.00  0.00     0.293 HD
ENDBRANCH   8  26
TORSDOF 6
ENDMDL
