MODEL 1
REMARK VINA RESULT:    -7.847      0.000      0.000
REMARK INTER + INTRA:          -9.487
REMARK INTER:                  -9.452
REMARK INTRA:                  -0.035
REMARK UNBOUND:                -0.035
REMARK SMILES O=c1c(O)c(-c2ccc(O)c(O)c2)oc2cc(O)cc(O)c12
REMARK SMILES IDX 5 1 3 2 2 3 1 4 22 5 20 6 19 7 17 8 16 9 15 10 14 11 6 12
REMARK SMILES IDX 7 13 8 14 9 15 13 16 11 17 10 18 12 20 4 22 21 24 18 26
REMARK H PARENT 10 19 12 21 4 23 21 25 18 27
REMARK Flexibility Score: inf
ROOT
ATOM      1  C   UNL     1      27.418  -3.285  12.949  1.00  0.00     0.180 A 
ATOM      2  C   UNL     1      26.783  -2.724  11.827  1.00  0.00     0.208 A 
ATOM      3  C   UNL     1      26.855  -3.398  10.597  1.00  0.00     0.238 A 
ATOM      4  O   UNL     1      26.239  -2.919   9.608  1.00  0.00    -0.285 OA
ATOM      5  C   UNL     1      27.572  -4.614  10.500  1.00  0.00     0.111 A 
ATOM      6  C   UNL     1      27.745  -5.361   9.295  1.00  0.00     0.134 A 
ATOM      7  C   UNL     1      28.363  -6.616   9.343  1.00  0.00     0.093 A 
ATOM      8  C   UNL     1      28.873  -7.122  10.541  1.00  0.00     0.123 A 
ATOM      9  C   UNL     1      28.764  -6.375  11.711  1.00  0.00     0.094 A 
ATOM     10  C   UNL     1      28.121  -5.135  11.702  1.00  0.00     0.146 A 
ATOM     11  O   UNL     1      28.028  -4.460  12.841  1.00  0.00    -0.452 OA
ENDROOT
BRANCH   1  12
ATOM     12  C   UNL     1      27.408  -2.621  14.272  1.00  0.00     0.025 A 
ATOM     13  C   UNL     1      27.843  -1.290  14.381  1.00  0.00     0.016 A 
ATOM     14  C   UNL     1      27.821  -0.638  15.617  1.00  0.00     0.051 A 
ATOM     15  C   UNL     1      27.352  -1.298  16.757  1.00  0.00     0.157 A 
ATOM     16  C   UNL     1      26.917  -3.275  15.416  1.00  0.00     0.062 A 
ATOM     17  C   UNL     1      26.893  -2.621  16.657  1.00  0.00     0.158 A 
BRANCH  15  18
ATOM     18  O   UNL     1      27.345  -0.621  17.977  1.00  0.00    -0.504 OA
ATOM     19  H   UNL     1      27.519  -1.094  18.855  1.00  0.00     0.293 HD
ENDBRANCH  15  18
BRANCH  17  20
ATOM     20  O   UNL     1      26.410  -3.280  17.787  1.00  0.00    -0.504 OA
ATOM     21  H   UNL     1      26.909  -4.058  18.200  1.00  0.00     0.293 HD
ENDBRANCH  17  20
ENDBRANCH   1  12
BRANCH   2  22
ATOM     22  O   UNL     1      26.062  -1.534  11.949  1.00  0.00    -0.502 OA
ATOM     23  H   UNL     1      25.069  -1.477  11.755  1.00  0.00     0.293 HD
ENDBRANCH   2  22
BRANCH   6  24
ATOM     24  O   UNL     1      27.354  -4.905   8.033  1.00  0.00    -0.507 OA
ATOM     25  H   UNL     1      26.544  -4.331   7.855  1.00  0.00     0.293 HD
ENDBRANCH   6  24
BRANCH   8  26
ATOM     26  O   UNL     1      29.502  -8.365  10.577  1.00  0.00    -0.508 OA
ATOM     27  H   UNL     1      30.467  -8.479  10.290  1.00  0.00     0.293 HD
ENDBRANCH   8  26
TORSDOF 6
ENDMDL
MODEL 2
REMARK VINA RESULT:    -7.479      0.875      1.564
REMARK INTER + INTRA:          -9.044
REMARK INTER:                  -9.132
REMARK INTRA:                   0.088
REMARK UNBOUND:                -0.035
REMARK SMILES O=c1c(O)c(-c2ccc(O)c(O)c2)oc2cc(O)cc(O)c12
REMARK SMILES IDX 5 1 3 2 2 3 1 4 22 5 20 6 19 7 17 8 16 9 15 10 14 11 6 12
REMARK SMILES IDX 7 13 8 14 9 15 13 16 11 17 10 18 12 20 4 22 21 24 18 26
REMARK H PARENT 10 19 12 21 4 23 21 25 18 27
REMARK Flexibility Score: inf
ROOT
ATOM      1  C   UNL     1      27.530  -3.517  12.474  1.00  0.00     0.180 A 
ATOM      2  C   UNL     1      26.892  -3.027  11.321  1.00  0.00     0.208 A 
ATOM      3  C   UNL     1      27.000  -3.753  10.123  1.00  0.00     0.238 A 
ATOM      4  O   UNL     1      26.381  -3.338   9.108  1.00  0.00    -0.285 OA
ATOM      5  C   UNL     1      27.756  -4.948  10.088  1.00  0.00     0.111 A 
ATOM      6  C   UNL     1      27.966  -5.741   8.920  1.00  0.00     0.134 A 
ATOM      7  C   UNL     1      28.623  -6.974   9.030  1.00  0.00     0.093 A 
ATOM      8  C   UNL     1      29.134  -7.409  10.255  1.00  0.00     0.123 A 
ATOM      9  C   UNL     1      28.987  -6.615  11.389  1.00  0.00     0.094 A 
ATOM     10  C   UNL     1      28.305  -5.397  11.319  1.00  0.00     0.146 A 
ATOM     11  O   UNL     1      28.178  -4.676  12.424  1.00  0.00    -0.452 OA
ENDROOT
BRANCH   1  12
ATOM     12  C   UNL     1      27.483  -2.797  13.766  1.00  0.00     0.025 A 
ATOM     13  C   UNL     1      27.350  -3.525  14.959  1.00  0.00     0.016 A 
ATOM     14  C   UNL     1      27.325  -2.868  16.191  1.00  0.00     0.051 A 
ATOM     15  C   UNL     1      27.448  -1.476  16.252  1.00  0.00     0.157 A 
ATOM     16  C   UNL     1      27.628  -1.400  13.831  1.00  0.00     0.062 A 
ATOM     17  C   UNL     1      27.605  -0.738  15.068  1.00  0.00     0.158 A 
BRANCH  15  18
ATOM     18  O   UNL     1      27.417  -0.847  17.497  1.00  0.00    -0.504 OA
ATOM     19  H   UNL     1      27.766  -1.295  18.335  1.00  0.00     0.293 HD
ENDBRANCH  15  18
BRANCH  17  20
ATOM     20  O   UNL     1      27.743   0.649  15.123  1.00  0.00    -0.504 OA
ATOM     21  H   UNL     1      26.940   1.264  15.079  1.00  0.00     0.293 HD
ENDBRANCH  17  20
ENDBRANCH   1  12
BRANCH   2  22
ATOM     22  O   UNL     1      26.132  -1.857  11.382  1.00  0.00    -0.502 OA
ATOM     23  H   UNL     1      26.020  -1.325  12.237  1.00  0.00     0.293 HD
ENDBRANCH   2  22
BRANCH   6  24
ATOM     24  O   UNL     1      27.576  -5.355   7.635  1.00  0.00    -0.507 OA
ATOM     25  H   UNL     1      28.212  -5.111   6.890  1.00  0.00     0.293 HD
ENDBRANCH   6  24
BRANCH   8  26
ATOM     26  O   UNL     1      29.801  -8.629  10.353  1.00  0.00    -0.508 OA
ATOM     27  H   UNL     1      30.313  -9.017   9.569  1.00  0.00     0.293 HD
ENDBRANCH   8  26
TORSDOF 6
ENDMDL
MODEL 3
REMARK VINA RESULT:    -7.230      2.763      8.298
REMARK INTER + INTRA:          -8.744
REMARK INTER:                  -8.640
REMARK INTRA:                  -0.104
REMARK UNBOUND:                -0.035
REMARK SMILES O=c1c(O)c(-c2ccc(O)c(O)c2)oc2cc(O)cc(O)c12
REMARK SMILES IDX 5 1 3 2 2 3 1 4 22 5 20 6 19 7 17 8 16 9 15 10 14 11 6 12
REMARK SMILES IDX 7 13 8 14 9 15 13 16 11 17 10 18 12 20 4 22 21 24 18 26
REMARK H PARENT 10 19 12 21 4 23 21 25 18 27
REMARK Flexibility Score: inf
ROOT
ATOM      1  C   UNL     1      26.894  -2.316  16.869  1.00  0.00     0.180 A 
ATOM      2  C   UNL     1      27.877  -1.787  17.725  1.00  0.00     0.208 A 
ATOM      3  C   UNL     1      27.587  -1.652  19.092  1.00  0.00     0.238 A 
ATOM      4  O   UNL     1      28.489  -1.229  19.862  1.00  0.00    -0.285 OA
ATOM      5  C   UNL     1      26.316  -2.032  19.584  1.00  0.00     0.111 A 
ATOM      6  C   UNL     1      25.900  -1.901  20.944  1.00  0.00     0.134 A 
ATOM      7  C   UNL     1      24.667  -2.430  21.344  1.00  0.00     0.093 A 
ATOM      8  C   UNL     1      23.806  -3.027  20.419  1.00  0.00     0.123 A 
ATOM      9  C   UNL     1      24.177  -3.106  19.079  1.00  0.00     0.094 A 
ATOM     10  C   UNL     1      25.416  -2.620  18.656  1.00  0.00     0.146 A 
ATOM     11  O   UNL     1      25.735  -2.724  17.373  1.00  0.00    -0.452 OA
ENDROOT
BRANCH   1  12
ATOM     12  C   UNL     1      27.116  -2.465  15.413  1.00  0.00     0.025 A 
ATOM     13  C   UNL     1      27.419  -1.332  14.641  1.00  0.00     0.016 A 
ATOM     14  C   UNL     1      27.654  -1.453  13.269  1.00  0.00     0.051 A 
ATOM     15  C   UNL     1      27.604  -2.706  12.651  1.00  0.00     0.157 A 
ATOM     16  C   UNL     1      27.088  -3.727  14.794  1.00  0.00     0.062 A 
ATOM     17  C   UNL     1      27.325  -3.850  13.416  1.00  0.00     0.158 A 
BRANCH  15  18
ATOM     18  O   UNL     1      27.840  -2.795  11.279  1.00  0.00    -0.504 OA
ATOM     19  H   UNL     1      28.709  -2.488  10.861  1.00  0.00     0.293 HD
ENDBRANCH  15  18
BRANCH  17  20
ATOM     20  O   UNL     1      27.289  -5.105  12.809  1.00  0.00    -0.504 OA
ATOM     21  H   UNL     1      27.778  -5.899  13.203  1.00  0.00     0.293 HD
ENDBRANCH  17  20
ENDBRANCH   1  12
BRANCH   2  22
ATOM     22  O   UNL     1      29.132  -1.438  17.222  1.00  0.00    -0.502 OA
ATOM     23  H   UNL     1      29.286  -0.601  16.673  1.00  0.00     0.293 HD
ENDBRANCH   2  22
BRANCH   6  24
ATOM     24  O   UNL     1      26.644  -1.242  21.927  1.00  0.00    -0.507 OA
ATOM     25  H   UNL     1      27.082  -1.693  22.716  1.00  0.00     0.293 HD
ENDBRANCH   6  24
BRANCH   8  26
ATOM     26  O   UNL     1      22.574  -3.537  20.822  1.00  0.00    -0.508 OA
ATOM     27  H   UNL     1      22.227  -4.423  20.474  1.00  0.00     0.293 HD
ENDBRANCH   8  26
TORSDOF 6
ENDMDL
MODEL 4
REMARK VINA RESULT:    -7.152      1.507      6.877
REMARK INTER + INTRA:          -8.650
REMARK INTER:                  -8.538
REMARK INTRA:                  -0.112
REMARK UNBOUND:                -0.035
REMARK SMILES O=c1c(O)c(-c2ccc(O)c(O)c2)oc2cc(O)cc(O)c12
REMARK SMILES IDX 5 1 3 2 2 3 1 4 22 5 20 6 19 7 17 8 16 9 15 10 14 11 6 12
REMARK SMILES IDX 7 13 8 14 9 15 13 16 11 17 10 18 12 20 4 22 21 24 18 26
REMARK H PARENT 10 19 12 21 4 23 21 25 18 27
REMARK Flexibility Score: inf
ROOT
ATOM      1  C   UNL     1      27.664  -2.775  12.522  1.00  0.00     0.180 A 
ATOM      2  C   UNL     1      28.040  -1.422  12.577  1.00  0.00     0.208 A 
ATOM      3  C   UNL     1      27.987  -0.751  13.810  1.00  0.00     0.238 A 
ATOM      4  O   UNL     1      28.377   0.445  13.864  1.00  0.00    -0.285 OA
ATOM      5  C   UNL     1      27.545  -1.436  14.967  1.00  0.00     0.111 A 
ATOM      6  C   UNL     1      27.413  -0.844  16.259  1.00  0.00     0.134 A 
ATOM      7  C   UNL     1      27.091  -1.649  17.359  1.00  0.00     0.093 A 
ATOM      8  C   UNL     1      26.832  -3.013  17.201  1.00  0.00     0.123 A 
ATOM      9  C   UNL     1      26.899  -3.588  15.935  1.00  0.00     0.094 A 
ATOM     10  C   UNL     1      27.253  -2.818  14.824  1.00  0.00     0.146 A 
ATOM     11  O   UNL     1      27.317  -3.408  13.637  1.00  0.00    -0.452 OA
ENDROOT
BRANCH   1  12
ATOM     12  C   UNL     1      27.670  -3.542  11.255  1.00  0.00     0.025 A 
ATOM     13  C   UNL     1      28.394  -4.743  11.178  1.00  0.00     0.016 A 
ATOM     14  C   UNL     1      28.396  -5.493  10.000  1.00  0.00     0.051 A 
ATOM     15  C   UNL     1      27.663  -5.066   8.888  1.00  0.00     0.157 A 
ATOM     16  C   UNL     1      26.917  -3.125  10.144  1.00  0.00     0.062 A 
ATOM     17  C   UNL     1      26.916  -3.879   8.960  1.00  0.00     0.158 A 
BRANCH  15  18
ATOM     18  O   UNL     1      27.686  -5.835   7.724  1.00  0.00    -0.504 OA
ATOM     19  H   UNL     1      27.264  -5.517   6.861  1.00  0.00     0.293 HD
ENDBRANCH  15  18
BRANCH  17  20
ATOM     20  O   UNL     1      26.171  -3.455   7.860  1.00  0.00    -0.504 OA
ATOM     21  H   UNL     1      25.316  -3.924   7.586  1.00  0.00     0.293 HD
ENDBRANCH  17  20
ENDBRANCH   1  12
BRANCH   2  22
ATOM     22  O   UNL     1      28.494  -0.771  11.428  1.00  0.00    -0.502 OA
ATOM     23  H   UNL     1      28.488  -1.210  10.516  1.00  0.00     0.293 HD
ENDBRANCH   2  22
BRANCH   6  24
ATOM     24  O   UNL     1      27.560   0.523  16.510  1.00  0.00    -0.507 OA
ATOM     25  H   UNL     1      27.307   1.256  15.864  1.00  0.00     0.293 HD
ENDBRANCH   6  24
BRANCH   8  26
ATOM     26  O   UNL     1      26.496  -3.804  18.298  1.00  0.00    -0.508 OA
ATOM     27  H   UNL     1      25.983  -3.427  19.086  1.00  0.00     0.293 HD
ENDBRANCH   8  26
TORSDOF 6
ENDMDL
MODEL 5
REMARK VINA RESULT:    -7.144      2.218      4.429
REMARK INTER + INTRA:          -8.640
REMARK INTER:                  -8.638
REMARK INTRA:                  -0.003
REMARK UNBOUND:                -0.035
REMARK SMILES O=c1c(O)c(-c2ccc(O)c(O)c2)oc2cc(O)cc(O)c12
REMARK SMILES IDX 5 1 3 2 2 3 1 4 22 5 20 6 19 7 17 8 16 9 15 10 14 11 6 12
REMARK SMILES IDX 7 13 8 14 9 15 13 16 11 17 10 18 12 20 4 22 21 24 18 26
REMARK H PARENT 10 19 12 21 4 23 21 25 18 27
REMARK Flexibility Score: inf
ROOT
ATOM      1  C   UNL     1      28.035  -5.053  10.092  1.00  0.00     0.180 A 
ATOM      2  C   UNL     1      28.453  -6.343  10.464  1.00  0.00     0.208 A 
ATOM      3  C   UNL     1      28.588  -7.327   9.472  1.00  0.00     0.238 A 
ATOM      4  O   UNL     1      29.016  -8.465   9.803  1.00  0.00    -0.285 OA
ATOM      5  C   UNL     1      28.290  -7.015   8.124  1.00  0.00     0.111 A 
ATOM      6  C   UNL     1      28.352  -7.946   7.043  1.00  0.00     0.134 A 
ATOM      7  C   UNL     1      28.161  -7.495   5.731  1.00  0.00     0.093 A 
ATOM      8  C   UNL     1      27.844  -6.160   5.468  1.00  0.00     0.123 A 
ATOM      9  C   UNL     1      27.721  -5.257   6.521  1.00  0.00     0.094 A 
ATOM     10  C   UNL     1      27.942  -5.669   7.838  1.00  0.00     0.146 A 
ATOM     11  O   UNL     1      27.826  -4.774   8.810  1.00  0.00    -0.452 OA
ENDROOT
BRANCH   1  12
ATOM     12  C   UNL     1      27.846  -3.970  11.084  1.00  0.00     0.025 A 
ATOM     13  C   UNL     1      28.362  -2.692  10.818  1.00  0.00     0.016 A 
ATOM     14  C   UNL     1      28.177  -1.650  11.729  1.00  0.00     0.051 A 
ATOM     15  C   UNL     1      27.461  -1.864  12.911  1.00  0.00     0.157 A 
ATOM     16  C   UNL     1      27.108  -4.178  12.262  1.00  0.00     0.062 A 
ATOM     17  C   UNL     1      26.919  -3.132  13.178  1.00  0.00     0.158 A 
BRANCH  15  18
ATOM     18  O   UNL     1      27.294  -0.805  13.804  1.00  0.00    -0.504 OA
ATOM     19  H   UNL     1      26.622  -0.840  14.560  1.00  0.00     0.293 HD
ENDBRANCH  15  18
BRANCH  17  20
ATOM     20  O   UNL     1      26.191  -3.348  14.348  1.00  0.00    -0.504 OA
ATOM     21  H   UNL     1      25.778  -4.248  14.556  1.00  0.00     0.293 HD
ENDBRANCH  17  20
ENDBRANCH   1  12
BRANCH   2  22
ATOM     22  O   UNL     1      28.765  -6.623  11.796  1.00  0.00    -0.502 OA
ATOM     23  H   UNL     1      28.063  -6.641  12.527  1.00  0.00     0.293 HD
ENDBRANCH   2  22
BRANCH   6  24
ATOM     24  O   UNL     1      28.571  -9.317   7.206  1.00  0.00    -0.507 OA
ATOM     25  H   UNL     1      29.478  -9.746   7.307  1.00  0.00     0.293 HD
ENDBRANCH   6  24
BRANCH   8  26
ATOM     26  O   UNL     1      27.639  -5.723   4.161  1.00  0.00    -0.508 OA
ATOM     27  H   UNL     1      28.269  -5.981   3.411  1.00  0.00     0.293 HD
ENDBRANCH   8  26
TORSDOF 6
ENDMDL
MODEL 6
REMARK VINA RESULT:    -7.141      4.355      9.553
REMARK INTER + INTRA:          -8.636
REMARK INTER:                  -8.799
REMARK INTRA:                   0.163
REMARK UNBOUND:                -0.035
REMARK SMILES O=c1c(O)c(-c2ccc(O)c(O)c2)oc2cc(O)cc(O)c12
REMARK SMILES IDX 5 1 3 2 2 3 1 4 22 5 20 6 19 7 17 8 16 9 15 10 14 11 6 12
REMARK SMILES IDX 7 13 8 14 9 15 13 16 11 17 10 18 12 20 4 22 21 24 18 26
REMARK H PARENT 10 19 12 21 4 23 21 25 18 27
REMARK Flexibility Score: inf
ROOT
ATOM      1  C   UNL     1      26.348  -1.825  19.136  1.00  0.00     0.180 A 
ATOM      2  C   UNL     1      26.935  -1.112  20.196  1.00  0.00     0.208 A 
ATOM      3  C   UNL     1      26.418  -1.271  21.492  1.00  0.00     0.238 A 
ATOM      4  O   UNL     1      26.983  -0.672  22.446  1.00  0.00    -0.285 OA
ATOM      5  C   UNL     1      25.313  -2.127  21.710  1.00  0.00     0.111 A 
ATOM      6  C   UNL     1      24.682  -2.331  22.975  1.00  0.00     0.134 A 
ATOM      7  C   UNL     1      23.678  -3.301  23.098  1.00  0.00     0.093 A 
ATOM      8  C   UNL     1      23.238  -4.025  21.987  1.00  0.00     0.123 A 
ATOM      9  C   UNL     1      23.805  -3.790  20.738  1.00  0.00     0.094 A 
ATOM     10  C   UNL     1      24.833  -2.856  20.590  1.00  0.00     0.146 A 
ATOM     11  O   UNL     1      25.354  -2.670  19.384  1.00  0.00    -0.452 OA
ENDROOT
BRANCH   1  12
ATOM     12  C   UNL     1      26.821  -1.691  17.740  1.00  0.00     0.025 A 
ATOM     13  C   UNL     1      27.192  -0.426  17.255  1.00  0.00     0.016 A 
ATOM     14  C   UNL     1      27.662  -0.280  15.947  1.00  0.00     0.051 A 
ATOM     15  C   UNL     1      27.782  -1.394  15.111  1.00  0.00     0.157 A 
ATOM     16  C   UNL     1      26.963  -2.812  16.904  1.00  0.00     0.062 A 
ATOM     17  C   UNL     1      27.437  -2.667  15.591  1.00  0.00     0.158 A 
BRANCH  15  18
ATOM     18  O   UNL     1      28.251  -1.216  13.809  1.00  0.00    -0.504 OA
ATOM     19  H   UNL     1      28.311  -0.302  13.379  1.00  0.00     0.293 HD
ENDBRANCH  15  18
BRANCH  17  20
ATOM     20  O   UNL     1      27.568  -3.784  14.766  1.00  0.00    -0.504 OA
ATOM     21  H   UNL     1      26.761  -4.245  14.365  1.00  0.00     0.293 HD
ENDBRANCH  17  20
ENDBRANCH   1  12
BRANCH   2  22
ATOM     22  O   UNL     1      28.040  -0.290  19.963  1.00  0.00    -0.502 OA
ATOM     23  H   UNL     1      28.727  -0.491  19.247  1.00  0.00     0.293 HD
ENDBRANCH   2  22
BRANCH   6  24
ATOM     24  O   UNL     1      24.983  -1.596  24.124  1.00  0.00    -0.507 OA
ATOM     25  H   UNL     1      25.599  -0.798  24.151  1.00  0.00     0.293 HD
ENDBRANCH   6  24
BRANCH   8  26
ATOM     26  O   UNL     1      22.227  -4.976  22.115  1.00  0.00    -0.508 OA
ATOM     27  H   UNL     1      21.502  -5.076  21.415  1.00  0.00     0.293 HD
ENDBRANCH   8  26
TORSDOF 6
ENDMDL
MODEL 7
REMARK VINA RESULT:    -7.134      2.185      3.474
REMARK INTER + INTRA:          -8.629
REMARK INTER:                  -8.397
REMARK INTRA:                  -0.231
REMARK UNBOUND:                -0.035
REMARK SMILES O=c1c(O)c(-c2ccc(O)c(O)c2)oc2cc(O)cc(O)c12
REMARK SMILES IDX 5 1 3 2 2 3 1 4 22 5 20 6 19 7 17 8 16 9 15 10 14 11 6 12
REMARK SMILES IDX 7 13 8 14 9 15 13 16 11 17 10 18 12 20 4 22 21 24 18 26
REMARK H PARENT 10 19 12 21 4 23 21 25 18 27
REMARK Flexibility Score: inf
ROOT
ATOM      1  C   UNL     1      27.741  -4.247  10.062  1.00  0.00     0.180 A 
ATOM      2  C   UNL     1      27.344  -3.896   8.760  1.00  0.00     0.208 A 
ATOM      3  C   UNL     1      27.501  -4.833   7.725  1.00  0.00     0.238 A 
ATOM      4  O   UNL     1      27.093  -4.533   6.572  1.00  0.00    -0.285 OA
ATOM      5  C   UNL     1      28.066  -6.101   8.002  1.00  0.00     0.111 A 
ATOM      6  C   UNL     1      28.309  -7.111   7.023  1.00  0.00     0.134 A 
ATOM      7  C   UNL     1      28.752  -8.376   7.431  1.00  0.00     0.093 A 
ATOM      8  C   UNL     1      29.022  -8.645   8.775  1.00  0.00     0.123 A 
ATOM      9  C   UNL     1      28.846  -7.647   9.730  1.00  0.00     0.094 A 
ATOM     10  C   UNL     1      28.371  -6.387   9.359  1.00  0.00     0.146 A 
ATOM     11  O   UNL     1      28.207  -5.468  10.302  1.00  0.00    -0.452 OA
ENDROOT
BRANCH   1  12
ATOM     12  C   UNL     1      27.630  -3.305  11.199  1.00  0.00     0.025 A 
ATOM     13  C   UNL     1      26.740  -3.589  12.247  1.00  0.00     0.016 A 
ATOM     14  C   UNL     1      26.635  -2.725  13.340  1.00  0.00     0.051 A 
ATOM     15  C   UNL     1      27.426  -1.575  13.411  1.00  0.00     0.157 A 
ATOM     16  C   UNL     1      28.441  -2.159  11.283  1.00  0.00     0.062 A 
ATOM     17  C   UNL     1      28.338  -1.292  12.381  1.00  0.00     0.158 A 
BRANCH  15  18
ATOM     18  O   UNL     1      27.298  -0.730  14.513  1.00  0.00    -0.504 OA
ATOM     19  H   UNL     1      28.089  -0.237  14.908  1.00  0.00     0.293 HD
ENDBRANCH  15  18
BRANCH  17  20
ATOM     20  O   UNL     1      29.141  -0.154  12.452  1.00  0.00    -0.504 OA
ATOM     21  H   UNL     1      30.147  -0.208  12.347  1.00  0.00     0.293 HD
ENDBRANCH  17  20
ENDBRANCH   1  12
BRANCH   2  22
ATOM     22  O   UNL     1      26.768  -2.648   8.513  1.00  0.00    -0.502 OA
ATOM     23  H   UNL     1      26.921  -1.849   9.117  1.00  0.00     0.293 HD
ENDBRANCH   2  22
BRANCH   6  24
ATOM     24  O   UNL     1      28.158  -6.917   5.648  1.00  0.00    -0.507 OA
ATOM     25  H   UNL     1      28.583  -6.167   5.123  1.00  0.00     0.293 HD
ENDBRANCH   6  24
BRANCH   8  26
ATOM     26  O   UNL     1      29.478  -9.901   9.170  1.00  0.00    -0.508 OA
ATOM     27  H   UNL     1      28.939 -10.488   9.796  1.00  0.00     0.293 HD
ENDBRANCH   8  26
TORSDOF 6
ENDMDL
MODEL 8
REMARK VINA RESULT:    -6.850      5.086      9.051
REMARK INTER + INTRA:          -8.286
REMARK INTER:                  -8.200
REMARK INTRA:                  -0.086
REMARK UNBOUND:                -0.035
REMARK SMILES O=c1c(O)c(-c2ccc(O)c(O)c2)oc2cc(O)cc(O)c12
REMARK SMILES IDX 5 1 3 2 2 3 1 4 22 5 20 6 19 7 17 8 16 9 15 10 14 11 6 12
REMARK SMILES IDX 7 13 8 14 9 15 13 16 11 17 10 18 12 20 4 22 21 24 18 26
REMARK H PARENT 10 19 12 21 4 23 21 25 18 27
REMARK Flexibility Score: inf
ROOT
ATOM      1  C   UNL     1      24.826  -3.723  19.293  1.00  0.00     0.180 A 
ATOM      2  C   UNL     1      23.613  -3.068  19.571  1.00  0.00     0.208 A 
ATOM      3  C   UNL     1      22.617  -3.755  20.284  1.00  0.00     0.238 A 
ATOM      4  O   UNL     1      21.555  -3.145  20.577  1.00  0.00    -0.285 OA
ATOM      5  C   UNL     1      22.839  -5.090  20.697  1.00  0.00     0.111 A 
ATOM      6  C   UNL     1      21.884  -5.894  21.390  1.00  0.00     0.134 A 
ATOM      7  C   UNL     1      22.258  -7.158  21.864  1.00  0.00     0.093 A 
ATOM      8  C   UNL     1      23.533  -7.671  21.612  1.00  0.00     0.123 A 
ATOM      9  C   UNL     1      24.451  -6.920  20.885  1.00  0.00     0.094 A 
ATOM     10  C   UNL     1      24.120  -5.641  20.430  1.00  0.00     0.146 A 
ATOM     11  O   UNL     1      25.028  -4.953  19.751  1.00  0.00    -0.452 OA
ENDROOT
BRANCH   1  12
ATOM     12  C   UNL     1      25.913  -3.074  18.525  1.00  0.00     0.025 A 
ATOM     13  C   UNL     1      26.501  -1.899  19.019  1.00  0.00     0.016 A 
ATOM     14  C   UNL     1      27.543  -1.282  18.322  1.00  0.00     0.051 A 
ATOM     15  C   UNL     1      28.022  -1.836  17.131  1.00  0.00     0.157 A 
ATOM     16  C   UNL     1      26.411  -3.642  17.340  1.00  0.00     0.062 A 
ATOM     17  C   UNL     1      27.458  -3.025  16.639  1.00  0.00     0.158 A 
BRANCH  15  18
ATOM     18  O   UNL     1      29.062  -1.197  16.456  1.00  0.00    -0.504 OA
ATOM     19  H   UNL     1      30.009  -1.186  16.812  1.00  0.00     0.293 HD
ENDBRANCH  15  18
BRANCH  17  20
ATOM     20  O   UNL     1      27.942  -3.591  15.460  1.00  0.00    -0.504 OA
ATOM     21  H   UNL     1      28.738  -4.217  15.460  1.00  0.00     0.293 HD
ENDBRANCH  17  20
ENDBRANCH   1  12
BRANCH   2  22
ATOM     22  O   UNL     1      23.423  -1.743  19.174  1.00  0.00    -0.502 OA
ATOM     23  H   UNL     1      22.633  -1.189  19.484  1.00  0.00     0.293 HD
ENDBRANCH   2  22
BRANCH   6  24
ATOM     24  O   UNL     1      20.558  -5.512  21.612  1.00  0.00    -0.507 OA
ATOM     25  H   UNL     1      20.076  -5.596  22.495  1.00  0.00     0.293 HD
ENDBRANCH   6  24
BRANCH   8  26
ATOM     26  O   UNL     1      23.891  -8.937  22.073  1.00  0.00    -0.508 OA
ATOM     27  H   UNL     1      24.701  -9.074  22.667  1.00  0.00     0.293 HD
ENDBRANCH   8  26
TORSDOF 6
ENDMDL
MODEL 9
REMARK VINA RESULT:    -6.772      7.517     10.794
REMARK INTER + INTRA:          -8.192
REMARK INTER:                  -7.898
REMARK INTRA:                  -0.294
REMARK UNBOUND:                -0.035
REMARK SMILES O=c1c(O)c(-c2ccc(O)c(O)c2)oc2cc(O)cc(O)c12
REMARK SMILES IDX 5 1 3 2 2 3 1 4 22 5 20 6 19 7 17 8 16 9 15 10 14 11 6 12
REMARK SMILES IDX 7 13 8 14 9 15 13 16 11 17 10 18 12 20 4 22 21 24 18 26
REMARK H PARENT 10 19 12 21 4 23 21 25 18 27
REMARK Flexibility Score: inf
ROOT
ATOM      1  C   UNL     1      23.844  -3.806  21.384  1.00  0.00     0.180 A 
ATOM      2  C   UNL     1      24.073  -3.201  22.633  1.00  0.00     0.208 A 
ATOM      3  C   UNL     1      25.042  -2.189  22.731  1.00  0.00     0.238 A 
ATOM      4  O   UNL     1      25.204  -1.614  23.840  1.00  0.00    -0.285 OA
ATOM      5  C   UNL     1      25.780  -1.806  21.587  1.00  0.00     0.111 A 
ATOM      6  C   UNL     1      26.814  -0.822  21.580  1.00  0.00     0.134 A 
ATOM      7  C   UNL     1      27.388  -0.430  20.364  1.00  0.00     0.093 A 
ATOM      8  C   UNL     1      27.011  -1.035  19.163  1.00  0.00     0.123 A 
ATOM      9  C   UNL     1      26.046  -2.039  19.166  1.00  0.00     0.094 A 
ATOM     10  C   UNL     1      25.430  -2.426  20.358  1.00  0.00     0.146 A 
ATOM     11  O   UNL     1      24.507  -3.379  20.316  1.00  0.00    -0.452 OA
ENDROOT
BRANCH   1  12
ATOM     12  C   UNL     1      22.858  -4.895  21.206  1.00  0.00     0.025 A 
ATOM     13  C   UNL     1      23.195  -6.203  21.592  1.00  0.00     0.016 A 
ATOM     14  C   UNL     1      22.273  -7.242  21.453  1.00  0.00     0.051 A 
ATOM     15  C   UNL     1      20.996  -6.990  20.942  1.00  0.00     0.157 A 
ATOM     16  C   UNL     1      21.566  -4.640  20.713  1.00  0.00     0.062 A 
ATOM     17  C   UNL     1      20.637  -5.683  20.575  1.00  0.00     0.158 A 
BRANCH  15  18
ATOM     18  O   UNL     1      20.096  -8.049  20.813  1.00  0.00    -0.504 OA
ATOM     19  H   UNL     1      19.115  -7.899  20.614  1.00  0.00     0.293 HD
ENDBRANCH  15  18
BRANCH  17  20
ATOM     20  O   UNL     1      19.360  -5.422  20.078  1.00  0.00    -0.504 OA
ATOM     21  H   UNL     1      18.576  -6.028  20.289  1.00  0.00     0.293 HD
ENDBRANCH  17  20
ENDBRANCH   1  12
BRANCH   2  22
ATOM     22  O   UNL     1      23.318  -3.578  23.745  1.00  0.00    -0.502 OA
ATOM     23  H   UNL     1      23.721  -3.676  24.669  1.00  0.00     0.293 HD
ENDBRANCH   2  22
BRANCH   6  24
ATOM     24  O   UNL     1      27.328  -0.223  22.734  1.00  0.00    -0.507 OA
ATOM     25  H   UNL     1      26.913   0.568  23.205  1.00  0.00     0.293 HD
ENDBRANCH   6  24
BRANCH   8  26
ATOM     26  O   UNL     1      27.599  -0.651  17.959  1.00  0.00    -0.508 OA
ATOM     27  H   UNL     1      27.847   0.314  17.775  1.00  0.00     0.293 HD
ENDBRANCH   8  26
TORSDOF 6
ENDMDL
