MODEL 1
REMARK VINA RESULT:    -6.180      0.000      0.000
REMARK INTER + INTRA:          -7.977
REMARK INTER:                  -7.625
REMARK INTRA:                  -0.352
REMARK UNBOUND:                -0.352
REMARK SMILES Oc1cc(O)c2cc(O)c(-c3cc(O)c(O)c(O)c3)[o+]c2c1
REMARK SMILES IDX 10 1 20 2 21 3 22 4 2 5 3 6 4 7 6 8 7 9 8 10 11 11 12 12
REMARK SMILES IDX 13 13 19 14 15 15 17 16 14 17 16 19 18 21 9 23 1 25 5 27
REMARK H PARENT 14 18 16 20 18 22 9 24 1 26 5 28
REMARK Flexibility Score: inf
ROOT
ATOM      1  C   UNL     1       2.332  -9.469 -37.454  1.00  0.00     0.402 A 
ATOM      2  O   UNL     1       1.824  -9.461 -38.683  1.00  0.00    -0.202 OA
ATOM      3  C   UNL     1       1.407 -10.558 -39.308  1.00  0.00     0.368 A 
ATOM      4  C   UNL     1       0.884 -10.448 -40.599  1.00  0.00     0.162 A 
ATOM      5  C   UNL     1       0.435 -11.585 -41.278  1.00  0.00     0.128 A 
ATOM      6  C   UNL     1       0.509 -12.837 -40.661  1.00  0.00     0.093 A 
ATOM      7  C   UNL     1       1.028 -12.973 -39.368  1.00  0.00     0.136 A 
ATOM      8  C   UNL     1       1.488 -11.822 -38.676  1.00  0.00     0.125 A 
ATOM      9  C   UNL     1       2.035 -11.866 -37.383  1.00  0.00     0.078 A 
ATOM     10  C   UNL     1       2.471 -10.689 -36.766  1.00  0.00     0.223 A 
ENDROOT
BRANCH   1  11
ATOM     11  C   UNL     1       2.753  -8.179 -36.861  1.00  0.00     0.091 A 
ATOM     12  C   UNL     1       3.933  -7.566 -37.308  1.00  0.00     0.068 A 
ATOM     13  C   UNL     1       4.350  -6.337 -36.785  1.00  0.00     0.162 A 
ATOM     14  C   UNL     1       1.967  -7.524 -35.901  1.00  0.00     0.068 A 
ATOM     15  C   UNL     1       3.563  -5.694 -35.800  1.00  0.00     0.200 A 
ATOM     16  C   UNL     1       2.372  -6.294 -35.369  1.00  0.00     0.162 A 
BRANCH  13  17
ATOM     17  O   UNL     1       5.542  -5.795 -37.272  1.00  0.00    -0.504 OA
ATOM     18  H   UNL     1       6.285  -5.446 -36.685  1.00  0.00     0.293 HD
ENDBRANCH  13  17
BRANCH  15  19
ATOM     19  O   UNL     1       3.925  -4.469 -35.233  1.00  0.00    -0.502 OA
ATOM     20  H   UNL     1       3.322  -3.920 -34.639  1.00  0.00     0.293 HD
ENDBRANCH  15  19
BRANCH  16  21
ATOM     21  O   UNL     1       1.589  -5.654 -34.409  1.00  0.00    -0.504 OA
ATOM     22  H   UNL     1       1.247  -6.143 -33.590  1.00  0.00     0.293 HD
ENDBRANCH  16  21
ENDBRANCH   1  11
BRANCH  10  23
ATOM     23  O   UNL     1       3.060 -10.738 -35.503  1.00  0.00    -0.500 OA
ATOM     24  H   UNL     1       2.855 -11.485 -34.849  1.00  0.00     0.294 HD
ENDBRANCH  10  23
BRANCH   5  25
ATOM     25  O   UNL     1      -0.087 -11.482 -42.565  1.00  0.00    -0.507 OA
ATOM     26  H   UNL     1       0.112 -10.684 -43.156  1.00  0.00     0.293 HD
ENDBRANCH   5  25
BRANCH   7  27
ATOM     27  O   UNL     1       1.064 -14.259 -38.821  1.00  0.00    -0.507 OA
ATOM     28  H   UNL     1       1.173 -14.458 -37.838  1.00  0.00     0.293 HD
ENDBRANCH   7  27
TORSDOF 7
ENDMDL
MODEL 2
REMARK VINA RESULT:    -6.158      2.555      3.954
REMARK INTER + INTRA:          -7.950
REMARK INTER:                  -7.828
REMARK INTRA:                  -0.122
REMARK UNBOUND:                -0.352
REMARK SMILES Oc1cc(O)c2cc(O)c(-c3cc(O)c(O)c(O)c3)[o+]c2c1
REMARK SMILES IDX 10 1 20 2 21 3 22 4 2 5 3 6 4 7 6 8 7 9 8 10 11 11 12 12
REMARK SMILES IDX 13 13 19 14 15 15 17 16 14 17 16 19 18 21 9 23 1 25 5 27
REMARK H PARENT 14 18 16 20 18 22 9 24 1 26 5 28
REMARK Flexibility Score: inf
ROOT
ATOM      1  C   UNL     1       3.065  -6.615 -36.405  1.00  0.00     0.402 A 
ATOM      2  O   UNL     1       2.062  -7.471 -36.228  1.00  0.00    -0.202 OA
ATOM      3  C   UNL     1       2.086  -8.725 -36.668  1.00  0.00     0.368 A 
ATOM      4  C   UNL     1       0.984  -9.550 -36.430  1.00  0.00     0.162 A 
ATOM      5  C   UNL     1       0.985 -10.875 -36.878  1.00  0.00     0.128 A 
ATOM      6  C   UNL     1       2.093 -11.375 -37.566  1.00  0.00     0.093 A 
ATOM      7  C   UNL     1       3.210 -10.569 -37.816  1.00  0.00     0.136 A 
ATOM      8  C   UNL     1       3.213  -9.223 -37.366  1.00  0.00     0.125 A 
ATOM      9  C   UNL     1       4.282  -8.338 -37.582  1.00  0.00     0.078 A 
ATOM     10  C   UNL     1       4.211  -7.023 -37.113  1.00  0.00     0.223 A 
ENDROOT
BRANCH   1  11
ATOM     11  C   UNL     1       2.921  -5.246 -35.860  1.00  0.00     0.091 A 
ATOM     12  C   UNL     1       3.902  -4.741 -34.994  1.00  0.00     0.068 A 
ATOM     13  C   UNL     1       3.809  -3.444 -34.476  1.00  0.00     0.162 A 
ATOM     14  C   UNL     1       1.853  -4.418 -36.236  1.00  0.00     0.068 A 
ATOM     15  C   UNL     1       2.716  -2.623 -34.842  1.00  0.00     0.200 A 
ATOM     16  C   UNL     1       1.747  -3.118 -35.725  1.00  0.00     0.162 A 
BRANCH  13  17
ATOM     17  O   UNL     1       4.818  -3.017 -33.610  1.00  0.00    -0.504 OA
ATOM     18  H   UNL     1       5.673  -3.528 -33.442  1.00  0.00     0.293 HD
ENDBRANCH  13  17
BRANCH  15  19
ATOM     19  O   UNL     1       2.560  -1.322 -34.356  1.00  0.00    -0.502 OA
ATOM     20  H   UNL     1       1.734  -0.759 -34.499  1.00  0.00     0.293 HD
ENDBRANCH  15  19
BRANCH  16  21
ATOM     21  O   UNL     1       0.678  -2.304 -36.098  1.00  0.00    -0.504 OA
ATOM     22  H   UNL     1      -0.239  -2.689 -36.294  1.00  0.00     0.293 HD
ENDBRANCH  16  21
ENDBRANCH   1  11
BRANCH  10  23
ATOM     23  O   UNL     1       5.251  -6.131 -37.370  1.00  0.00    -0.500 OA
ATOM     24  H   UNL     1       5.599  -5.975 -38.309  1.00  0.00     0.294 HD
ENDBRANCH  10  23
BRANCH   5  25
ATOM     25  O   UNL     1      -0.110 -11.703 -36.645  1.00  0.00    -0.507 OA
ATOM     26  H   UNL     1      -0.060 -12.478 -35.995  1.00  0.00     0.293 HD
ENDBRANCH   5  25
BRANCH   7  27
ATOM     27  O   UNL     1       4.280 -11.146 -38.507  1.00  0.00    -0.507 OA
ATOM     28  H   UNL     1       5.159 -10.684 -38.686  1.00  0.00     0.293 HD
ENDBRANCH   7  27
TORSDOF 7
ENDMDL
MODEL 3
REMARK VINA RESULT:    -6.077      2.205      3.209
REMARK INTER + INTRA:          -7.851
REMARK INTER:                  -7.499
REMARK INTRA:                  -0.352
REMARK UNBOUND:                -0.352
REMARK SMILES Oc1cc(O)c2cc(O)c(-c3cc(O)c(O)c(O)c3)[o+]c2c1
REMARK SMILES IDX 10 1 20 2 21 3 22 4 2 5 3 6 4 7 6 8 7 9 8 10 11 11 12 12
REMARK SMILES IDX 13 13 19 14 15 15 17 16 14 17 16 19 18 21 9 23 1 25 5 27
REMARK H PARENT 14 18 16 20 18 22 9 24 1 26 5 28
REMARK Flexibility Score: inf
ROOT
ATOM      1  C   UNL     1       2.582  -7.770 -36.500  1.00  0.00     0.402 A 
ATOM      2  O   UNL     1       1.412  -8.353 -36.249  1.00  0.00    -0.202 OA
ATOM      3  C   UNL     1       1.067  -9.538 -36.740  1.00  0.00     0.368 A 
ATOM      4  C   UNL     1      -0.184 -10.070 -36.417  1.00  0.00     0.162 A 
ATOM      5  C   UNL     1      -0.571 -11.318 -36.917  1.00  0.00     0.128 A 
ATOM      6  C   UNL     1       0.298 -12.035 -37.743  1.00  0.00     0.093 A 
ATOM      7  C   UNL     1       1.557 -11.525 -38.080  1.00  0.00     0.136 A 
ATOM      8  C   UNL     1       1.953 -10.258 -37.578  1.00  0.00     0.125 A 
ATOM      9  C   UNL     1       3.191  -9.662 -37.874  1.00  0.00     0.078 A 
ATOM     10  C   UNL     1       3.509  -8.407 -37.345  1.00  0.00     0.223 A 
ENDROOT
BRANCH   1  11
ATOM     11  C   UNL     1       2.853  -6.450 -35.886  1.00  0.00     0.091 A 
ATOM     12  C   UNL     1       2.210  -5.309 -36.389  1.00  0.00     0.068 A 
ATOM     13  C   UNL     1       2.427  -4.049 -35.820  1.00  0.00     0.162 A 
ATOM     14  C   UNL     1       3.696  -6.321 -34.771  1.00  0.00     0.068 A 
ATOM     15  C   UNL     1       3.297  -3.924 -34.711  1.00  0.00     0.200 A 
ATOM     16  C   UNL     1       3.922  -5.067 -34.192  1.00  0.00     0.162 A 
BRANCH  13  17
ATOM     17  O   UNL     1       1.761  -2.959 -36.384  1.00  0.00    -0.504 OA
ATOM     18  H   UNL     1       0.758  -2.846 -36.381  1.00  0.00     0.293 HD
ENDBRANCH  13  17
BRANCH  15  19
ATOM     19  O   UNL     1       3.562  -2.696 -34.100  1.00  0.00    -0.502 OA
ATOM     20  H   UNL     1       4.118  -2.586 -33.265  1.00  0.00     0.293 HD
ENDBRANCH  15  19
BRANCH  16  21
ATOM     21  O   UNL     1       4.767  -4.946 -33.090  1.00  0.00    -0.504 OA
ATOM     22  H   UNL     1       4.705  -5.581 -32.302  1.00  0.00     0.293 HD
ENDBRANCH  16  21
ENDBRANCH   1  11
BRANCH  10  23
ATOM     23  O   UNL     1       4.716  -7.793 -37.678  1.00  0.00    -0.500 OA
ATOM     24  H   UNL     1       5.608  -8.238 -37.495  1.00  0.00     0.294 HD
ENDBRANCH  10  23
BRANCH   5  25
ATOM     25  O   UNL     1      -1.816 -11.853 -36.600  1.00  0.00    -0.507 OA
ATOM     26  H   UNL     1      -2.067 -12.084 -35.646  1.00  0.00     0.293 HD
ENDBRANCH   5  25
BRANCH   7  27
ATOM     27  O   UNL     1       2.369 -12.306 -38.908  1.00  0.00    -0.507 OA
ATOM     28  H   UNL     1       2.371 -12.258 -39.916  1.00  0.00     0.293 HD
ENDBRANCH   7  27
TORSDOF 7
ENDMDL
MODEL 4
REMARK VINA RESULT:    -6.049      1.873      2.893
REMARK INTER + INTRA:          -7.816
REMARK INTER:                  -7.517
REMARK INTRA:                  -0.299
REMARK UNBOUND:                -0.352
REMARK SMILES Oc1cc(O)c2cc(O)c(-c3cc(O)c(O)c(O)c3)[o+]c2c1
REMARK SMILES IDX 10 1 20 2 21 3 22 4 2 5 3 6 4 7 6 8 7 9 8 10 11 11 12 12
REMARK SMILES IDX 13 13 19 14 15 15 17 16 14 17 16 19 18 21 9 23 1 25 5 27
REMARK H PARENT 14 18 16 20 18 22 9 24 1 26 5 28
REMARK Flexibility Score: inf
ROOT
ATOM      1  C   UNL     1       2.090  -8.957 -37.144  1.00  0.00     0.402 A 
ATOM      2  O   UNL     1       1.165  -9.867 -36.848  1.00  0.00    -0.202 OA
ATOM      3  C   UNL     1       0.951 -10.955 -37.580  1.00  0.00     0.368 A 
ATOM      4  C   UNL     1      -0.043 -11.855 -37.185  1.00  0.00     0.162 A 
ATOM      5  C   UNL     1      -0.287 -13.010 -37.935  1.00  0.00     0.128 A 
ATOM      6  C   UNL     1       0.467 -13.266 -39.083  1.00  0.00     0.093 A 
ATOM      7  C   UNL     1       1.469 -12.380 -39.499  1.00  0.00     0.136 A 
ATOM      8  C   UNL     1       1.718 -11.205 -38.743  1.00  0.00     0.125 A 
ATOM      9  C   UNL     1       2.693 -10.255 -39.091  1.00  0.00     0.078 A 
ATOM     10  C   UNL     1       2.878  -9.118 -38.299  1.00  0.00     0.223 A 
ENDROOT
BRANCH   1  11
ATOM     11  C   UNL     1       2.239  -7.791 -36.244  1.00  0.00     0.091 A 
ATOM     12  C   UNL     1       1.196  -6.858 -36.145  1.00  0.00     0.068 A 
ATOM     13  C   UNL     1       1.294  -5.754 -35.289  1.00  0.00     0.162 A 
ATOM     14  C   UNL     1       3.379  -7.626 -35.443  1.00  0.00     0.068 A 
ATOM     15  C   UNL     1       2.458  -5.584 -34.501  1.00  0.00     0.200 A 
ATOM     16  C   UNL     1       3.491  -6.527 -34.583  1.00  0.00     0.162 A 
BRANCH  13  17
ATOM     17  O   UNL     1       0.220  -4.863 -35.254  1.00  0.00    -0.504 OA
ATOM     18  H   UNL     1      -0.285  -4.620 -34.415  1.00  0.00     0.293 HD
ENDBRANCH  13  17
BRANCH  15  19
ATOM     19  O   UNL     1       2.622  -4.502 -33.632  1.00  0.00    -0.502 OA
ATOM     20  H   UNL     1       2.162  -3.611 -33.743  1.00  0.00     0.293 HD
ENDBRANCH  15  19
BRANCH  16  21
ATOM     21  O   UNL     1       4.630  -6.367 -33.796  1.00  0.00    -0.504 OA
ATOM     22  H   UNL     1       4.909  -5.459 -33.443  1.00  0.00     0.293 HD
ENDBRANCH  16  21
ENDBRANCH   1  11
BRANCH  10  23
ATOM     23  O   UNL     1       3.811  -8.151 -38.671  1.00  0.00    -0.500 OA
ATOM     24  H   UNL     1       4.190  -7.491 -38.002  1.00  0.00     0.294 HD
ENDBRANCH  10  23
BRANCH   5  25
ATOM     25  O   UNL     1      -1.276 -13.910 -37.548  1.00  0.00    -0.507 OA
ATOM     26  H   UNL     1      -2.020 -13.642 -36.914  1.00  0.00     0.293 HD
ENDBRANCH   5  25
BRANCH   7  27
ATOM     27  O   UNL     1       2.181 -12.711 -40.655  1.00  0.00    -0.507 OA
ATOM     28  H   UNL     1       2.928 -12.155 -41.044  1.00  0.00     0.293 HD
ENDBRANCH   7  27
TORSDOF 7
ENDMDL
MODEL 5
REMARK VINA RESULT:    -6.036      2.305      3.960
REMARK INTER + INTRA:          -7.800
REMARK INTER:                  -7.416
REMARK INTRA:                  -0.384
REMARK UNBOUND:                -0.352
REMARK SMILES Oc1cc(O)c2cc(O)c(-c3cc(O)c(O)c(O)c3)[o+]c2c1
REMARK SMILES IDX 10 1 20 2 21 3 22 4 2 5 3 6 4 7 6 8 7 9 8 10 11 11 12 12
REMARK SMILES IDX 13 13 19 14 15 15 17 16 14 17 16 19 18 21 9 23 1 25 5 27
REMARK H PARENT 14 18 16 20 18 22 9 24 1 26 5 28
REMARK Flexibility Score: inf
ROOT
ATOM      1  C   UNL     1       1.953 -11.253 -40.346  1.00  0.00     0.402 A 
ATOM      2  O   UNL     1       0.666 -11.279 -40.681  1.00  0.00    -0.202 OA
ATOM      3  C   UNL     1       0.199 -11.936 -41.738  1.00  0.00     0.368 A 
ATOM      4  C   UNL     1      -1.172 -11.906 -42.006  1.00  0.00     0.162 A 
ATOM      5  C   UNL     1      -1.690 -12.592 -43.109  1.00  0.00     0.128 A 
ATOM      6  C   UNL     1      -0.832 -13.310 -43.946  1.00  0.00     0.093 A 
ATOM      7  C   UNL     1       0.545 -13.356 -43.698  1.00  0.00     0.136 A 
ATOM      8  C   UNL     1       1.076 -12.659 -42.582  1.00  0.00     0.125 A 
ATOM      9  C   UNL     1       2.444 -12.639 -42.263  1.00  0.00     0.078 A 
ATOM     10  C   UNL     1       2.894 -11.925 -41.148  1.00  0.00     0.223 A 
ENDROOT
BRANCH   1  11
ATOM     11  C   UNL     1       2.348 -10.491 -39.138  1.00  0.00     0.091 A 
ATOM     12  C   UNL     1       2.572  -9.110 -39.236  1.00  0.00     0.068 A 
ATOM     13  C   UNL     1       2.926  -8.356 -38.111  1.00  0.00     0.162 A 
ATOM     14  C   UNL     1       2.447 -11.112 -37.884  1.00  0.00     0.068 A 
ATOM     15  C   UNL     1       3.047  -8.993 -36.853  1.00  0.00     0.200 A 
ATOM     16  C   UNL     1       2.801 -10.369 -36.750  1.00  0.00     0.162 A 
BRANCH  13  17
ATOM     17  O   UNL     1       3.145  -6.989 -38.289  1.00  0.00    -0.504 OA
ATOM     18  H   UNL     1       2.942  -6.491 -39.144  1.00  0.00     0.293 HD
ENDBRANCH  13  17
BRANCH  15  19
ATOM     19  O   UNL     1       3.403  -8.301 -35.693  1.00  0.00    -0.502 OA
ATOM     20  H   UNL     1       3.375  -8.697 -34.765  1.00  0.00     0.293 HD
ENDBRANCH  15  19
BRANCH  16  21
ATOM     21  O   UNL     1       2.905 -10.995 -35.508  1.00  0.00    -0.504 OA
ATOM     22  H   UNL     1       2.232 -11.689 -35.206  1.00  0.00     0.293 HD
ENDBRANCH  16  21
ENDBRANCH   1  11
BRANCH  10  23
ATOM     23  O   UNL     1       4.257 -11.863 -40.860  1.00  0.00    -0.500 OA
ATOM     24  H   UNL     1       4.624 -11.234 -40.156  1.00  0.00     0.294 HD
ENDBRANCH  10  23
BRANCH   5  25
ATOM     25  O   UNL     1      -3.055 -12.566 -43.383  1.00  0.00    -0.507 OA
ATOM     26  H   UNL     1      -3.611 -11.733 -43.231  1.00  0.00     0.293 HD
ENDBRANCH   5  25
BRANCH   7  27
ATOM     27  O   UNL     1       1.334 -14.100 -44.581  1.00  0.00    -0.507 OA
ATOM     28  H   UNL     1       1.840 -14.936 -44.328  1.00  0.00     0.293 HD
ENDBRANCH   7  27
TORSDOF 7
ENDMDL
MODEL 6
REMARK VINA RESULT:    -5.958      1.870      7.111
REMARK INTER + INTRA:          -7.704
REMARK INTER:                  -7.624
REMARK INTRA:                  -0.080
REMARK UNBOUND:                -0.352
REMARK SMILES Oc1cc(O)c2cc(O)c(-c3cc(O)c(O)c(O)c3)[o+]c2c1
REMARK SMILES IDX 10 1 20 2 21 3 22 4 2 5 3 6 4 7 6 8 7 9 8 10 11 11 12 12
REMARK SMILES IDX 13 13 19 14 15 15 17 16 14 17 16 19 18 21 9 23 1 25 5 27
REMARK H PARENT 14 18 16 20 18 22 9 24 1 26 5 28
REMARK Flexibility Score: inf
ROOT
ATOM      1  C   UNL     1       2.581  -9.344 -38.797  1.00  0.00     0.402 A 
ATOM      2  O   UNL     1       2.433  -8.041 -39.017  1.00  0.00    -0.202 OA
ATOM      3  C   UNL     1       2.774  -7.108 -38.134  1.00  0.00     0.368 A 
ATOM      4  C   UNL     1       2.583  -5.762 -38.458  1.00  0.00     0.162 A 
ATOM      5  C   UNL     1       2.938  -4.760 -37.548  1.00  0.00     0.128 A 
ATOM      6  C   UNL     1       3.486  -5.107 -36.311  1.00  0.00     0.093 A 
ATOM      7  C   UNL     1       3.688  -6.448 -35.963  1.00  0.00     0.136 A 
ATOM      8  C   UNL     1       3.327  -7.469 -36.881  1.00  0.00     0.125 A 
ATOM      9  C   UNL     1       3.482  -8.839 -36.613  1.00  0.00     0.078 A 
ATOM     10  C   UNL     1       3.099  -9.788 -37.566  1.00  0.00     0.223 A 
ENDROOT
BRANCH   1  11
ATOM     11  C   UNL     1       2.170 -10.286 -39.864  1.00  0.00     0.091 A 
ATOM     12  C   UNL     1       0.936 -10.108 -40.505  1.00  0.00     0.068 A 
ATOM     13  C   UNL     1       0.525 -10.966 -41.531  1.00  0.00     0.162 A 
ATOM     14  C   UNL     1       3.016 -11.321 -40.291  1.00  0.00     0.068 A 
ATOM     15  C   UNL     1       1.374 -12.022 -41.940  1.00  0.00     0.200 A 
ATOM     16  C   UNL     1       2.618 -12.187 -41.316  1.00  0.00     0.162 A 
BRANCH  13  17
ATOM     17  O   UNL     1      -0.723 -10.732 -42.112  1.00  0.00    -0.504 OA
ATOM     18  H   UNL     1      -1.340  -9.979 -41.843  1.00  0.00     0.293 HD
ENDBRANCH  13  17
BRANCH  15  19
ATOM     19  O   UNL     1       1.023 -12.917 -42.953  1.00  0.00    -0.502 OA
ATOM     20  H   UNL     1       0.776 -12.642 -43.893  1.00  0.00     0.293 HD
ENDBRANCH  15  19
BRANCH  16  21
ATOM     21  O   UNL     1       3.462 -13.218 -41.729  1.00  0.00    -0.504 OA
ATOM     22  H   UNL     1       3.499 -14.103 -41.236  1.00  0.00     0.293 HD
ENDBRANCH  16  21
ENDBRANCH   1  11
BRANCH  10  23
ATOM     23  O   UNL     1       3.206 -11.148 -37.281  1.00  0.00    -0.500 OA
ATOM     24  H   UNL     1       2.461 -11.655 -36.816  1.00  0.00     0.294 HD
ENDBRANCH  10  23
BRANCH   5  25
ATOM     25  O   UNL     1       2.750  -3.417 -37.865  1.00  0.00    -0.507 OA
ATOM     26  H   UNL     1       1.825  -3.003 -37.891  1.00  0.00     0.293 HD
ENDBRANCH   5  25
BRANCH   7  27
ATOM     27  O   UNL     1       4.245  -6.711 -34.708  1.00  0.00    -0.507 OA
ATOM     28  H   UNL     1       4.774  -7.540 -34.481  1.00  0.00     0.293 HD
ENDBRANCH   7  27
TORSDOF 7
ENDMDL
MODEL 7
REMARK VINA RESULT:    -5.911      1.770      7.393
REMARK INTER + INTRA:          -7.645
REMARK INTER:                  -7.293
REMARK INTRA:                  -0.352
REMARK UNBOUND:                -0.352
REMARK SMILES Oc1cc(O)c2cc(O)c(-c3cc(O)c(O)c(O)c3)[o+]c2c1
REMARK SMILES IDX 10 1 20 2 21 3 22 4 2 5 3 6 4 7 6 8 7 9 8 10 11 11 12 12
REMARK SMILES IDX 13 13 19 14 15 15 17 16 14 17 16 19 18 21 9 23 1 25 5 27
REMARK H PARENT 14 18 16 20 18 22 9 24 1 26 5 28
REMARK Flexibility Score: inf
ROOT
ATOM      1  C   UNL     1       3.016  -7.524 -37.081  1.00  0.00     0.402 A 
ATOM      2  O   UNL     1       2.001  -7.011 -36.391  1.00  0.00    -0.202 OA
ATOM      3  C   UNL     1       2.079  -5.866 -35.720  1.00  0.00     0.368 A 
ATOM      4  C   UNL     1       0.956  -5.407 -35.027  1.00  0.00     0.162 A 
ATOM      5  C   UNL     1       1.009  -4.203 -34.316  1.00  0.00     0.128 A 
ATOM      6  C   UNL     1       2.190  -3.457 -34.300  1.00  0.00     0.093 A 
ATOM      7  C   UNL     1       3.328  -3.896 -34.987  1.00  0.00     0.136 A 
ATOM      8  C   UNL     1       3.280  -5.118 -35.708  1.00  0.00     0.125 A 
ATOM      9  C   UNL     1       4.376  -5.641 -36.415  1.00  0.00     0.078 A 
ATOM     10  C   UNL     1       4.254  -6.855 -37.098  1.00  0.00     0.223 A 
ENDROOT
BRANCH   1  11
ATOM     11  C   UNL     1       2.802  -8.804 -37.795  1.00  0.00     0.091 A 
ATOM     12  C   UNL     1       3.212 -10.004 -37.198  1.00  0.00     0.068 A 
ATOM     13  C   UNL     1       3.007 -11.234 -37.836  1.00  0.00     0.162 A 
ATOM     14  C   UNL     1       2.144  -8.848 -39.034  1.00  0.00     0.068 A 
ATOM     15  C   UNL     1       2.363 -11.268 -39.096  1.00  0.00     0.200 A 
ATOM     16  C   UNL     1       1.932 -10.070 -39.683  1.00  0.00     0.162 A 
BRANCH  13  17
ATOM     17  O   UNL     1       3.454 -12.385 -37.184  1.00  0.00    -0.504 OA
ATOM     18  H   UNL     1       4.427 -12.621 -37.058  1.00  0.00     0.293 HD
ENDBRANCH  13  17
BRANCH  15  19
ATOM     19  O   UNL     1       2.133 -12.460 -39.788  1.00  0.00    -0.502 OA
ATOM     20  H   UNL     1       2.330 -12.592 -40.769  1.00  0.00     0.293 HD
ENDBRANCH  15  19
BRANCH  16  21
ATOM     21  O   UNL     1       1.285 -10.105 -40.917  1.00  0.00    -0.504 OA
ATOM     22  H   UNL     1       1.581  -9.519 -41.689  1.00  0.00     0.293 HD
ENDBRANCH  16  21
ENDBRANCH   1  11
BRANCH  10  23
ATOM     23  O   UNL     1       5.355  -7.399 -37.758  1.00  0.00    -0.500 OA
ATOM     24  H   UNL     1       5.930  -8.116 -37.332  1.00  0.00     0.294 HD
ENDBRANCH  10  23
BRANCH   5  25
ATOM     25  O   UNL     1      -0.106  -3.740 -33.623  1.00  0.00    -0.507 OA
ATOM     26  H   UNL     1      -1.047  -3.996 -33.898  1.00  0.00     0.293 HD
ENDBRANCH   5  25
BRANCH   7  27
ATOM     27  O   UNL     1       4.469  -3.090 -34.925  1.00  0.00    -0.507 OA
ATOM     28  H   UNL     1       4.888  -2.759 -34.068  1.00  0.00     0.293 HD
ENDBRANCH   7  27
TORSDOF 7
ENDMDL
MODEL 8
REMARK VINA RESULT:    -5.902      1.876      6.900
REMARK INTER + INTRA:          -7.634
REMARK INTER:                  -7.295
REMARK INTRA:                  -0.339
REMARK UNBOUND:                -0.352
REMARK SMILES Oc1cc(O)c2cc(O)c(-c3cc(O)c(O)c(O)c3)[o+]c2c1
REMARK SMILES IDX 10 1 20 2 21 3 22 4 2 5 3 6 4 7 6 8 7 9 8 10 11 11 12 12
REMARK SMILES IDX 13 13 19 14 15 15 17 16 14 17 16 19 18 21 9 23 1 25 5 27
REMARK H PARENT 14 18 16 20 18 22 9 24 1 26 5 28
REMARK Flexibility Score: inf
ROOT
ATOM      1  C   UNL     1       2.583  -8.612 -37.317  1.00  0.00     0.402 A 
ATOM      2  O   UNL     1       2.553  -7.380 -37.819  1.00  0.00    -0.202 OA
ATOM      3  C   UNL     1       2.854  -6.296 -37.111  1.00  0.00     0.368 A 
ATOM      4  C   UNL     1       2.797  -5.044 -37.729  1.00  0.00     0.162 A 
ATOM      5  C   UNL     1       3.113  -3.887 -37.009  1.00  0.00     0.128 A 
ATOM      6  C   UNL     1       3.487  -3.985 -35.667  1.00  0.00     0.093 A 
ATOM      7  C   UNL     1       3.553  -5.228 -35.026  1.00  0.00     0.136 A 
ATOM      8  C   UNL     1       3.231  -6.404 -35.751  1.00  0.00     0.125 A 
ATOM      9  C   UNL     1       3.257  -7.691 -35.187  1.00  0.00     0.078 A 
ATOM     10  C   UNL     1       2.922  -8.804 -35.964  1.00  0.00     0.223 A 
ENDROOT
BRANCH   1  11
ATOM     11  C   UNL     1       2.234  -9.741 -38.209  1.00  0.00     0.091 A 
ATOM     12  C   UNL     1       3.200 -10.249 -39.090  1.00  0.00     0.068 A 
ATOM     13  C   UNL     1       2.912 -11.328 -39.933  1.00  0.00     0.162 A 
ATOM     14  C   UNL     1       0.973 -10.354 -38.154  1.00  0.00     0.068 A 
ATOM     15  C   UNL     1       1.630 -11.926 -39.888  1.00  0.00     0.200 A 
ATOM     16  C   UNL     1       0.671 -11.434 -38.992  1.00  0.00     0.162 A 
BRANCH  13  17
ATOM     17  O   UNL     1       3.922 -11.770 -40.791  1.00  0.00    -0.504 OA
ATOM     18  H   UNL     1       4.647 -11.174 -41.163  1.00  0.00     0.293 HD
ENDBRANCH  13  17
BRANCH  15  19
ATOM     19  O   UNL     1       1.275 -13.002 -40.706  1.00  0.00    -0.502 OA
ATOM     20  H   UNL     1       0.630 -12.936 -41.480  1.00  0.00     0.293 HD
ENDBRANCH  15  19
BRANCH  16  21
ATOM     21  O   UNL     1      -0.587 -12.033 -38.937  1.00  0.00    -0.504 OA
ATOM     22  H   UNL     1      -1.124 -12.061 -38.078  1.00  0.00     0.293 HD
ENDBRANCH  16  21
ENDBRANCH   1  11
BRANCH  10  23
ATOM     23  O   UNL     1       2.899 -10.075 -35.392  1.00  0.00    -0.500 OA
ATOM     24  H   UNL     1       2.852 -10.207 -34.388  1.00  0.00     0.294 HD
ENDBRANCH  10  23
BRANCH   5  25
ATOM     25  O   UNL     1       3.057  -2.636 -37.618  1.00  0.00    -0.507 OA
ATOM     26  H   UNL     1       3.344  -1.796 -37.130  1.00  0.00     0.293 HD
ENDBRANCH   5  25
BRANCH   7  27
ATOM     27  O   UNL     1       3.940  -5.240 -33.682  1.00  0.00    -0.507 OA
ATOM     28  H   UNL     1       3.439  -5.717 -32.948  1.00  0.00     0.293 HD
ENDBRANCH   7  27
TORSDOF 7
ENDMDL
MODEL 9
REMARK VINA RESULT:    -5.899      2.193      7.321
REMARK INTER + INTRA:          -7.631
REMARK INTER:                  -7.399
REMARK INTRA:                  -0.232
REMARK UNBOUND:                -0.352
REMARK SMILES Oc1cc(O)c2cc(O)c(-c3cc(O)c(O)c(O)c3)[o+]c2c1
REMARK SMILES IDX 10 1 20 2 21 3 22 4 2 5 3 6 4 7 6 8 7 9 8 10 11 11 12 12
REMARK SMILES IDX 13 13 19 14 15 15 17 16 14 17 16 19 18 21 9 23 1 25 5 27
REMARK H PARENT 14 18 16 20 18 22 9 24 1 26 5 28
REMARK Flexibility Score: inf
ROOT
ATOM      1  C   UNL     1       1.318  -8.428 -36.815  1.00  0.00     0.402 A 
ATOM      2  O   UNL     1       2.361  -8.030 -36.090  1.00  0.00    -0.202 OA
ATOM      3  C   UNL     1       2.392  -6.879 -35.426  1.00  0.00     0.368 A 
ATOM      4  C   UNL     1       3.533  -6.551 -34.690  1.00  0.00     0.162 A 
ATOM      5  C   UNL     1       3.592  -5.348 -33.978  1.00  0.00     0.128 A 
ATOM      6  C   UNL     1       2.504  -4.471 -34.005  1.00  0.00     0.093 A 
ATOM      7  C   UNL     1       1.349  -4.778 -34.735  1.00  0.00     0.136 A 
ATOM      8  C   UNL     1       1.286  -5.996 -35.461  1.00  0.00     0.125 A 
ATOM      9  C   UNL     1       0.175  -6.381 -36.230  1.00  0.00     0.078 A 
ATOM     10  C   UNL     1       0.188  -7.596 -36.922  1.00  0.00     0.223 A 
ENDROOT
BRANCH   1  11
ATOM     11  C   UNL     1       1.400  -9.737 -37.502  1.00  0.00     0.091 A 
ATOM     12  C   UNL     1       2.421  -9.964 -38.436  1.00  0.00     0.068 A 
ATOM     13  C   UNL     1       2.542 -11.196 -39.089  1.00  0.00     0.162 A 
ATOM     14  C   UNL     1       0.512 -10.779 -37.196  1.00  0.00     0.068 A 
ATOM     15  C   UNL     1       1.627 -12.235 -38.792  1.00  0.00     0.200 A 
ATOM     16  C   UNL     1       0.620 -12.017 -37.842  1.00  0.00     0.162 A 
BRANCH  13  17
ATOM     17  O   UNL     1       3.577 -11.342 -40.015  1.00  0.00    -0.504 OA
ATOM     18  H   UNL     1       3.829 -12.219 -40.447  1.00  0.00     0.293 HD
ENDBRANCH  13  17
BRANCH  15  19
ATOM     19  O   UNL     1       1.687 -13.486 -39.412  1.00  0.00    -0.502 OA
ATOM     20  H   UNL     1       0.938 -14.162 -39.398  1.00  0.00     0.293 HD
ENDBRANCH  15  19
BRANCH  16  21
ATOM     21  O   UNL     1      -0.271 -13.046 -37.539  1.00  0.00    -0.504 OA
ATOM     22  H   UNL     1      -0.707 -13.602 -38.265  1.00  0.00     0.293 HD
ENDBRANCH  16  21
ENDBRANCH   1  11
BRANCH  10  23
ATOM     23  O   UNL     1      -0.894  -7.954 -37.725  1.00  0.00    -0.500 OA
ATOM     24  H   UNL     1      -1.669  -8.497 -37.363  1.00  0.00     0.294 HD
ENDBRANCH  10  23
BRANCH   5  25
ATOM     25  O   UNL     1       4.725  -5.014 -33.243  1.00  0.00    -0.507 OA
ATOM     26  H   UNL     1       5.042  -4.055 -33.162  1.00  0.00     0.293 HD
ENDBRANCH   5  25
BRANCH   7  27
ATOM     27  O   UNL     1       0.304  -3.850 -34.707  1.00  0.00    -0.507 OA
ATOM     28  H   UNL     1       0.285  -2.995 -35.242  1.00  0.00     0.293 HD
ENDBRANCH   7  27
TORSDOF 7
ENDMDL
