MODEL 1
REMARK VINA RESULT:    -5.796      0.000      0.000
REMARK INTER + INTRA:         -16.756
REMARK INTER:                 -13.250
REMARK INTRA:                  -3.507
REMARK UNBOUND:                -3.507
REMARK SMILES CCCCCCCCCCCCCCCCCCCCCCCC(=O)[O-]
REMARK SMILES IDX 13 1 14 2 15 3 16 4 17 5 18 6 19 7 20 8 21 9 22 10 23 11
REMARK SMILES IDX 24 12 25 13 26 14 12 15 11 16 10 17 9 18 8 19 7 20 6 21 5 22
REMARK SMILES IDX 4 23 3 24 2 25 1 26
REMARK H PARENT
REMARK Flexibility Score: inf
ROOT
ATOM      1  C   UNL     1      -3.201 -33.019 -50.718  1.00  0.00     0.000 C 
ENDROOT
BRANCH   1   2
ATOM      2  C   UNL     1      -2.319 -33.876 -51.646  1.00  0.00     0.000 C 
BRANCH   2   3
ATOM      3  C   UNL     1      -1.894 -33.183 -52.954  1.00  0.00     0.000 C 
BRANCH   3   4
ATOM      4  C   UNL     1      -0.372 -33.004 -53.137  1.00  0.00     0.000 C 
BRANCH   4   5
ATOM      5  C   UNL     1       0.119 -31.546 -53.194  1.00  0.00     0.000 C 
BRANCH   5   6
ATOM      6  C   UNL     1       0.576 -31.014 -51.826  1.00  0.00     0.000 C 
BRANCH   6   7
ATOM      7  C   UNL     1      -0.397 -29.980 -51.231  1.00  0.00     0.000 C 
BRANCH   7   8
ATOM      8  C   UNL     1      -1.314 -29.278 -52.252  1.00  0.00     0.000 C 
BRANCH   8   9
ATOM      9  C   UNL     1      -0.647 -28.151 -53.066  1.00  0.00     0.000 C 
BRANCH   9  10
ATOM     10  C   UNL     1      -0.691 -26.761 -52.407  1.00  0.00     0.006 C 
BRANCH  10  11
ATOM     11  C   UNL     1       0.384 -25.810 -52.949  1.00  0.00     0.053 C 
BRANCH  11  12
ATOM     12  C   UNL     1       0.680 -24.734 -51.954  1.00  0.00     0.041 C 
ATOM     13  O   UNL     1      -0.216 -24.341 -51.161  1.00  0.00    -0.550 OA
ATOM     14  O   UNL     1       1.930 -24.127 -51.937  1.00  0.00    -0.550 OA
ENDBRANCH  11  12
ENDBRANCH  10  11
ENDBRANCH   9  10
ENDBRANCH   8   9
ENDBRANCH   7   8
ENDBRANCH   6   7
ENDBRANCH   5   6
ENDBRANCH   4   5
ENDBRANCH   3   4
ENDBRANCH   2   3
ENDBRANCH   1   2
BRANCH   1  15
ATOM     15  C   UNL     1      -3.890 -31.838 -51.433  1.00  0.00     0.000 C 
BRANCH  15  16
ATOM     16  C   UNL     1      -5.325 -32.172 -51.877  1.00  0.00     0.000 C 
BRANCH  16  17
ATOM     17  C   UNL     1      -5.558 -31.899 -53.372  1.00  0.00     0.000 C 
BRANCH  17  18
ATOM     18  C   UNL     1      -4.633 -30.798 -53.918  1.00  0.00    -0.000 C 
BRANCH  18  19
ATOM     19  C   UNL     1      -5.364 -29.466 -54.150  1.00  0.00    -0.000 C 
BRANCH  19  20
ATOM     20  C   UNL     1      -4.634 -28.266 -53.518  1.00  0.00    -0.000 C 
BRANCH  20  21
ATOM     21  C   UNL     1      -5.443 -27.624 -52.379  1.00  0.00    -0.000 C 
BRANCH  21  22
ATOM     22  C   UNL     1      -5.264 -28.364 -51.042  1.00  0.00    -0.000 C 
BRANCH  22  23
ATOM     23  C   UNL     1      -6.575 -28.980 -50.520  1.00  0.00    -0.000 C 
BRANCH  23  24
ATOM     24  C   UNL     1      -6.441 -29.802 -49.222  1.00  0.00    -0.000 C 
BRANCH  24  25
ATOM     25  C   UNL     1      -7.415 -30.986 -49.099  1.00  0.00    -0.003 C 
ATOM     26  C   UNL     1      -8.699 -30.628 -48.352  1.00  0.00     0.004 C 
ENDBRANCH  24  25
ENDBRANCH  23  24
ENDBRANCH  22  23
ENDBRANCH  21  22
ENDBRANCH  20  21
ENDBRANCH  19  20
ENDBRANCH  18  19
ENDBRANCH  17  18
ENDBRANCH  16  17
ENDBRANCH  15  16
ENDBRANCH   1  15
TORSDOF 22
ENDMDL
MODEL 2
REMARK VINA RESULT:    -5.654      3.034      6.806
REMARK INTER + INTRA:         -16.433
REMARK INTER:                 -13.065
REMARK INTRA:                  -3.368
REMARK UNBOUND:                -3.507
REMARK SMILES CCCCCCCCCCCCCCCCCCCCCCCC(=O)[O-]
REMARK SMILES IDX 13 1 14 2 15 3 16 4 17 5 18 6 19 7 20 8 21 9 22 10 23 11
REMARK SMILES IDX 24 12 25 13 26 14 12 15 11 16 10 17 9 18 8 19 7 20 6 21 5 22
REMARK SMILES IDX 4 23 3 24 2 25 1 26
REMARK H PARENT
REMARK Flexibility Score: inf
ROOT
ATOM      1  C   UNL     1      -2.306 -33.655 -51.555  1.00  0.00     0.000 C 
ENDROOT
BRANCH   1   2
ATOM      2  C   UNL     1      -3.707 -33.149 -51.162  1.00  0.00     0.000 C 
BRANCH   2   3
ATOM      3  C   UNL     1      -4.032 -31.718 -51.631  1.00  0.00     0.000 C 
BRANCH   3   4
ATOM      4  C   UNL     1      -5.100 -31.618 -52.741  1.00  0.00     0.000 C 
BRANCH   4   5
ATOM      5  C   UNL     1      -4.687 -30.807 -53.982  1.00  0.00     0.000 C 
BRANCH   5   6
ATOM      6  C   UNL     1      -5.655 -29.653 -54.293  1.00  0.00     0.000 C 
BRANCH   6   7
ATOM      7  C   UNL     1      -5.071 -28.272 -53.944  1.00  0.00     0.000 C 
BRANCH   7   8
ATOM      8  C   UNL     1      -5.695 -27.587 -52.713  1.00  0.00     0.000 C 
BRANCH   8   9
ATOM      9  C   UNL     1      -5.372 -28.252 -51.359  1.00  0.00     0.000 C 
BRANCH   9  10
ATOM     10  C   UNL     1      -6.365 -27.933 -50.227  1.00  0.00     0.006 C 
BRANCH  10  11
ATOM     11  C   UNL     1      -6.298 -28.943 -49.073  1.00  0.00     0.053 C 
BRANCH  11  12
ATOM     12  C   UNL     1      -7.325 -30.014 -49.256  1.00  0.00     0.041 C 
ATOM     13  O   UNL     1      -7.124 -30.952 -50.073  1.00  0.00    -0.550 OA
ATOM     14  O   UNL     1      -8.528 -29.950 -48.563  1.00  0.00    -0.550 OA
ENDBRANCH  11  12
ENDBRANCH  10  11
ENDBRANCH   9  10
ENDBRANCH   8   9
ENDBRANCH   7   8
ENDBRANCH   6   7
ENDBRANCH   5   6
ENDBRANCH   4   5
ENDBRANCH   3   4
ENDBRANCH   2   3
ENDBRANCH   1   2
BRANCH   1  15
ATOM     15  C   UNL     1      -1.888 -33.273 -52.991  1.00  0.00     0.000 C 
BRANCH  15  16
ATOM     16  C   UNL     1      -0.373 -33.034 -53.121  1.00  0.00     0.000 C 
BRANCH  16  17
ATOM     17  C   UNL     1      -0.014 -31.539 -53.161  1.00  0.00     0.000 C 
BRANCH  17  18
ATOM     18  C   UNL     1       0.393 -30.996 -51.780  1.00  0.00    -0.000 C 
BRANCH  18  19
ATOM     19  C   UNL     1      -0.415 -29.757 -51.364  1.00  0.00    -0.000 C 
BRANCH  19  20
ATOM     20  C   UNL     1      -1.518 -29.396 -52.377  1.00  0.00    -0.000 C 
BRANCH  20  21
ATOM     21  C   UNL     1      -1.755 -27.880 -52.468  1.00  0.00    -0.000 C 
BRANCH  21  22
ATOM     22  C   UNL     1      -1.323 -27.297 -53.825  1.00  0.00    -0.000 C 
BRANCH  22  23
ATOM     23  C   UNL     1       0.202 -27.326 -54.029  1.00  0.00    -0.000 C 
BRANCH  23  24
ATOM     24  C   UNL     1       0.956 -26.085 -53.508  1.00  0.00    -0.000 C 
BRANCH  24  25
ATOM     25  C   UNL     1       0.065 -24.878 -53.170  1.00  0.00    -0.003 C 
ATOM     26  C   UNL     1       0.075 -24.526 -51.683  1.00  0.00     0.004 C 
ENDBRANCH  24  25
ENDBRANCH  23  24
ENDBRANCH  22  23
ENDBRANCH  21  22
ENDBRANCH  20  21
ENDBRANCH  19  20
ENDBRANCH  18  19
ENDBRANCH  17  18
ENDBRANCH  16  17
ENDBRANCH  15  16
ENDBRANCH   1  15
TORSDOF 22
ENDMDL
MODEL 3
REMARK VINA RESULT:    -5.652      3.421      6.969
REMARK INTER + INTRA:         -16.427
REMARK INTER:                 -13.290
REMARK INTRA:                  -3.138
REMARK UNBOUND:                -3.507
REMARK SMILES CCCCCCCCCCCCCCCCCCCCCCCC(=O)[O-]
REMARK SMILES IDX 13 1 14 2 15 3 16 4 17 5 18 6 19 7 20 8 21 9 22 10 23 11
REMARK SMILES IDX 24 12 25 13 26 14 12 15 11 16 10 17 9 18 8 19 7 20 6 21 5 22
REMARK SMILES IDX 4 23 3 24 2 25 1 26
REMARK H PARENT
REMARK Flexibility Score: inf
ROOT
ATOM      1  C   UNL     1      -1.373 -28.698 -52.337  1.00  0.00     0.000 C 
ENDROOT
BRANCH   1   2
ATOM      2  C   UNL     1      -0.988 -27.332 -52.937  1.00  0.00     0.000 C 
BRANCH   2   3
ATOM      3  C   UNL     1      -2.082 -26.674 -53.799  1.00  0.00     0.000 C 
BRANCH   3   4
ATOM      4  C   UNL     1      -3.462 -27.363 -53.746  1.00  0.00     0.000 C 
BRANCH   4   5
ATOM      5  C   UNL     1      -4.672 -26.431 -53.945  1.00  0.00     0.000 C 
BRANCH   5   6
ATOM      6  C   UNL     1      -5.794 -26.682 -52.925  1.00  0.00     0.000 C 
BRANCH   6   7
ATOM      7  C   UNL     1      -5.418 -27.737 -51.869  1.00  0.00     0.000 C 
BRANCH   7   8
ATOM      8  C   UNL     1      -6.507 -28.029 -50.817  1.00  0.00     0.000 C 
BRANCH   8   9
ATOM      9  C   UNL     1      -6.135 -27.658 -49.367  1.00  0.00     0.000 C 
BRANCH   9  10
ATOM     10  C   UNL     1      -6.503 -28.717 -48.312  1.00  0.00     0.006 C 
BRANCH  10  11
ATOM     11  C   UNL     1      -6.389 -30.152 -48.843  1.00  0.00     0.053 C 
BRANCH  11  12
ATOM     12  C   UNL     1      -7.745 -30.764 -48.990  1.00  0.00     0.041 C 
ATOM     13  O   UNL     1      -7.887 -31.848 -49.617  1.00  0.00    -0.550 OA
ATOM     14  O   UNL     1      -8.862 -30.112 -48.480  1.00  0.00    -0.550 OA
ENDBRANCH  11  12
ENDBRANCH  10  11
ENDBRANCH   9  10
ENDBRANCH   8   9
ENDBRANCH   7   8
ENDBRANCH   6   7
ENDBRANCH   5   6
ENDBRANCH   4   5
ENDBRANCH   3   4
ENDBRANCH   2   3
ENDBRANCH   1   2
BRANCH   1  15
ATOM     15  C   UNL     1      -0.414 -29.180 -51.227  1.00  0.00     0.000 C 
BRANCH  15  16
ATOM     16  C   UNL     1      -0.046 -30.667 -51.370  1.00  0.00     0.000 C 
BRANCH  16  17
ATOM     17  C   UNL     1       0.664 -30.972 -52.700  1.00  0.00     0.000 C 
BRANCH  17  18
ATOM     18  C   UNL     1      -0.224 -31.770 -53.671  1.00  0.00    -0.000 C 
BRANCH  18  19
ATOM     19  C   UNL     1      -0.472 -33.212 -53.202  1.00  0.00    -0.000 C 
BRANCH  19  20
ATOM     20  C   UNL     1      -1.949 -33.483 -52.862  1.00  0.00    -0.000 C 
BRANCH  20  21
ATOM     21  C   UNL     1      -2.187 -33.610 -51.348  1.00  0.00    -0.000 C 
BRANCH  21  22
ATOM     22  C   UNL     1      -3.377 -32.762 -50.867  1.00  0.00    -0.000 C 
BRANCH  22  23
ATOM     23  C   UNL     1      -3.732 -31.624 -51.841  1.00  0.00    -0.000 C 
BRANCH  23  24
ATOM     24  C   UNL     1      -5.233 -31.486 -52.168  1.00  0.00    -0.000 C 
BRANCH  24  25
ATOM     25  C   UNL     1      -5.580 -31.547 -53.665  1.00  0.00    -0.003 C 
ATOM     26  C   UNL     1      -5.208 -30.269 -54.417  1.00  0.00     0.004 C 
ENDBRANCH  24  25
ENDBRANCH  23  24
ENDBRANCH  22  23
ENDBRANCH  21  22
ENDBRANCH  20  21
ENDBRANCH  19  20
ENDBRANCH  18  19
ENDBRANCH  17  18
ENDBRANCH  16  17
ENDBRANCH  15  16
ENDBRANCH   1  15
TORSDOF 22
ENDMDL
MODEL 4
REMARK VINA RESULT:    -5.454      2.952      6.354
REMARK INTER + INTRA:         -15.974
REMARK INTER:                 -12.630
REMARK INTRA:                  -3.345
REMARK UNBOUND:                -3.507
REMARK SMILES CCCCCCCCCCCCCCCCCCCCCCCC(=O)[O-]
REMARK SMILES IDX 13 1 14 2 15 3 16 4 17 5 18 6 19 7 20 8 21 9 22 10 23 11
REMARK SMILES IDX 24 12 25 13 26 14 12 15 11 16 10 17 9 18 8 19 7 20 6 21 5 22
REMARK SMILES IDX 4 23 3 24 2 25 1 26
REMARK H PARENT
REMARK Flexibility Score: inf
ROOT
ATOM      1  C   UNL     1      -2.312 -33.417 -51.889  1.00  0.00     0.000 C 
ENDROOT
BRANCH   1   2
ATOM      2  C   UNL     1      -3.182 -32.187 -51.567  1.00  0.00     0.000 C 
BRANCH   2   3
ATOM      3  C   UNL     1      -4.649 -32.506 -51.224  1.00  0.00     0.000 C 
BRANCH   3   4
ATOM      4  C   UNL     1      -5.668 -32.184 -52.337  1.00  0.00     0.000 C 
BRANCH   4   5
ATOM      5  C   UNL     1      -5.060 -31.724 -53.675  1.00  0.00     0.000 C 
BRANCH   5   6
ATOM      6  C   UNL     1      -5.454 -30.285 -54.047  1.00  0.00     0.000 C 
BRANCH   6   7
ATOM      7  C   UNL     1      -4.325 -29.270 -53.787  1.00  0.00     0.000 C 
BRANCH   7   8
ATOM      8  C   UNL     1      -4.362 -28.588 -52.405  1.00  0.00     0.000 C 
BRANCH   8   9
ATOM      9  C   UNL     1      -5.520 -27.591 -52.196  1.00  0.00     0.000 C 
BRANCH   9  10
ATOM     10  C   UNL     1      -6.289 -27.758 -50.873  1.00  0.00     0.006 C 
BRANCH  10  11
ATOM     11  C   UNL     1      -6.047 -29.121 -50.212  1.00  0.00     0.053 C 
BRANCH  11  12
ATOM     12  C   UNL     1      -6.788 -29.212 -48.916  1.00  0.00     0.041 C 
ATOM     13  O   UNL     1      -6.288 -28.730 -47.865  1.00  0.00    -0.550 OA
ATOM     14  O   UNL     1      -8.008 -29.875 -48.858  1.00  0.00    -0.550 OA
ENDBRANCH  11  12
ENDBRANCH  10  11
ENDBRANCH   9  10
ENDBRANCH   8   9
ENDBRANCH   7   8
ENDBRANCH   6   7
ENDBRANCH   5   6
ENDBRANCH   4   5
ENDBRANCH   3   4
ENDBRANCH   2   3
ENDBRANCH   1   2
BRANCH   1  15
ATOM     15  C   UNL     1      -1.491 -33.274 -53.189  1.00  0.00     0.000 C 
BRANCH  15  16
ATOM     16  C   UNL     1      -0.050 -32.800 -52.928  1.00  0.00     0.000 C 
BRANCH  16  17
ATOM     17  C   UNL     1       0.078 -31.268 -52.950  1.00  0.00     0.000 C 
BRANCH  17  18
ATOM     18  C   UNL     1       0.102 -30.660 -51.537  1.00  0.00    -0.000 C 
BRANCH  18  19
ATOM     19  C   UNL     1      -0.617 -29.304 -51.459  1.00  0.00    -0.000 C 
BRANCH  19  20
ATOM     20  C   UNL     1      -0.720 -28.603 -52.827  1.00  0.00    -0.000 C 
BRANCH  20  21
ATOM     21  C   UNL     1      -0.010 -27.239 -52.839  1.00  0.00    -0.000 C 
BRANCH  21  22
ATOM     22  C   UNL     1      -0.994 -26.066 -52.996  1.00  0.00    -0.000 C 
BRANCH  22  23
ATOM     23  C   UNL     1      -1.644 -26.014 -54.391  1.00  0.00    -0.000 C 
BRANCH  23  24
ATOM     24  C   UNL     1      -3.155 -25.707 -54.398  1.00  0.00    -0.000 C 
BRANCH  24  25
ATOM     25  C   UNL     1      -3.514 -24.211 -54.358  1.00  0.00    -0.003 C 
ATOM     26  C   UNL     1      -5.020 -23.957 -54.418  1.00  0.00     0.004 C 
ENDBRANCH  24  25
ENDBRANCH  23  24
ENDBRANCH  22  23
ENDBRANCH  21  22
ENDBRANCH  20  21
ENDBRANCH  19  20
ENDBRANCH  18  19
ENDBRANCH  17  18
ENDBRANCH  16  17
ENDBRANCH  15  16
ENDBRANCH   1  15
TORSDOF 22
ENDMDL
MODEL 5
REMARK VINA RESULT:    -5.439      3.011      6.920
REMARK INTER + INTRA:         -15.941
REMARK INTER:                 -13.120
REMARK INTRA:                  -2.821
REMARK UNBOUND:                -3.507
REMARK SMILES CCCCCCCCCCCCCCCCCCCCCCCC(=O)[O-]
REMARK SMILES IDX 13 1 14 2 15 3 16 4 17 5 18 6 19 7 20 8 21 9 22 10 23 11
REMARK SMILES IDX 24 12 25 13 26 14 12 15 11 16 10 17 9 18 8 19 7 20 6 21 5 22
REMARK SMILES IDX 4 23 3 24 2 25 1 26
REMARK H PARENT
REMARK Flexibility Score: inf
ROOT
ATOM      1  C   UNL     1      -3.905 -32.935 -50.958  1.00  0.00     0.000 C 
ENDROOT
BRANCH   1   2
ATOM      2  C   UNL     1      -5.040 -32.328 -51.805  1.00  0.00     0.000 C 
BRANCH   2   3
ATOM      3  C   UNL     1      -4.662 -31.046 -52.569  1.00  0.00     0.000 C 
BRANCH   3   4
ATOM      4  C   UNL     1      -5.511 -30.755 -53.824  1.00  0.00     0.000 C 
BRANCH   4   5
ATOM      5  C   UNL     1      -5.554 -29.281 -54.264  1.00  0.00     0.000 C 
BRANCH   5   6
ATOM      6  C   UNL     1      -4.285 -28.504 -53.878  1.00  0.00     0.000 C 
BRANCH   6   7
ATOM      7  C   UNL     1      -4.585 -27.245 -53.043  1.00  0.00     0.000 C 
BRANCH   7   8
ATOM      8  C   UNL     1      -5.827 -27.341 -52.136  1.00  0.00     0.000 C 
BRANCH   8   9
ATOM      9  C   UNL     1      -5.641 -28.181 -50.856  1.00  0.00     0.000 C 
BRANCH   9  10
ATOM     10  C   UNL     1      -6.372 -27.641 -49.613  1.00  0.00     0.006 C 
BRANCH  10  11
ATOM     11  C   UNL     1      -6.334 -28.615 -48.429  1.00  0.00     0.053 C 
BRANCH  11  12
ATOM     12  C   UNL     1      -7.022 -29.895 -48.783  1.00  0.00     0.041 C 
ATOM     13  O   UNL     1      -8.265 -29.909 -48.994  1.00  0.00    -0.550 OA
ATOM     14  O   UNL     1      -6.303 -31.082 -48.828  1.00  0.00    -0.550 OA
ENDBRANCH  11  12
ENDBRANCH  10  11
ENDBRANCH   9  10
ENDBRANCH   8   9
ENDBRANCH   7   8
ENDBRANCH   6   7
ENDBRANCH   5   6
ENDBRANCH   4   5
ENDBRANCH   3   4
ENDBRANCH   2   3
ENDBRANCH   1   2
BRANCH   1  15
ATOM     15  C   UNL     1      -2.492 -32.595 -51.480  1.00  0.00     0.000 C 
BRANCH  15  16
ATOM     16  C   UNL     1      -2.031 -33.548 -52.597  1.00  0.00     0.000 C 
BRANCH  16  17
ATOM     17  C   UNL     1      -1.005 -32.897 -53.539  1.00  0.00     0.000 C 
BRANCH  17  18
ATOM     18  C   UNL     1       0.379 -32.744 -52.884  1.00  0.00    -0.000 C 
BRANCH  18  19
ATOM     19  C   UNL     1       0.830 -31.278 -52.779  1.00  0.00    -0.000 C 
BRANCH  19  20
ATOM     20  C   UNL     1       0.651 -30.699 -51.364  1.00  0.00    -0.000 C 
BRANCH  20  21
ATOM     21  C   UNL     1      -0.405 -29.581 -51.319  1.00  0.00    -0.000 C 
BRANCH  21  22
ATOM     22  C   UNL     1      -0.892 -29.176 -52.721  1.00  0.00    -0.000 C 
BRANCH  22  23
ATOM     23  C   UNL     1      -0.647 -27.689 -53.032  1.00  0.00    -0.000 C 
BRANCH  23  24
ATOM     24  C   UNL     1       0.165 -27.413 -54.314  1.00  0.00    -0.000 C 
BRANCH  24  25
ATOM     25  C   UNL     1       1.468 -26.623 -54.101  1.00  0.00    -0.003 C 
ATOM     26  C   UNL     1       1.229 -25.214 -53.557  1.00  0.00     0.004 C 
ENDBRANCH  24  25
ENDBRANCH  23  24
ENDBRANCH  22  23
ENDBRANCH  21  22
ENDBRANCH  20  21
ENDBRANCH  19  20
ENDBRANCH  18  19
ENDBRANCH  17  18
ENDBRANCH  16  17
ENDBRANCH  15  16
ENDBRANCH   1  15
TORSDOF 22
ENDMDL
MODEL 6
REMARK VINA RESULT:    -5.399      2.539      6.549
REMARK INTER + INTRA:         -15.850
REMARK INTER:                 -12.950
REMARK INTRA:                  -2.900
REMARK UNBOUND:                -3.507
REMARK SMILES CCCCCCCCCCCCCCCCCCCCCCCC(=O)[O-]
REMARK SMILES IDX 13 1 14 2 15 3 16 4 17 5 18 6 19 7 20 8 21 9 22 10 23 11
REMARK SMILES IDX 24 12 25 13 26 14 12 15 11 16 10 17 9 18 8 19 7 20 6 21 5 22
REMARK SMILES IDX 4 23 3 24 2 25 1 26
REMARK H PARENT
REMARK Flexibility Score: inf
ROOT
ATOM      1  C   UNL     1      -3.363 -31.512 -52.983  1.00  0.00     0.000 C 
ENDROOT
BRANCH   1   2
ATOM      2  C   UNL     1      -4.863 -31.807 -53.172  1.00  0.00     0.000 C 
BRANCH   2   3
ATOM      3  C   UNL     1      -5.541 -32.500 -51.976  1.00  0.00     0.000 C 
BRANCH   3   4
ATOM      4  C   UNL     1      -5.467 -31.729 -50.641  1.00  0.00     0.000 C 
BRANCH   4   5
ATOM      5  C   UNL     1      -6.823 -31.315 -50.042  1.00  0.00     0.000 C 
BRANCH   5   6
ATOM      6  C   UNL     1      -6.689 -30.272 -48.921  1.00  0.00     0.000 C 
BRANCH   6   7
ATOM      7  C   UNL     1      -7.045 -28.847 -49.385  1.00  0.00     0.000 C 
BRANCH   7   8
ATOM      8  C   UNL     1      -5.875 -28.040 -49.981  1.00  0.00     0.000 C 
BRANCH   8   9
ATOM      9  C   UNL     1      -5.858 -27.950 -51.521  1.00  0.00     0.000 C 
BRANCH   9  10
ATOM     10  C   UNL     1      -4.514 -28.313 -52.177  1.00  0.00     0.006 C 
BRANCH  10  11
ATOM     11  C   UNL     1      -4.232 -27.498 -53.446  1.00  0.00     0.053 C 
BRANCH  11  12
ATOM     12  C   UNL     1      -5.285 -27.753 -54.476  1.00  0.00     0.041 C 
ATOM     13  O   UNL     1      -6.026 -26.813 -54.871  1.00  0.00    -0.550 OA
ATOM     14  O   UNL     1      -5.486 -29.039 -54.962  1.00  0.00    -0.550 OA
ENDBRANCH  11  12
ENDBRANCH  10  11
ENDBRANCH   9  10
ENDBRANCH   8   9
ENDBRANCH   7   8
ENDBRANCH   6   7
ENDBRANCH   5   6
ENDBRANCH   4   5
ENDBRANCH   3   4
ENDBRANCH   2   3
ENDBRANCH   1   2
BRANCH   1  15
ATOM     15  C   UNL     1      -2.487 -32.781 -52.907  1.00  0.00     0.000 C 
BRANCH  15  16
ATOM     16  C   UNL     1      -1.136 -32.609 -53.626  1.00  0.00     0.000 C 
BRANCH  16  17
ATOM     17  C   UNL     1       0.060 -32.737 -52.668  1.00  0.00     0.000 C 
BRANCH  17  18
ATOM     18  C   UNL     1       0.589 -31.369 -52.204  1.00  0.00    -0.000 C 
BRANCH  18  19
ATOM     19  C   UNL     1      -0.308 -30.712 -51.142  1.00  0.00    -0.000 C 
BRANCH  19  20
ATOM     20  C   UNL     1      -0.424 -29.187 -51.319  1.00  0.00    -0.000 C 
BRANCH  20  21
ATOM     21  C   UNL     1      -0.804 -28.793 -52.757  1.00  0.00    -0.000 C 
BRANCH  21  22
ATOM     22  C   UNL     1       0.089 -27.670 -53.313  1.00  0.00    -0.000 C 
BRANCH  22  23
ATOM     23  C   UNL     1      -0.667 -26.720 -54.260  1.00  0.00    -0.000 C 
BRANCH  23  24
ATOM     24  C   UNL     1      -0.489 -25.218 -53.960  1.00  0.00    -0.000 C 
BRANCH  24  25
ATOM     25  C   UNL     1      -0.346 -24.865 -52.470  1.00  0.00    -0.003 C 
ATOM     26  C   UNL     1       1.067 -24.417 -52.095  1.00  0.00     0.004 C 
ENDBRANCH  24  25
ENDBRANCH  23  24
ENDBRANCH  22  23
ENDBRANCH  21  22
ENDBRANCH  20  21
ENDBRANCH  19  20
ENDBRANCH  18  19
ENDBRANCH  17  18
ENDBRANCH  16  17
ENDBRANCH  15  16
ENDBRANCH   1  15
TORSDOF 22
ENDMDL
MODEL 7
REMARK VINA RESULT:    -5.320      3.566      6.835
REMARK INTER + INTRA:         -15.669
REMARK INTER:                 -13.235
REMARK INTRA:                  -2.434
REMARK UNBOUND:                -3.507
REMARK SMILES CCCCCCCCCCCCCCCCCCCCCCCC(=O)[O-]
REMARK SMILES IDX 13 1 14 2 15 3 16 4 17 5 18 6 19 7 20 8 21 9 22 10 23 11
REMARK SMILES IDX 24 12 25 13 26 14 12 15 11 16 10 17 9 18 8 19 7 20 6 21 5 22
REMARK SMILES IDX 4 23 3 24 2 25 1 26
REMARK H PARENT
REMARK Flexibility Score: inf
ROOT
ATOM      1  C   UNL     1      -7.227 -29.713 -49.107  1.00  0.00     0.000 C 
ENDROOT
BRANCH   1   2
ATOM      2  C   UNL     1      -6.026 -28.863 -49.566  1.00  0.00     0.000 C 
BRANCH   2   3
ATOM      3  C   UNL     1      -6.396 -27.605 -50.373  1.00  0.00     0.000 C 
BRANCH   3   4
ATOM      4  C   UNL     1      -5.731 -27.496 -51.761  1.00  0.00     0.000 C 
BRANCH   4   5
ATOM      5  C   UNL     1      -4.752 -28.630 -52.113  1.00  0.00     0.000 C 
BRANCH   5   6
ATOM      6  C   UNL     1      -4.444 -28.711 -53.618  1.00  0.00     0.000 C 
BRANCH   6   7
ATOM      7  C   UNL     1      -5.296 -27.739 -54.455  1.00  0.00     0.000 C 
BRANCH   7   8
ATOM      8  C   UNL     1      -4.617 -26.397 -54.794  1.00  0.00     0.000 C 
BRANCH   8   9
ATOM      9  C   UNL     1      -5.571 -25.191 -54.914  1.00  0.00     0.000 C 
BRANCH   9  10
ATOM     10  C   UNL     1      -5.644 -24.559 -56.316  1.00  0.00     0.006 C 
BRANCH  10  11
ATOM     11  C   UNL     1      -7.059 -24.591 -56.910  1.00  0.00     0.053 C 
BRANCH  11  12
ATOM     12  C   UNL     1      -7.533 -23.204 -57.204  1.00  0.00     0.041 C 
ATOM     13  O   UNL     1      -8.704 -23.010 -57.626  1.00  0.00    -0.550 OA
ATOM     14  O   UNL     1      -6.665 -22.127 -57.063  1.00  0.00    -0.550 OA
ENDBRANCH  11  12
ENDBRANCH  10  11
ENDBRANCH   9  10
ENDBRANCH   8   9
ENDBRANCH   7   8
ENDBRANCH   6   7
ENDBRANCH   5   6
ENDBRANCH   4   5
ENDBRANCH   3   4
ENDBRANCH   2   3
ENDBRANCH   1   2
BRANCH   1  15
ATOM     15  C   UNL     1      -7.225 -31.148 -49.675  1.00  0.00     0.000 C 
BRANCH  15  16
ATOM     16  C   UNL     1      -5.818 -31.618 -50.085  1.00  0.00     0.000 C 
BRANCH  16  17
ATOM     17  C   UNL     1      -5.742 -32.025 -51.567  1.00  0.00     0.000 C 
BRANCH  17  18
ATOM     18  C   UNL     1      -4.313 -32.390 -52.003  1.00  0.00    -0.000 C 
BRANCH  18  19
ATOM     19  C   UNL     1      -3.504 -33.069 -50.886  1.00  0.00    -0.000 C 
BRANCH  19  20
ATOM     20  C   UNL     1      -2.284 -33.843 -51.418  1.00  0.00    -0.000 C 
BRANCH  20  21
ATOM     21  C   UNL     1      -1.825 -33.335 -52.796  1.00  0.00    -0.000 C 
BRANCH  21  22
ATOM     22  C   UNL     1      -0.357 -32.876 -52.794  1.00  0.00    -0.000 C 
BRANCH  22  23
ATOM     23  C   UNL     1      -0.208 -31.347 -52.881  1.00  0.00    -0.000 C 
BRANCH  23  24
ATOM     24  C   UNL     1      -1.032 -30.549 -51.850  1.00  0.00    -0.000 C 
BRANCH  24  25
ATOM     25  C   UNL     1      -0.479 -29.152 -51.516  1.00  0.00    -0.003 C 
ATOM     26  C   UNL     1      -0.913 -28.084 -52.519  1.00  0.00     0.004 C 
ENDBRANCH  24  25
ENDBRANCH  23  24
ENDBRANCH  22  23
ENDBRANCH  21  22
ENDBRANCH  20  21
ENDBRANCH  19  20
ENDBRANCH  18  19
ENDBRANCH  17  18
ENDBRANCH  16  17
ENDBRANCH  15  16
ENDBRANCH   1  15
TORSDOF 22
ENDMDL
MODEL 8
REMARK VINA RESULT:    -5.312      1.157      2.943
REMARK INTER + INTRA:         -15.650
REMARK INTER:                 -12.996
REMARK INTRA:                  -2.654
REMARK UNBOUND:                -3.507
REMARK SMILES CCCCCCCCCCCCCCCCCCCCCCCC(=O)[O-]
REMARK SMILES IDX 13 1 14 2 15 3 16 4 17 5 18 6 19 7 20 8 21 9 22 10 23 11
REMARK SMILES IDX 24 12 25 13 26 14 12 15 11 16 10 17 9 18 8 19 7 20 6 21 5 22
REMARK SMILES IDX 4 23 3 24 2 25 1 26
REMARK H PARENT
REMARK Flexibility Score: inf
ROOT
ATOM      1  C   UNL     1      -2.164 -33.588 -51.307  1.00  0.00     0.000 C 
ENDROOT
BRANCH   1   2
ATOM      2  C   UNL     1      -1.917 -33.611 -52.828  1.00  0.00     0.000 C 
BRANCH   2   3
ATOM      3  C   UNL     1      -0.500 -33.188 -53.258  1.00  0.00     0.000 C 
BRANCH   3   4
ATOM      4  C   UNL     1      -0.319 -31.681 -53.533  1.00  0.00     0.000 C 
BRANCH   4   5
ATOM      5  C   UNL     1       0.452 -30.901 -52.453  1.00  0.00     0.000 C 
BRANCH   5   6
ATOM      6  C   UNL     1      -0.463 -30.333 -51.356  1.00  0.00     0.000 C 
BRANCH   6   7
ATOM      7  C   UNL     1      -0.425 -28.796 -51.283  1.00  0.00     0.000 C 
BRANCH   7   8
ATOM      8  C   UNL     1      -0.934 -28.066 -52.541  1.00  0.00     0.000 C 
BRANCH   8   9
ATOM      9  C   UNL     1      -0.076 -26.869 -52.998  1.00  0.00     0.000 C 
BRANCH   9  10
ATOM     10  C   UNL     1      -0.203 -25.608 -52.123  1.00  0.00     0.006 C 
BRANCH  10  11
ATOM     11  C   UNL     1       1.042 -24.714 -52.183  1.00  0.00     0.053 C 
BRANCH  11  12
ATOM     12  C   UNL     1       0.785 -23.517 -53.042  1.00  0.00     0.041 C 
ATOM     13  O   UNL     1       0.062 -23.619 -54.070  1.00  0.00    -0.550 OA
ATOM     14  O   UNL     1       1.385 -22.301 -52.739  1.00  0.00    -0.550 OA
ENDBRANCH  11  12
ENDBRANCH  10  11
ENDBRANCH   9  10
ENDBRANCH   8   9
ENDBRANCH   7   8
ENDBRANCH   6   7
ENDBRANCH   5   6
ENDBRANCH   4   5
ENDBRANCH   3   4
ENDBRANCH   2   3
ENDBRANCH   1   2
BRANCH   1  15
ATOM     15  C   UNL     1      -3.545 -33.024 -50.911  1.00  0.00     0.000 C 
BRANCH  15  16
ATOM     16  C   UNL     1      -4.308 -32.434 -52.111  1.00  0.00     0.000 C 
BRANCH  16  17
ATOM     17  C   UNL     1      -5.688 -31.882 -51.717  1.00  0.00     0.000 C 
BRANCH  17  18
ATOM     18  C   UNL     1      -5.791 -31.577 -50.212  1.00  0.00    -0.000 C 
BRANCH  18  19
ATOM     19  C   UNL     1      -7.207 -31.161 -49.784  1.00  0.00    -0.000 C 
BRANCH  19  20
ATOM     20  C   UNL     1      -7.226 -29.841 -48.992  1.00  0.00    -0.000 C 
BRANCH  20  21
ATOM     21  C   UNL     1      -5.992 -28.969 -49.276  1.00  0.00    -0.000 C 
BRANCH  21  22
ATOM     22  C   UNL     1      -6.361 -27.617 -49.911  1.00  0.00    -0.000 C 
BRANCH  22  23
ATOM     23  C   UNL     1      -6.095 -27.575 -51.426  1.00  0.00    -0.000 C 
BRANCH  23  24
ATOM     24  C   UNL     1      -4.925 -28.456 -51.910  1.00  0.00    -0.000 C 
BRANCH  24  25
ATOM     25  C   UNL     1      -4.506 -28.232 -53.374  1.00  0.00    -0.003 C 
ATOM     26  C   UNL     1      -5.254 -29.136 -54.353  1.00  0.00     0.004 C 
ENDBRANCH  24  25
ENDBRANCH  23  24
ENDBRANCH  22  23
ENDBRANCH  21  22
ENDBRANCH  20  21
ENDBRANCH  19  20
ENDBRANCH  18  19
ENDBRANCH  17  18
ENDBRANCH  16  17
ENDBRANCH  15  16
ENDBRANCH   1  15
TORSDOF 22
ENDMDL
MODEL 9
REMARK VINA RESULT:    -5.291      2.582      6.694
REMARK INTER + INTRA:         -15.602
REMARK INTER:                 -12.366
REMARK INTRA:                  -3.236
REMARK UNBOUND:                -3.507
REMARK SMILES CCCCCCCCCCCCCCCCCCCCCCCC(=O)[O-]
REMARK SMILES IDX 13 1 14 2 15 3 16 4 17 5 18 6 19 7 20 8 21 9 22 10 23 11
REMARK SMILES IDX 24 12 25 13 26 14 12 15 11 16 10 17 9 18 8 19 7 20 6 21 5 22
REMARK SMILES IDX 4 23 3 24 2 25 1 26
REMARK H PARENT
REMARK Flexibility Score: inf
ROOT
ATOM      1  C   UNL     1      -4.648 -27.312 -53.759  1.00  0.00     0.000 C 
ENDROOT
BRANCH   1   2
ATOM      2  C   UNL     1      -4.740 -27.840 -52.315  1.00  0.00     0.000 C 
BRANCH   2   3
ATOM      3  C   UNL     1      -4.110 -29.228 -52.094  1.00  0.00     0.000 C 
BRANCH   3   4
ATOM      4  C   UNL     1      -4.094 -30.146 -53.334  1.00  0.00     0.000 C 
BRANCH   4   5
ATOM      5  C   UNL     1      -5.303 -31.089 -53.473  1.00  0.00     0.000 C 
BRANCH   5   6
ATOM      6  C   UNL     1      -5.177 -32.356 -52.612  1.00  0.00     0.000 C 
BRANCH   6   7
ATOM      7  C   UNL     1      -6.168 -32.379 -51.434  1.00  0.00     0.000 C 
BRANCH   7   8
ATOM      8  C   UNL     1      -5.865 -31.379 -50.302  1.00  0.00     0.000 C 
BRANCH   8   9
ATOM      9  C   UNL     1      -7.104 -30.805 -49.584  1.00  0.00     0.000 C 
BRANCH   9  10
ATOM     10  C   UNL     1      -7.150 -29.269 -49.498  1.00  0.00     0.006 C 
BRANCH  10  11
ATOM     11  C   UNL     1      -6.393 -28.717 -48.283  1.00  0.00     0.053 C 
BRANCH  11  12
ATOM     12  C   UNL     1      -6.500 -27.227 -48.233  1.00  0.00     0.041 C 
ATOM     13  O   UNL     1      -6.345 -26.616 -47.142  1.00  0.00    -0.550 OA
ATOM     14  O   UNL     1      -6.825 -26.513 -49.381  1.00  0.00    -0.550 OA
ENDBRANCH  11  12
ENDBRANCH  10  11
ENDBRANCH   9  10
ENDBRANCH   8   9
ENDBRANCH   7   8
ENDBRANCH   6   7
ENDBRANCH   5   6
ENDBRANCH   4   5
ENDBRANCH   3   4
ENDBRANCH   2   3
ENDBRANCH   1   2
BRANCH   1  15
ATOM     15  C   UNL     1      -3.518 -26.281 -53.972  1.00  0.00     0.000 C 
BRANCH  15  16
ATOM     16  C   UNL     1      -2.125 -26.934 -54.018  1.00  0.00     0.000 C 
BRANCH  16  17
ATOM     17  C   UNL     1      -1.102 -26.200 -53.136  1.00  0.00     0.000 C 
BRANCH  17  18
ATOM     18  C   UNL     1      -0.423 -27.136 -52.121  1.00  0.00    -0.000 C 
BRANCH  18  19
ATOM     19  C   UNL     1      -0.491 -28.615 -52.536  1.00  0.00    -0.000 C 
BRANCH  19  20
ATOM     20  C   UNL     1      -0.352 -29.577 -51.342  1.00  0.00    -0.000 C 
BRANCH  20  21
ATOM     21  C   UNL     1       0.343 -30.893 -51.729  1.00  0.00    -0.000 C 
BRANCH  21  22
ATOM     22  C   UNL     1      -0.075 -31.390 -53.124  1.00  0.00    -0.000 C 
BRANCH  22  23
ATOM     23  C   UNL     1      -1.489 -31.998 -53.142  1.00  0.00    -0.000 C 
BRANCH  23  24
ATOM     24  C   UNL     1      -1.553 -33.516 -52.875  1.00  0.00    -0.000 C 
BRANCH  24  25
ATOM     25  C   UNL     1      -1.971 -33.907 -51.447  1.00  0.00    -0.003 C 
ATOM     26  C   UNL     1      -2.405 -32.710 -50.603  1.00  0.00     0.004 C 
ENDBRANCH  24  25
ENDBRANCH  23  24
ENDBRANCH  22  23
ENDBRANCH  21  22
ENDBRANCH  20  21
ENDBRANCH  19  20
ENDBRANCH  18  19
ENDBRANCH  17  18
ENDBRANCH  16  17
ENDBRANCH  15  16
ENDBRANCH   1  15
TORSDOF 22
ENDMDL
