MODEL 1
REMARK VINA RESULT:    -0.533      0.000      0.000
REMARK INTER + INTRA:          -2.037
REMARK INTER:                  -1.157
REMARK INTRA:                  -0.881
REMARK UNBOUND:                -0.881
REMARK SMILES CCCCCCCCCCCCCCCCCCCCCC(=O)[O-]
REMARK SMILES IDX 12 1 11 2 10 3 9 4 8 5 7 6 6 7 5 8 4 9 3 10 2 11 1 12 13 13
REMARK SMILES IDX 14 14 15 15 16 16 17 17 18 18 19 19 20 20 21 21 22 22 23 23
REMARK SMILES IDX 24 24
REMARK H PARENT
REMARK Flexibility Score: inf
ROOT
ATOM      1  C   UNL     1       4.415 -37.388  19.121  1.00  0.00     0.000 C 
ENDROOT
BRANCH   1   2
ATOM      2  C   UNL     1       3.261 -37.151  20.108  1.00  0.00     0.000 C 
BRANCH   2   3
ATOM      3  C   UNL     1       2.144 -38.202  19.986  1.00  0.00     0.000 C 
BRANCH   3   4
ATOM      4  C   UNL     1       0.734 -37.591  19.830  1.00  0.00    -0.000 C 
BRANCH   4   5
ATOM      5  C   UNL     1       0.210 -37.696  18.387  1.00  0.00    -0.000 C 
BRANCH   5   6
ATOM      6  C   UNL     1       1.328 -37.987  17.372  1.00  0.00    -0.000 C 
BRANCH   6   7
ATOM      7  C   UNL     1       1.655 -36.769  16.491  1.00  0.00    -0.000 C 
BRANCH   7   8
ATOM      8  C   UNL     1       3.105 -36.781  15.979  1.00  0.00    -0.000 C 
BRANCH   8   9
ATOM      9  C   UNL     1       3.198 -36.647  14.451  1.00  0.00    -0.000 C 
BRANCH   9  10
ATOM     10  C   UNL     1       4.221 -37.637  13.876  1.00  0.00    -0.000 C 
BRANCH  10  11
ATOM     11  C   UNL     1       4.408 -38.879  14.763  1.00  0.00    -0.003 C 
ATOM     12  C   UNL     1       4.932 -40.089  13.988  1.00  0.00     0.004 C 
ENDBRANCH  10  11
ENDBRANCH   9  10
ENDBRANCH   8   9
ENDBRANCH   7   8
ENDBRANCH   6   7
ENDBRANCH   5   6
ENDBRANCH   4   5
ENDBRANCH   3   4
ENDBRANCH   2   3
ENDBRANCH   1   2
BRANCH   1  13
ATOM     13  C   UNL     1       5.689 -37.897  19.814  1.00  0.00     0.000 C 
BRANCH  13  14
ATOM     14  C   UNL     1       5.445 -38.292  21.277  1.00  0.00     0.000 C 
BRANCH  14  15
ATOM     15  C   UNL     1       5.514 -39.814  21.454  1.00  0.00     0.000 C 
BRANCH  15  16
ATOM     16  C   UNL     1       5.541 -40.194  22.943  1.00  0.00     0.000 C 
BRANCH  16  17
ATOM     17  C   UNL     1       5.839 -38.987  23.858  1.00  0.00     0.000 C 
BRANCH  17  18
ATOM     18  C   UNL     1       4.631 -38.530  24.698  1.00  0.00     0.000 C 
BRANCH  18  19
ATOM     19  C   UNL     1       4.967 -37.592  25.873  1.00  0.00     0.000 C 
BRANCH  19  20
ATOM     20  C   UNL     1       5.742 -36.318  25.489  1.00  0.00     0.006 C 
BRANCH  20  21
ATOM     21  C   UNL     1       6.099 -36.258  23.998  1.00  0.00     0.053 C 
BRANCH  21  22
ATOM     22  C   UNL     1       5.743 -34.921  23.431  1.00  0.00     0.041 C 
ATOM     23  O   UNL     1       6.109 -33.868  24.019  1.00  0.00    -0.550 OA
ATOM     24  O   UNL     1       5.057 -34.834  22.226  1.00  0.00    -0.550 OA
ENDBRANCH  21  22
ENDBRANCH  20  21
ENDBRANCH  19  20
ENDBRANCH  18  19
ENDBRANCH  17  18
ENDBRANCH  16  17
ENDBRANCH  15  16
ENDBRANCH  14  15
ENDBRANCH  13  14
ENDBRANCH   1  13
TORSDOF 20
ENDMDL
MODEL 2
REMARK VINA RESULT:    -0.467      2.243      3.188
REMARK INTER + INTRA:          -1.893
REMARK INTER:                  -0.410
REMARK INTRA:                  -1.483
REMARK UNBOUND:                -0.881
REMARK SMILES CCCCCCCCCCCCCCCCCCCCCC(=O)[O-]
REMARK SMILES IDX 12 1 11 2 10 3 9 4 8 5 7 6 6 7 5 8 4 9 3 10 2 11 1 12 13 13
REMARK SMILES IDX 14 14 15 15 16 16 17 17 18 18 19 19 20 20 21 21 22 22 23 23
REMARK SMILES IDX 24 24
REMARK H PARENT
REMARK Flexibility Score: inf
ROOT
ATOM      1  C   UNL     1       4.106 -38.495  20.146  1.00  0.00     0.000 C 
ENDROOT
BRANCH   1   2
ATOM      2  C   UNL     1       2.929 -37.527  19.952  1.00  0.00     0.000 C 
BRANCH   2   3
ATOM      3  C   UNL     1       1.615 -38.245  19.597  1.00  0.00     0.000 C 
BRANCH   3   4
ATOM      4  C   UNL     1       1.155 -38.010  18.142  1.00  0.00    -0.000 C 
BRANCH   4   5
ATOM      5  C   UNL     1       2.151 -37.148  17.347  1.00  0.00    -0.000 C 
BRANCH   5   6
ATOM      6  C   UNL     1       1.870 -37.161  15.836  1.00  0.00    -0.000 C 
BRANCH   6   7
ATOM      7  C   UNL     1       2.946 -36.414  15.030  1.00  0.00    -0.000 C 
BRANCH   7   8
ATOM      8  C   UNL     1       4.195 -37.273  14.773  1.00  0.00    -0.000 C 
BRANCH   8   9
ATOM      9  C   UNL     1       3.897 -38.514  13.916  1.00  0.00    -0.000 C 
BRANCH   9  10
ATOM     10  C   UNL     1       5.103 -39.463  13.890  1.00  0.00    -0.000 C 
BRANCH  10  11
ATOM     11  C   UNL     1       4.742 -40.894  14.320  1.00  0.00    -0.003 C 
ATOM     12  C   UNL     1       5.955 -41.823  14.374  1.00  0.00     0.004 C 
ENDBRANCH  10  11
ENDBRANCH   9  10
ENDBRANCH   8   9
ENDBRANCH   7   8
ENDBRANCH   6   7
ENDBRANCH   5   6
ENDBRANCH   4   5
ENDBRANCH   3   4
ENDBRANCH   2   3
ENDBRANCH   1   2
BRANCH   1  13
ATOM     13  C   UNL     1       5.470 -37.794  20.045  1.00  0.00     0.000 C 
BRANCH  13  14
ATOM     14  C   UNL     1       5.345 -36.264  20.018  1.00  0.00     0.000 C 
BRANCH  14  15
ATOM     15  C   UNL     1       6.115 -35.629  21.182  1.00  0.00     0.000 C 
BRANCH  15  16
ATOM     16  C   UNL     1       5.152 -35.093  22.252  1.00  0.00     0.000 C 
BRANCH  16  17
ATOM     17  C   UNL     1       5.680 -35.309  23.687  1.00  0.00     0.000 C 
BRANCH  17  18
ATOM     18  C   UNL     1       6.123 -36.756  23.975  1.00  0.00     0.000 C 
BRANCH  18  19
ATOM     19  C   UNL     1       5.846 -37.253  25.407  1.00  0.00     0.000 C 
BRANCH  19  20
ATOM     20  C   UNL     1       4.478 -36.848  25.985  1.00  0.00     0.006 C 
BRANCH  20  21
ATOM     21  C   UNL     1       3.748 -38.009  26.672  1.00  0.00     0.053 C 
BRANCH  21  22
ATOM     22  C   UNL     1       2.404 -37.566  27.156  1.00  0.00     0.041 C 
ATOM     23  O   UNL     1       2.244 -36.393  27.587  1.00  0.00    -0.550 OA
ATOM     24  O   UNL     1       1.316 -38.426  27.081  1.00  0.00    -0.550 OA
ENDBRANCH  21  22
ENDBRANCH  20  21
ENDBRANCH  19  20
ENDBRANCH  18  19
ENDBRANCH  17  18
ENDBRANCH  16  17
ENDBRANCH  15  16
ENDBRANCH  14  15
ENDBRANCH  13  14
ENDBRANCH   1  13
TORSDOF 20
ENDMDL
MODEL 3
REMARK VINA RESULT:    -0.405      1.810      3.026
REMARK INTER + INTRA:          -1.760
REMARK INTER:                  -0.357
REMARK INTRA:                  -1.403
REMARK UNBOUND:                -0.881
REMARK SMILES CCCCCCCCCCCCCCCCCCCCCC(=O)[O-]
REMARK SMILES IDX 12 1 11 2 10 3 9 4 8 5 7 6 6 7 5 8 4 9 3 10 2 11 1 12 13 13
REMARK SMILES IDX 14 14 15 15 16 16 17 17 18 18 19 19 20 20 21 21 22 22 23 23
REMARK SMILES IDX 24 24
REMARK H PARENT
REMARK Flexibility Score: inf
ROOT
ATOM      1  C   UNL     1       4.680 -35.797  19.156  1.00  0.00     0.000 C 
ENDROOT
BRANCH   1   2
ATOM      2  C   UNL     1       3.504 -36.494  19.859  1.00  0.00     0.000 C 
BRANCH   2   3
ATOM      3  C   UNL     1       3.264 -37.925  19.347  1.00  0.00     0.000 C 
BRANCH   3   4
ATOM      4  C   UNL     1       1.794 -38.383  19.458  1.00  0.00    -0.000 C 
BRANCH   4   5
ATOM      5  C   UNL     1       0.908 -37.769  18.359  1.00  0.00    -0.000 C 
BRANCH   5   6
ATOM      6  C   UNL     1       1.626 -37.683  17.002  1.00  0.00    -0.000 C 
BRANCH   6   7
ATOM      7  C   UNL     1       1.925 -36.233  16.585  1.00  0.00    -0.000 C 
BRANCH   7   8
ATOM      8  C   UNL     1       3.117 -36.129  15.619  1.00  0.00    -0.000 C 
BRANCH   8   9
ATOM      9  C   UNL     1       2.742 -36.488  14.172  1.00  0.00    -0.000 C 
BRANCH   9  10
ATOM     10  C   UNL     1       3.026 -37.969  13.885  1.00  0.00    -0.000 C 
BRANCH  10  11
ATOM     11  C   UNL     1       4.283 -38.483  14.605  1.00  0.00    -0.003 C 
ATOM     12  C   UNL     1       4.870 -39.736  13.955  1.00  0.00     0.004 C 
ENDBRANCH  10  11
ENDBRANCH   9  10
ENDBRANCH   8   9
ENDBRANCH   7   8
ENDBRANCH   6   7
ENDBRANCH   5   6
ENDBRANCH   4   5
ENDBRANCH   3   4
ENDBRANCH   2   3
ENDBRANCH   1   2
BRANCH   1  13
ATOM     13  C   UNL     1       6.008 -35.975  19.910  1.00  0.00     0.000 C 
BRANCH  13  14
ATOM     14  C   UNL     1       5.849 -35.812  21.428  1.00  0.00     0.000 C 
BRANCH  14  15
ATOM     15  C   UNL     1       5.953 -34.338  21.837  1.00  0.00     0.000 C 
BRANCH  15  16
ATOM     16  C   UNL     1       6.125 -34.199  23.357  1.00  0.00     0.000 C 
BRANCH  16  17
ATOM     17  C   UNL     1       5.304 -35.243  24.145  1.00  0.00     0.000 C 
BRANCH  17  18
ATOM     18  C   UNL     1       6.125 -36.016  25.195  1.00  0.00     0.000 C 
BRANCH  18  19
ATOM     19  C   UNL     1       5.765 -37.507  25.341  1.00  0.00     0.000 C 
BRANCH  19  20
ATOM     20  C   UNL     1       5.028 -38.120  24.136  1.00  0.00     0.006 C 
BRANCH  20  21
ATOM     21  C   UNL     1       5.514 -39.534  23.791  1.00  0.00     0.053 C 
BRANCH  21  22
ATOM     22  C   UNL     1       5.635 -39.695  22.308  1.00  0.00     0.041 C 
ATOM     23  O   UNL     1       5.861 -38.691  21.582  1.00  0.00    -0.550 OA
ATOM     24  O   UNL     1       5.554 -40.957  21.734  1.00  0.00    -0.550 OA
ENDBRANCH  21  22
ENDBRANCH  20  21
ENDBRANCH  19  20
ENDBRANCH  18  19
ENDBRANCH  17  18
ENDBRANCH  16  17
ENDBRANCH  15  16
ENDBRANCH  14  15
ENDBRANCH  13  14
ENDBRANCH   1  13
TORSDOF 20
ENDMDL
MODEL 4
REMARK VINA RESULT:    -0.189      2.983      7.421
REMARK INTER + INTRA:          -1.291
REMARK INTER:                  -0.699
REMARK INTRA:                  -0.592
REMARK UNBOUND:                -0.881
REMARK SMILES CCCCCCCCCCCCCCCCCCCCCC(=O)[O-]
REMARK SMILES IDX 12 1 11 2 10 3 9 4 8 5 7 6 6 7 5 8 4 9 3 10 2 11 1 12 13 13
REMARK SMILES IDX 14 14 15 15 16 16 17 17 18 18 19 19 20 20 21 21 22 22 23 23
REMARK SMILES IDX 24 24
REMARK H PARENT
REMARK Flexibility Score: inf
ROOT
ATOM      1  C   UNL     1       5.240 -34.757  23.525  1.00  0.00     0.000 C 
ENDROOT
BRANCH   1   2
ATOM      2  C   UNL     1       6.101 -35.485  24.570  1.00  0.00     0.000 C 
BRANCH   2   3
ATOM      3  C   UNL     1       5.270 -36.347  25.535  1.00  0.00     0.000 C 
BRANCH   3   4
ATOM      4  C   UNL     1       5.186 -37.832  25.122  1.00  0.00    -0.000 C 
BRANCH   4   5
ATOM      5  C   UNL     1       5.885 -38.104  23.778  1.00  0.00    -0.000 C 
BRANCH   5   6
ATOM      6  C   UNL     1       5.711 -39.556  23.304  1.00  0.00    -0.000 C 
BRANCH   6   7
ATOM      7  C   UNL     1       5.727 -39.680  21.770  1.00  0.00    -0.000 C 
BRANCH   7   8
ATOM      8  C   UNL     1       4.830 -38.637  21.083  1.00  0.00    -0.000 C 
BRANCH   8   9
ATOM      9  C   UNL     1       4.934 -38.681  19.550  1.00  0.00    -0.000 C 
BRANCH   9  10
ATOM     10  C   UNL     1       3.775 -37.911  18.901  1.00  0.00    -0.000 C 
BRANCH  10  11
ATOM     11  C   UNL     1       2.544 -37.808  19.817  1.00  0.00    -0.003 C 
ATOM     12  C   UNL     1       1.232 -38.088  19.083  1.00  0.00     0.004 C 
ENDBRANCH  10  11
ENDBRANCH   9  10
ENDBRANCH   8   9
ENDBRANCH   7   8
ENDBRANCH   6   7
ENDBRANCH   5   6
ENDBRANCH   4   5
ENDBRANCH   3   4
ENDBRANCH   2   3
ENDBRANCH   1   2
BRANCH   1  13
ATOM     13  C   UNL     1       5.961 -34.589  22.179  1.00  0.00     0.000 C 
BRANCH  13  14
ATOM     14  C   UNL     1       5.505 -35.617  21.134  1.00  0.00     0.000 C 
BRANCH  14  15
ATOM     15  C   UNL     1       6.125 -35.320  19.763  1.00  0.00     0.000 C 
BRANCH  15  16
ATOM     16  C   UNL     1       5.209 -34.410  18.930  1.00  0.00     0.000 C 
BRANCH  16  17
ATOM     17  C   UNL     1       4.987 -34.944  17.498  1.00  0.00     0.000 C 
BRANCH  17  18
ATOM     18  C   UNL     1       3.820 -35.943  17.381  1.00  0.00     0.000 C 
BRANCH  18  19
ATOM     19  C   UNL     1       2.881 -35.715  16.181  1.00  0.00     0.000 C 
BRANCH  19  20
ATOM     20  C   UNL     1       2.368 -36.998  15.501  1.00  0.00     0.006 C 
BRANCH  20  21
ATOM     21  C   UNL     1       2.870 -37.155  14.060  1.00  0.00     0.053 C 
BRANCH  21  22
ATOM     22  C   UNL     1       4.193 -37.853  14.043  1.00  0.00     0.041 C 
ATOM     23  O   UNL     1       5.254 -37.190  13.893  1.00  0.00    -0.550 OA
ATOM     24  O   UNL     1       4.261 -39.225  14.247  1.00  0.00    -0.550 OA
ENDBRANCH  21  22
ENDBRANCH  20  21
ENDBRANCH  19  20
ENDBRANCH  18  19
ENDBRANCH  17  18
ENDBRANCH  16  17
ENDBRANCH  15  16
ENDBRANCH  14  15
ENDBRANCH  13  14
ENDBRANCH   1  13
TORSDOF 20
ENDMDL
MODEL 5
REMARK VINA RESULT:    -0.027      2.377      7.624
REMARK INTER + INTRA:          -0.939
REMARK INTER:                  -0.621
REMARK INTRA:                  -0.317
REMARK UNBOUND:                -0.881
REMARK SMILES CCCCCCCCCCCCCCCCCCCCCC(=O)[O-]
REMARK SMILES IDX 12 1 11 2 10 3 9 4 8 5 7 6 6 7 5 8 4 9 3 10 2 11 1 12 13 13
REMARK SMILES IDX 14 14 15 15 16 16 17 17 18 18 19 19 20 20 21 21 22 22 23 23
REMARK SMILES IDX 24 24
REMARK H PARENT
REMARK Flexibility Score: inf
ROOT
ATOM      1  C   UNL     1       4.732 -35.822  22.433  1.00  0.00     0.000 C 
ENDROOT
BRANCH   1   2
ATOM      2  C   UNL     1       6.124 -35.250  22.745  1.00  0.00     0.000 C 
BRANCH   2   3
ATOM      3  C   UNL     1       6.103 -34.204  23.873  1.00  0.00     0.000 C 
BRANCH   3   4
ATOM      4  C   UNL     1       6.070 -34.822  25.288  1.00  0.00    -0.000 C 
BRANCH   4   5
ATOM      5  C   UNL     1       6.125 -36.359  25.254  1.00  0.00    -0.000 C 
BRANCH   5   6
ATOM      6  C   UNL     1       4.873 -37.009  25.867  1.00  0.00    -0.000 C 
BRANCH   6   7
ATOM      7  C   UNL     1       4.425 -38.264  25.098  1.00  0.00    -0.000 C 
BRANCH   7   8
ATOM      8  C   UNL     1       5.612 -39.111  24.608  1.00  0.00    -0.000 C 
BRANCH   8   9
ATOM      9  C   UNL     1       5.850 -38.981  23.095  1.00  0.00    -0.000 C 
BRANCH   9  10
ATOM     10  C   UNL     1       5.595 -40.319  22.384  1.00  0.00    -0.000 C 
BRANCH  10  11
ATOM     11  C   UNL     1       5.829 -40.239  20.867  1.00  0.00    -0.003 C 
ATOM     12  C   UNL     1       5.790 -38.807  20.334  1.00  0.00     0.004 C 
ENDBRANCH  10  11
ENDBRANCH   9  10
ENDBRANCH   8   9
ENDBRANCH   7   8
ENDBRANCH   6   7
ENDBRANCH   5   6
ENDBRANCH   4   5
ENDBRANCH   3   4
ENDBRANCH   2   3
ENDBRANCH   1   2
BRANCH   1  13
ATOM     13  C   UNL     1       4.322 -35.612  20.967  1.00  0.00     0.000 C 
BRANCH  13  14
ATOM     14  C   UNL     1       5.397 -36.091  19.981  1.00  0.00     0.000 C 
BRANCH  14  15
ATOM     15  C   UNL     1       6.057 -34.905  19.268  1.00  0.00     0.000 C 
BRANCH  15  16
ATOM     16  C   UNL     1       5.252 -34.493  18.026  1.00  0.00     0.000 C 
BRANCH  16  17
ATOM     17  C   UNL     1       4.169 -35.527  17.650  1.00  0.00     0.000 C 
BRANCH  17  18
ATOM     18  C   UNL     1       3.369 -35.158  16.386  1.00  0.00     0.000 C 
BRANCH  18  19
ATOM     19  C   UNL     1       2.841 -36.355  15.572  1.00  0.00     0.000 C 
BRANCH  19  20
ATOM     20  C   UNL     1       1.863 -37.276  16.325  1.00  0.00     0.006 C 
BRANCH  20  21
ATOM     21  C   UNL     1       2.516 -38.008  17.505  1.00  0.00     0.053 C 
BRANCH  21  22
ATOM     22  C   UNL     1       1.622 -37.962  18.704  1.00  0.00     0.041 C 
ATOM     23  O   UNL     1       0.376 -37.839  18.558  1.00  0.00    -0.550 OA
ATOM     24  O   UNL     1       2.155 -38.111  19.978  1.00  0.00    -0.550 OA
ENDBRANCH  21  22
ENDBRANCH  20  21
ENDBRANCH  19  20
ENDBRANCH  18  19
ENDBRANCH  17  18
ENDBRANCH  16  17
ENDBRANCH  15  16
ENDBRANCH  14  15
ENDBRANCH  13  14
ENDBRANCH   1  13
TORSDOF 20
ENDMDL
MODEL 6
REMARK VINA RESULT:     0.225      2.118      4.502
REMARK INTER + INTRA:          -0.393
REMARK INTER:                   0.594
REMARK INTRA:                  -0.987
REMARK UNBOUND:                -0.881
REMARK SMILES CCCCCCCCCCCCCCCCCCCCCC(=O)[O-]
REMARK SMILES IDX 12 1 11 2 10 3 9 4 8 5 7 6 6 7 5 8 4 9 3 10 2 11 1 12 13 13
REMARK SMILES IDX 14 14 15 15 16 16 17 17 18 18 19 19 20 20 21 21 22 22 23 23
REMARK SMILES IDX 24 24
REMARK H PARENT
REMARK Flexibility Score: inf
ROOT
ATOM      1  C   UNL     1       6.124 -36.112  23.452  1.00  0.00     0.000 C 
ENDROOT
BRANCH   1   2
ATOM      2  C   UNL     1       5.325 -34.919  22.906  1.00  0.00     0.000 C 
BRANCH   2   3
ATOM      3  C   UNL     1       4.369 -35.309  21.766  1.00  0.00     0.000 C 
BRANCH   3   4
ATOM      4  C   UNL     1       4.603 -34.515  20.463  1.00  0.00    -0.000 C 
BRANCH   4   5
ATOM      5  C   UNL     1       5.678 -35.161  19.571  1.00  0.00    -0.000 C 
BRANCH   5   6
ATOM      6  C   UNL     1       5.270 -35.200  18.089  1.00  0.00    -0.000 C 
BRANCH   6   7
ATOM      7  C   UNL     1       4.033 -36.080  17.842  1.00  0.00    -0.000 C 
BRANCH   7   8
ATOM      8  C   UNL     1       3.264 -35.676  16.572  1.00  0.00    -0.000 C 
BRANCH   8   9
ATOM      9  C   UNL     1       2.671 -36.882  15.827  1.00  0.00    -0.000 C 
BRANCH   9  10
ATOM     10  C   UNL     1       2.952 -36.786  14.321  1.00  0.00    -0.000 C 
BRANCH  10  11
ATOM     11  C   UNL     1       4.277 -37.455  13.920  1.00  0.00    -0.003 C 
ATOM     12  C   UNL     1       4.362 -38.916  14.360  1.00  0.00     0.004 C 
ENDBRANCH  10  11
ENDBRANCH   9  10
ENDBRANCH   8   9
ENDBRANCH   7   8
ENDBRANCH   6   7
ENDBRANCH   5   6
ENDBRANCH   4   5
ENDBRANCH   3   4
ENDBRANCH   2   3
ENDBRANCH   1   2
BRANCH   1  13
ATOM     13  C   UNL     1       6.092 -36.193  24.986  1.00  0.00     0.000 C 
BRANCH  13  14
ATOM     14  C   UNL     1       5.411 -37.471  25.494  1.00  0.00     0.000 C 
BRANCH  14  15
ATOM     15  C   UNL     1       4.722 -38.220  24.347  1.00  0.00     0.000 C 
BRANCH  15  16
ATOM     16  C   UNL     1       5.500 -39.492  23.974  1.00  0.00     0.000 C 
BRANCH  16  17
ATOM     17  C   UNL     1       5.501 -39.762  22.454  1.00  0.00     0.000 C 
BRANCH  17  18
ATOM     18  C   UNL     1       5.553 -38.483  21.596  1.00  0.00     0.000 C 
BRANCH  18  19
ATOM     19  C   UNL     1       5.460 -38.711  20.075  1.00  0.00     0.000 C 
BRANCH  19  20
ATOM     20  C   UNL     1       4.158 -38.214  19.419  1.00  0.00     0.006 C 
BRANCH  20  21
ATOM     21  C   UNL     1       2.934 -38.357  20.332  1.00  0.00     0.053 C 
BRANCH  21  22
ATOM     22  C   UNL     1       1.684 -38.024  19.581  1.00  0.00     0.041 C 
ATOM     23  O   UNL     1       1.523 -38.446  18.405  1.00  0.00    -0.550 OA
ATOM     24  O   UNL     1       0.673 -37.296  20.196  1.00  0.00    -0.550 OA
ENDBRANCH  21  22
ENDBRANCH  20  21
ENDBRANCH  19  20
ENDBRANCH  18  19
ENDBRANCH  17  18
ENDBRANCH  16  17
ENDBRANCH  15  16
ENDBRANCH  14  15
ENDBRANCH  13  14
ENDBRANCH   1  13
TORSDOF 20
ENDMDL
MODEL 7
REMARK VINA RESULT:     1.087      1.652      3.337
REMARK INTER + INTRA:           1.478
REMARK INTER:                   1.541
REMARK INTRA:                  -0.063
REMARK UNBOUND:                -0.881
REMARK SMILES CCCCCCCCCCCCCCCCCCCCCC(=O)[O-]
REMARK SMILES IDX 12 1 11 2 10 3 9 4 8 5 7 6 6 7 5 8 4 9 3 10 2 11 1 12 13 13
REMARK SMILES IDX 14 14 15 15 16 16 17 17 18 18 19 19 20 20 21 21 22 22 23 23
REMARK SMILES IDX 24 24
REMARK H PARENT
REMARK Flexibility Score: inf
ROOT
ATOM      1  C   UNL     1       4.131 -35.773  21.769  1.00  0.00     0.000 C 
ENDROOT
BRANCH   1   2
ATOM      2  C   UNL     1       3.695 -36.063  20.324  1.00  0.00     0.000 C 
BRANCH   2   3
ATOM      3  C   UNL     1       2.993 -37.424  20.172  1.00  0.00     0.000 C 
BRANCH   3   4
ATOM      4  C   UNL     1       2.085 -37.516  18.927  1.00  0.00    -0.000 C 
BRANCH   4   5
ATOM      5  C   UNL     1       2.879 -37.382  17.616  1.00  0.00    -0.000 C 
BRANCH   5   6
ATOM      6  C   UNL     1       1.981 -37.458  16.370  1.00  0.00    -0.000 C 
BRANCH   6   7
ATOM      7  C   UNL     1       2.471 -36.543  15.235  1.00  0.00    -0.000 C 
BRANCH   7   8
ATOM      8  C   UNL     1       3.271 -37.305  14.165  1.00  0.00    -0.000 C 
BRANCH   8   9
ATOM      9  C   UNL     1       4.529 -37.980  14.732  1.00  0.00    -0.000 C 
BRANCH   9  10
ATOM     10  C   UNL     1       4.933 -39.190  13.877  1.00  0.00    -0.000 C 
BRANCH  10  11
ATOM     11  C   UNL     1       4.677 -40.530  14.585  1.00  0.00    -0.003 C 
ATOM     12  C   UNL     1       5.564 -41.659  14.060  1.00  0.00     0.004 C 
ENDBRANCH  10  11
ENDBRANCH   9  10
ENDBRANCH   8   9
ENDBRANCH   7   8
ENDBRANCH   6   7
ENDBRANCH   5   6
ENDBRANCH   4   5
ENDBRANCH   3   4
ENDBRANCH   2   3
ENDBRANCH   1   2
BRANCH   1  13
ATOM     13  C   UNL     1       5.602 -35.335  21.865  1.00  0.00     0.000 C 
BRANCH  13  14
ATOM     14  C   UNL     1       5.893 -34.527  23.137  1.00  0.00     0.000 C 
BRANCH  14  15
ATOM     15  C   UNL     1       4.965 -34.949  24.282  1.00  0.00     0.000 C 
BRANCH  15  16
ATOM     16  C   UNL     1       5.773 -35.407  25.506  1.00  0.00     0.000 C 
BRANCH  16  17
ATOM     17  C   UNL     1       6.124 -36.910  25.456  1.00  0.00     0.000 C 
BRANCH  17  18
ATOM     18  C   UNL     1       5.110 -37.759  24.665  1.00  0.00     0.000 C 
BRANCH  18  19
ATOM     19  C   UNL     1       5.556 -39.204  24.369  1.00  0.00     0.000 C 
BRANCH  19  20
ATOM     20  C   UNL     1       4.795 -39.900  23.225  1.00  0.00     0.006 C 
BRANCH  20  21
ATOM     21  C   UNL     1       5.709 -40.336  22.073  1.00  0.00     0.053 C 
BRANCH  21  22
ATOM     22  C   UNL     1       5.939 -39.196  21.132  1.00  0.00     0.041 C 
ATOM     23  O   UNL     1       5.949 -39.397  19.889  1.00  0.00    -0.550 OA
ATOM     24  O   UNL     1       6.087 -37.905  21.623  1.00  0.00    -0.550 OA
ENDBRANCH  21  22
ENDBRANCH  20  21
ENDBRANCH  19  20
ENDBRANCH  18  19
ENDBRANCH  17  18
ENDBRANCH  16  17
ENDBRANCH  15  16
ENDBRANCH  14  15
ENDBRANCH  13  14
ENDBRANCH   1  13
TORSDOF 20
ENDMDL
MODEL 8
REMARK VINA RESULT:     1.134      2.981      7.156
REMARK INTER + INTRA:           1.579
REMARK INTER:                   3.063
REMARK INTRA:                  -1.484
REMARK UNBOUND:                -0.881
REMARK SMILES CCCCCCCCCCCCCCCCCCCCCC(=O)[O-]
REMARK SMILES IDX 12 1 11 2 10 3 9 4 8 5 7 6 6 7 5 8 4 9 3 10 2 11 1 12 13 13
REMARK SMILES IDX 14 14 15 15 16 16 17 17 18 18 19 19 20 20 21 21 22 22 23 23
REMARK SMILES IDX 24 24
REMARK H PARENT
REMARK Flexibility Score: inf
ROOT
ATOM      1  C   UNL     1       5.209 -39.763  23.588  1.00  0.00     0.000 C 
ENDROOT
BRANCH   1   2
ATOM      2  C   UNL     1       4.833 -38.795  24.721  1.00  0.00     0.000 C 
BRANCH   2   3
ATOM      3  C   UNL     1       5.773 -37.580  24.806  1.00  0.00     0.000 C 
BRANCH   3   4
ATOM      4  C   UNL     1       5.339 -36.534  25.856  1.00  0.00    -0.000 C 
BRANCH   4   5
ATOM      5  C   UNL     1       5.980 -35.157  25.606  1.00  0.00    -0.000 C 
BRANCH   5   6
ATOM      6  C   UNL     1       6.125 -34.836  24.110  1.00  0.00    -0.000 C 
BRANCH   6   7
ATOM      7  C   UNL     1       4.789 -34.940  23.353  1.00  0.00    -0.000 C 
BRANCH   7   8
ATOM      8  C   UNL     1       4.946 -34.703  21.842  1.00  0.00    -0.000 C 
BRANCH   8   9
ATOM      9  C   UNL     1       6.107 -35.505  21.232  1.00  0.00    -0.000 C 
BRANCH   9  10
ATOM     10  C   UNL     1       6.061 -35.452  19.698  1.00  0.00    -0.000 C 
BRANCH  10  11
ATOM     11  C   UNL     1       4.979 -34.497  19.169  1.00  0.00    -0.003 C 
ATOM     12  C   UNL     1       5.119 -34.212  17.673  1.00  0.00     0.004 C 
ENDBRANCH  10  11
ENDBRANCH   9  10
ENDBRANCH   8   9
ENDBRANCH   7   8
ENDBRANCH   6   7
ENDBRANCH   5   6
ENDBRANCH   4   5
ENDBRANCH   3   4
ENDBRANCH   2   3
ENDBRANCH   1   2
BRANCH   1  13
ATOM     13  C   UNL     1       5.980 -39.072  22.452  1.00  0.00     0.000 C 
BRANCH  13  14
ATOM     14  C   UNL     1       5.986 -39.897  21.158  1.00  0.00     0.000 C 
BRANCH  14  15
ATOM     15  C   UNL     1       5.520 -39.053  19.966  1.00  0.00     0.000 C 
BRANCH  15  16
ATOM     16  C   UNL     1       4.363 -38.125  20.367  1.00  0.00     0.000 C 
BRANCH  16  17
ATOM     17  C   UNL     1       3.638 -37.519  19.146  1.00  0.00     0.000 C 
BRANCH  17  18
ATOM     18  C   UNL     1       2.123 -37.797  19.122  1.00  0.00     0.000 C 
BRANCH  18  19
ATOM     19  C   UNL     1       1.467 -37.731  17.730  1.00  0.00     0.000 C 
BRANCH  19  20
ATOM     20  C   UNL     1       2.303 -37.022  16.648  1.00  0.00     0.006 C 
BRANCH  20  21
ATOM     21  C   UNL     1       2.688 -37.947  15.486  1.00  0.00     0.053 C 
BRANCH  21  22
ATOM     22  C   UNL     1       3.599 -37.236  14.535  1.00  0.00     0.041 C 
ATOM     23  O   UNL     1       3.330 -36.064  14.161  1.00  0.00    -0.550 OA
ATOM     24  O   UNL     1       4.773 -37.843  14.107  1.00  0.00    -0.550 OA
ENDBRANCH  21  22
ENDBRANCH  20  21
ENDBRANCH  19  20
ENDBRANCH  18  19
ENDBRANCH  17  18
ENDBRANCH  16  17
ENDBRANCH  15  16
ENDBRANCH  14  15
ENDBRANCH  13  14
ENDBRANCH   1  13
TORSDOF 20
ENDMDL
MODEL 9
REMARK VINA RESULT:     2.037      1.735      3.534
REMARK INTER + INTRA:           3.538
REMARK INTER:                   5.132
REMARK INTRA:                  -1.594
REMARK UNBOUND:                -0.881
REMARK SMILES CCCCCCCCCCCCCCCCCCCCCC(=O)[O-]
REMARK SMILES IDX 12 1 11 2 10 3 9 4 8 5 7 6 6 7 5 8 4 9 3 10 2 11 1 12 13 13
REMARK SMILES IDX 14 14 15 15 16 16 17 17 18 18 19 19 20 20 21 21 22 22 23 23
REMARK SMILES IDX 24 24
REMARK H PARENT
REMARK Flexibility Score: inf
ROOT
ATOM      1  C   UNL     1       1.210 -37.916  19.870  1.00  0.00     0.000 C 
ENDROOT
BRANCH   1   2
ATOM      2  C   UNL     1       0.464 -37.698  18.543  1.00  0.00     0.000 C 
BRANCH   2   3
ATOM      3  C   UNL     1       1.388 -37.785  17.316  1.00  0.00     0.000 C 
BRANCH   3   4
ATOM      4  C   UNL     1       1.302 -36.553  16.389  1.00  0.00    -0.000 C 
BRANCH   4   5
ATOM      5  C   UNL     1       2.682 -36.127  15.858  1.00  0.00    -0.000 C 
BRANCH   5   6
ATOM      6  C   UNL     1       2.879 -36.479  14.374  1.00  0.00    -0.000 C 
BRANCH   6   7
ATOM      7  C   UNL     1       4.170 -37.278  14.125  1.00  0.00    -0.000 C 
BRANCH   7   8
ATOM      8  C   UNL     1       4.165 -38.645  14.831  1.00  0.00    -0.000 C 
BRANCH   8   9
ATOM      9  C   UNL     1       4.474 -39.808  13.875  1.00  0.00    -0.000 C 
BRANCH   9  10
ATOM     10  C   UNL     1       5.750 -40.545  14.306  1.00  0.00    -0.000 C 
BRANCH  10  11
ATOM     11  C   UNL     1       5.728 -42.037  13.937  1.00  0.00    -0.003 C 
ATOM     12  C   UNL     1       6.054 -42.947  15.122  1.00  0.00     0.004 C 
ENDBRANCH  10  11
ENDBRANCH   9  10
ENDBRANCH   8   9
ENDBRANCH   7   8
ENDBRANCH   6   7
ENDBRANCH   5   6
ENDBRANCH   4   5
ENDBRANCH   3   4
ENDBRANCH   2   3
ENDBRANCH   1   2
BRANCH   1  13
ATOM     13  C   UNL     1       2.720 -37.656  19.748  1.00  0.00     0.000 C 
BRANCH  13  14
ATOM     14  C   UNL     1       3.157 -36.375  20.472  1.00  0.00     0.000 C 
BRANCH  14  15
ATOM     15  C   UNL     1       4.671 -36.164  20.349  1.00  0.00     0.000 C 
BRANCH  15  16
ATOM     16  C   UNL     1       5.256 -35.604  21.654  1.00  0.00     0.000 C 
BRANCH  16  17
ATOM     17  C   UNL     1       6.125 -36.637  22.405  1.00  0.00     0.000 C 
BRANCH  17  18
ATOM     18  C   UNL     1       6.079 -38.050  21.793  1.00  0.00     0.000 C 
BRANCH  18  19
ATOM     19  C   UNL     1       5.608 -39.163  22.749  1.00  0.00     0.000 C 
BRANCH  19  20
ATOM     20  C   UNL     1       5.805 -38.863  24.246  1.00  0.00     0.006 C 
BRANCH  20  21
ATOM     21  C   UNL     1       4.496 -38.903  25.045  1.00  0.00     0.053 C 
BRANCH  21  22
ATOM     22  C   UNL     1       4.338 -37.649  25.846  1.00  0.00     0.041 C 
ATOM     23  O   UNL     1       5.093 -36.664  25.632  1.00  0.00    -0.550 OA
ATOM     24  O   UNL     1       3.323 -37.548  26.789  1.00  0.00    -0.550 OA
ENDBRANCH  21  22
ENDBRANCH  20  21
ENDBRANCH  19  20
ENDBRANCH  18  19
ENDBRANCH  17  18
ENDBRANCH  16  17
ENDBRANCH  15  16
ENDBRANCH  14  15
ENDBRANCH  13  14
ENDBRANCH   1  13
TORSDOF 20
ENDMDL
