MODEL 1
REMARK VINA RESULT:     4.882      0.000      0.000
REMARK INTER + INTRA:           7.336
REMARK INTER:                   7.736
REMARK INTRA:                  -0.400
REMARK UNBOUND:                -0.400
REMARK SMILES CCCCCCCCCCCC(=O)[O-]
REMARK SMILES IDX 7 1 8 2 9 3 10 4 11 5 12 6 13 7 14 8 6 9 5 10 4 11 3 12 2 13
REMARK SMILES IDX 1 14
REMARK H PARENT
REMARK Flexibility Score: inf
ROOT
ATOM      1  C   UNL     1     -34.358  15.089  17.411  1.00  0.00     0.000 C 
ENDROOT
BRANCH   1   2
ATOM      2  C   UNL     1     -34.041  13.877  16.524  1.00  0.00     0.000 C 
BRANCH   2   3
ATOM      3  C   UNL     1     -32.882  13.056  17.107  1.00  0.00     0.000 C 
BRANCH   3   4
ATOM      4  C   UNL     1     -32.849  13.066  18.647  1.00  0.00     0.006 C 
BRANCH   4   5
ATOM      5  C   UNL     1     -32.863  11.662  19.280  1.00  0.00     0.053 C 
BRANCH   5   6
ATOM      6  C   UNL     1     -33.743  11.581  20.489  1.00  0.00     0.041 C 
ATOM      7  O   UNL     1     -34.317  10.500  20.788  1.00  0.00    -0.550 OA
ATOM      8  O   UNL     1     -33.960  12.710  21.270  1.00  0.00    -0.550 OA
ENDBRANCH   5   6
ENDBRANCH   4   5
ENDBRANCH   3   4
ENDBRANCH   2   3
ENDBRANCH   1   2
BRANCH   1   9
ATOM      9  C   UNL     1     -35.015  16.245  16.636  1.00  0.00     0.000 C 
BRANCH   9  10
ATOM     10  C   UNL     1     -35.312  17.501  17.475  1.00  0.00    -0.000 C 
BRANCH  10  11
ATOM     11  C   UNL     1     -36.811  17.684  17.771  1.00  0.00    -0.000 C 
BRANCH  11  12
ATOM     12  C   UNL     1     -37.591  16.356  17.675  1.00  0.00    -0.000 C 
BRANCH  12  13
ATOM     13  C   UNL     1     -39.042  16.459  18.172  1.00  0.00    -0.003 C 
ATOM     14  C   UNL     1     -39.974  17.130  17.166  1.00  0.00     0.004 C 
ENDBRANCH  12  13
ENDBRANCH  11  12
ENDBRANCH  10  11
ENDBRANCH   9  10
ENDBRANCH   1   9
TORSDOF 10
ENDMDL
MODEL 2
REMARK VINA RESULT:     4.981      2.748      6.192
REMARK INTER + INTRA:           7.494
REMARK INTER:                   7.822
REMARK INTRA:                  -0.328
REMARK UNBOUND:                -0.400
REMARK SMILES CCCCCCCCCCCC(=O)[O-]
REMARK SMILES IDX 7 1 8 2 9 3 10 4 11 5 12 6 13 7 14 8 6 9 5 10 4 11 3 12 2 13
REMARK SMILES IDX 1 14
REMARK H PARENT
REMARK Flexibility Score: inf
ROOT
ATOM      1  C   UNL     1     -34.355  14.999  17.670  1.00  0.00     0.000 C 
ENDROOT
BRANCH   1   2
ATOM      2  C   UNL     1     -34.779  16.095  16.682  1.00  0.00     0.000 C 
BRANCH   2   3
ATOM      3  C   UNL     1     -35.120  17.398  17.419  1.00  0.00     0.000 C 
BRANCH   3   4
ATOM      4  C   UNL     1     -36.609  17.509  17.793  1.00  0.00     0.006 C 
BRANCH   4   5
ATOM      5  C   UNL     1     -37.425  16.239  17.489  1.00  0.00     0.053 C 
BRANCH   5   6
ATOM      6  C   UNL     1     -38.748  16.218  18.191  1.00  0.00     0.041 C 
ATOM      7  O   UNL     1     -38.910  15.518  19.225  1.00  0.00    -0.550 OA
ATOM      8  O   UNL     1     -39.817  16.947  17.683  1.00  0.00    -0.550 OA
ENDBRANCH   5   6
ENDBRANCH   4   5
ENDBRANCH   3   4
ENDBRANCH   2   3
ENDBRANCH   1   2
BRANCH   1   9
ATOM      9  C   UNL     1     -33.839  13.727  16.972  1.00  0.00     0.000 C 
BRANCH   9  10
ATOM     10  C   UNL     1     -32.626  13.063  17.649  1.00  0.00    -0.000 C 
BRANCH  10  11
ATOM     11  C   UNL     1     -32.852  12.784  19.145  1.00  0.00    -0.000 C 
BRANCH  11  12
ATOM     12  C   UNL     1     -33.256  11.319  19.410  1.00  0.00    -0.000 C 
BRANCH  12  13
ATOM     13  C   UNL     1     -34.019  11.121  20.730  1.00  0.00    -0.003 C 
ATOM     14  C   UNL     1     -34.009  12.361  21.620  1.00  0.00     0.004 C 
ENDBRANCH  12  13
ENDBRANCH  11  12
ENDBRANCH  10  11
ENDBRANCH   9  10
ENDBRANCH   1   9
TORSDOF 10
ENDMDL
MODEL 3
REMARK VINA RESULT:     5.552      1.261      2.417
REMARK INTER + INTRA:           8.398
REMARK INTER:                   8.924
REMARK INTRA:                  -0.526
REMARK UNBOUND:                -0.400
REMARK SMILES CCCCCCCCCCCC(=O)[O-]
REMARK SMILES IDX 7 1 8 2 9 3 10 4 11 5 12 6 13 7 14 8 6 9 5 10 4 11 3 12 2 13
REMARK SMILES IDX 1 14
REMARK H PARENT
REMARK Flexibility Score: inf
ROOT
ATOM      1  C   UNL     1     -35.101  17.413  17.472  1.00  0.00     0.000 C 
ENDROOT
BRANCH   1   2
ATOM      2  C   UNL     1     -34.828  16.178  16.602  1.00  0.00     0.000 C 
BRANCH   2   3
ATOM      3  C   UNL     1     -34.332  15.002  17.456  1.00  0.00     0.000 C 
BRANCH   3   4
ATOM      4  C   UNL     1     -33.671  13.887  16.624  1.00  0.00     0.006 C 
BRANCH   4   5
ATOM      5  C   UNL     1     -33.595  12.531  17.349  1.00  0.00     0.053 C 
BRANCH   5   6
ATOM      6  C   UNL     1     -32.757  12.584  18.590  1.00  0.00     0.041 C 
ATOM      7  O   UNL     1     -33.261  12.307  19.710  1.00  0.00    -0.550 OA
ATOM      8  O   UNL     1     -31.425  12.973  18.514  1.00  0.00    -0.550 OA
ENDBRANCH   5   6
ENDBRANCH   4   5
ENDBRANCH   3   4
ENDBRANCH   2   3
ENDBRANCH   1   2
BRANCH   1   9
ATOM      9  C   UNL     1     -36.594  17.596  17.802  1.00  0.00     0.000 C 
BRANCH   9  10
ATOM     10  C   UNL     1     -37.489  16.398  17.437  1.00  0.00    -0.000 C 
BRANCH  10  11
ATOM     11  C   UNL     1     -38.404  15.958  18.594  1.00  0.00    -0.000 C 
BRANCH  11  12
ATOM     12  C   UNL     1     -39.826  16.542  18.467  1.00  0.00    -0.000 C 
BRANCH  12  13
ATOM     13  C   UNL     1     -40.292  16.715  17.012  1.00  0.00    -0.003 C 
ATOM     14  C   UNL     1     -40.681  18.152  16.674  1.00  0.00     0.004 C 
ENDBRANCH  12  13
ENDBRANCH  11  12
ENDBRANCH  10  11
ENDBRANCH   9  10
ENDBRANCH   1   9
TORSDOF 10
ENDMDL
