MODEL 1
REMARK VINA RESULT:    -8.044      0.000      0.000
REMARK INTER + INTRA:         -11.572
REMARK INTER:                 -10.631
REMARK INTRA:                  -0.941
REMARK UNBOUND:                -0.941
REMARK SMILES CC[C@H](C=C[C@@H](C)[C@H]1CC[C@H]2C3=CC[C@@H]4C[C@@H](O)CC[C@]4(C)[C@@H]3CC[C@]12C)C(C)C
REMARK SMILES IDX 6 1 7 2 5 3 4 4 3 5 2 6 1 7 28 8 29 9 30 10 8 11 9 12 26 13
REMARK SMILES IDX 10 14 11 15 25 16 27 17 12 18 24 19 23 20 13 21 21 22 14 23
REMARK SMILES IDX 15 24 20 25 22 26 16 27 19 28 17 29 18 30
REMARK H PARENT 18 31
REMARK Flexibility Score: inf
ROOT
ATOM      1  C   UNL     1     117.850 125.740 126.666  1.00  0.00     0.012 C 
ATOM      2  C   UNL     1     117.031 126.339 127.820  1.00  0.00     0.012 C 
ENDROOT
BRANCH   1   3
ATOM      3  C   UNL     1     118.466 126.877 125.877  1.00  0.00    -0.028 C 
ATOM      4  C   UNL     1     118.256 128.158 126.218  1.00  0.00    -0.027 C 
BRANCH   4   5
ATOM      5  C   UNL     1     118.846 129.299 125.412  1.00  0.00     0.014 C 
BRANCH   5   6
ATOM      6  C   UNL     1     117.747 130.357 125.132  1.00  0.00     0.004 C 
ATOM      7  C   UNL     1     116.510 130.223 126.026  1.00  0.00     0.004 C 
ENDBRANCH   5   6
BRANCH   5   8
ATOM      8  C   UNL     1     120.125 129.871 126.102  1.00  0.00    -0.011 C 
ATOM      9  C   UNL     1     120.049 131.396 126.296  1.00  0.00     0.008 C 
ATOM     10  C   UNL     1     121.387 129.539 125.282  1.00  0.00     0.008 C 
ENDBRANCH   5   8
ENDBRANCH   4   5
ENDBRANCH   1   3
BRANCH   1  11
ATOM     11  C   UNL     1     116.982 124.839 125.731  1.00  0.00     0.002 C 
ATOM     12  C   UNL     1     117.701 124.517 124.394  1.00  0.00     0.005 C 
ATOM     13  C   UNL     1     116.546 123.443 126.272  1.00  0.00    -0.023 C 
ATOM     14  C   UNL     1     117.276 123.102 123.979  1.00  0.00     0.009 C 
ATOM     15  C   UNL     1     116.163 122.747 124.956  1.00  0.00     0.021 C 
ATOM     16  C   UNL     1     115.305 123.456 127.222  1.00  0.00     0.008 C 
ATOM     17  C   UNL     1     117.742 122.723 126.976  1.00  0.00     0.012 C 
ATOM     18  C   UNL     1     115.794 121.297 125.201  1.00  0.00    -0.067 C 
ATOM     19  C   UNL     1     114.263 122.337 126.938  1.00  0.00     0.009 C 
ATOM     20  C   UNL     1     114.882 121.011 126.386  1.00  0.00     0.021 C 
ATOM     21  C   UNL     1     116.175 120.311 124.374  1.00  0.00    -0.027 C 
ATOM     22  C   UNL     1     113.829 119.895 126.040  1.00  0.00    -0.023 C 
ATOM     23  C   UNL     1     115.763 118.877 124.558  1.00  0.00     0.031 C 
ATOM     24  C   UNL     1     114.614 118.614 125.583  1.00  0.00     0.002 C 
ATOM     25  C   UNL     1     112.852 120.349 124.912  1.00  0.00     0.010 C 
ATOM     26  C   UNL     1     113.018 119.571 127.330  1.00  0.00     0.012 C 
ATOM     27  C   UNL     1     113.676 117.498 125.054  1.00  0.00     0.036 C 
ATOM     28  C   UNL     1     111.925 119.221 124.434  1.00  0.00     0.032 C 
ATOM     29  C   UNL     1     112.718 118.001 123.956  1.00  0.00     0.114 C 
BRANCH  29  30
ATOM     30  O   UNL     1     111.819 116.981 123.609  1.00  0.00    -0.393 OA
ATOM     31  H   UNL     1     111.672 116.437 124.427  1.00  0.00     0.210 HD
ENDBRANCH  29  30
ENDBRANCH   1  11
TORSDOF 6
ENDMDL
MODEL 2
REMARK VINA RESULT:    -7.486      1.715      3.616
REMARK INTER + INTRA:         -10.834
REMARK INTER:                  -9.677
REMARK INTRA:                  -1.157
REMARK UNBOUND:                -0.941
REMARK SMILES CC[C@H](C=C[C@@H](C)[C@H]1CC[C@H]2C3=CC[C@@H]4C[C@@H](O)CC[C@]4(C)[C@@H]3CC[C@]12C)C(C)C
REMARK SMILES IDX 6 1 7 2 5 3 4 4 3 5 2 6 1 7 28 8 29 9 30 10 8 11 9 12 26 13
REMARK SMILES IDX 10 14 11 15 25 16 27 17 12 18 24 19 23 20 13 21 21 22 14 23
REMARK SMILES IDX 15 24 20 25 22 26 16 27 19 28 17 29 18 30
REMARK H PARENT 18 31
REMARK Flexibility Score: inf
ROOT
ATOM      1  C   UNL     1     117.445 123.721 124.428  1.00  0.00     0.012 C 
ATOM      2  C   UNL     1     118.721 123.472 123.610  1.00  0.00     0.012 C 
ENDROOT
BRANCH   1   3
ATOM      3  C   UNL     1     117.644 124.974 125.257  1.00  0.00    -0.028 C 
ATOM      4  C   UNL     1     118.731 125.745 125.105  1.00  0.00    -0.027 C 
BRANCH   4   5
ATOM      5  C   UNL     1     118.949 126.983 125.953  1.00  0.00     0.014 C 
BRANCH   5   6
ATOM      6  C   UNL     1     119.398 128.159 125.047  1.00  0.00     0.004 C 
ATOM      7  C   UNL     1     120.723 128.802 125.469  1.00  0.00     0.004 C 
ENDBRANCH   5   6
BRANCH   5   8
ATOM      8  C   UNL     1     117.694 127.292 126.829  1.00  0.00    -0.011 C 
ATOM      9  C   UNL     1     117.169 128.722 126.610  1.00  0.00     0.008 C 
ATOM     10  C   UNL     1     118.008 127.103 128.326  1.00  0.00     0.008 C 
ENDBRANCH   5   8
ENDBRANCH   4   5
ENDBRANCH   1   3
BRANCH   1  11
ATOM     11  C   UNL     1     117.090 122.512 125.351  1.00  0.00     0.002 C 
ATOM     12  C   UNL     1     117.243 122.858 126.857  1.00  0.00     0.005 C 
ATOM     13  C   UNL     1     115.652 121.918 125.244  1.00  0.00    -0.023 C 
ATOM     14  C   UNL     1     116.164 122.074 127.615  1.00  0.00     0.009 C 
ATOM     15  C   UNL     1     115.579 121.136 126.566  1.00  0.00     0.021 C 
ATOM     16  C   UNL     1     115.429 120.928 124.055  1.00  0.00     0.008 C 
ATOM     17  C   UNL     1     114.583 123.057 125.191  1.00  0.00     0.012 C 
ATOM     18  C   UNL     1     114.202 120.534 126.761  1.00  0.00    -0.067 C 
ATOM     19  C   UNL     1     114.637 119.642 124.425  1.00  0.00     0.009 C 
ATOM     20  C   UNL     1     113.577 119.846 125.556  1.00  0.00     0.021 C 
ATOM     21  C   UNL     1     113.586 120.523 127.953  1.00  0.00    -0.027 C 
ATOM     22  C   UNL     1     112.814 118.536 125.976  1.00  0.00    -0.023 C 
ATOM     23  C   UNL     1     112.252 119.871 128.185  1.00  0.00     0.031 C 
ATOM     24  C   UNL     1     111.737 118.929 127.051  1.00  0.00     0.002 C 
ATOM     25  C   UNL     1     113.783 117.464 126.563  1.00  0.00     0.010 C 
ATOM     26  C   UNL     1     112.100 117.959 124.718  1.00  0.00     0.012 C 
ATOM     27  C   UNL     1     111.034 117.691 127.667  1.00  0.00     0.036 C 
ATOM     28  C   UNL     1     113.046 116.246 127.142  1.00  0.00     0.032 C 
ATOM     29  C   UNL     1     112.033 116.654 128.215  1.00  0.00     0.114 C 
BRANCH  29  30
ATOM     30  O   UNL     1     111.341 115.511 128.644  1.00  0.00    -0.393 OA
ATOM     31  H   UNL     1     110.789 115.205 127.878  1.00  0.00     0.210 HD
ENDBRANCH  29  30
ENDBRANCH   1  11
TORSDOF 6
ENDMDL
MODEL 3
REMARK VINA RESULT:    -7.408      1.787      3.760
REMARK INTER + INTRA:         -10.731
REMARK INTER:                 -10.062
REMARK INTRA:                  -0.668
REMARK UNBOUND:                -0.941
REMARK SMILES CC[C@H](C=C[C@@H](C)[C@H]1CC[C@H]2C3=CC[C@@H]4C[C@@H](O)CC[C@]4(C)[C@@H]3CC[C@]12C)C(C)C
REMARK SMILES IDX 6 1 7 2 5 3 4 4 3 5 2 6 1 7 28 8 29 9 30 10 8 11 9 12 26 13
REMARK SMILES IDX 10 14 11 15 25 16 27 17 12 18 24 19 23 20 13 21 21 22 14 23
REMARK SMILES IDX 15 24 20 25 22 26 16 27 19 28 17 29 18 30
REMARK H PARENT 18 31
REMARK Flexibility Score: inf
ROOT
ATOM      1  C   UNL     1     117.337 123.678 123.992  1.00  0.00     0.012 C 
ATOM      2  C   UNL     1     118.529 122.768 123.657  1.00  0.00     0.012 C 
ENDROOT
BRANCH   1   3
ATOM      3  C   UNL     1     117.871 124.974 124.569  1.00  0.00    -0.028 C 
ATOM      4  C   UNL     1     118.132 125.099 125.879  1.00  0.00    -0.027 C 
BRANCH   4   5
ATOM      5  C   UNL     1     118.637 126.403 126.465  1.00  0.00     0.014 C 
BRANCH   5   6
ATOM      6  C   UNL     1     119.168 127.312 125.325  1.00  0.00     0.004 C 
ATOM      7  C   UNL     1     120.415 128.118 125.700  1.00  0.00     0.004 C 
ENDBRANCH   5   6
BRANCH   5   8
ATOM      8  C   UNL     1     117.550 127.074 127.364  1.00  0.00    -0.011 C 
ATOM      9  C   UNL     1     116.394 126.113 127.693  1.00  0.00     0.008 C 
ATOM     10  C   UNL     1     116.973 128.330 126.684  1.00  0.00     0.008 C 
ENDBRANCH   5   8
ENDBRANCH   4   5
ENDBRANCH   1   3
BRANCH   1  11
ATOM     11  C   UNL     1     116.346 123.007 124.996  1.00  0.00     0.002 C 
ATOM     12  C   UNL     1     114.969 123.723 125.029  1.00  0.00     0.005 C 
ATOM     13  C   UNL     1     115.986 121.508 124.764  1.00  0.00    -0.023 C 
ATOM     14  C   UNL     1     113.904 122.649 125.282  1.00  0.00     0.009 C 
ATOM     15  C   UNL     1     114.708 121.397 125.612  1.00  0.00     0.021 C 
ATOM     16  C   UNL     1     117.039 120.481 125.295  1.00  0.00     0.008 C 
ATOM     17  C   UNL     1     115.697 121.233 123.252  1.00  0.00     0.012 C 
ATOM     18  C   UNL     1     114.082 120.025 125.468  1.00  0.00    -0.067 C 
ATOM     19  C   UNL     1     116.432 119.267 126.053  1.00  0.00     0.009 C 
ATOM     20  C   UNL     1     115.022 118.830 125.538  1.00  0.00     0.021 C 
ATOM     21  C   UNL     1     112.755 119.849 125.367  1.00  0.00    -0.027 C 
ATOM     22  C   UNL     1     114.376 117.641 126.339  1.00  0.00    -0.023 C 
ATOM     23  C   UNL     1     112.107 118.495 125.292  1.00  0.00     0.031 C 
ATOM     24  C   UNL     1     113.014 117.275 125.647  1.00  0.00     0.002 C 
ATOM     25  C   UNL     1     114.127 118.015 127.834  1.00  0.00     0.010 C 
ATOM     26  C   UNL     1     115.339 116.418 126.264  1.00  0.00     0.012 C 
ATOM     27  C   UNL     1     112.203 116.224 126.449  1.00  0.00     0.036 C 
ATOM     28  C   UNL     1     113.341 116.938 128.597  1.00  0.00     0.032 C 
ATOM     29  C   UNL     1     112.002 116.631 127.922  1.00  0.00     0.114 C 
BRANCH  29  30
ATOM     30  O   UNL     1     111.370 115.589 128.619  1.00  0.00    -0.393 OA
ATOM     31  H   UNL     1     110.580 115.985 129.073  1.00  0.00     0.210 HD
ENDBRANCH  29  30
ENDBRANCH   1  11
TORSDOF 6
ENDMDL
MODEL 4
REMARK VINA RESULT:    -7.358      2.037      3.569
REMARK INTER + INTRA:         -10.664
REMARK INTER:                  -9.597
REMARK INTRA:                  -1.067
REMARK UNBOUND:                -0.941
REMARK SMILES CC[C@H](C=C[C@@H](C)[C@H]1CC[C@H]2C3=CC[C@@H]4C[C@@H](O)CC[C@]4(C)[C@@H]3CC[C@]12C)C(C)C
REMARK SMILES IDX 6 1 7 2 5 3 4 4 3 5 2 6 1 7 28 8 29 9 30 10 8 11 9 12 26 13
REMARK SMILES IDX 10 14 11 15 25 16 27 17 12 18 24 19 23 20 13 21 21 22 14 23
REMARK SMILES IDX 15 24 20 25 22 26 16 27 19 28 17 29 18 30
REMARK H PARENT 18 31
REMARK Flexibility Score: inf
ROOT
ATOM      1  C   UNL     1     117.627 126.467 125.916  1.00  0.00     0.012 C 
ATOM      2  C   UNL     1     119.038 126.233 125.356  1.00  0.00     0.012 C 
ENDROOT
BRANCH   1   3
ATOM      3  C   UNL     1     117.586 127.841 126.554  1.00  0.00    -0.028 C 
ATOM      4  C   UNL     1     118.101 128.913 125.933  1.00  0.00    -0.027 C 
BRANCH   4   5
ATOM      5  C   UNL     1     118.090 130.284 126.580  1.00  0.00     0.014 C 
BRANCH   5   6
ATOM      6  C   UNL     1     119.541 130.829 126.663  1.00  0.00     0.004 C 
ATOM      7  C   UNL     1     120.566 129.993 125.890  1.00  0.00     0.004 C 
ENDBRANCH   5   6
BRANCH   5   8
ATOM      8  C   UNL     1     117.088 131.240 125.858  1.00  0.00    -0.011 C 
ATOM      9  C   UNL     1     115.636 131.013 126.314  1.00  0.00     0.008 C 
ATOM     10  C   UNL     1     117.161 131.059 124.329  1.00  0.00     0.008 C 
ENDBRANCH   5   8
ENDBRANCH   4   5
ENDBRANCH   1   3
BRANCH   1  11
ATOM     11  C   UNL     1     117.214 125.375 126.955  1.00  0.00     0.002 C 
ATOM     12  C   UNL     1     116.077 125.858 127.894  1.00  0.00     0.005 C 
ATOM     13  C   UNL     1     116.697 124.012 126.404  1.00  0.00    -0.023 C 
ATOM     14  C   UNL     1     115.209 124.637 128.221  1.00  0.00     0.009 C 
ATOM     15  C   UNL     1     115.994 123.460 127.655  1.00  0.00     0.021 C 
ATOM     16  C   UNL     1     117.810 123.008 125.961  1.00  0.00     0.008 C 
ATOM     17  C   UNL     1     115.689 124.234 125.230  1.00  0.00     0.012 C 
ATOM     18  C   UNL     1     115.294 122.151 127.347  1.00  0.00    -0.067 C 
ATOM     19  C   UNL     1     117.579 121.542 126.426  1.00  0.00     0.009 C 
ATOM     20  C   UNL     1     116.074 121.131 126.528  1.00  0.00     0.021 C 
ATOM     21  C   UNL     1     114.080 121.854 127.836  1.00  0.00    -0.027 C 
ATOM     22  C   UNL     1     115.832 119.669 127.054  1.00  0.00    -0.023 C 
ATOM     23  C   UNL     1     113.397 120.536 127.601  1.00  0.00     0.031 C 
ATOM     24  C   UNL     1     114.286 119.392 127.017  1.00  0.00     0.002 C 
ATOM     25  C   UNL     1     116.369 119.479 128.507  1.00  0.00     0.010 C 
ATOM     26  C   UNL     1     116.557 118.678 126.098  1.00  0.00     0.012 C 
ATOM     27  C   UNL     1     113.908 118.038 127.673  1.00  0.00     0.036 C 
ATOM     28  C   UNL     1     115.993 118.117 129.110  1.00  0.00     0.032 C 
ATOM     29  C   UNL     1     114.479 117.892 129.097  1.00  0.00     0.114 C 
BRANCH  29  30
ATOM     30  O   UNL     1     114.207 116.604 129.585  1.00  0.00    -0.393 OA
ATOM     31  H   UNL     1     113.247 116.425 129.405  1.00  0.00     0.210 HD
ENDBRANCH  29  30
ENDBRANCH   1  11
TORSDOF 6
ENDMDL
MODEL 5
REMARK VINA RESULT:    -7.277      1.513      2.432
REMARK INTER + INTRA:         -10.558
REMARK INTER:                  -9.602
REMARK INTRA:                  -0.956
REMARK UNBOUND:                -0.941
REMARK SMILES CC[C@H](C=C[C@@H](C)[C@H]1CC[C@H]2C3=CC[C@@H]4C[C@@H](O)CC[C@]4(C)[C@@H]3CC[C@]12C)C(C)C
REMARK SMILES IDX 6 1 7 2 5 3 4 4 3 5 2 6 1 7 28 8 29 9 30 10 8 11 9 12 26 13
REMARK SMILES IDX 10 14 11 15 25 16 27 17 12 18 24 19 23 20 13 21 21 22 14 23
REMARK SMILES IDX 15 24 20 25 22 26 16 27 19 28 17 29 18 30
REMARK H PARENT 18 31
REMARK Flexibility Score: inf
ROOT
ATOM      1  C   UNL     1     118.224 125.316 126.142  1.00  0.00     0.012 C 
ATOM      2  C   UNL     1     119.484 125.176 127.010  1.00  0.00     0.012 C 
ENDROOT
BRANCH   1   3
ATOM      3  C   UNL     1     117.916 126.792 125.981  1.00  0.00    -0.028 C 
ATOM      4  C   UNL     1     118.849 127.656 125.553  1.00  0.00    -0.027 C 
BRANCH   4   5
ATOM      5  C   UNL     1     118.555 129.137 125.420  1.00  0.00     0.014 C 
BRANCH   5   6
ATOM      6  C   UNL     1     117.282 129.488 126.236  1.00  0.00     0.004 C 
ATOM      7  C   UNL     1     116.480 130.662 125.666  1.00  0.00     0.004 C 
ENDBRANCH   5   6
BRANCH   5   8
ATOM      8  C   UNL     1     119.807 129.994 125.788  1.00  0.00    -0.011 C 
ATOM      9  C   UNL     1     119.810 131.357 125.073  1.00  0.00     0.008 C 
ATOM     10  C   UNL     1     121.108 129.247 125.435  1.00  0.00     0.008 C 
ENDBRANCH   5   8
ENDBRANCH   4   5
ENDBRANCH   1   3
BRANCH   1  11
ATOM     11  C   UNL     1     116.997 124.571 126.757  1.00  0.00     0.002 C 
ATOM     12  C   UNL     1     115.659 125.302 126.464  1.00  0.00     0.005 C 
ATOM     13  C   UNL     1     116.736 123.105 126.296  1.00  0.00    -0.023 C 
ATOM     14  C   UNL     1     114.579 124.224 126.305  1.00  0.00     0.009 C 
ATOM     15  C   UNL     1     115.271 122.937 126.733  1.00  0.00     0.021 C 
ATOM     16  C   UNL     1     117.607 122.019 127.007  1.00  0.00     0.008 C 
ATOM     17  C   UNL     1     116.891 122.974 124.746  1.00  0.00     0.012 C 
ATOM     18  C   UNL     1     114.728 121.593 126.292  1.00  0.00    -0.067 C 
ATOM     19  C   UNL     1     116.824 120.750 127.448  1.00  0.00     0.009 C 
ATOM     20  C   UNL     1     115.623 120.382 126.516  1.00  0.00     0.021 C 
ATOM     21  C   UNL     1     113.486 121.446 125.803  1.00  0.00    -0.027 C 
ATOM     22  C   UNL     1     114.791 119.134 126.988  1.00  0.00    -0.023 C 
ATOM     23  C   UNL     1     112.902 120.114 125.423  1.00  0.00     0.031 C 
ATOM     24  C   UNL     1     113.686 118.853 125.907  1.00  0.00     0.002 C 
ATOM     25  C   UNL     1     114.123 119.374 128.378  1.00  0.00     0.010 C 
ATOM     26  C   UNL     1     115.749 117.910 127.077  1.00  0.00     0.012 C 
ATOM     27  C   UNL     1     112.692 117.746 126.346  1.00  0.00     0.036 C 
ATOM     28  C   UNL     1     113.166 118.244 128.785  1.00  0.00     0.032 C 
ATOM     29  C   UNL     1     112.077 118.020 127.732  1.00  0.00     0.114 C 
BRANCH  29  30
ATOM     30  O   UNL     1     111.286 116.928 128.123  1.00  0.00    -0.393 OA
ATOM     31  H   UNL     1     110.341 117.233 128.094  1.00  0.00     0.210 HD
ENDBRANCH  29  30
ENDBRANCH   1  11
TORSDOF 6
ENDMDL
MODEL 6
REMARK VINA RESULT:    -6.874      2.268      4.453
REMARK INTER + INTRA:         -10.025
REMARK INTER:                  -8.688
REMARK INTRA:                  -1.338
REMARK UNBOUND:                -0.941
REMARK SMILES CC[C@H](C=C[C@@H](C)[C@H]1CC[C@H]2C3=CC[C@@H]4C[C@@H](O)CC[C@]4(C)[C@@H]3CC[C@]12C)C(C)C
REMARK SMILES IDX 6 1 7 2 5 3 4 4 3 5 2 6 1 7 28 8 29 9 30 10 8 11 9 12 26 13
REMARK SMILES IDX 10 14 11 15 25 16 27 17 12 18 24 19 23 20 13 21 21 22 14 23
REMARK SMILES IDX 15 24 20 25 22 26 16 27 19 28 17 29 18 30
REMARK H PARENT 18 31
REMARK Flexibility Score: inf
ROOT
ATOM      1  C   UNL     1     114.044 123.406 125.496  1.00  0.00     0.012 C 
ATOM      2  C   UNL     1     112.979 124.337 124.896  1.00  0.00     0.012 C 
ENDROOT
BRANCH   1   3
ATOM      3  C   UNL     1     115.318 124.202 125.694  1.00  0.00    -0.028 C 
ATOM      4  C   UNL     1     116.144 123.953 126.722  1.00  0.00    -0.027 C 
BRANCH   4   5
ATOM      5  C   UNL     1     117.404 124.768 126.941  1.00  0.00     0.014 C 
BRANCH   5   6
ATOM      6  C   UNL     1     118.645 123.901 126.604  1.00  0.00     0.004 C 
ATOM      7  C   UNL     1     118.418 122.395 126.766  1.00  0.00     0.004 C 
ENDBRANCH   5   6
BRANCH   5   8
ATOM      8  C   UNL     1     117.339 126.122 126.167  1.00  0.00    -0.011 C 
ATOM      9  C   UNL     1     118.680 126.476 125.499  1.00  0.00     0.008 C 
ATOM     10  C   UNL     1     116.935 127.275 127.108  1.00  0.00     0.008 C 
ENDBRANCH   5   8
ENDBRANCH   4   5
ENDBRANCH   1   3
BRANCH   1  11
ATOM     11  C   UNL     1     114.317 122.161 124.594  1.00  0.00     0.002 C 
ATOM     12  C   UNL     1     115.743 122.182 123.981  1.00  0.00     0.005 C 
ATOM     13  C   UNL     1     114.210 120.753 125.253  1.00  0.00    -0.023 C 
ATOM     14  C   UNL     1     116.217 120.726 123.883  1.00  0.00     0.009 C 
ATOM     15  C   UNL     1     114.977 119.908 124.223  1.00  0.00     0.021 C 
ATOM     16  C   UNL     1     112.757 120.191 125.391  1.00  0.00     0.008 C 
ATOM     17  C   UNL     1     114.915 120.737 126.648  1.00  0.00     0.012 C 
ATOM     18  C   UNL     1     115.113 118.474 124.694  1.00  0.00    -0.067 C 
ATOM     19  C   UNL     1     112.603 118.696 124.994  1.00  0.00     0.009 C 
ATOM     20  C   UNL     1     113.868 117.823 125.281  1.00  0.00     0.021 C 
ATOM     21  C   UNL     1     116.244 117.770 124.533  1.00  0.00    -0.027 C 
ATOM     22  C   UNL     1     113.740 116.322 124.828  1.00  0.00    -0.023 C 
ATOM     23  C   UNL     1     116.380 116.326 124.930  1.00  0.00     0.031 C 
ATOM     24  C   UNL     1     115.052 115.574 125.261  1.00  0.00     0.002 C 
ATOM     25  C   UNL     1     113.543 116.196 123.286  1.00  0.00     0.010 C 
ATOM     26  C   UNL     1     112.520 115.691 125.562  1.00  0.00     0.012 C 
ATOM     27  C   UNL     1     115.115 114.122 124.718  1.00  0.00     0.036 C 
ATOM     28  C   UNL     1     113.588 114.742 122.794  1.00  0.00     0.032 C 
ATOM     29  C   UNL     1     114.894 114.050 123.195  1.00  0.00     0.114 C 
BRANCH  29  30
ATOM     30  O   UNL     1     114.841 112.708 122.787  1.00  0.00    -0.393 OA
ATOM     31  H   UNL     1     115.628 112.255 123.189  1.00  0.00     0.210 HD
ENDBRANCH  29  30
ENDBRANCH   1  11
TORSDOF 6
ENDMDL
MODEL 7
REMARK VINA RESULT:    -6.813      3.445      9.534
REMARK INTER + INTRA:          -9.944
REMARK INTER:                  -9.954
REMARK INTRA:                   0.010
REMARK UNBOUND:                -0.941
REMARK SMILES CC[C@H](C=C[C@@H](C)[C@H]1CC[C@H]2C3=CC[C@@H]4C[C@@H](O)CC[C@]4(C)[C@@H]3CC[C@]12C)C(C)C
REMARK SMILES IDX 6 1 7 2 5 3 4 4 3 5 2 6 1 7 28 8 29 9 30 10 8 11 9 12 26 13
REMARK SMILES IDX 10 14 11 15 25 16 27 17 12 18 24 19 23 20 13 21 21 22 14 23
REMARK SMILES IDX 15 24 20 25 22 26 16 27 19 28 17 29 18 30
REMARK H PARENT 18 31
REMARK Flexibility Score: inf
ROOT
ATOM      1  C   UNL     1     113.309 117.096 128.250  1.00  0.00     0.012 C 
ATOM      2  C   UNL     1     113.634 115.991 129.266  1.00  0.00     0.012 C 
ENDROOT
BRANCH   1   3
ATOM      3  C   UNL     1     113.459 116.524 126.855  1.00  0.00    -0.028 C 
ATOM      4  C   UNL     1     112.389 116.169 126.127  1.00  0.00    -0.027 C 
BRANCH   4   5
ATOM      5  C   UNL     1     112.536 115.567 124.744  1.00  0.00     0.014 C 
BRANCH   5   6
ATOM      6  C   UNL     1     112.046 116.586 123.681  1.00  0.00     0.004 C 
ATOM      7  C   UNL     1     111.606 117.933 124.264  1.00  0.00     0.004 C 
ENDBRANCH   5   6
BRANCH   5   8
ATOM      8  C   UNL     1     113.990 115.046 124.509  1.00  0.00    -0.011 C 
ATOM      9  C   UNL     1     114.692 115.781 123.353  1.00  0.00     0.008 C 
ATOM     10  C   UNL     1     113.991 113.535 124.209  1.00  0.00     0.008 C 
ENDBRANCH   5   8
ENDBRANCH   4   5
ENDBRANCH   1   3
BRANCH   1  11
ATOM     11  C   UNL     1     114.228 118.347 128.424  1.00  0.00     0.002 C 
ATOM     12  C   UNL     1     115.646 117.969 128.928  1.00  0.00     0.005 C 
ATOM     13  C   UNL     1     114.496 119.228 127.165  1.00  0.00    -0.023 C 
ATOM     14  C   UNL     1     116.633 118.956 128.291  1.00  0.00     0.009 C 
ATOM     15  C   UNL     1     115.741 120.001 127.631  1.00  0.00     0.021 C 
ATOM     16  C   UNL     1     113.366 120.249 126.814  1.00  0.00     0.008 C 
ATOM     17  C   UNL     1     114.807 118.336 125.920  1.00  0.00     0.012 C 
ATOM     18  C   UNL     1     116.282 120.875 126.517  1.00  0.00    -0.067 C 
ATOM     19  C   UNL     1     113.873 121.669 126.436  1.00  0.00     0.009 C 
ATOM     20  C   UNL     1     115.265 121.684 125.724  1.00  0.00     0.021 C 
ATOM     21  C   UNL     1     117.597 121.006 126.283  1.00  0.00    -0.027 C 
ATOM     22  C   UNL     1     115.812 123.121 125.392  1.00  0.00    -0.023 C 
ATOM     23  C   UNL     1     118.159 121.920 125.229  1.00  0.00     0.031 C 
ATOM     24  C   UNL     1     117.165 122.955 124.612  1.00  0.00     0.002 C 
ATOM     25  C   UNL     1     116.044 123.966 126.683  1.00  0.00     0.010 C 
ATOM     26  C   UNL     1     114.775 123.841 124.480  1.00  0.00     0.012 C 
ATOM     27  C   UNL     1     117.886 124.308 124.377  1.00  0.00     0.036 C 
ATOM     28  C   UNL     1     116.739 125.307 126.403  1.00  0.00     0.032 C 
ATOM     29  C   UNL     1     118.073 125.112 125.678  1.00  0.00     0.114 C 
BRANCH  29  30
ATOM     30  O   UNL     1     118.618 126.372 125.382  1.00  0.00    -0.393 OA
ATOM     31  H   UNL     1     118.995 126.728 126.229  1.00  0.00     0.210 HD
ENDBRANCH  29  30
ENDBRANCH   1  11
TORSDOF 6
ENDMDL
MODEL 8
REMARK VINA RESULT:    -6.681      3.117      9.385
REMARK INTER + INTRA:          -9.770
REMARK INTER:                  -8.335
REMARK INTRA:                  -1.435
REMARK UNBOUND:                -0.941
REMARK SMILES CC[C@H](C=C[C@@H](C)[C@H]1CC[C@H]2C3=CC[C@@H]4C[C@@H](O)CC[C@]4(C)[C@@H]3CC[C@]12C)C(C)C
REMARK SMILES IDX 6 1 7 2 5 3 4 4 3 5 2 6 1 7 28 8 29 9 30 10 8 11 9 12 26 13
REMARK SMILES IDX 10 14 11 15 25 16 27 17 12 18 24 19 23 20 13 21 21 22 14 23
REMARK SMILES IDX 15 24 20 25 22 26 16 27 19 28 17 29 18 30
REMARK H PARENT 18 31
REMARK Flexibility Score: inf
ROOT
ATOM      1  C   UNL     1     115.665 118.528 125.214  1.00  0.00     0.012 C 
ATOM      2  C   UNL     1     116.321 117.584 124.195  1.00  0.00     0.012 C 
ENDROOT
BRANCH   1   3
ATOM      3  C   UNL     1     114.210 118.132 125.365  1.00  0.00    -0.028 C 
ATOM      4  C   UNL     1     113.696 117.803 126.560  1.00  0.00    -0.027 C 
BRANCH   4   5
ATOM      5  C   UNL     1     112.249 117.376 126.710  1.00  0.00     0.014 C 
BRANCH   5   6
ATOM      6  C   UNL     1     112.144 116.275 127.798  1.00  0.00     0.004 C 
ATOM      7  C   UNL     1     113.197 116.391 128.906  1.00  0.00     0.004 C 
ENDBRANCH   5   6
BRANCH   5   8
ATOM      8  C   UNL     1     111.323 118.609 126.956  1.00  0.00    -0.011 C 
ATOM      9  C   UNL     1     110.876 119.272 125.641  1.00  0.00     0.008 C 
ATOM     10  C   UNL     1     112.031 119.665 127.827  1.00  0.00     0.008 C 
ENDBRANCH   5   8
ENDBRANCH   4   5
ENDBRANCH   1   3
BRANCH   1  11
ATOM     11  C   UNL     1     115.777 120.027 124.789  1.00  0.00     0.002 C 
ATOM     12  C   UNL     1     114.395 120.645 124.447  1.00  0.00     0.005 C 
ATOM     13  C   UNL     1     116.394 121.025 125.815  1.00  0.00    -0.023 C 
ATOM     14  C   UNL     1     114.438 122.118 124.874  1.00  0.00     0.009 C 
ATOM     15  C   UNL     1     115.899 122.359 125.232  1.00  0.00     0.021 C 
ATOM     16  C   UNL     1     117.956 121.042 125.870  1.00  0.00     0.008 C 
ATOM     17  C   UNL     1     115.819 120.776 127.247  1.00  0.00     0.012 C 
ATOM     18  C   UNL     1     116.285 123.517 126.131  1.00  0.00    -0.067 C 
ATOM     19  C   UNL     1     118.585 122.464 125.924  1.00  0.00     0.009 C 
ATOM     20  C   UNL     1     117.709 123.523 126.669  1.00  0.00     0.021 C 
ATOM     21  C   UNL     1     115.452 124.539 126.382  1.00  0.00    -0.027 C 
ATOM     22  C   UNL     1     118.311 124.976 126.676  1.00  0.00    -0.023 C 
ATOM     23  C   UNL     1     115.837 125.731 127.213  1.00  0.00     0.031 C 
ATOM     24  C   UNL     1     117.359 125.890 127.528  1.00  0.00     0.002 C 
ATOM     25  C   UNL     1     118.449 125.554 125.233  1.00  0.00     0.010 C 
ATOM     26  C   UNL     1     119.714 124.922 127.350  1.00  0.00     0.012 C 
ATOM     27  C   UNL     1     117.760 127.387 127.468  1.00  0.00     0.036 C 
ATOM     28  C   UNL     1     118.870 127.032 125.219  1.00  0.00     0.032 C 
ATOM     29  C   UNL     1     117.902 127.903 126.023  1.00  0.00     0.114 C 
BRANCH  29  30
ATOM     30  O   UNL     1     118.383 129.222 126.038  1.00  0.00    -0.393 OA
ATOM     31  H   UNL     1     119.159 129.251 125.418  1.00  0.00     0.210 HD
ENDBRANCH  29  30
ENDBRANCH   1  11
TORSDOF 6
ENDMDL
MODEL 9
REMARK VINA RESULT:    -6.581      3.583     10.031
REMARK INTER + INTRA:          -9.638
REMARK INTER:                  -9.162
REMARK INTRA:                  -0.476
REMARK UNBOUND:                -0.941
REMARK SMILES CC[C@H](C=C[C@@H](C)[C@H]1CC[C@H]2C3=CC[C@@H]4C[C@@H](O)CC[C@]4(C)[C@@H]3CC[C@]12C)C(C)C
REMARK SMILES IDX 6 1 7 2 5 3 4 4 3 5 2 6 1 7 28 8 29 9 30 10 8 11 9 12 26 13
REMARK SMILES IDX 10 14 11 15 25 16 27 17 12 18 24 19 23 20 13 21 21 22 14 23
REMARK SMILES IDX 15 24 20 25 22 26 16 27 19 28 17 29 18 30
REMARK H PARENT 18 31
REMARK Flexibility Score: inf
ROOT
ATOM      1  C   UNL     1     112.299 116.612 124.331  1.00  0.00     0.012 C 
ATOM      2  C   UNL     1     112.140 116.380 125.841  1.00  0.00     0.012 C 
ENDROOT
BRANCH   1   3
ATOM      3  C   UNL     1     113.306 115.612 123.797  1.00  0.00    -0.028 C 
ATOM      4  C   UNL     1     113.953 114.769 124.616  1.00  0.00    -0.027 C 
BRANCH   4   5
ATOM      5  C   UNL     1     114.983 113.788 124.090  1.00  0.00     0.014 C 
BRANCH   5   6
ATOM      6  C   UNL     1     114.729 113.530 122.582  1.00  0.00     0.004 C 
ATOM      7  C   UNL     1     115.240 112.173 122.087  1.00  0.00     0.004 C 
ENDBRANCH   5   6
BRANCH   5   8
ATOM      8  C   UNL     1     116.432 114.263 124.424  1.00  0.00    -0.011 C 
ATOM      9  C   UNL     1     116.501 115.031 125.756  1.00  0.00     0.008 C 
ATOM     10  C   UNL     1     116.987 115.164 123.303  1.00  0.00     0.008 C 
ENDBRANCH   5   8
ENDBRANCH   4   5
ENDBRANCH   1   3
BRANCH   1  11
ATOM     11  C   UNL     1     112.757 118.068 124.001  1.00  0.00     0.002 C 
ATOM     12  C   UNL     1     111.607 119.097 124.169  1.00  0.00     0.005 C 
ATOM     13  C   UNL     1     113.925 118.667 124.841  1.00  0.00    -0.023 C 
ATOM     14  C   UNL     1     112.236 120.405 124.663  1.00  0.00     0.009 C 
ATOM     15  C   UNL     1     113.736 120.164 124.547  1.00  0.00     0.021 C 
ATOM     16  C   UNL     1     115.358 118.237 124.389  1.00  0.00     0.008 C 
ATOM     17  C   UNL     1     113.735 118.353 126.361  1.00  0.00     0.012 C 
ATOM     18  C   UNL     1     114.710 121.000 125.352  1.00  0.00    -0.067 C 
ATOM     19  C   UNL     1     116.395 119.395 124.339  1.00  0.00     0.009 C 
ATOM     20  C   UNL     1     116.153 120.517 125.400  1.00  0.00     0.021 C 
ATOM     21  C   UNL     1     114.354 122.157 125.932  1.00  0.00    -0.027 C 
ATOM     22  C   UNL     1     117.162 121.721 125.317  1.00  0.00    -0.023 C 
ATOM     23  C   UNL     1     115.319 123.037 126.677  1.00  0.00     0.031 C 
ATOM     24  C   UNL     1     116.835 122.708 126.494  1.00  0.00     0.002 C 
ATOM     25  C   UNL     1     117.059 122.470 123.952  1.00  0.00     0.010 C 
ATOM     26  C   UNL     1     118.606 121.164 125.496  1.00  0.00     0.012 C 
ATOM     27  C   UNL     1     117.658 124.021 126.415  1.00  0.00     0.036 C 
ATOM     28  C   UNL     1     117.906 123.751 123.909  1.00  0.00     0.032 C 
ATOM     29  C   UNL     1     117.538 124.712 125.043  1.00  0.00     0.114 C 
BRANCH  29  30
ATOM     30  O   UNL     1     118.397 125.821 124.995  1.00  0.00    -0.393 OA
ATOM     31  H   UNL     1     118.283 126.309 125.853  1.00  0.00     0.210 HD
ENDBRANCH  29  30
ENDBRANCH   1  11
TORSDOF 6
ENDMDL
