MODEL 1
REMARK VINA RESULT:    -4.840      0.000      0.000
REMARK INTER + INTRA:         -13.757
REMARK INTER:                 -10.498
REMARK INTRA:                  -3.259
REMARK UNBOUND:                -3.259
REMARK SMILES CCCCCCCCCCCCCCCCCCCCCC(=O)[O-]
REMARK SMILES IDX 12 1 11 2 10 3 9 4 8 5 7 6 6 7 5 8 4 9 3 10 2 11 1 12 13 13
REMARK SMILES IDX 14 14 15 15 16 16 17 17 18 18 19 19 20 20 21 21 22 22 23 23
REMARK SMILES IDX 24 24
REMARK H PARENT
REMARK Flexibility Score: inf
ROOT
ATOM      1  C   UNL     1      62.249  28.574   9.385  1.00  0.00     0.000 C 
ENDROOT
BRANCH   1   2
ATOM      2  C   UNL     1      60.969  29.274   8.883  1.00  0.00     0.000 C 
BRANCH   2   3
ATOM      3  C   UNL     1      59.701  28.908   9.682  1.00  0.00     0.000 C 
BRANCH   3   4
ATOM      4  C   UNL     1      59.759  29.398  11.141  1.00  0.00    -0.000 C 
BRANCH   4   5
ATOM      5  C   UNL     1      59.196  28.359  12.125  1.00  0.00    -0.000 C 
BRANCH   5   6
ATOM      6  C   UNL     1      60.201  27.998  13.235  1.00  0.00    -0.000 C 
BRANCH   6   7
ATOM      7  C   UNL     1      61.590  28.613  13.001  1.00  0.00    -0.000 C 
BRANCH   7   8
ATOM      8  C   UNL     1      62.075  29.464  14.189  1.00  0.00    -0.000 C 
BRANCH   8   9
ATOM      9  C   UNL     1      60.951  29.757  15.197  1.00  0.00    -0.000 C 
BRANCH   9  10
ATOM     10  C   UNL     1      60.708  31.265  15.385  1.00  0.00    -0.000 C 
BRANCH  10  11
ATOM     11  C   UNL     1      59.546  31.787  14.527  1.00  0.00    -0.003 C 
ATOM     12  C   UNL     1      60.009  32.382  13.196  1.00  0.00     0.004 C 
ENDBRANCH  10  11
ENDBRANCH   9  10
ENDBRANCH   8   9
ENDBRANCH   7   8
ENDBRANCH   6   7
ENDBRANCH   5   6
ENDBRANCH   4   5
ENDBRANCH   3   4
ENDBRANCH   2   3
ENDBRANCH   1   2
BRANCH   1  13
ATOM     13  C   UNL     1      63.494  29.476   9.489  1.00  0.00     0.000 C 
BRANCH  13  14
ATOM     14  C   UNL     1      63.376  30.626  10.508  1.00  0.00     0.000 C 
BRANCH  14  15
ATOM     15  C   UNL     1      64.510  31.656  10.372  1.00  0.00     0.000 C 
BRANCH  15  16
ATOM     16  C   UNL     1      64.515  32.674  11.525  1.00  0.00     0.000 C 
BRANCH  16  17
ATOM     17  C   UNL     1      63.563  32.267  12.665  1.00  0.00     0.000 C 
BRANCH  17  18
ATOM     18  C   UNL     1      64.125  32.601  14.056  1.00  0.00     0.000 C 
BRANCH  18  19
ATOM     19  C   UNL     1      63.204  33.539  14.856  1.00  0.00     0.000 C 
BRANCH  19  20
ATOM     20  C   UNL     1      63.815  33.954  16.204  1.00  0.00     0.006 C 
BRANCH  20  21
ATOM     21  C   UNL     1      63.365  33.051  17.360  1.00  0.00     0.053 C 
BRANCH  21  22
ATOM     22  C   UNL     1      62.303  33.728  18.168  1.00  0.00     0.041 C 
ATOM     23  O   UNL     1      62.467  33.914  19.402  1.00  0.00    -0.550 OA
ATOM     24  O   UNL     1      61.151  34.196  17.548  1.00  0.00    -0.550 OA
ENDBRANCH  21  22
ENDBRANCH  20  21
ENDBRANCH  19  20
ENDBRANCH  18  19
ENDBRANCH  17  18
ENDBRANCH  16  17
ENDBRANCH  15  16
ENDBRANCH  14  15
ENDBRANCH  13  14
ENDBRANCH   1  13
TORSDOF 20
ENDMDL
MODEL 2
REMARK VINA RESULT:    -4.825      1.305      4.090
REMARK INTER + INTRA:         -13.725
REMARK INTER:                 -10.400
REMARK INTRA:                  -3.325
REMARK UNBOUND:                -3.259
REMARK SMILES CCCCCCCCCCCCCCCCCCCCCC(=O)[O-]
REMARK SMILES IDX 12 1 11 2 10 3 9 4 8 5 7 6 6 7 5 8 4 9 3 10 2 11 1 12 13 13
REMARK SMILES IDX 14 14 15 15 16 16 17 17 18 18 19 19 20 20 21 21 22 22 23 23
REMARK SMILES IDX 24 24
REMARK H PARENT
REMARK Flexibility Score: inf
ROOT
ATOM      1  C   UNL     1      59.255  28.597  10.952  1.00  0.00     0.000 C 
ENDROOT
BRANCH   1   2
ATOM      2  C   UNL     1      60.613  28.140  10.380  1.00  0.00     0.000 C 
BRANCH   2   3
ATOM      3  C   UNL     1      61.473  29.290   9.815  1.00  0.00     0.000 C 
BRANCH   3   4
ATOM      4  C   UNL     1      62.975  29.096  10.091  1.00  0.00    -0.000 C 
BRANCH   4   5
ATOM      5  C   UNL     1      63.402  29.711  11.434  1.00  0.00    -0.000 C 
BRANCH   5   6
ATOM      6  C   UNL     1      63.267  31.245  11.445  1.00  0.00    -0.000 C 
BRANCH   6   7
ATOM      7  C   UNL     1      64.526  31.957  10.926  1.00  0.00    -0.000 C 
BRANCH   7   8
ATOM      8  C   UNL     1      64.906  33.190  11.766  1.00  0.00    -0.000 C 
BRANCH   8   9
ATOM      9  C   UNL     1      64.383  33.098  13.210  1.00  0.00    -0.000 C 
BRANCH   9  10
ATOM     10  C   UNL     1      65.517  32.933  14.237  1.00  0.00    -0.000 C 
BRANCH  10  11
ATOM     11  C   UNL     1      65.259  31.781  15.220  1.00  0.00    -0.003 C 
ATOM     12  C   UNL     1      63.941  31.053  14.951  1.00  0.00     0.004 C 
ENDBRANCH  10  11
ENDBRANCH   9  10
ENDBRANCH   8   9
ENDBRANCH   7   8
ENDBRANCH   6   7
ENDBRANCH   5   6
ENDBRANCH   4   5
ENDBRANCH   3   4
ENDBRANCH   2   3
ENDBRANCH   1   2
BRANCH   1  13
ATOM     13  C   UNL     1      59.055  28.339  12.458  1.00  0.00     0.000 C 
BRANCH  13  14
ATOM     14  C   UNL     1      60.358  28.214  13.271  1.00  0.00     0.000 C 
BRANCH  14  15
ATOM     15  C   UNL     1      60.802  29.553  13.885  1.00  0.00     0.000 C 
BRANCH  15  16
ATOM     16  C   UNL     1      59.679  30.604  13.869  1.00  0.00     0.000 C 
BRANCH  16  17
ATOM     17  C   UNL     1      60.032  31.819  12.992  1.00  0.00     0.000 C 
BRANCH  17  18
ATOM     18  C   UNL     1      60.865  32.871  13.742  1.00  0.00     0.000 C 
BRANCH  18  19
ATOM     19  C   UNL     1      60.360  33.111  15.176  1.00  0.00     0.000 C 
BRANCH  19  20
ATOM     20  C   UNL     1      61.467  33.621  16.112  1.00  0.00     0.006 C 
BRANCH  20  21
ATOM     21  C   UNL     1      61.126  33.420  17.595  1.00  0.00     0.053 C 
BRANCH  21  22
ATOM     22  C   UNL     1      62.371  33.456  18.425  1.00  0.00     0.041 C 
ATOM     23  O   UNL     1      63.478  33.130  17.922  1.00  0.00    -0.550 OA
ATOM     24  O   UNL     1      62.316  33.893  19.743  1.00  0.00    -0.550 OA
ENDBRANCH  21  22
ENDBRANCH  20  21
ENDBRANCH  19  20
ENDBRANCH  18  19
ENDBRANCH  17  18
ENDBRANCH  16  17
ENDBRANCH  15  16
ENDBRANCH  14  15
ENDBRANCH  13  14
ENDBRANCH   1  13
TORSDOF 20
ENDMDL
MODEL 3
REMARK VINA RESULT:    -4.659     10.353     14.228
REMARK INTER + INTRA:         -13.365
REMARK INTER:                 -10.014
REMARK INTRA:                  -3.352
REMARK UNBOUND:                -3.259
REMARK SMILES CCCCCCCCCCCCCCCCCCCCCC(=O)[O-]
REMARK SMILES IDX 12 1 11 2 10 3 9 4 8 5 7 6 6 7 5 8 4 9 3 10 2 11 1 12 13 13
REMARK SMILES IDX 14 14 15 15 16 16 17 17 18 18 19 19 20 20 21 21 22 22 23 23
REMARK SMILES IDX 24 24
REMARK H PARENT
REMARK Flexibility Score: inf
ROOT
ATOM      1  C   UNL     1      61.468  27.895  29.019  1.00  0.00     0.000 C 
ENDROOT
BRANCH   1   2
ATOM      2  C   UNL     1      61.184  29.279  28.398  1.00  0.00     0.000 C 
BRANCH   2   3
ATOM      3  C   UNL     1      62.240  30.349  28.745  1.00  0.00     0.000 C 
BRANCH   3   4
ATOM      4  C   UNL     1      63.659  29.764  28.863  1.00  0.00    -0.000 C 
BRANCH   4   5
ATOM      5  C   UNL     1      64.555  30.171  27.681  1.00  0.00    -0.000 C 
BRANCH   5   6
ATOM      6  C   UNL     1      66.048  30.188  28.056  1.00  0.00    -0.000 C 
BRANCH   6   7
ATOM      7  C   UNL     1      66.971  30.129  26.828  1.00  0.00    -0.000 C 
BRANCH   7   8
ATOM      8  C   UNL     1      66.320  29.422  25.625  1.00  0.00    -0.000 C 
BRANCH   8   9
ATOM      9  C   UNL     1      66.637  30.122  24.293  1.00  0.00    -0.000 C 
BRANCH   9  10
ATOM     10  C   UNL     1      65.367  30.567  23.546  1.00  0.00    -0.000 C 
BRANCH  10  11
ATOM     11  C   UNL     1      64.107  29.844  24.043  1.00  0.00    -0.003 C 
ATOM     12  C   UNL     1      63.046  30.803  24.586  1.00  0.00     0.004 C 
ENDBRANCH  10  11
ENDBRANCH   9  10
ENDBRANCH   8   9
ENDBRANCH   7   8
ENDBRANCH   6   7
ENDBRANCH   5   6
ENDBRANCH   4   5
ENDBRANCH   3   4
ENDBRANCH   2   3
ENDBRANCH   1   2
BRANCH   1  13
ATOM     13  C   UNL     1      61.687  26.753  28.009  1.00  0.00     0.000 C 
BRANCH  13  14
ATOM     14  C   UNL     1      61.057  26.987  26.622  1.00  0.00     0.000 C 
BRANCH  14  15
ATOM     15  C   UNL     1      62.100  27.003  25.492  1.00  0.00     0.000 C 
BRANCH  15  16
ATOM     16  C   UNL     1      63.540  26.924  26.027  1.00  0.00     0.000 C 
BRANCH  16  17
ATOM     17  C   UNL     1      64.440  26.038  25.145  1.00  0.00     0.000 C 
BRANCH  17  18
ATOM     18  C   UNL     1      63.783  25.674  23.804  1.00  0.00     0.000 C 
BRANCH  18  19
ATOM     19  C   UNL     1      64.206  26.619  22.664  1.00  0.00     0.000 C 
BRANCH  19  20
ATOM     20  C   UNL     1      65.708  26.941  22.695  1.00  0.00     0.006 C 
BRANCH  20  21
ATOM     21  C   UNL     1      66.289  27.181  21.295  1.00  0.00     0.053 C 
BRANCH  21  22
ATOM     22  C   UNL     1      66.286  25.910  20.505  1.00  0.00     0.041 C 
ATOM     23  O   UNL     1      66.283  25.945  19.246  1.00  0.00    -0.550 OA
ATOM     24  O   UNL     1      66.333  24.685  21.159  1.00  0.00    -0.550 OA
ENDBRANCH  21  22
ENDBRANCH  20  21
ENDBRANCH  19  20
ENDBRANCH  18  19
ENDBRANCH  17  18
ENDBRANCH  16  17
ENDBRANCH  15  16
ENDBRANCH  14  15
ENDBRANCH  13  14
ENDBRANCH   1  13
TORSDOF 20
ENDMDL
MODEL 4
REMARK VINA RESULT:    -4.609      1.187      4.281
REMARK INTER + INTRA:         -13.256
REMARK INTER:                 -10.289
REMARK INTRA:                  -2.967
REMARK UNBOUND:                -3.259
REMARK SMILES CCCCCCCCCCCCCCCCCCCCCC(=O)[O-]
REMARK SMILES IDX 12 1 11 2 10 3 9 4 8 5 7 6 6 7 5 8 4 9 3 10 2 11 1 12 13 13
REMARK SMILES IDX 14 14 15 15 16 16 17 17 18 18 19 19 20 20 21 21 22 22 23 23
REMARK SMILES IDX 24 24
REMARK H PARENT
REMARK Flexibility Score: inf
ROOT
ATOM      1  C   UNL     1      59.341  29.020  12.098  1.00  0.00     0.000 C 
ENDROOT
BRANCH   1   2
ATOM      2  C   UNL     1      59.672  29.346  10.627  1.00  0.00     0.000 C 
BRANCH   2   3
ATOM      3  C   UNL     1      60.270  28.159   9.842  1.00  0.00     0.000 C 
BRANCH   3   4
ATOM      4  C   UNL     1      61.702  28.437   9.349  1.00  0.00    -0.000 C 
BRANCH   4   5
ATOM      5  C   UNL     1      62.274  29.739   9.932  1.00  0.00    -0.000 C 
BRANCH   5   6
ATOM      6  C   UNL     1      63.787  29.879   9.679  1.00  0.00    -0.000 C 
BRANCH   6   7
ATOM      7  C   UNL     1      64.196  31.309   9.294  1.00  0.00    -0.000 C 
BRANCH   7   8
ATOM      8  C   UNL     1      65.720  31.522   9.316  1.00  0.00    -0.000 C 
BRANCH   8   9
ATOM      9  C   UNL     1      66.148  32.586  10.341  1.00  0.00    -0.000 C 
BRANCH   9  10
ATOM     10  C   UNL     1      65.051  32.875  11.381  1.00  0.00    -0.000 C 
BRANCH  10  11
ATOM     11  C   UNL     1      65.576  33.669  12.586  1.00  0.00    -0.003 C 
ATOM     12  C   UNL     1      64.616  33.647  13.777  1.00  0.00     0.004 C 
ENDBRANCH  10  11
ENDBRANCH   9  10
ENDBRANCH   8   9
ENDBRANCH   7   8
ENDBRANCH   6   7
ENDBRANCH   5   6
ENDBRANCH   4   5
ENDBRANCH   3   4
ENDBRANCH   2   3
ENDBRANCH   1   2
BRANCH   1  13
ATOM     13  C   UNL     1      60.177  27.889  12.725  1.00  0.00     0.000 C 
BRANCH  13  14
ATOM     14  C   UNL     1      61.479  28.349  13.408  1.00  0.00     0.000 C 
BRANCH  14  15
ATOM     15  C   UNL     1      61.355  29.746  14.039  1.00  0.00     0.000 C 
BRANCH  15  16
ATOM     16  C   UNL     1      62.237  30.787  13.329  1.00  0.00     0.000 C 
BRANCH  16  17
ATOM     17  C   UNL     1      61.485  32.104  13.063  1.00  0.00     0.000 C 
BRANCH  17  18
ATOM     18  C   UNL     1      60.139  32.179  13.804  1.00  0.00     0.000 C 
BRANCH  18  19
ATOM     19  C   UNL     1      60.111  33.292  14.867  1.00  0.00     0.000 C 
BRANCH  19  20
ATOM     20  C   UNL     1      60.800  32.873  16.175  1.00  0.00     0.006 C 
BRANCH  20  21
ATOM     21  C   UNL     1      61.991  33.773  16.531  1.00  0.00     0.053 C 
BRANCH  21  22
ATOM     22  C   UNL     1      61.968  34.116  17.987  1.00  0.00     0.041 C 
ATOM     23  O   UNL     1      60.890  34.459  18.541  1.00  0.00    -0.550 OA
ATOM     24  O   UNL     1      63.128  34.013  18.744  1.00  0.00    -0.550 OA
ENDBRANCH  21  22
ENDBRANCH  20  21
ENDBRANCH  19  20
ENDBRANCH  18  19
ENDBRANCH  17  18
ENDBRANCH  16  17
ENDBRANCH  15  16
ENDBRANCH  14  15
ENDBRANCH  13  14
ENDBRANCH   1  13
TORSDOF 20
ENDMDL
MODEL 5
REMARK VINA RESULT:    -4.590      1.214      1.866
REMARK INTER + INTRA:         -13.214
REMARK INTER:                  -9.841
REMARK INTRA:                  -3.373
REMARK UNBOUND:                -3.259
REMARK SMILES CCCCCCCCCCCCCCCCCCCCCC(=O)[O-]
REMARK SMILES IDX 12 1 11 2 10 3 9 4 8 5 7 6 6 7 5 8 4 9 3 10 2 11 1 12 13 13
REMARK SMILES IDX 14 14 15 15 16 16 17 17 18 18 19 19 20 20 21 21 22 22 23 23
REMARK SMILES IDX 24 24
REMARK H PARENT
REMARK Flexibility Score: inf
ROOT
ATOM      1  C   UNL     1      61.806  28.584   9.631  1.00  0.00     0.000 C 
ENDROOT
BRANCH   1   2
ATOM      2  C   UNL     1      60.685  29.636   9.764  1.00  0.00     0.000 C 
BRANCH   2   3
ATOM      3  C   UNL     1      59.743  29.399  10.963  1.00  0.00     0.000 C 
BRANCH   3   4
ATOM      4  C   UNL     1      60.082  28.113  11.738  1.00  0.00    -0.000 C 
BRANCH   4   5
ATOM      5  C   UNL     1      60.531  28.405  13.179  1.00  0.00    -0.000 C 
BRANCH   5   6
ATOM      6  C   UNL     1      62.057  28.297  13.350  1.00  0.00    -0.000 C 
BRANCH   6   7
ATOM      7  C   UNL     1      62.740  29.669  13.471  1.00  0.00    -0.000 C 
BRANCH   7   8
ATOM      8  C   UNL     1      61.805  30.756  14.030  1.00  0.00    -0.000 C 
BRANCH   8   9
ATOM      9  C   UNL     1      61.509  31.861  13.001  1.00  0.00    -0.000 C 
BRANCH   9  10
ATOM     10  C   UNL     1      60.341  32.766  13.430  1.00  0.00    -0.000 C 
BRANCH  10  11
ATOM     11  C   UNL     1      59.979  32.598  14.914  1.00  0.00    -0.003 C 
ATOM     12  C   UNL     1      60.358  33.815  15.760  1.00  0.00     0.004 C 
ENDBRANCH  10  11
ENDBRANCH   9  10
ENDBRANCH   8   9
ENDBRANCH   7   8
ENDBRANCH   6   7
ENDBRANCH   5   6
ENDBRANCH   4   5
ENDBRANCH   3   4
ENDBRANCH   2   3
ENDBRANCH   1   2
BRANCH   1  13
ATOM     13  C   UNL     1      63.231  29.103   9.900  1.00  0.00     0.000 C 
BRANCH  13  14
ATOM     14  C   UNL     1      63.668  30.281   9.008  1.00  0.00     0.000 C 
BRANCH  14  15
ATOM     15  C   UNL     1      64.768  31.139   9.657  1.00  0.00     0.000 C 
BRANCH  15  16
ATOM     16  C   UNL     1      64.236  31.983  10.827  1.00  0.00     0.000 C 
BRANCH  16  17
ATOM     17  C   UNL     1      65.345  32.818  11.494  1.00  0.00     0.000 C 
BRANCH  17  18
ATOM     18  C   UNL     1      64.817  33.701  12.636  1.00  0.00     0.000 C 
BRANCH  18  19
ATOM     19  C   UNL     1      65.024  33.063  14.021  1.00  0.00     0.000 C 
BRANCH  19  20
ATOM     20  C   UNL     1      63.972  33.520  15.043  1.00  0.00     0.006 C 
BRANCH  20  21
ATOM     21  C   UNL     1      64.558  34.441  16.122  1.00  0.00     0.053 C 
BRANCH  21  22
ATOM     22  C   UNL     1      63.876  34.207  17.434  1.00  0.00     0.041 C 
ATOM     23  O   UNL     1      63.001  35.012  17.847  1.00  0.00    -0.550 OA
ATOM     24  O   UNL     1      64.173  33.072  18.179  1.00  0.00    -0.550 OA
ENDBRANCH  21  22
ENDBRANCH  20  21
ENDBRANCH  19  20
ENDBRANCH  18  19
ENDBRANCH  17  18
ENDBRANCH  16  17
ENDBRANCH  15  16
ENDBRANCH  14  15
ENDBRANCH  13  14
ENDBRANCH   1  13
TORSDOF 20
ENDMDL
MODEL 6
REMARK VINA RESULT:    -4.573      1.490      4.792
REMARK INTER + INTRA:         -13.177
REMARK INTER:                  -9.620
REMARK INTRA:                  -3.558
REMARK UNBOUND:                -3.259
REMARK SMILES CCCCCCCCCCCCCCCCCCCCCC(=O)[O-]
REMARK SMILES IDX 12 1 11 2 10 3 9 4 8 5 7 6 6 7 5 8 4 9 3 10 2 11 1 12 13 13
REMARK SMILES IDX 14 14 15 15 16 16 17 17 18 18 19 19 20 20 21 21 22 22 23 23
REMARK SMILES IDX 24 24
REMARK H PARENT
REMARK Flexibility Score: inf
ROOT
ATOM      1  C   UNL     1      62.790  28.650   9.784  1.00  0.00     0.000 C 
ENDROOT
BRANCH   1   2
ATOM      2  C   UNL     1      63.830  29.626   9.194  1.00  0.00     0.000 C 
BRANCH   2   3
ATOM      3  C   UNL     1      64.073  30.880  10.061  1.00  0.00     0.000 C 
BRANCH   3   4
ATOM      4  C   UNL     1      63.683  30.665  11.535  1.00  0.00    -0.000 C 
BRANCH   4   5
ATOM      5  C   UNL     1      62.819  31.814  12.080  1.00  0.00    -0.000 C 
BRANCH   5   6
ATOM      6  C   UNL     1      63.526  32.597  13.202  1.00  0.00    -0.000 C 
BRANCH   6   7
ATOM      7  C   UNL     1      64.068  31.684  14.314  1.00  0.00    -0.000 C 
BRANCH   7   8
ATOM      8  C   UNL     1      63.988  32.329  15.709  1.00  0.00    -0.000 C 
BRANCH   8   9
ATOM      9  C   UNL     1      63.943  33.865  15.642  1.00  0.00    -0.000 C 
BRANCH   9  10
ATOM     10  C   UNL     1      65.125  34.521  16.378  1.00  0.00    -0.000 C 
BRANCH  10  11
ATOM     11  C   UNL     1      65.790  35.633  15.553  1.00  0.00    -0.003 C 
ATOM     12  C   UNL     1      65.641  35.425  14.045  1.00  0.00     0.004 C 
ENDBRANCH  10  11
ENDBRANCH   9  10
ENDBRANCH   8   9
ENDBRANCH   7   8
ENDBRANCH   6   7
ENDBRANCH   5   6
ENDBRANCH   4   5
ENDBRANCH   3   4
ENDBRANCH   2   3
ENDBRANCH   1   2
BRANCH   1  13
ATOM     13  C   UNL     1      61.499  28.487   8.959  1.00  0.00     0.000 C 
BRANCH  13  14
ATOM     14  C   UNL     1      60.413  29.542   9.244  1.00  0.00     0.000 C 
BRANCH  14  15
ATOM     15  C   UNL     1      60.104  29.684  10.744  1.00  0.00     0.000 C 
BRANCH  15  16
ATOM     16  C   UNL     1      59.250  28.521  11.276  1.00  0.00     0.000 C 
BRANCH  16  17
ATOM     17  C   UNL     1      59.539  28.218  12.758  1.00  0.00     0.000 C 
BRANCH  17  18
ATOM     18  C   UNL     1      61.005  28.480  13.142  1.00  0.00     0.000 C 
BRANCH  18  19
ATOM     19  C   UNL     1      61.138  29.367  14.393  1.00  0.00     0.000 C 
BRANCH  19  20
ATOM     20  C   UNL     1      60.324  30.666  14.282  1.00  0.00     0.006 C 
BRANCH  20  21
ATOM     21  C   UNL     1      60.449  31.551  15.530  1.00  0.00     0.053 C 
BRANCH  21  22
ATOM     22  C   UNL     1      60.326  32.995  15.158  1.00  0.00     0.041 C 
ATOM     23  O   UNL     1      60.146  33.328  13.958  1.00  0.00    -0.550 OA
ATOM     24  O   UNL     1      60.367  33.972  16.145  1.00  0.00    -0.550 OA
ENDBRANCH  21  22
ENDBRANCH  20  21
ENDBRANCH  19  20
ENDBRANCH  18  19
ENDBRANCH  17  18
ENDBRANCH  16  17
ENDBRANCH  15  16
ENDBRANCH  14  15
ENDBRANCH  13  14
ENDBRANCH   1  13
TORSDOF 20
ENDMDL
MODEL 7
REMARK VINA RESULT:    -4.568      2.615      6.567
REMARK INTER + INTRA:         -13.167
REMARK INTER:                  -9.833
REMARK INTRA:                  -3.334
REMARK UNBOUND:                -3.259
REMARK SMILES CCCCCCCCCCCCCCCCCCCCCC(=O)[O-]
REMARK SMILES IDX 12 1 11 2 10 3 9 4 8 5 7 6 6 7 5 8 4 9 3 10 2 11 1 12 13 13
REMARK SMILES IDX 14 14 15 15 16 16 17 17 18 18 19 19 20 20 21 21 22 22 23 23
REMARK SMILES IDX 24 24
REMARK H PARENT
REMARK Flexibility Score: inf
ROOT
ATOM      1  C   UNL     1      61.560  31.334  14.462  1.00  0.00     0.000 C 
ENDROOT
BRANCH   1   2
ATOM      2  C   UNL     1      60.886  32.671  14.091  1.00  0.00     0.000 C 
BRANCH   2   3
ATOM      3  C   UNL     1      60.412  33.492  15.308  1.00  0.00     0.000 C 
BRANCH   3   4
ATOM      4  C   UNL     1      60.783  32.832  16.649  1.00  0.00    -0.000 C 
BRANCH   4   5
ATOM      5  C   UNL     1      61.050  33.869  17.752  1.00  0.00    -0.000 C 
BRANCH   5   6
ATOM      6  C   UNL     1      62.244  33.481  18.643  1.00  0.00    -0.000 C 
BRANCH   6   7
ATOM      7  C   UNL     1      63.562  34.127  18.187  1.00  0.00    -0.000 C 
BRANCH   7   8
ATOM      8  C   UNL     1      64.615  33.092  17.749  1.00  0.00    -0.000 C 
BRANCH   8   9
ATOM      9  C   UNL     1      64.530  32.771  16.247  1.00  0.00    -0.000 C 
BRANCH   9  10
ATOM     10  C   UNL     1      64.147  34.000  15.403  1.00  0.00    -0.000 C 
BRANCH  10  11
ATOM     11  C   UNL     1      64.972  34.110  14.113  1.00  0.00    -0.003 C 
ATOM     12  C   UNL     1      66.263  33.289  14.160  1.00  0.00     0.004 C 
ENDBRANCH  10  11
ENDBRANCH   9  10
ENDBRANCH   8   9
ENDBRANCH   7   8
ENDBRANCH   6   7
ENDBRANCH   5   6
ENDBRANCH   4   5
ENDBRANCH   3   4
ENDBRANCH   2   3
ENDBRANCH   1   2
BRANCH   1  13
ATOM     13  C   UNL     1      62.723  30.907  13.546  1.00  0.00     0.000 C 
BRANCH  13  14
ATOM     14  C   UNL     1      62.879  31.749  12.265  1.00  0.00     0.000 C 
BRANCH  14  15
ATOM     15  C   UNL     1      63.537  30.964  11.117  1.00  0.00     0.000 C 
BRANCH  15  16
ATOM     16  C   UNL     1      63.335  29.446  11.257  1.00  0.00     0.000 C 
BRANCH  16  17
ATOM     17  C   UNL     1      62.991  28.778   9.913  1.00  0.00     0.000 C 
BRANCH  17  18
ATOM     18  C   UNL     1      61.691  29.320   9.296  1.00  0.00     0.000 C 
BRANCH  18  19
ATOM     19  C   UNL     1      60.523  28.324   9.412  1.00  0.00     0.000 C 
BRANCH  19  20
ATOM     20  C   UNL     1      59.312  28.922  10.145  1.00  0.00     0.006 C 
BRANCH  20  21
ATOM     21  C   UNL     1      59.672  29.471  11.532  1.00  0.00     0.053 C 
BRANCH  21  22
ATOM     22  C   UNL     1      59.378  28.452  12.588  1.00  0.00     0.041 C 
ATOM     23  O   UNL     1      58.267  27.861  12.607  1.00  0.00    -0.550 OA
ATOM     24  O   UNL     1      60.350  28.121  13.525  1.00  0.00    -0.550 OA
ENDBRANCH  21  22
ENDBRANCH  20  21
ENDBRANCH  19  20
ENDBRANCH  18  19
ENDBRANCH  17  18
ENDBRANCH  16  17
ENDBRANCH  15  16
ENDBRANCH  14  15
ENDBRANCH  13  14
ENDBRANCH   1  13
TORSDOF 20
ENDMDL
MODEL 8
REMARK VINA RESULT:    -4.434      1.334      2.550
REMARK INTER + INTRA:         -12.878
REMARK INTER:                  -9.334
REMARK INTRA:                  -3.544
REMARK UNBOUND:                -3.259
REMARK SMILES CCCCCCCCCCCCCCCCCCCCCC(=O)[O-]
REMARK SMILES IDX 12 1 11 2 10 3 9 4 8 5 7 6 6 7 5 8 4 9 3 10 2 11 1 12 13 13
REMARK SMILES IDX 14 14 15 15 16 16 17 17 18 18 19 19 20 20 21 21 22 22 23 23
REMARK SMILES IDX 24 24
REMARK H PARENT
REMARK Flexibility Score: inf
ROOT
ATOM      1  C   UNL     1      63.570  30.582  12.670  1.00  0.00     0.000 C 
ENDROOT
BRANCH   1   2
ATOM      2  C   UNL     1      63.355  29.275  11.878  1.00  0.00     0.000 C 
BRANCH   2   3
ATOM      3  C   UNL     1      62.959  29.496  10.402  1.00  0.00     0.000 C 
BRANCH   3   4
ATOM      4  C   UNL     1      61.716  28.683   9.995  1.00  0.00    -0.000 C 
BRANCH   4   5
ATOM      5  C   UNL     1      60.444  29.546   9.962  1.00  0.00    -0.000 C 
BRANCH   5   6
ATOM      6  C   UNL     1      59.380  29.057  10.962  1.00  0.00    -0.000 C 
BRANCH   6   7
ATOM      7  C   UNL     1      59.935  28.039  11.971  1.00  0.00    -0.000 C 
BRANCH   7   8
ATOM      8  C   UNL     1      59.611  28.407  13.431  1.00  0.00    -0.000 C 
BRANCH   8   9
ATOM      9  C   UNL     1      60.814  29.030  14.159  1.00  0.00    -0.000 C 
BRANCH   9  10
ATOM     10  C   UNL     1      60.493  30.417  14.744  1.00  0.00    -0.000 C 
BRANCH  10  11
ATOM     11  C   UNL     1      59.590  31.250  13.822  1.00  0.00    -0.003 C 
ATOM     12  C   UNL     1      60.338  32.388  13.126  1.00  0.00     0.004 C 
ENDBRANCH  10  11
ENDBRANCH   9  10
ENDBRANCH   8   9
ENDBRANCH   7   8
ENDBRANCH   6   7
ENDBRANCH   5   6
ENDBRANCH   4   5
ENDBRANCH   3   4
ENDBRANCH   2   3
ENDBRANCH   1   2
BRANCH   1  13
ATOM     13  C   UNL     1      63.773  31.845  11.812  1.00  0.00     0.000 C 
BRANCH  13  14
ATOM     14  C   UNL     1      64.115  33.119  12.609  1.00  0.00     0.000 C 
BRANCH  14  15
ATOM     15  C   UNL     1      65.630  33.327  12.772  1.00  0.00     0.000 C 
BRANCH  15  16
ATOM     16  C   UNL     1      66.029  33.589  14.234  1.00  0.00     0.000 C 
BRANCH  16  17
ATOM     17  C   UNL     1      65.744  32.379  15.142  1.00  0.00     0.000 C 
BRANCH  17  18
ATOM     18  C   UNL     1      64.791  32.717  16.300  1.00  0.00     0.000 C 
BRANCH  18  19
ATOM     19  C   UNL     1      63.332  32.331  15.996  1.00  0.00     0.000 C 
BRANCH  19  20
ATOM     20  C   UNL     1      62.366  33.515  16.151  1.00  0.00     0.006 C 
BRANCH  20  21
ATOM     21  C   UNL     1      61.192  33.202  17.088  1.00  0.00     0.053 C 
BRANCH  21  22
ATOM     22  C   UNL     1      61.420  33.817  18.433  1.00  0.00     0.041 C 
ATOM     23  O   UNL     1      60.483  33.876  19.271  1.00  0.00    -0.550 OA
ATOM     24  O   UNL     1      62.682  34.286  18.778  1.00  0.00    -0.550 OA
ENDBRANCH  21  22
ENDBRANCH  20  21
ENDBRANCH  19  20
ENDBRANCH  18  19
ENDBRANCH  17  18
ENDBRANCH  16  17
ENDBRANCH  15  16
ENDBRANCH  14  15
ENDBRANCH  13  14
ENDBRANCH   1  13
TORSDOF 20
ENDMDL
MODEL 9
REMARK VINA RESULT:    -4.432      1.934      2.930
REMARK INTER + INTRA:         -12.872
REMARK INTER:                  -9.683
REMARK INTRA:                  -3.189
REMARK UNBOUND:                -3.259
REMARK SMILES CCCCCCCCCCCCCCCCCCCCCC(=O)[O-]
REMARK SMILES IDX 12 1 11 2 10 3 9 4 8 5 7 6 6 7 5 8 4 9 3 10 2 11 1 12 13 13
REMARK SMILES IDX 14 14 15 15 16 16 17 17 18 18 19 19 20 20 21 21 22 22 23 23
REMARK SMILES IDX 24 24
REMARK H PARENT
REMARK Flexibility Score: inf
ROOT
ATOM      1  C   UNL     1      60.460  28.061   9.139  1.00  0.00     0.000 C 
ENDROOT
BRANCH   1   2
ATOM      2  C   UNL     1      59.621  29.238   9.679  1.00  0.00     0.000 C 
BRANCH   2   3
ATOM      3  C   UNL     1      60.024  29.696  11.096  1.00  0.00     0.000 C 
BRANCH   3   4
ATOM      4  C   UNL     1      59.300  28.907  12.202  1.00  0.00    -0.000 C 
BRANCH   4   5
ATOM      5  C   UNL     1      60.264  28.022  13.009  1.00  0.00    -0.000 C 
BRANCH   5   6
ATOM      6  C   UNL     1      61.725  28.494  12.898  1.00  0.00    -0.000 C 
BRANCH   6   7
ATOM      7  C   UNL     1      62.152  29.389  14.072  1.00  0.00    -0.000 C 
BRANCH   7   8
ATOM      8  C   UNL     1      62.993  30.600  13.627  1.00  0.00    -0.000 C 
BRANCH   8   9
ATOM      9  C   UNL     1      62.134  31.709  12.996  1.00  0.00    -0.000 C 
BRANCH   9  10
ATOM     10  C   UNL     1      61.537  32.660  14.048  1.00  0.00    -0.000 C 
BRANCH  10  11
ATOM     11  C   UNL     1      60.011  32.792  13.924  1.00  0.00    -0.003 C 
ATOM     12  C   UNL     1      59.260  31.618  14.555  1.00  0.00     0.004 C 
ENDBRANCH  10  11
ENDBRANCH   9  10
ENDBRANCH   8   9
ENDBRANCH   7   8
ENDBRANCH   6   7
ENDBRANCH   5   6
ENDBRANCH   4   5
ENDBRANCH   3   4
ENDBRANCH   2   3
ENDBRANCH   1   2
BRANCH   1  13
ATOM     13  C   UNL     1      61.987  28.246   9.229  1.00  0.00     0.000 C 
BRANCH  13  14
ATOM     14  C   UNL     1      62.488  29.659   8.875  1.00  0.00     0.000 C 
BRANCH  14  15
ATOM     15  C   UNL     1      63.575  30.161   9.841  1.00  0.00     0.000 C 
BRANCH  15  16
ATOM     16  C   UNL     1      64.894  30.486   9.119  1.00  0.00     0.000 C 
BRANCH  16  17
ATOM     17  C   UNL     1      65.471  31.847   9.546  1.00  0.00     0.000 C 
BRANCH  17  18
ATOM     18  C   UNL     1      64.845  32.375  10.847  1.00  0.00     0.000 C 
BRANCH  18  19
ATOM     19  C   UNL     1      65.692  33.479  11.505  1.00  0.00     0.000 C 
BRANCH  19  20
ATOM     20  C   UNL     1      65.257  33.771  12.950  1.00  0.00     0.006 C 
BRANCH  20  21
ATOM     21  C   UNL     1      66.252  33.233  13.987  1.00  0.00     0.053 C 
BRANCH  21  22
ATOM     22  C   UNL     1      65.530  32.803  15.226  1.00  0.00     0.041 C 
ATOM     23  O   UNL     1      64.493  33.411  15.599  1.00  0.00    -0.550 OA
ATOM     24  O   UNL     1      65.979  31.701  15.944  1.00  0.00    -0.550 OA
ENDBRANCH  21  22
ENDBRANCH  20  21
ENDBRANCH  19  20
ENDBRANCH  18  19
ENDBRANCH  17  18
ENDBRANCH  16  17
ENDBRANCH  15  16
ENDBRANCH  14  15
ENDBRANCH  13  14
ENDBRANCH   1  13
TORSDOF 20
ENDMDL
