MODEL 1
REMARK VINA RESULT:    -4.393      0.000      0.000
REMARK INTER + INTRA:         -10.217
REMARK INTER:                  -8.503
REMARK INTRA:                  -1.714
REMARK UNBOUND:                -1.714
REMARK SMILES CCCCCCCCCCCCCCCCCC(=O)[O-]
REMARK SMILES IDX 10 1 11 2 12 3 13 4 14 5 15 6 16 7 17 8 18 9 19 10 20 11
REMARK SMILES IDX 9 12 8 13 7 14 6 15 5 16 4 17 3 18 2 19 1 20
REMARK H PARENT
REMARK Flexibility Score: inf
ROOT
ATOM      1  C   UNL     1      14.776  21.267 -11.891  1.00  0.00     0.000 C 
ENDROOT
BRANCH   1   2
ATOM      2  C   UNL     1      16.009  20.388 -12.170  1.00  0.00     0.000 C 
BRANCH   2   3
ATOM      3  C   UNL     1      17.281  21.156 -12.582  1.00  0.00     0.000 C 
BRANCH   3   4
ATOM      4  C   UNL     1      18.155  20.459 -13.640  1.00  0.00     0.000 C 
BRANCH   4   5
ATOM      5  C   UNL     1      17.620  19.071 -14.035  1.00  0.00     0.000 C 
BRANCH   5   6
ATOM      6  C   UNL     1      18.716  17.993 -14.027  1.00  0.00     0.000 C 
BRANCH   6   7
ATOM      7  C   UNL     1      19.883  18.342 -13.087  1.00  0.00     0.006 C 
BRANCH   7   8
ATOM      8  C   UNL     1      20.075  17.289 -11.987  1.00  0.00     0.053 C 
BRANCH   8   9
ATOM      9  C   UNL     1      19.836  17.859 -10.622  1.00  0.00     0.041 C 
ATOM     10  O   UNL     1      20.626  17.591  -9.677  1.00  0.00    -0.550 OA
ATOM     11  O   UNL     1      18.760  18.708 -10.399  1.00  0.00    -0.550 OA
ENDBRANCH   8   9
ENDBRANCH   7   8
ENDBRANCH   6   7
ENDBRANCH   5   6
ENDBRANCH   4   5
ENDBRANCH   3   4
ENDBRANCH   2   3
ENDBRANCH   1   2
BRANCH   1  12
ATOM     12  C   UNL     1      14.894  22.672 -12.500  1.00  0.00     0.000 C 
BRANCH  12  13
ATOM     13  C   UNL     1      13.592  23.071 -13.209  1.00  0.00    -0.000 C 
BRANCH  13  14
ATOM     14  C   UNL     1      12.339  22.758 -12.374  1.00  0.00    -0.000 C 
BRANCH  14  15
ATOM     15  C   UNL     1      11.107  23.553 -12.837  1.00  0.00    -0.000 C 
BRANCH  15  16
ATOM     16  C   UNL     1      11.434  25.023 -13.145  1.00  0.00    -0.000 C 
BRANCH  16  17
ATOM     17  C   UNL     1      10.730  26.001 -12.191  1.00  0.00    -0.000 C 
BRANCH  17  18
ATOM     18  C   UNL     1      11.750  26.772 -11.346  1.00  0.00    -0.000 C 
BRANCH  18  19
ATOM     19  C   UNL     1      13.184  26.370 -11.709  1.00  0.00    -0.003 C 
ATOM     20  C   UNL     1      13.904  25.751 -10.514  1.00  0.00     0.004 C 
ENDBRANCH  18  19
ENDBRANCH  17  18
ENDBRANCH  16  17
ENDBRANCH  15  16
ENDBRANCH  14  15
ENDBRANCH  13  14
ENDBRANCH  12  13
ENDBRANCH   1  12
TORSDOF 16
ENDMDL
MODEL 2
REMARK VINA RESULT:    -4.326      3.433     10.032
REMARK INTER + INTRA:         -10.086
REMARK INTER:                  -8.187
REMARK INTRA:                  -1.900
REMARK UNBOUND:                -1.714
REMARK SMILES CCCCCCCCCCCCCCCCCC(=O)[O-]
REMARK SMILES IDX 10 1 11 2 12 3 13 4 14 5 15 6 16 7 17 8 18 9 19 10 20 11
REMARK SMILES IDX 9 12 8 13 7 14 6 15 5 16 4 17 3 18 2 19 1 20
REMARK H PARENT
REMARK Flexibility Score: inf
ROOT
ATOM      1  C   UNL     1      19.080  17.677 -11.219  1.00  0.00     0.000 C 
ENDROOT
BRANCH   1   2
ATOM      2  C   UNL     1      19.392  17.511 -12.717  1.00  0.00     0.000 C 
BRANCH   2   3
ATOM      3  C   UNL     1      18.602  18.442 -13.658  1.00  0.00     0.000 C 
BRANCH   3   4
ATOM      4  C   UNL     1      18.923  19.941 -13.520  1.00  0.00     0.000 C 
BRANCH   4   5
ATOM      5  C   UNL     1      17.674  20.795 -13.239  1.00  0.00     0.000 C 
BRANCH   5   6
ATOM      6  C   UNL     1      16.679  20.091 -12.302  1.00  0.00     0.000 C 
BRANCH   6   7
ATOM      7  C   UNL     1      15.457  20.966 -11.971  1.00  0.00     0.006 C 
BRANCH   7   8
ATOM      8  C   UNL     1      15.530  22.342 -12.646  1.00  0.00     0.053 C 
BRANCH   8   9
ATOM      9  C   UNL     1      14.453  23.262 -12.156  1.00  0.00     0.041 C 
ATOM     10  O   UNL     1      13.304  22.811 -11.902  1.00  0.00    -0.550 OA
ATOM     11  O   UNL     1      14.725  24.608 -11.951  1.00  0.00    -0.550 OA
ENDBRANCH   8   9
ENDBRANCH   7   8
ENDBRANCH   6   7
ENDBRANCH   5   6
ENDBRANCH   4   5
ENDBRANCH   3   4
ENDBRANCH   2   3
ENDBRANCH   1   2
BRANCH   1  12
ATOM     12  C   UNL     1      20.345  17.816 -10.358  1.00  0.00     0.000 C 
BRANCH  12  13
ATOM     13  C   UNL     1      21.588  17.362 -11.135  1.00  0.00    -0.000 C 
BRANCH  13  14
ATOM     14  C   UNL     1      22.703  16.831 -10.217  1.00  0.00    -0.000 C 
BRANCH  14  15
ATOM     15  C   UNL     1      22.152  16.052  -9.009  1.00  0.00    -0.000 C 
BRANCH  15  16
ATOM     16  C   UNL     1      22.692  14.615  -8.938  1.00  0.00    -0.000 C 
BRANCH  16  17
ATOM     17  C   UNL     1      21.785  13.603  -9.655  1.00  0.00    -0.000 C 
BRANCH  17  18
ATOM     18  C   UNL     1      20.314  13.825  -9.281  1.00  0.00    -0.000 C 
BRANCH  18  19
ATOM     19  C   UNL     1      19.389  13.472 -10.451  1.00  0.00    -0.003 C 
ATOM     20  C   UNL     1      19.914  14.048 -11.763  1.00  0.00     0.004 C 
ENDBRANCH  18  19
ENDBRANCH  17  18
ENDBRANCH  16  17
ENDBRANCH  15  16
ENDBRANCH  14  15
ENDBRANCH  13  14
ENDBRANCH  12  13
ENDBRANCH   1  12
TORSDOF 16
ENDMDL
MODEL 3
REMARK VINA RESULT:    -4.322      1.826      3.097
REMARK INTER + INTRA:         -10.079
REMARK INTER:                  -8.685
REMARK INTRA:                  -1.394
REMARK UNBOUND:                -1.714
REMARK SMILES CCCCCCCCCCCCCCCCCC(=O)[O-]
REMARK SMILES IDX 10 1 11 2 12 3 13 4 14 5 15 6 16 7 17 8 18 9 19 10 20 11
REMARK SMILES IDX 9 12 8 13 7 14 6 15 5 16 4 17 3 18 2 19 1 20
REMARK H PARENT
REMARK Flexibility Score: inf
ROOT
ATOM      1  C   UNL     1      17.366  20.858 -13.007  1.00  0.00     0.000 C 
ENDROOT
BRANCH   1   2
ATOM      2  C   UNL     1      17.978  19.842 -13.986  1.00  0.00     0.000 C 
BRANCH   2   3
ATOM      3  C   UNL     1      19.519  19.800 -14.009  1.00  0.00     0.000 C 
BRANCH   3   4
ATOM      4  C   UNL     1      20.147  18.460 -13.584  1.00  0.00     0.000 C 
BRANCH   4   5
ATOM      5  C   UNL     1      19.106  17.452 -13.067  1.00  0.00     0.000 C 
BRANCH   5   6
ATOM      6  C   UNL     1      19.130  17.314 -11.536  1.00  0.00     0.000 C 
BRANCH   6   7
ATOM      7  C   UNL     1      20.150  18.256 -10.872  1.00  0.00     0.006 C 
BRANCH   7   8
ATOM      8  C   UNL     1      21.129  17.501  -9.963  1.00  0.00     0.053 C 
BRANCH   8   9
ATOM      9  C   UNL     1      22.447  17.265 -10.637  1.00  0.00     0.041 C 
ATOM     10  O   UNL     1      23.515  17.647 -10.089  1.00  0.00    -0.550 OA
ATOM     11  O   UNL     1      22.498  16.595 -11.853  1.00  0.00    -0.550 OA
ENDBRANCH   8   9
ENDBRANCH   7   8
ENDBRANCH   6   7
ENDBRANCH   5   6
ENDBRANCH   4   5
ENDBRANCH   3   4
ENDBRANCH   2   3
ENDBRANCH   1   2
BRANCH   1  12
ATOM     12  C   UNL     1      16.220  20.267 -12.171  1.00  0.00     0.000 C 
BRANCH  12  13
ATOM     13  C   UNL     1      15.137  21.322 -11.905  1.00  0.00    -0.000 C 
BRANCH  13  14
ATOM     14  C   UNL     1      15.343  22.607 -12.724  1.00  0.00    -0.000 C 
BRANCH  14  15
ATOM     15  C   UNL     1      14.149  23.571 -12.620  1.00  0.00    -0.000 C 
BRANCH  15  16
ATOM     16  C   UNL     1      13.195  23.462 -13.820  1.00  0.00    -0.000 C 
BRANCH  16  17
ATOM     17  C   UNL     1      12.027  22.498 -13.564  1.00  0.00    -0.000 C 
BRANCH  17  18
ATOM     18  C   UNL     1      10.730  23.268 -13.290  1.00  0.00    -0.000 C 
BRANCH  18  19
ATOM     19  C   UNL     1      10.422  23.313 -11.789  1.00  0.00    -0.003 C 
ATOM     20  C   UNL     1      10.834  24.650 -11.181  1.00  0.00     0.004 C 
ENDBRANCH  18  19
ENDBRANCH  17  18
ENDBRANCH  16  17
ENDBRANCH  15  16
ENDBRANCH  14  15
ENDBRANCH  13  14
ENDBRANCH  12  13
ENDBRANCH   1  12
TORSDOF 16
ENDMDL
MODEL 4
REMARK VINA RESULT:    -4.234      3.264      8.649
REMARK INTER + INTRA:          -9.909
REMARK INTER:                  -8.425
REMARK INTRA:                  -1.484
REMARK UNBOUND:                -1.714
REMARK SMILES CCCCCCCCCCCCCCCCCC(=O)[O-]
REMARK SMILES IDX 10 1 11 2 12 3 13 4 14 5 15 6 16 7 17 8 18 9 19 10 20 11
REMARK SMILES IDX 9 12 8 13 7 14 6 15 5 16 4 17 3 18 2 19 1 20
REMARK H PARENT
REMARK Flexibility Score: inf
ROOT
ATOM      1  C   UNL     1      13.846  22.001 -12.247  1.00  0.00     0.000 C 
ENDROOT
BRANCH   1   2
ATOM      2  C   UNL     1      12.523  22.411 -12.919  1.00  0.00     0.000 C 
BRANCH   2   3
ATOM      3  C   UNL     1      12.577  23.724 -13.726  1.00  0.00     0.000 C 
BRANCH   3   4
ATOM      4  C   UNL     1      11.704  24.868 -13.180  1.00  0.00     0.000 C 
BRANCH   4   5
ATOM      5  C   UNL     1      12.508  25.892 -12.361  1.00  0.00     0.000 C 
BRANCH   5   6
ATOM      6  C   UNL     1      12.821  25.395 -10.940  1.00  0.00     0.000 C 
BRANCH   6   7
ATOM      7  C   UNL     1      14.022  26.120 -10.310  1.00  0.00     0.006 C 
BRANCH   7   8
ATOM      8  C   UNL     1      13.617  26.965  -9.094  1.00  0.00     0.053 C 
BRANCH   8   9
ATOM      9  C   UNL     1      13.130  26.115  -7.961  1.00  0.00     0.041 C 
ATOM     10  O   UNL     1      13.935  25.381  -7.328  1.00  0.00    -0.550 OA
ATOM     11  O   UNL     1      11.794  26.155  -7.583  1.00  0.00    -0.550 OA
ENDBRANCH   8   9
ENDBRANCH   7   8
ENDBRANCH   6   7
ENDBRANCH   5   6
ENDBRANCH   4   5
ENDBRANCH   3   4
ENDBRANCH   2   3
ENDBRANCH   1   2
BRANCH   1  12
ATOM     12  C   UNL     1      15.018  22.917 -12.630  1.00  0.00     0.000 C 
BRANCH  12  13
ATOM     13  C   UNL     1      16.296  22.099 -12.867  1.00  0.00    -0.000 C 
BRANCH  13  14
ATOM     14  C   UNL     1      16.248  20.713 -12.201  1.00  0.00    -0.000 C 
BRANCH  14  15
ATOM     15  C   UNL     1      17.070  19.662 -12.966  1.00  0.00    -0.000 C 
BRANCH  15  16
ATOM     16  C   UNL     1      18.378  20.234 -13.535  1.00  0.00    -0.000 C 
BRANCH  16  17
ATOM     17  C   UNL     1      19.547  19.240 -13.451  1.00  0.00    -0.000 C 
BRANCH  17  18
ATOM     18  C   UNL     1      19.069  17.874 -12.946  1.00  0.00    -0.000 C 
BRANCH  18  19
ATOM     19  C   UNL     1      19.874  17.427 -11.720  1.00  0.00    -0.003 C 
ATOM     20  C   UNL     1      19.616  18.342 -10.527  1.00  0.00     0.004 C 
ENDBRANCH  18  19
ENDBRANCH  17  18
ENDBRANCH  16  17
ENDBRANCH  15  16
ENDBRANCH  14  15
ENDBRANCH  13  14
ENDBRANCH  12  13
ENDBRANCH   1  12
TORSDOF 16
ENDMDL
MODEL 5
REMARK VINA RESULT:    -4.171      1.240      1.937
REMARK INTER + INTRA:          -9.786
REMARK INTER:                  -8.450
REMARK INTRA:                  -1.337
REMARK UNBOUND:                -1.714
REMARK SMILES CCCCCCCCCCCCCCCCCC(=O)[O-]
REMARK SMILES IDX 10 1 11 2 12 3 13 4 14 5 15 6 16 7 17 8 18 9 19 10 20 11
REMARK SMILES IDX 9 12 8 13 7 14 6 15 5 16 4 17 3 18 2 19 1 20
REMARK H PARENT
REMARK Flexibility Score: inf
ROOT
ATOM      1  C   UNL     1      15.481  22.789 -12.881  1.00  0.00     0.000 C 
ENDROOT
BRANCH   1   2
ATOM      2  C   UNL     1      16.784  21.978 -12.990  1.00  0.00     0.000 C 
BRANCH   2   3
ATOM      3  C   UNL     1      16.688  20.514 -12.516  1.00  0.00     0.000 C 
BRANCH   3   4
ATOM      4  C   UNL     1      17.361  19.480 -13.436  1.00  0.00     0.000 C 
BRANCH   4   5
ATOM      5  C   UNL     1      18.803  19.864 -13.811  1.00  0.00     0.000 C 
BRANCH   5   6
ATOM      6  C   UNL     1      19.749  18.652 -13.830  1.00  0.00     0.000 C 
BRANCH   6   7
ATOM      7  C   UNL     1      19.327  17.556 -12.837  1.00  0.00     0.006 C 
BRANCH   7   8
ATOM      8  C   UNL     1      20.398  17.298 -11.769  1.00  0.00     0.053 C 
BRANCH   8   9
ATOM      9  C   UNL     1      19.994  17.840 -10.431  1.00  0.00     0.041 C 
ATOM     10  O   UNL     1      18.994  18.599 -10.332  1.00  0.00    -0.550 OA
ATOM     11  O   UNL     1      20.702  17.482  -9.291  1.00  0.00    -0.550 OA
ENDBRANCH   8   9
ENDBRANCH   7   8
ENDBRANCH   6   7
ENDBRANCH   5   6
ENDBRANCH   4   5
ENDBRANCH   3   4
ENDBRANCH   2   3
ENDBRANCH   1   2
BRANCH   1  12
ATOM     12  C   UNL     1      14.333  21.989 -12.245  1.00  0.00     0.000 C 
BRANCH  12  13
ATOM     13  C   UNL     1      13.022  22.787 -12.287  1.00  0.00    -0.000 C 
BRANCH  13  14
ATOM     14  C   UNL     1      12.137  22.416 -13.489  1.00  0.00    -0.000 C 
BRANCH  14  15
ATOM     15  C   UNL     1      11.460  23.642 -14.125  1.00  0.00    -0.000 C 
BRANCH  15  16
ATOM     16  C   UNL     1       9.929  23.606 -13.990  1.00  0.00    -0.000 C 
BRANCH  16  17
ATOM     17  C   UNL     1       9.408  24.553 -12.898  1.00  0.00    -0.000 C 
BRANCH  17  18
ATOM     18  C   UNL     1       9.544  23.917 -11.510  1.00  0.00    -0.000 C 
BRANCH  18  19
ATOM     19  C   UNL     1       9.846  24.978 -10.444  1.00  0.00    -0.003 C 
ATOM     20  C   UNL     1      11.211  25.618 -10.674  1.00  0.00     0.004 C 
ENDBRANCH  18  19
ENDBRANCH  17  18
ENDBRANCH  16  17
ENDBRANCH  15  16
ENDBRANCH  14  15
ENDBRANCH  13  14
ENDBRANCH  12  13
ENDBRANCH   1  12
TORSDOF 16
ENDMDL
MODEL 6
REMARK VINA RESULT:    -4.137      3.101      9.045
REMARK INTER + INTRA:          -9.721
REMARK INTER:                  -8.256
REMARK INTRA:                  -1.465
REMARK UNBOUND:                -1.714
REMARK SMILES CCCCCCCCCCCCCCCCCC(=O)[O-]
REMARK SMILES IDX 10 1 11 2 12 3 13 4 14 5 15 6 16 7 17 8 18 9 19 10 20 11
REMARK SMILES IDX 9 12 8 13 7 14 6 15 5 16 4 17 3 18 2 19 1 20
REMARK H PARENT
REMARK Flexibility Score: inf
ROOT
ATOM      1  C   UNL     1      16.734  19.770 -12.569  1.00  0.00     0.000 C 
ENDROOT
BRANCH   1   2
ATOM      2  C   UNL     1      16.801  21.252 -12.162  1.00  0.00     0.000 C 
BRANCH   2   3
ATOM      3  C   UNL     1      15.683  22.142 -12.742  1.00  0.00     0.000 C 
BRANCH   3   4
ATOM      4  C   UNL     1      14.291  21.938 -12.116  1.00  0.00     0.000 C 
BRANCH   4   5
ATOM      5  C   UNL     1      13.163  22.561 -12.956  1.00  0.00     0.000 C 
BRANCH   5   6
ATOM      6  C   UNL     1      12.055  23.180 -12.088  1.00  0.00     0.000 C 
BRANCH   6   7
ATOM      7  C   UNL     1      11.830  24.672 -12.389  1.00  0.00     0.006 C 
BRANCH   7   8
ATOM      8  C   UNL     1      13.114  25.496 -12.227  1.00  0.00     0.053 C 
BRANCH   8   9
ATOM      9  C   UNL     1      13.323  25.932 -10.809  1.00  0.00     0.041 C 
ATOM     10  O   UNL     1      14.053  25.252 -10.040  1.00  0.00    -0.550 OA
ATOM     11  O   UNL     1      12.737  27.102 -10.346  1.00  0.00    -0.550 OA
ENDBRANCH   8   9
ENDBRANCH   7   8
ENDBRANCH   6   7
ENDBRANCH   5   6
ENDBRANCH   4   5
ENDBRANCH   3   4
ENDBRANCH   2   3
ENDBRANCH   1   2
BRANCH   1  12
ATOM     12  C   UNL     1      17.547  19.461 -13.835  1.00  0.00     0.000 C 
BRANCH  12  13
ATOM     13  C   UNL     1      18.761  20.395 -13.947  1.00  0.00    -0.000 C 
BRANCH  13  14
ATOM     14  C   UNL     1      20.092  19.631 -14.051  1.00  0.00    -0.000 C 
BRANCH  14  15
ATOM     15  C   UNL     1      19.896  18.106 -14.100  1.00  0.00    -0.000 C 
BRANCH  15  16
ATOM     16  C   UNL     1      20.536  17.390 -12.900  1.00  0.00    -0.000 C 
BRANCH  16  17
ATOM     17  C   UNL     1      19.544  17.151 -11.752  1.00  0.00    -0.000 C 
BRANCH  17  18
ATOM     18  C   UNL     1      19.844  18.074 -10.566  1.00  0.00    -0.000 C 
BRANCH  18  19
ATOM     19  C   UNL     1      21.285  17.890 -10.075  1.00  0.00    -0.003 C 
ATOM     20  C   UNL     1      21.533  16.456  -9.618  1.00  0.00     0.004 C 
ENDBRANCH  18  19
ENDBRANCH  17  18
ENDBRANCH  16  17
ENDBRANCH  15  16
ENDBRANCH  14  15
ENDBRANCH  13  14
ENDBRANCH  12  13
ENDBRANCH   1  12
TORSDOF 16
ENDMDL
MODEL 7
REMARK VINA RESULT:    -4.115     11.048     13.814
REMARK INTER + INTRA:          -9.677
REMARK INTER:                  -6.983
REMARK INTRA:                  -2.694
REMARK UNBOUND:                -1.714
REMARK SMILES CCCCCCCCCCCCCCCCCC(=O)[O-]
REMARK SMILES IDX 10 1 11 2 12 3 13 4 14 5 15 6 16 7 17 8 18 9 19 10 20 11
REMARK SMILES IDX 9 12 8 13 7 14 6 15 5 16 4 17 3 18 2 19 1 20
REMARK H PARENT
REMARK Flexibility Score: inf
ROOT
ATOM      1  C   UNL     1       7.481  12.653  -7.852  1.00  0.00     0.000 C 
ENDROOT
BRANCH   1   2
ATOM      2  C   UNL     1       8.189  13.857  -8.498  1.00  0.00     0.000 C 
BRANCH   2   3
ATOM      3  C   UNL     1       7.466  14.466  -9.716  1.00  0.00     0.000 C 
BRANCH   3   4
ATOM      4  C   UNL     1       6.038  13.946  -9.960  1.00  0.00     0.000 C 
BRANCH   4   5
ATOM      5  C   UNL     1       4.956  14.942  -9.509  1.00  0.00     0.000 C 
BRANCH   5   6
ATOM      6  C   UNL     1       4.351  14.578  -8.143  1.00  0.00     0.000 C 
BRANCH   6   7
ATOM      7  C   UNL     1       4.711  15.594  -7.046  1.00  0.00     0.006 C 
BRANCH   7   8
ATOM      8  C   UNL     1       5.356  16.863  -7.620  1.00  0.00     0.053 C 
BRANCH   8   9
ATOM      9  C   UNL     1       6.574  17.269  -6.847  1.00  0.00     0.041 C 
ATOM     10  O   UNL     1       6.467  17.639  -5.648  1.00  0.00    -0.550 OA
ATOM     11  O   UNL     1       7.828  17.210  -7.441  1.00  0.00    -0.550 OA
ENDBRANCH   8   9
ENDBRANCH   7   8
ENDBRANCH   6   7
ENDBRANCH   5   6
ENDBRANCH   4   5
ENDBRANCH   3   4
ENDBRANCH   2   3
ENDBRANCH   1   2
BRANCH   1  12
ATOM     12  C   UNL     1       8.130  11.310  -8.222  1.00  0.00     0.000 C 
BRANCH  12  13
ATOM     13  C   UNL     1       7.410  10.665  -9.415  1.00  0.00    -0.000 C 
BRANCH  13  14
ATOM     14  C   UNL     1       8.289  10.602 -10.676  1.00  0.00    -0.000 C 
BRANCH  14  15
ATOM     15  C   UNL     1       9.751  10.987 -10.397  1.00  0.00    -0.000 C 
BRANCH  15  16
ATOM     16  C   UNL     1      10.184  12.252 -11.156  1.00  0.00    -0.000 C 
BRANCH  16  17
ATOM     17  C   UNL     1      11.258  13.056 -10.406  1.00  0.00    -0.000 C 
BRANCH  17  18
ATOM     18  C   UNL     1      11.658  12.355  -9.103  1.00  0.00    -0.000 C 
BRANCH  18  19
ATOM     19  C   UNL     1      13.181  12.209  -9.001  1.00  0.00    -0.003 C 
ATOM     20  C   UNL     1      13.708  11.199 -10.015  1.00  0.00     0.004 C 
ENDBRANCH  18  19
ENDBRANCH  17  18
ENDBRANCH  16  17
ENDBRANCH  15  16
ENDBRANCH  14  15
ENDBRANCH  13  14
ENDBRANCH  12  13
ENDBRANCH   1  12
TORSDOF 16
ENDMDL
MODEL 8
REMARK VINA RESULT:    -4.083     11.061     13.773
REMARK INTER + INTRA:          -9.617
REMARK INTER:                  -7.401
REMARK INTRA:                  -2.215
REMARK UNBOUND:                -1.714
REMARK SMILES CCCCCCCCCCCCCCCCCC(=O)[O-]
REMARK SMILES IDX 10 1 11 2 12 3 13 4 14 5 15 6 16 7 17 8 18 9 19 10 20 11
REMARK SMILES IDX 9 12 8 13 7 14 6 15 5 16 4 17 3 18 2 19 1 20
REMARK H PARENT
REMARK Flexibility Score: inf
ROOT
ATOM      1  C   UNL     1       8.711  14.417  -9.631  1.00  0.00     0.000 C 
ENDROOT
BRANCH   1   2
ATOM      2  C   UNL     1       7.965  15.386 -10.565  1.00  0.00     0.000 C 
BRANCH   2   3
ATOM      3  C   UNL     1       6.804  14.762 -11.364  1.00  0.00     0.000 C 
BRANCH   3   4
ATOM      4  C   UNL     1       5.640  14.218 -10.515  1.00  0.00     0.000 C 
BRANCH   4   5
ATOM      5  C   UNL     1       5.092  15.256  -9.521  1.00  0.00     0.000 C 
BRANCH   5   6
ATOM      6  C   UNL     1       4.634  14.620  -8.198  1.00  0.00     0.000 C 
BRANCH   6   7
ATOM      7  C   UNL     1       4.656  15.613  -7.024  1.00  0.00     0.006 C 
BRANCH   7   8
ATOM      8  C   UNL     1       5.216  16.982  -7.433  1.00  0.00     0.053 C 
BRANCH   8   9
ATOM      9  C   UNL     1       6.494  17.299  -6.717  1.00  0.00     0.041 C 
ATOM     10  O   UNL     1       7.600  17.150  -7.301  1.00  0.00    -0.550 OA
ATOM     11  O   UNL     1       6.462  17.787  -5.417  1.00  0.00    -0.550 OA
ENDBRANCH   8   9
ENDBRANCH   7   8
ENDBRANCH   6   7
ENDBRANCH   5   6
ENDBRANCH   4   5
ENDBRANCH   3   4
ENDBRANCH   2   3
ENDBRANCH   1   2
BRANCH   1  12
ATOM     12  C   UNL     1       9.872  13.692 -10.328  1.00  0.00     0.000 C 
BRANCH  12  13
ATOM     13  C   UNL     1       9.686  12.169 -10.258  1.00  0.00    -0.000 C 
BRANCH  13  14
ATOM     14  C   UNL     1       8.315  11.762  -9.691  1.00  0.00    -0.000 C 
BRANCH  14  15
ATOM     15  C   UNL     1       8.433  10.916  -8.412  1.00  0.00    -0.000 C 
BRANCH  15  16
ATOM     16  C   UNL     1       8.392  11.770  -7.134  1.00  0.00    -0.000 C 
BRANCH  16  17
ATOM     17  C   UNL     1       9.531  11.434  -6.159  1.00  0.00    -0.000 C 
BRANCH  17  18
ATOM     18  C   UNL     1      10.762  10.917  -6.911  1.00  0.00    -0.000 C 
BRANCH  18  19
ATOM     19  C   UNL     1      11.952  11.869  -6.742  1.00  0.00    -0.003 C 
ATOM     20  C   UNL     1      12.619  12.162  -8.083  1.00  0.00     0.004 C 
ENDBRANCH  18  19
ENDBRANCH  17  18
ENDBRANCH  16  17
ENDBRANCH  15  16
ENDBRANCH  14  15
ENDBRANCH  13  14
ENDBRANCH  12  13
ENDBRANCH   1  12
TORSDOF 16
ENDMDL
MODEL 9
REMARK VINA RESULT:    -4.007      3.462      7.370
REMARK INTER + INTRA:          -9.470
REMARK INTER:                  -7.823
REMARK INTRA:                  -1.647
REMARK UNBOUND:                -1.714
REMARK SMILES CCCCCCCCCCCCCCCCCC(=O)[O-]
REMARK SMILES IDX 10 1 11 2 12 3 13 4 14 5 15 6 16 7 17 8 18 9 19 10 20 11
REMARK SMILES IDX 9 12 8 13 7 14 6 15 5 16 4 17 3 18 2 19 1 20
REMARK H PARENT
REMARK Flexibility Score: inf
ROOT
ATOM      1  C   UNL     1      20.810  17.883 -10.002  1.00  0.00     0.000 C 
ENDROOT
BRANCH   1   2
ATOM      2  C   UNL     1      21.902  17.139 -10.792  1.00  0.00     0.000 C 
BRANCH   2   3
ATOM      3  C   UNL     1      23.351  17.505 -10.411  1.00  0.00     0.000 C 
BRANCH   3   4
ATOM      4  C   UNL     1      24.109  16.431  -9.609  1.00  0.00     0.000 C 
BRANCH   4   5
ATOM      5  C   UNL     1      23.177  15.359  -9.018  1.00  0.00     0.000 C 
BRANCH   5   6
ATOM      6  C   UNL     1      23.270  14.020  -9.767  1.00  0.00     0.000 C 
BRANCH   6   7
ATOM      7  C   UNL     1      21.892  13.384 -10.018  1.00  0.00     0.006 C 
BRANCH   7   8
ATOM      8  C   UNL     1      20.788  14.044  -9.182  1.00  0.00     0.053 C 
BRANCH   8   9
ATOM      9  C   UNL     1      20.381  13.190  -8.020  1.00  0.00     0.041 C 
ATOM     10  O   UNL     1      20.193  13.709  -6.888  1.00  0.00    -0.550 OA
ATOM     11  O   UNL     1      20.178  11.827  -8.194  1.00  0.00    -0.550 OA
ENDBRANCH   8   9
ENDBRANCH   7   8
ENDBRANCH   6   7
ENDBRANCH   5   6
ENDBRANCH   4   5
ENDBRANCH   3   4
ENDBRANCH   2   3
ENDBRANCH   1   2
BRANCH   1  12
ATOM     12  C   UNL     1      19.506  18.047 -10.796  1.00  0.00     0.000 C 
BRANCH  12  13
ATOM     13  C   UNL     1      19.401  16.985 -11.901  1.00  0.00    -0.000 C 
BRANCH  13  14
ATOM     14  C   UNL     1      19.109  17.592 -13.284  1.00  0.00    -0.000 C 
BRANCH  14  15
ATOM     15  C   UNL     1      19.873  18.904 -13.526  1.00  0.00    -0.000 C 
BRANCH  15  16
ATOM     16  C   UNL     1      18.940  20.077 -13.866  1.00  0.00    -0.000 C 
BRANCH  16  17
ATOM     17  C   UNL     1      17.462  19.758 -13.595  1.00  0.00    -0.000 C 
BRANCH  17  18
ATOM     18  C   UNL     1      16.977  20.451 -12.317  1.00  0.00    -0.000 C 
BRANCH  18  19
ATOM     19  C   UNL     1      16.139  21.692 -12.646  1.00  0.00    -0.003 C 
ATOM     20  C   UNL     1      14.780  21.640 -11.955  1.00  0.00     0.004 C 
ENDBRANCH  18  19
ENDBRANCH  17  18
ENDBRANCH  16  17
ENDBRANCH  15  16
ENDBRANCH  14  15
ENDBRANCH  13  14
ENDBRANCH  12  13
ENDBRANCH   1  12
TORSDOF 16
ENDMDL
