MODEL 1
REMARK VINA RESULT:    -4.527      0.000      0.000
REMARK INTER + INTRA:          -5.335
REMARK INTER:                  -5.189
REMARK INTRA:                  -0.146
REMARK UNBOUND:                -0.146
REMARK SMILES O=C([O-])C=Cc1ccc(O)cc1
REMARK SMILES IDX 6 1 7 2 12 3 8 4 11 5 9 6 5 7 4 8 2 9 1 10 3 11 10 12
REMARK H PARENT 10 13
REMARK Flexibility Score: inf
ROOT
ATOM      1  C   UNL     1     -45.831 -51.068  10.048  1.00  0.00    -0.025 A 
ATOM      2  C   UNL     1     -45.359 -52.231   9.415  1.00  0.00     0.012 A 
ATOM      3  C   UNL     1     -45.887 -51.035  11.456  1.00  0.00     0.012 A 
ATOM      4  C   UNL     1     -44.974 -53.345  10.168  1.00  0.00     0.047 A 
ATOM      5  C   UNL     1     -45.502 -52.152  12.205  1.00  0.00     0.047 A 
ATOM      6  C   UNL     1     -45.047 -53.308  11.566  1.00  0.00     0.115 A 
ENDROOT
BRANCH   1   7
ATOM      7  C   UNL     1     -46.217 -49.909   9.205  1.00  0.00     0.010 C 
ATOM      8  C   UNL     1     -45.599 -49.580   8.063  1.00  0.00     0.025 C 
BRANCH   8   9
ATOM      9  C   UNL     1     -46.009 -48.414   7.265  1.00  0.00     0.064 C 
ATOM     10  O   UNL     1     -46.523 -48.587   6.129  1.00  0.00    -0.545 OA
ATOM     11  O   UNL     1     -45.840 -47.120   7.746  1.00  0.00    -0.545 OA
ENDBRANCH   8   9
ENDBRANCH   1   7
BRANCH   6  12
ATOM     12  O   UNL     1     -44.668 -54.412  12.326  1.00  0.00    -0.508 OA
ATOM     13  H   UNL     1     -44.655 -54.378  13.338  1.00  0.00     0.293 HD
ENDBRANCH   6  12
TORSDOF 3
ENDMDL
MODEL 2
REMARK VINA RESULT:    -4.407      2.452      3.111
REMARK INTER + INTRA:          -5.198
REMARK INTER:                  -5.050
REMARK INTRA:                  -0.148
REMARK UNBOUND:                -0.146
REMARK SMILES O=C([O-])C=Cc1ccc(O)cc1
REMARK SMILES IDX 6 1 7 2 12 3 8 4 11 5 9 6 5 7 4 8 2 9 1 10 3 11 10 12
REMARK H PARENT 10 13
REMARK Flexibility Score: inf
ROOT
ATOM      1  C   UNL     1     -45.697 -51.152  10.854  1.00  0.00    -0.025 A 
ATOM      2  C   UNL     1     -45.907 -51.300   9.472  1.00  0.00     0.012 A 
ATOM      3  C   UNL     1     -45.233 -52.259  11.594  1.00  0.00     0.012 A 
ATOM      4  C   UNL     1     -45.685 -52.531   8.846  1.00  0.00     0.047 A 
ATOM      5  C   UNL     1     -45.012 -53.489  10.963  1.00  0.00     0.047 A 
ATOM      6  C   UNL     1     -45.238 -53.629   9.591  1.00  0.00     0.115 A 
ENDROOT
BRANCH   1   7
ATOM      7  C   UNL     1     -45.937 -49.824  11.470  1.00  0.00     0.010 C 
ATOM      8  C   UNL     1     -45.616 -48.662  10.884  1.00  0.00     0.025 C 
BRANCH   8   9
ATOM      9  C   UNL     1     -45.862 -47.368  11.538  1.00  0.00     0.064 C 
ATOM     10  O   UNL     1     -45.739 -47.268  12.787  1.00  0.00    -0.545 OA
ATOM     11  O   UNL     1     -46.226 -46.248  10.799  1.00  0.00    -0.545 OA
ENDBRANCH   8   9
ENDBRANCH   1   7
BRANCH   6  12
ATOM     12  O   UNL     1     -45.015 -54.859   8.979  1.00  0.00    -0.508 OA
ATOM     13  H   UNL     1     -44.510 -54.931   8.103  1.00  0.00     0.293 HD
ENDBRANCH   6  12
TORSDOF 3
ENDMDL
MODEL 3
REMARK VINA RESULT:    -4.261      2.043      2.619
REMARK INTER + INTRA:          -5.030
REMARK INTER:                  -4.891
REMARK INTRA:                  -0.140
REMARK UNBOUND:                -0.146
REMARK SMILES O=C([O-])C=Cc1ccc(O)cc1
REMARK SMILES IDX 6 1 7 2 12 3 8 4 11 5 9 6 5 7 4 8 2 9 1 10 3 11 10 12
REMARK H PARENT 10 13
REMARK Flexibility Score: inf
ROOT
ATOM      1  C   UNL     1     -45.048 -50.361  10.693  1.00  0.00    -0.025 A 
ATOM      2  C   UNL     1     -45.881 -51.028  11.608  1.00  0.00     0.012 A 
ATOM      3  C   UNL     1     -43.869 -50.999  10.256  1.00  0.00     0.012 A 
ATOM      4  C   UNL     1     -45.535 -52.292  12.095  1.00  0.00     0.047 A 
ATOM      5  C   UNL     1     -43.527 -52.264  10.747  1.00  0.00     0.047 A 
ATOM      6  C   UNL     1     -44.356 -52.913  11.666  1.00  0.00     0.115 A 
ENDROOT
BRANCH   1   7
ATOM      7  C   UNL     1     -45.463 -49.025  10.197  1.00  0.00     0.010 C 
ATOM      8  C   UNL     1     -45.513 -47.928  10.965  1.00  0.00     0.025 C 
BRANCH   8   9
ATOM      9  C   UNL     1     -45.943 -46.626  10.433  1.00  0.00     0.064 C 
ATOM     10  O   UNL     1     -45.862 -46.402   9.197  1.00  0.00    -0.545 OA
ATOM     11  O   UNL     1     -46.442 -45.636  11.273  1.00  0.00    -0.545 OA
ENDBRANCH   8   9
ENDBRANCH   1   7
BRANCH   6  12
ATOM     12  O   UNL     1     -44.000 -54.171  12.145  1.00  0.00    -0.508 OA
ATOM     13  H   UNL     1     -44.647 -54.950  12.119  1.00  0.00     0.293 HD
ENDBRANCH   6  12
TORSDOF 3
ENDMDL
MODEL 4
REMARK VINA RESULT:    -4.231      1.537      2.011
REMARK INTER + INTRA:          -4.996
REMARK INTER:                  -4.846
REMARK INTRA:                  -0.150
REMARK UNBOUND:                -0.146
REMARK SMILES O=C([O-])C=Cc1ccc(O)cc1
REMARK SMILES IDX 6 1 7 2 12 3 8 4 11 5 9 6 5 7 4 8 2 9 1 10 3 11 10 12
REMARK H PARENT 10 13
REMARK Flexibility Score: inf
ROOT
ATOM      1  C   UNL     1     -44.104 -51.628  10.435  1.00  0.00    -0.025 A 
ATOM      2  C   UNL     1     -45.310 -51.615  11.157  1.00  0.00     0.012 A 
ATOM      3  C   UNL     1     -43.092 -52.531  10.819  1.00  0.00     0.012 A 
ATOM      4  C   UNL     1     -45.494 -52.464  12.252  1.00  0.00     0.047 A 
ATOM      5  C   UNL     1     -43.280 -53.379  11.915  1.00  0.00     0.047 A 
ATOM      6  C   UNL     1     -44.477 -53.348  12.635  1.00  0.00     0.115 A 
ENDROOT
BRANCH   1   7
ATOM      7  C   UNL     1     -43.961 -50.714   9.274  1.00  0.00     0.010 C 
ATOM      8  C   UNL     1     -44.998 -50.168   8.625  1.00  0.00     0.025 C 
BRANCH   8   9
ATOM      9  C   UNL     1     -44.810 -49.276   7.470  1.00  0.00     0.064 C 
ATOM     10  O   UNL     1     -45.440 -49.499   6.403  1.00  0.00    -0.545 OA
ATOM     11  O   UNL     1     -43.949 -48.187   7.537  1.00  0.00    -0.545 OA
ENDBRANCH   8   9
ENDBRANCH   1   7
BRANCH   6  12
ATOM     12  O   UNL     1     -44.648 -54.198  13.724  1.00  0.00    -0.508 OA
ATOM     13  H   UNL     1     -44.624 -55.205  13.619  1.00  0.00     0.293 HD
ENDBRANCH   6  12
TORSDOF 3
ENDMDL
MODEL 5
REMARK VINA RESULT:    -4.220      1.800      6.244
REMARK INTER + INTRA:          -4.983
REMARK INTER:                  -4.843
REMARK INTRA:                  -0.139
REMARK UNBOUND:                -0.146
REMARK SMILES O=C([O-])C=Cc1ccc(O)cc1
REMARK SMILES IDX 6 1 7 2 12 3 8 4 11 5 9 6 5 7 4 8 2 9 1 10 3 11 10 12
REMARK H PARENT 10 13
REMARK Flexibility Score: inf
ROOT
ATOM      1  C   UNL     1     -45.462 -49.831   7.413  1.00  0.00    -0.025 A 
ATOM      2  C   UNL     1     -46.473 -48.894   7.688  1.00  0.00     0.012 A 
ATOM      3  C   UNL     1     -44.968 -49.930   6.096  1.00  0.00     0.012 A 
ATOM      4  C   UNL     1     -46.997 -48.091   6.670  1.00  0.00     0.047 A 
ATOM      5  C   UNL     1     -45.494 -49.125   5.080  1.00  0.00     0.047 A 
ATOM      6  C   UNL     1     -46.509 -48.207   5.363  1.00  0.00     0.115 A 
ENDROOT
BRANCH   1   7
ATOM      7  C   UNL     1     -44.932 -50.652   8.530  1.00  0.00     0.010 C 
ATOM      8  C   UNL     1     -45.657 -51.561   9.195  1.00  0.00     0.025 C 
BRANCH   8   9
ATOM      9  C   UNL     1     -45.093 -52.345  10.305  1.00  0.00     0.064 C 
ATOM     10  O   UNL     1     -44.359 -51.778  11.156  1.00  0.00    -0.545 OA
ATOM     11  O   UNL     1     -45.358 -53.704  10.432  1.00  0.00    -0.545 OA
ENDBRANCH   8   9
ENDBRANCH   1   7
BRANCH   6  12
ATOM     12  O   UNL     1     -47.024 -47.414   4.340  1.00  0.00    -0.508 OA
ATOM     13  H   UNL     1     -46.642 -47.445   3.403  1.00  0.00     0.293 HD
ENDBRANCH   6  12
TORSDOF 3
ENDMDL
MODEL 6
REMARK VINA RESULT:    -4.192      2.359      5.774
REMARK INTER + INTRA:          -4.951
REMARK INTER:                  -4.810
REMARK INTRA:                  -0.142
REMARK UNBOUND:                -0.146
REMARK SMILES O=C([O-])C=Cc1ccc(O)cc1
REMARK SMILES IDX 6 1 7 2 12 3 8 4 11 5 9 6 5 7 4 8 2 9 1 10 3 11 10 12
REMARK H PARENT 10 13
REMARK Flexibility Score: inf
ROOT
ATOM      1  C   UNL     1     -45.856 -49.161  11.170  1.00  0.00    -0.025 A 
ATOM      2  C   UNL     1     -45.853 -48.788   9.815  1.00  0.00     0.012 A 
ATOM      3  C   UNL     1     -45.877 -48.151  12.153  1.00  0.00     0.012 A 
ATOM      4  C   UNL     1     -45.845 -47.439   9.448  1.00  0.00     0.047 A 
ATOM      5  C   UNL     1     -45.869 -46.802  11.782  1.00  0.00     0.047 A 
ATOM      6  C   UNL     1     -45.851 -46.442  10.431  1.00  0.00     0.115 A 
ENDROOT
BRANCH   1   7
ATOM      7  C   UNL     1     -45.875 -50.606  11.509  1.00  0.00     0.010 C 
ATOM      8  C   UNL     1     -45.046 -51.508  10.968  1.00  0.00     0.025 C 
BRANCH   8   9
ATOM      9  C   UNL     1     -45.109 -52.934  11.325  1.00  0.00     0.064 C 
ATOM     10  O   UNL     1     -45.423 -53.781  10.448  1.00  0.00    -0.545 OA
ATOM     11  O   UNL     1     -44.823 -53.364  12.616  1.00  0.00    -0.545 OA
ENDBRANCH   8   9
ENDBRANCH   1   7
BRANCH   6  12
ATOM     12  O   UNL     1     -45.842 -45.095  10.078  1.00  0.00    -0.508 OA
ATOM     13  H   UNL     1     -45.632 -44.372  10.755  1.00  0.00     0.293 HD
ENDBRANCH   6  12
TORSDOF 3
ENDMDL
MODEL 7
REMARK VINA RESULT:    -4.096      7.770      8.572
REMARK INTER + INTRA:          -4.840
REMARK INTER:                  -4.693
REMARK INTRA:                  -0.148
REMARK UNBOUND:                -0.146
REMARK SMILES O=C([O-])C=Cc1ccc(O)cc1
REMARK SMILES IDX 6 1 7 2 12 3 8 4 11 5 9 6 5 7 4 8 2 9 1 10 3 11 10 12
REMARK H PARENT 10 13
REMARK Flexibility Score: inf
ROOT
ATOM      1  C   UNL     1     -46.315 -43.496  13.730  1.00  0.00    -0.025 A 
ATOM      2  C   UNL     1     -47.048 -44.576  13.210  1.00  0.00     0.012 A 
ATOM      3  C   UNL     1     -46.328 -43.272  15.122  1.00  0.00     0.012 A 
ATOM      4  C   UNL     1     -47.799 -45.399  14.054  1.00  0.00     0.047 A 
ATOM      5  C   UNL     1     -47.081 -44.099  15.964  1.00  0.00     0.047 A 
ATOM      6  C   UNL     1     -47.818 -45.161  15.434  1.00  0.00     0.115 A 
ENDROOT
BRANCH   1   7
ATOM      7  C   UNL     1     -45.525 -42.657  12.794  1.00  0.00     0.010 C 
ATOM      8  C   UNL     1     -45.864 -42.448  11.515  1.00  0.00     0.025 C 
BRANCH   8   9
ATOM      9  C   UNL     1     -45.045 -41.618  10.619  1.00  0.00     0.064 C 
ATOM     10  O   UNL     1     -44.838 -41.997   9.436  1.00  0.00    -0.545 OA
ATOM     11  O   UNL     1     -44.495 -40.417  11.055  1.00  0.00    -0.545 OA
ENDBRANCH   8   9
ENDBRANCH   1   7
BRANCH   6  12
ATOM     12  O   UNL     1     -48.563 -45.974  16.285  1.00  0.00    -0.508 OA
ATOM     13  H   UNL     1     -48.148 -46.406  17.102  1.00  0.00     0.293 HD
ENDBRANCH   6  12
TORSDOF 3
ENDMDL
MODEL 8
REMARK VINA RESULT:    -3.993      6.331      7.914
REMARK INTER + INTRA:          -4.723
REMARK INTER:                  -4.585
REMARK INTRA:                  -0.138
REMARK UNBOUND:                -0.146
REMARK SMILES O=C([O-])C=Cc1ccc(O)cc1
REMARK SMILES IDX 6 1 7 2 12 3 8 4 11 5 9 6 5 7 4 8 2 9 1 10 3 11 10 12
REMARK H PARENT 10 13
REMARK Flexibility Score: inf
ROOT
ATOM      1  C   UNL     1     -45.541 -43.652  10.376  1.00  0.00    -0.025 A 
ATOM      2  C   UNL     1     -45.878 -43.547  11.737  1.00  0.00     0.012 A 
ATOM      3  C   UNL     1     -45.569 -44.922   9.765  1.00  0.00     0.012 A 
ATOM      4  C   UNL     1     -46.211 -44.685  12.478  1.00  0.00     0.047 A 
ATOM      5  C   UNL     1     -45.904 -46.058  10.510  1.00  0.00     0.047 A 
ATOM      6  C   UNL     1     -46.223 -45.944  11.865  1.00  0.00     0.115 A 
ENDROOT
BRANCH   1   7
ATOM      7  C   UNL     1     -45.205 -42.413   9.631  1.00  0.00     0.010 C 
ATOM      8  C   UNL     1     -44.053 -41.744   9.779  1.00  0.00     0.025 C 
BRANCH   8   9
ATOM      9  C   UNL     1     -43.767 -40.513   9.027  1.00  0.00     0.064 C 
ATOM     10  O   UNL     1     -44.204 -40.385   7.853  1.00  0.00    -0.545 OA
ATOM     11  O   UNL     1     -43.022 -39.483   9.591  1.00  0.00    -0.545 OA
ENDBRANCH   8   9
ENDBRANCH   1   7
BRANCH   6  12
ATOM     12  O   UNL     1     -46.552 -47.084  12.593  1.00  0.00    -0.508 OA
ATOM     13  H   UNL     1     -47.227 -47.757  12.247  1.00  0.00     0.293 HD
ENDBRANCH   6  12
TORSDOF 3
ENDMDL
MODEL 9
REMARK VINA RESULT:    -3.935      4.075      5.518
REMARK INTER + INTRA:          -4.657
REMARK INTER:                  -4.507
REMARK INTRA:                  -0.150
REMARK UNBOUND:                -0.146
REMARK SMILES O=C([O-])C=Cc1ccc(O)cc1
REMARK SMILES IDX 6 1 7 2 12 3 8 4 11 5 9 6 5 7 4 8 2 9 1 10 3 11 10 12
REMARK H PARENT 10 13
REMARK Flexibility Score: inf
ROOT
ATOM      1  C   UNL     1     -45.812 -48.333  11.208  1.00  0.00    -0.025 A 
ATOM      2  C   UNL     1     -45.883 -49.713  11.464  1.00  0.00     0.012 A 
ATOM      3  C   UNL     1     -45.809 -47.890   9.869  1.00  0.00     0.012 A 
ATOM      4  C   UNL     1     -45.923 -50.632  10.411  1.00  0.00     0.047 A 
ATOM      5  C   UNL     1     -45.850 -48.813   8.819  1.00  0.00     0.047 A 
ATOM      6  C   UNL     1     -45.905 -50.183   9.085  1.00  0.00     0.115 A 
ENDROOT
BRANCH   1   7
ATOM      7  C   UNL     1     -45.782 -47.397  12.359  1.00  0.00     0.010 C 
ATOM      8  C   UNL     1     -46.167 -47.729  13.599  1.00  0.00     0.025 C 
BRANCH   8   9
ATOM      9  C   UNL     1     -46.130 -46.765  14.709  1.00  0.00     0.064 C 
ATOM     10  O   UNL     1     -47.201 -46.238  15.110  1.00  0.00    -0.545 OA
ATOM     11  O   UNL     1     -44.932 -46.426  15.327  1.00  0.00    -0.545 OA
ENDBRANCH   8   9
ENDBRANCH   1   7
BRANCH   6  12
ATOM     12  O   UNL     1     -45.944 -51.089   8.028  1.00  0.00    -0.508 OA
ATOM     13  H   UNL     1     -45.515 -50.879   7.135  1.00  0.00     0.293 HD
ENDBRANCH   6  12
TORSDOF 3
ENDMDL
