MODEL 1
REMARK VINA RESULT:    -5.390      0.000      0.000
REMARK INTER + INTRA:          -5.547
REMARK INTER:                  -5.547
REMARK INTRA:                   0.000
REMARK UNBOUND:                 0.000
REMARK SMILES O=c1ccc2ccc(O)cc2o1
REMARK SMILES IDX 6 1 7 2 8 3 10 4 11 5 5 6 4 7 3 8 2 9 1 10 12 11 9 12
REMARK H PARENT 9 13
REMARK Flexibility Score: inf
ROOT
ATOM      1  C   UNL     1      21.438  -0.749 -22.575  1.00  0.00     0.016 A 
ATOM      2  C   UNL     1      21.873   0.462 -23.125  1.00  0.00     0.047 A 
ATOM      3  C   UNL     1      21.813   1.642 -22.375  1.00  0.00     0.119 A 
ATOM      4  C   UNL     1      21.315   1.613 -21.064  1.00  0.00     0.094 A 
ATOM      5  C   UNL     1      20.878   0.407 -20.505  1.00  0.00     0.142 A 
ATOM      6  C   UNL     1      20.939  -0.781 -21.265  1.00  0.00     0.018 A 
ATOM      7  C   UNL     1      20.495  -1.971 -20.680  1.00  0.00     0.019 A 
ATOM      8  C   UNL     1      20.008  -1.950 -19.373  1.00  0.00     0.094 A 
ATOM      9  C   UNL     1      19.976  -0.735 -18.680  1.00  0.00     0.336 A 
ATOM     10  O   UNL     1      19.541  -0.696 -17.500  1.00  0.00    -0.246 OA
ATOM     11  O   UNL     1      20.405   0.383 -19.261  1.00  0.00    -0.423 OA
ENDROOT
BRANCH   3  12
ATOM     12  O   UNL     1      22.252   2.837 -22.940  1.00  0.00    -0.508 OA
ATOM     13  H   UNL     1      22.245   3.704 -22.417  1.00  0.00     0.293 HD
ENDBRANCH   3  12
TORSDOF 1
ENDMDL
MODEL 2
REMARK VINA RESULT:    -5.161     15.647     18.406
REMARK INTER + INTRA:          -5.312
REMARK INTER:                  -5.312
REMARK INTRA:                   0.000
REMARK UNBOUND:                 0.000
REMARK SMILES O=c1ccc2ccc(O)cc2o1
REMARK SMILES IDX 6 1 7 2 8 3 10 4 11 5 5 6 4 7 3 8 2 9 1 10 12 11 9 12
REMARK H PARENT 9 13
REMARK Flexibility Score: inf
ROOT
ATOM      1  C   UNL     1      12.952   4.267  -3.505  1.00  0.00     0.016 A 
ATOM      2  C   UNL     1      11.867   3.649  -2.875  1.00  0.00     0.047 A 
ATOM      3  C   UNL     1      11.135   2.656  -3.537  1.00  0.00     0.119 A 
ATOM      4  C   UNL     1      11.491   2.276  -4.840  1.00  0.00     0.094 A 
ATOM      5  C   UNL     1      12.576   2.888  -5.478  1.00  0.00     0.142 A 
ATOM      6  C   UNL     1      13.311   3.890  -4.807  1.00  0.00     0.018 A 
ATOM      7  C   UNL     1      14.389   4.483  -5.470  1.00  0.00     0.019 A 
ATOM      8  C   UNL     1      14.705   4.073  -6.765  1.00  0.00     0.094 A 
ATOM      9  C   UNL     1      13.933   3.074  -7.368  1.00  0.00     0.336 A 
ATOM     10  O   UNL     1      14.202   2.690  -8.536  1.00  0.00    -0.246 OA
ATOM     11  O   UNL     1      12.911   2.526  -6.714  1.00  0.00    -0.423 OA
ENDROOT
BRANCH   3  12
ATOM     12  O   UNL     1      10.058   2.052  -2.893  1.00  0.00    -0.508 OA
ATOM     13  H   UNL     1       9.109   2.168  -3.226  1.00  0.00     0.293 HD
ENDBRANCH   3  12
TORSDOF 1
ENDMDL
MODEL 3
REMARK VINA RESULT:    -5.100     16.489     19.210
REMARK INTER + INTRA:          -5.249
REMARK INTER:                  -5.249
REMARK INTRA:                   0.000
REMARK UNBOUND:                 0.000
REMARK SMILES O=c1ccc2ccc(O)cc2o1
REMARK SMILES IDX 6 1 7 2 8 3 10 4 11 5 5 6 4 7 3 8 2 9 1 10 12 11 9 12
REMARK H PARENT 9 13
REMARK Flexibility Score: inf
ROOT
ATOM      1  C   UNL     1       8.280  -8.091  -6.618  1.00  0.00     0.016 A 
ATOM      2  C   UNL     1       7.715  -7.172  -5.728  1.00  0.00     0.047 A 
ATOM      3  C   UNL     1       8.218  -5.868  -5.641  1.00  0.00     0.119 A 
ATOM      4  C   UNL     1       9.294  -5.479  -6.452  1.00  0.00     0.094 A 
ATOM      5  C   UNL     1       9.867  -6.391  -7.346  1.00  0.00     0.142 A 
ATOM      6  C   UNL     1       9.356  -7.705  -7.429  1.00  0.00     0.018 A 
ATOM      7  C   UNL     1       9.948  -8.594  -8.332  1.00  0.00     0.019 A 
ATOM      8  C   UNL     1      11.017  -8.161  -9.117  1.00  0.00     0.094 A 
ATOM      9  C   UNL     1      11.470  -6.844  -8.980  1.00  0.00     0.336 A 
ATOM     10  O   UNL     1      12.432  -6.435  -9.679  1.00  0.00    -0.246 OA
ATOM     11  O   UNL     1      10.888  -6.019  -8.113  1.00  0.00    -0.423 OA
ENDROOT
BRANCH   3  12
ATOM     12  O   UNL     1       7.641  -4.968  -4.749  1.00  0.00    -0.508 OA
ATOM     13  H   UNL     1       7.078  -5.283  -3.968  1.00  0.00     0.293 HD
ENDBRANCH   3  12
TORSDOF 1
ENDMDL
MODEL 4
REMARK VINA RESULT:    -4.993     18.742     20.496
REMARK INTER + INTRA:          -5.139
REMARK INTER:                  -5.139
REMARK INTRA:                   0.000
REMARK UNBOUND:                 0.000
REMARK SMILES O=c1ccc2ccc(O)cc2o1
REMARK SMILES IDX 6 1 7 2 8 3 10 4 11 5 5 6 4 7 3 8 2 9 1 10 12 11 9 12
REMARK H PARENT 9 13
REMARK Flexibility Score: inf
ROOT
ATOM      1  C   UNL     1       5.015   3.761  -6.995  1.00  0.00     0.016 A 
ATOM      2  C   UNL     1       6.094   2.871  -6.954  1.00  0.00     0.047 A 
ATOM      3  C   UNL     1       7.159   3.007  -7.852  1.00  0.00     0.119 A 
ATOM      4  C   UNL     1       7.146   4.041  -8.800  1.00  0.00     0.094 A 
ATOM      5  C   UNL     1       6.072   4.936  -8.850  1.00  0.00     0.142 A 
ATOM      6  C   UNL     1       4.999   4.795  -7.941  1.00  0.00     0.018 A 
ATOM      7  C   UNL     1       3.939   5.704  -8.014  1.00  0.00     0.019 A 
ATOM      8  C   UNL     1       3.971   6.716  -8.974  1.00  0.00     0.094 A 
ATOM      9  C   UNL     1       5.066   6.795  -9.841  1.00  0.00     0.336 A 
ATOM     10  O   UNL     1       5.114   7.700 -10.714  1.00  0.00    -0.246 OA
ATOM     11  O   UNL     1       6.062   5.916  -9.750  1.00  0.00    -0.423 OA
ENDROOT
BRANCH   3  12
ATOM     12  O   UNL     1       8.224   2.112  -7.795  1.00  0.00    -0.508 OA
ATOM     13  H   UNL     1       9.104   2.363  -7.361  1.00  0.00     0.293 HD
ENDBRANCH   3  12
TORSDOF 1
ENDMDL
MODEL 5
REMARK VINA RESULT:    -4.921     17.215     18.746
REMARK INTER + INTRA:          -5.065
REMARK INTER:                  -5.065
REMARK INTRA:                   0.000
REMARK UNBOUND:                 0.000
REMARK SMILES O=c1ccc2ccc(O)cc2o1
REMARK SMILES IDX 6 1 7 2 8 3 10 4 11 5 5 6 4 7 3 8 2 9 1 10 12 11 9 12
REMARK H PARENT 9 13
REMARK Flexibility Score: inf
ROOT
ATOM      1  C   UNL     1       7.680  -6.776  -7.236  1.00  0.00     0.016 A 
ATOM      2  C   UNL     1       8.367  -5.972  -6.321  1.00  0.00     0.047 A 
ATOM      3  C   UNL     1       9.715  -5.655  -6.528  1.00  0.00     0.119 A 
ATOM      4  C   UNL     1      10.382  -6.146  -7.660  1.00  0.00     0.094 A 
ATOM      5  C   UNL     1       9.703  -6.951  -8.582  1.00  0.00     0.142 A 
ATOM      6  C   UNL     1       8.344  -7.269  -8.368  1.00  0.00     0.018 A 
ATOM      7  C   UNL     1       7.692  -8.076  -9.306  1.00  0.00     0.019 A 
ATOM      8  C   UNL     1       8.397  -8.540 -10.416  1.00  0.00     0.094 A 
ATOM      9  C   UNL     1       9.743  -8.185 -10.563  1.00  0.00     0.336 A 
ATOM     10  O   UNL     1      10.396  -8.594 -11.557  1.00  0.00    -0.246 OA
ATOM     11  O   UNL     1      10.339  -7.416  -9.655  1.00  0.00    -0.423 OA
ENDROOT
BRANCH   3  12
ATOM     12  O   UNL     1      10.381  -4.852  -5.606  1.00  0.00    -0.508 OA
ATOM     13  H   UNL     1      10.861  -5.250  -4.807  1.00  0.00     0.293 HD
ENDBRANCH   3  12
TORSDOF 1
ENDMDL
MODEL 6
REMARK VINA RESULT:    -4.767     15.214     17.923
REMARK INTER + INTRA:          -4.907
REMARK INTER:                  -4.907
REMARK INTRA:                   0.000
REMARK UNBOUND:                 0.000
REMARK SMILES O=c1ccc2ccc(O)cc2o1
REMARK SMILES IDX 6 1 7 2 8 3 10 4 11 5 5 6 4 7 3 8 2 9 1 10 12 11 9 12
REMARK H PARENT 9 13
REMARK Flexibility Score: inf
ROOT
ATOM      1  C   UNL     1       9.202  -6.205  -6.955  1.00  0.00     0.016 A 
ATOM      2  C   UNL     1       7.889  -5.723  -6.944  1.00  0.00     0.047 A 
ATOM      3  C   UNL     1       7.317  -5.198  -8.109  1.00  0.00     0.119 A 
ATOM      4  C   UNL     1       8.063  -5.155  -9.296  1.00  0.00     0.094 A 
ATOM      5  C   UNL     1       9.378  -5.634  -9.318  1.00  0.00     0.142 A 
ATOM      6  C   UNL     1       9.951  -6.162  -8.140  1.00  0.00     0.018 A 
ATOM      7  C   UNL     1      11.266  -6.633  -8.192  1.00  0.00     0.019 A 
ATOM      8  C   UNL     1      11.969  -6.569  -9.396  1.00  0.00     0.094 A 
ATOM      9  C   UNL     1      11.337  -6.033 -10.523  1.00  0.00     0.336 A 
ATOM     10  O   UNL     1      11.953  -5.966 -11.617  1.00  0.00    -0.246 OA
ATOM     11  O   UNL     1      10.083  -5.591 -10.445  1.00  0.00    -0.423 OA
ENDROOT
BRANCH   3  12
ATOM     12  O   UNL     1       6.008  -4.725  -8.077  1.00  0.00    -0.508 OA
ATOM     13  H   UNL     1       5.220  -5.331  -8.271  1.00  0.00     0.293 HD
ENDBRANCH   3  12
TORSDOF 1
ENDMDL
MODEL 7
REMARK VINA RESULT:    -4.711     16.226     18.322
REMARK INTER + INTRA:          -4.849
REMARK INTER:                  -4.849
REMARK INTRA:                   0.000
REMARK UNBOUND:                 0.000
REMARK SMILES O=c1ccc2ccc(O)cc2o1
REMARK SMILES IDX 6 1 7 2 8 3 10 4 11 5 5 6 4 7 3 8 2 9 1 10 12 11 9 12
REMARK H PARENT 9 13
REMARK Flexibility Score: inf
ROOT
ATOM      1  C   UNL     1      10.416  -6.227  -7.699  1.00  0.00     0.016 A 
ATOM      2  C   UNL     1       9.675  -5.908  -6.556  1.00  0.00     0.047 A 
ATOM      3  C   UNL     1       8.332  -5.531  -6.665  1.00  0.00     0.119 A 
ATOM      4  C   UNL     1       7.722  -5.473  -7.927  1.00  0.00     0.094 A 
ATOM      5  C   UNL     1       8.454  -5.791  -9.076  1.00  0.00     0.142 A 
ATOM      6  C   UNL     1       9.810  -6.170  -8.961  1.00  0.00     0.018 A 
ATOM      7  C   UNL     1      10.516  -6.482 -10.127  1.00  0.00     0.019 A 
ATOM      8  C   UNL     1       9.867  -6.410 -11.360  1.00  0.00     0.094 A 
ATOM      9  C   UNL     1       8.522  -6.027 -11.398  1.00  0.00     0.336 A 
ATOM     10  O   UNL     1       7.919  -5.956 -12.499  1.00  0.00    -0.246 OA
ATOM     11  O   UNL     1       7.874  -5.735 -10.272  1.00  0.00    -0.423 OA
ENDROOT
BRANCH   3  12
ATOM     12  O   UNL     1       7.612  -5.217  -5.515  1.00  0.00    -0.508 OA
ATOM     13  H   UNL     1       6.638  -4.940  -5.559  1.00  0.00     0.293 HD
ENDBRANCH   3  12
TORSDOF 1
ENDMDL
MODEL 8
REMARK VINA RESULT:    -4.605     15.643     17.966
REMARK INTER + INTRA:          -4.739
REMARK INTER:                  -4.739
REMARK INTRA:                   0.000
REMARK UNBOUND:                 0.000
REMARK SMILES O=c1ccc2ccc(O)cc2o1
REMARK SMILES IDX 6 1 7 2 8 3 10 4 11 5 5 6 4 7 3 8 2 9 1 10 12 11 9 12
REMARK H PARENT 9 13
REMARK Flexibility Score: inf
ROOT
ATOM      1  C   UNL     1      14.403   4.493  -5.644  1.00  0.00     0.016 A 
ATOM      2  C   UNL     1      14.599   4.033  -6.950  1.00  0.00     0.047 A 
ATOM      3  C   UNL     1      13.723   3.097  -7.511  1.00  0.00     0.119 A 
ATOM      4  C   UNL     1      12.640   2.616  -6.761  1.00  0.00     0.094 A 
ATOM      5  C   UNL     1      12.434   3.070  -5.453  1.00  0.00     0.142 A 
ATOM      6  C   UNL     1      13.321   4.014  -4.891  1.00  0.00     0.018 A 
ATOM      7  C   UNL     1      13.091   4.449  -3.582  1.00  0.00     0.019 A 
ATOM      8  C   UNL     1      12.001   3.942  -2.875  1.00  0.00     0.094 A 
ATOM      9  C   UNL     1      11.164   3.009  -3.496  1.00  0.00     0.336 A 
ATOM     10  O   UNL     1      10.175   2.539  -2.875  1.00  0.00    -0.246 OA
ATOM     11  O   UNL     1      11.406   2.612  -4.743  1.00  0.00    -0.423 OA
ENDROOT
BRANCH   3  12
ATOM     12  O   UNL     1      13.935   2.653  -8.814  1.00  0.00    -0.508 OA
ATOM     13  H   UNL     1      13.299   2.891  -9.565  1.00  0.00     0.293 HD
ENDBRANCH   3  12
TORSDOF 1
ENDMDL
