MODEL 1
REMARK VINA RESULT:    -4.196      0.000      0.000
REMARK INTER + INTRA:         -10.407
REMARK INTER:                  -8.121
REMARK INTRA:                  -2.286
REMARK UNBOUND:                -2.286
REMARK SMILES CCCCCCCCCCCCCCCCCC(=O)[O-]
REMARK SMILES IDX 10 1 11 2 12 3 13 4 14 5 15 6 16 7 17 8 18 9 19 10 20 11
REMARK SMILES IDX 9 12 8 13 7 14 6 15 5 16 4 17 3 18 2 19 1 20
REMARK H PARENT
REMARK Flexibility Score: inf
ROOT
ATOM      1  C   UNL     1    -110.233 -43.431 -64.611  1.00  0.00     0.000 C 
ENDROOT
BRANCH   1   2
ATOM      2  C   UNL     1    -111.354 -43.258 -63.572  1.00  0.00     0.000 C 
BRANCH   2   3
ATOM      3  C   UNL     1    -112.744 -43.129 -64.217  1.00  0.00     0.000 C 
BRANCH   3   4
ATOM      4  C   UNL     1    -113.352 -41.727 -64.039  1.00  0.00     0.000 C 
BRANCH   4   5
ATOM      5  C   UNL     1    -113.867 -41.126 -65.360  1.00  0.00     0.000 C 
BRANCH   5   6
ATOM      6  C   UNL     1    -114.370 -42.151 -66.391  1.00  0.00     0.000 C 
BRANCH   6   7
ATOM      7  C   UNL     1    -113.769 -41.938 -67.791  1.00  0.00     0.006 C 
BRANCH   7   8
ATOM      8  C   UNL     1    -113.540 -43.263 -68.529  1.00  0.00     0.053 C 
BRANCH   8   9
ATOM      9  C   UNL     1    -112.316 -43.213 -69.390  1.00  0.00     0.041 C 
ATOM     10  O   UNL     1    -111.451 -44.124 -69.318  1.00  0.00    -0.550 OA
ATOM     11  O   UNL     1    -112.116 -42.141 -70.251  1.00  0.00    -0.550 OA
ENDBRANCH   8   9
ENDBRANCH   7   8
ENDBRANCH   6   7
ENDBRANCH   5   6
ENDBRANCH   4   5
ENDBRANCH   3   4
ENDBRANCH   2   3
ENDBRANCH   1   2
BRANCH   1  12
ATOM     12  C   UNL     1    -110.703 -43.123 -66.043  1.00  0.00     0.000 C 
BRANCH  12  13
ATOM     13  C   UNL     1    -109.961 -41.926 -66.663  1.00  0.00    -0.000 C 
BRANCH  13  14
ATOM     14  C   UNL     1    -110.305 -40.594 -65.975  1.00  0.00    -0.000 C 
BRANCH  14  15
ATOM     15  C   UNL     1    -109.054 -39.770 -65.622  1.00  0.00    -0.000 C 
BRANCH  15  16
ATOM     16  C   UNL     1    -107.924 -40.636 -65.041  1.00  0.00    -0.000 C 
BRANCH  16  17
ATOM     17  C   UNL     1    -107.435 -40.134 -63.672  1.00  0.00    -0.000 C 
BRANCH  17  18
ATOM     18  C   UNL     1    -106.603 -41.185 -62.914  1.00  0.00    -0.000 C 
BRANCH  18  19
ATOM     19  C   UNL     1    -107.397 -42.024 -61.897  1.00  0.00    -0.003 C 
ATOM     20  C   UNL     1    -106.604 -42.333 -60.628  1.00  0.00     0.004 C 
ENDBRANCH  18  19
ENDBRANCH  17  18
ENDBRANCH  16  17
ENDBRANCH  15  16
ENDBRANCH  14  15
ENDBRANCH  13  14
ENDBRANCH  12  13
ENDBRANCH   1  12
TORSDOF 16
ENDMDL
MODEL 2
REMARK VINA RESULT:    -4.098      1.476      2.750
REMARK INTER + INTRA:         -10.217
REMARK INTER:                  -7.697
REMARK INTRA:                  -2.520
REMARK UNBOUND:                -2.286
REMARK SMILES CCCCCCCCCCCCCCCCCC(=O)[O-]
REMARK SMILES IDX 10 1 11 2 12 3 13 4 14 5 15 6 16 7 17 8 18 9 19 10 20 11
REMARK SMILES IDX 9 12 8 13 7 14 6 15 5 16 4 17 3 18 2 19 1 20
REMARK H PARENT
REMARK Flexibility Score: inf
ROOT
ATOM      1  C   UNL     1    -111.676 -42.631 -64.874  1.00  0.00     0.000 C 
ENDROOT
BRANCH   1   2
ATOM      2  C   UNL     1    -113.158 -42.270 -64.670  1.00  0.00     0.000 C 
BRANCH   2   3
ATOM      3  C   UNL     1    -113.619 -41.120 -65.580  1.00  0.00     0.000 C 
BRANCH   3   4
ATOM      4  C   UNL     1    -114.418 -41.613 -66.799  1.00  0.00     0.000 C 
BRANCH   4   5
ATOM      5  C   UNL     1    -113.533 -41.856 -68.036  1.00  0.00     0.000 C 
BRANCH   5   6
ATOM      6  C   UNL     1    -113.396 -43.328 -68.462  1.00  0.00     0.000 C 
BRANCH   6   7
ATOM      7  C   UNL     1    -111.932 -43.769 -68.634  1.00  0.00     0.006 C 
BRANCH   7   8
ATOM      8  C   UNL     1    -111.101 -42.730 -69.396  1.00  0.00     0.053 C 
BRANCH   8   9
ATOM      9  C   UNL     1    -109.770 -43.280 -69.806  1.00  0.00     0.041 C 
ATOM     10  O   UNL     1    -109.167 -44.101 -69.067  1.00  0.00    -0.550 OA
ATOM     11  O   UNL     1    -109.180 -42.860 -70.992  1.00  0.00    -0.550 OA
ENDBRANCH   8   9
ENDBRANCH   7   8
ENDBRANCH   6   7
ENDBRANCH   5   6
ENDBRANCH   4   5
ENDBRANCH   3   4
ENDBRANCH   2   3
ENDBRANCH   1   2
BRANCH   1  12
ATOM     12  C   UNL     1    -110.876 -41.490 -65.524  1.00  0.00     0.000 C 
BRANCH  12  13
ATOM     13  C   UNL     1    -109.529 -41.965 -66.097  1.00  0.00    -0.000 C 
BRANCH  13  14
ATOM     14  C   UNL     1    -109.086 -43.321 -65.522  1.00  0.00    -0.000 C 
BRANCH  14  15
ATOM     15  C   UNL     1    -107.868 -43.200 -64.589  1.00  0.00    -0.000 C 
BRANCH  15  16
ATOM     16  C   UNL     1    -108.253 -43.295 -63.104  1.00  0.00    -0.000 C 
BRANCH  16  17
ATOM     17  C   UNL     1    -107.746 -42.098 -62.281  1.00  0.00    -0.000 C 
BRANCH  17  18
ATOM     18  C   UNL     1    -106.863 -41.140 -63.101  1.00  0.00    -0.000 C 
BRANCH  18  19
ATOM     19  C   UNL     1    -107.353 -39.682 -63.132  1.00  0.00    -0.003 C 
ATOM     20  C   UNL     1    -107.674 -39.189 -64.542  1.00  0.00     0.004 C 
ENDBRANCH  18  19
ENDBRANCH  17  18
ENDBRANCH  16  17
ENDBRANCH  15  16
ENDBRANCH  14  15
ENDBRANCH  13  14
ENDBRANCH  12  13
ENDBRANCH   1  12
TORSDOF 16
ENDMDL
MODEL 3
REMARK VINA RESULT:    -4.081      2.884      5.233
REMARK INTER + INTRA:         -10.184
REMARK INTER:                  -7.222
REMARK INTRA:                  -2.962
REMARK UNBOUND:                -2.286
REMARK SMILES CCCCCCCCCCCCCCCCCC(=O)[O-]
REMARK SMILES IDX 10 1 11 2 12 3 13 4 14 5 15 6 16 7 17 8 18 9 19 10 20 11
REMARK SMILES IDX 9 12 8 13 7 14 6 15 5 16 4 17 3 18 2 19 1 20
REMARK H PARENT
REMARK Flexibility Score: inf
ROOT
ATOM      1  C   UNL     1    -112.901 -40.737 -68.307  1.00  0.00     0.000 C 
ENDROOT
BRANCH   1   2
ATOM      2  C   UNL     1    -113.731 -41.108 -67.065  1.00  0.00     0.000 C 
BRANCH   2   3
ATOM      3  C   UNL     1    -113.004 -40.785 -65.749  1.00  0.00     0.000 C 
BRANCH   3   4
ATOM      4  C   UNL     1    -113.297 -41.814 -64.643  1.00  0.00     0.000 C 
BRANCH   4   5
ATOM      5  C   UNL     1    -112.168 -42.847 -64.472  1.00  0.00     0.000 C 
BRANCH   5   6
ATOM      6  C   UNL     1    -110.858 -42.510 -65.206  1.00  0.00     0.000 C 
BRANCH   6   7
ATOM      7  C   UNL     1    -109.962 -43.740 -65.431  1.00  0.00     0.006 C 
BRANCH   7   8
ATOM      8  C   UNL     1    -108.499 -43.466 -65.060  1.00  0.00     0.053 C 
BRANCH   8   9
ATOM      9  C   UNL     1    -108.377 -42.874 -63.690  1.00  0.00     0.041 C 
ATOM     10  O   UNL     1    -107.761 -41.789 -63.520  1.00  0.00    -0.550 OA
ATOM     11  O   UNL     1    -108.918 -43.537 -62.596  1.00  0.00    -0.550 OA
ENDBRANCH   8   9
ENDBRANCH   7   8
ENDBRANCH   6   7
ENDBRANCH   5   6
ENDBRANCH   4   5
ENDBRANCH   3   4
ENDBRANCH   2   3
ENDBRANCH   1   2
BRANCH   1  12
ATOM     12  C   UNL     1    -112.787 -41.897 -69.309  1.00  0.00     0.000 C 
BRANCH  12  13
ATOM     13  C   UNL     1    -112.739 -43.272 -68.617  1.00  0.00    -0.000 C 
BRANCH  13  14
ATOM     14  C   UNL     1    -111.412 -44.011 -68.863  1.00  0.00    -0.000 C 
BRANCH  14  15
ATOM     15  C   UNL     1    -110.396 -43.161 -69.645  1.00  0.00    -0.000 C 
BRANCH  15  16
ATOM     16  C   UNL     1    -108.986 -43.224 -69.037  1.00  0.00    -0.000 C 
BRANCH  16  17
ATOM     17  C   UNL     1    -108.326 -41.839 -68.923  1.00  0.00    -0.000 C 
BRANCH  17  18
ATOM     18  C   UNL     1    -109.071 -40.901 -67.956  1.00  0.00    -0.000 C 
BRANCH  18  19
ATOM     19  C   UNL     1    -108.167 -40.149 -66.963  1.00  0.00    -0.003 C 
ATOM     20  C   UNL     1    -108.926 -39.614 -65.750  1.00  0.00     0.004 C 
ENDBRANCH  18  19
ENDBRANCH  17  18
ENDBRANCH  16  17
ENDBRANCH  15  16
ENDBRANCH  14  15
ENDBRANCH  13  14
ENDBRANCH  12  13
ENDBRANCH   1  12
TORSDOF 16
ENDMDL
MODEL 4
REMARK VINA RESULT:    -4.080      3.332      6.848
REMARK INTER + INTRA:         -10.182
REMARK INTER:                  -7.624
REMARK INTRA:                  -2.558
REMARK UNBOUND:                -2.286
REMARK SMILES CCCCCCCCCCCCCCCCCC(=O)[O-]
REMARK SMILES IDX 10 1 11 2 12 3 13 4 14 5 15 6 16 7 17 8 18 9 19 10 20 11
REMARK SMILES IDX 9 12 8 13 7 14 6 15 5 16 4 17 3 18 2 19 1 20
REMARK H PARENT
REMARK Flexibility Score: inf
ROOT
ATOM      1  C   UNL     1    -111.952 -40.632 -65.842  1.00  0.00     0.000 C 
ENDROOT
BRANCH   1   2
ATOM      2  C   UNL     1    -110.581 -41.306 -65.654  1.00  0.00     0.000 C 
BRANCH   2   3
ATOM      3  C   UNL     1    -110.694 -42.717 -65.051  1.00  0.00     0.000 C 
BRANCH   3   4
ATOM      4  C   UNL     1    -109.554 -43.646 -65.503  1.00  0.00     0.000 C 
BRANCH   4   5
ATOM      5  C   UNL     1    -108.299 -43.528 -64.619  1.00  0.00     0.000 C 
BRANCH   5   6
ATOM      6  C   UNL     1    -108.573 -43.328 -63.119  1.00  0.00     0.000 C 
BRANCH   6   7
ATOM      7  C   UNL     1    -107.893 -42.072 -62.546  1.00  0.00     0.006 C 
BRANCH   7   8
ATOM      8  C   UNL     1    -107.277 -41.197 -63.645  1.00  0.00     0.053 C 
BRANCH   8   9
ATOM      9  C   UNL     1    -106.905 -39.842 -63.128  1.00  0.00     0.041 C 
ATOM     10  O   UNL     1    -107.451 -38.810 -63.601  1.00  0.00    -0.550 OA
ATOM     11  O   UNL     1    -105.931 -39.716 -62.146  1.00  0.00    -0.550 OA
ENDBRANCH   8   9
ENDBRANCH   7   8
ENDBRANCH   6   7
ENDBRANCH   5   6
ENDBRANCH   4   5
ENDBRANCH   3   4
ENDBRANCH   2   3
ENDBRANCH   1   2
BRANCH   1  12
ATOM     12  C   UNL     1    -113.078 -41.368 -65.098  1.00  0.00     0.000 C 
BRANCH  12  13
ATOM     13  C   UNL     1    -114.165 -41.900 -66.050  1.00  0.00    -0.000 C 
BRANCH  13  14
ATOM     14  C   UNL     1    -113.915 -41.504 -67.515  1.00  0.00    -0.000 C 
BRANCH  14  15
ATOM     15  C   UNL     1    -113.807 -42.724 -68.447  1.00  0.00    -0.000 C 
BRANCH  15  16
ATOM     16  C   UNL     1    -112.422 -43.388 -68.388  1.00  0.00    -0.000 C 
BRANCH  16  17
ATOM     17  C   UNL     1    -111.505 -42.958 -69.546  1.00  0.00    -0.000 C 
BRANCH  17  18
ATOM     18  C   UNL     1    -110.211 -42.279 -69.062  1.00  0.00    -0.000 C 
BRANCH  18  19
ATOM     19  C   UNL     1    -110.138 -40.766 -69.331  1.00  0.00    -0.003 C 
ATOM     20  C   UNL     1    -111.411 -40.211 -69.969  1.00  0.00     0.004 C 
ENDBRANCH  18  19
ENDBRANCH  17  18
ENDBRANCH  16  17
ENDBRANCH  15  16
ENDBRANCH  14  15
ENDBRANCH  13  14
ENDBRANCH  12  13
ENDBRANCH   1  12
TORSDOF 16
ENDMDL
MODEL 5
REMARK VINA RESULT:    -4.048      2.951      5.999
REMARK INTER + INTRA:         -10.121
REMARK INTER:                  -7.799
REMARK INTRA:                  -2.321
REMARK UNBOUND:                -2.286
REMARK SMILES CCCCCCCCCCCCCCCCCC(=O)[O-]
REMARK SMILES IDX 10 1 11 2 12 3 13 4 14 5 15 6 16 7 17 8 18 9 19 10 20 11
REMARK SMILES IDX 9 12 8 13 7 14 6 15 5 16 4 17 3 18 2 19 1 20
REMARK H PARENT
REMARK Flexibility Score: inf
ROOT
ATOM      1  C   UNL     1    -113.024 -41.109 -66.346  1.00  0.00     0.000 C 
ENDROOT
BRANCH   1   2
ATOM      2  C   UNL     1    -113.641 -41.458 -64.980  1.00  0.00     0.000 C 
BRANCH   2   3
ATOM      3  C   UNL     1    -112.879 -42.583 -64.257  1.00  0.00     0.000 C 
BRANCH   3   4
ATOM      4  C   UNL     1    -111.486 -42.835 -64.859  1.00  0.00     0.000 C 
BRANCH   4   5
ATOM      5  C   UNL     1    -110.514 -43.494 -63.862  1.00  0.00     0.000 C 
BRANCH   5   6
ATOM      6  C   UNL     1    -109.048 -43.043 -63.984  1.00  0.00     0.000 C 
BRANCH   6   7
ATOM      7  C   UNL     1    -108.198 -43.426 -62.760  1.00  0.00     0.006 C 
BRANCH   7   8
ATOM      8  C   UNL     1    -107.774 -42.199 -61.943  1.00  0.00     0.053 C 
BRANCH   8   9
ATOM      9  C   UNL     1    -106.998 -41.224 -62.773  1.00  0.00     0.041 C 
ATOM     10  O   UNL     1    -107.395 -40.035 -62.893  1.00  0.00    -0.550 OA
ATOM     11  O   UNL     1    -105.852 -41.637 -63.439  1.00  0.00    -0.550 OA
ENDBRANCH   8   9
ENDBRANCH   7   8
ENDBRANCH   6   7
ENDBRANCH   5   6
ENDBRANCH   4   5
ENDBRANCH   3   4
ENDBRANCH   2   3
ENDBRANCH   1   2
BRANCH   1  12
ATOM     12  C   UNL     1    -113.954 -41.455 -67.520  1.00  0.00     0.000 C 
BRANCH  12  13
ATOM     13  C   UNL     1    -113.730 -42.884 -68.048  1.00  0.00    -0.000 C 
BRANCH  13  14
ATOM     14  C   UNL     1    -112.844 -42.918 -69.304  1.00  0.00    -0.000 C 
BRANCH  14  15
ATOM     15  C   UNL     1    -111.713 -43.957 -69.202  1.00  0.00    -0.000 C 
BRANCH  15  16
ATOM     16  C   UNL     1    -110.653 -43.571 -68.157  1.00  0.00    -0.000 C 
BRANCH  16  17
ATOM     17  C   UNL     1    -109.652 -42.528 -68.683  1.00  0.00    -0.000 C 
BRANCH  17  18
ATOM     18  C   UNL     1    -109.847 -41.140 -68.046  1.00  0.00    -0.000 C 
BRANCH  18  19
ATOM     19  C   UNL     1    -108.854 -40.805 -66.919  1.00  0.00    -0.003 C 
ATOM     20  C   UNL     1    -109.478 -39.972 -65.800  1.00  0.00     0.004 C 
ENDBRANCH  18  19
ENDBRANCH  17  18
ENDBRANCH  16  17
ENDBRANCH  15  16
ENDBRANCH  14  15
ENDBRANCH  13  14
ENDBRANCH  12  13
ENDBRANCH   1  12
TORSDOF 16
ENDMDL
MODEL 6
REMARK VINA RESULT:    -4.043      1.548      2.443
REMARK INTER + INTRA:         -10.110
REMARK INTER:                  -7.365
REMARK INTRA:                  -2.745
REMARK UNBOUND:                -2.286
REMARK SMILES CCCCCCCCCCCCCCCCCC(=O)[O-]
REMARK SMILES IDX 10 1 11 2 12 3 13 4 14 5 15 6 16 7 17 8 18 9 19 10 20 11
REMARK SMILES IDX 9 12 8 13 7 14 6 15 5 16 4 17 3 18 2 19 1 20
REMARK H PARENT
REMARK Flexibility Score: inf
ROOT
ATOM      1  C   UNL     1    -109.919 -41.620 -65.389  1.00  0.00     0.000 C 
ENDROOT
BRANCH   1   2
ATOM      2  C   UNL     1    -110.557 -43.021 -65.417  1.00  0.00     0.000 C 
BRANCH   2   3
ATOM      3  C   UNL     1    -111.215 -43.398 -64.079  1.00  0.00     0.000 C 
BRANCH   3   4
ATOM      4  C   UNL     1    -112.596 -42.746 -63.894  1.00  0.00     0.000 C 
BRANCH   4   5
ATOM      5  C   UNL     1    -113.370 -42.599 -65.216  1.00  0.00     0.000 C 
BRANCH   5   6
ATOM      6  C   UNL     1    -113.613 -41.150 -65.673  1.00  0.00     0.000 C 
BRANCH   6   7
ATOM      7  C   UNL     1    -113.744 -41.016 -67.201  1.00  0.00     0.006 C 
BRANCH   7   8
ATOM      8  C   UNL     1    -113.202 -42.247 -67.937  1.00  0.00     0.053 C 
BRANCH   8   9
ATOM      9  C   UNL     1    -112.028 -41.903 -68.800  1.00  0.00     0.041 C 
ATOM     10  O   UNL     1    -111.450 -42.798 -69.473  1.00  0.00    -0.550 OA
ATOM     11  O   UNL     1    -111.551 -40.599 -68.837  1.00  0.00    -0.550 OA
ENDBRANCH   8   9
ENDBRANCH   7   8
ENDBRANCH   6   7
ENDBRANCH   5   6
ENDBRANCH   4   5
ENDBRANCH   3   4
ENDBRANCH   2   3
ENDBRANCH   1   2
BRANCH   1  12
ATOM     12  C   UNL     1    -109.000 -41.367 -66.595  1.00  0.00     0.000 C 
BRANCH  12  13
ATOM     13  C   UNL     1    -107.994 -42.509 -66.821  1.00  0.00    -0.000 C 
BRANCH  13  14
ATOM     14  C   UNL     1    -106.724 -42.358 -65.966  1.00  0.00    -0.000 C 
BRANCH  14  15
ATOM     15  C   UNL     1    -106.326 -43.667 -65.262  1.00  0.00    -0.000 C 
BRANCH  15  16
ATOM     16  C   UNL     1    -106.219 -43.505 -63.737  1.00  0.00    -0.000 C 
BRANCH  16  17
ATOM     17  C   UNL     1    -107.589 -43.549 -63.037  1.00  0.00    -0.000 C 
BRANCH  17  18
ATOM     18  C   UNL     1    -107.939 -42.228 -62.328  1.00  0.00    -0.000 C 
BRANCH  18  19
ATOM     19  C   UNL     1    -106.843 -41.149 -62.400  1.00  0.00    -0.003 C 
ATOM     20  C   UNL     1    -107.303 -39.876 -63.109  1.00  0.00     0.004 C 
ENDBRANCH  18  19
ENDBRANCH  17  18
ENDBRANCH  16  17
ENDBRANCH  15  16
ENDBRANCH  14  15
ENDBRANCH  13  14
ENDBRANCH  12  13
ENDBRANCH   1  12
TORSDOF 16
ENDMDL
MODEL 7
REMARK VINA RESULT:    -4.038      1.700      2.962
REMARK INTER + INTRA:         -10.100
REMARK INTER:                  -7.749
REMARK INTRA:                  -2.352
REMARK UNBOUND:                -2.286
REMARK SMILES CCCCCCCCCCCCCCCCCC(=O)[O-]
REMARK SMILES IDX 10 1 11 2 12 3 13 4 14 5 15 6 16 7 17 8 18 9 19 10 20 11
REMARK SMILES IDX 9 12 8 13 7 14 6 15 5 16 4 17 3 18 2 19 1 20
REMARK H PARENT
REMARK Flexibility Score: inf
ROOT
ATOM      1  C   UNL     1    -110.830 -41.281 -65.747  1.00  0.00     0.000 C 
ENDROOT
BRANCH   1   2
ATOM      2  C   UNL     1    -112.262 -40.716 -65.713  1.00  0.00     0.000 C 
BRANCH   2   3
ATOM      3  C   UNL     1    -113.268 -41.693 -65.082  1.00  0.00     0.000 C 
BRANCH   3   4
ATOM      4  C   UNL     1    -114.434 -42.033 -66.026  1.00  0.00     0.000 C 
BRANCH   4   5
ATOM      5  C   UNL     1    -114.150 -41.652 -67.490  1.00  0.00     0.000 C 
BRANCH   5   6
ATOM      6  C   UNL     1    -113.822 -42.833 -68.421  1.00  0.00     0.000 C 
BRANCH   6   7
ATOM      7  C   UNL     1    -112.750 -42.490 -69.470  1.00  0.00     0.006 C 
BRANCH   7   8
ATOM      8  C   UNL     1    -112.303 -41.025 -69.382  1.00  0.00     0.053 C 
BRANCH   8   9
ATOM      9  C   UNL     1    -112.092 -40.429 -70.739  1.00  0.00     0.041 C 
ATOM     10  O   UNL     1    -111.066 -39.739 -70.977  1.00  0.00    -0.550 OA
ATOM     11  O   UNL     1    -113.046 -40.608 -71.733  1.00  0.00    -0.550 OA
ENDBRANCH   8   9
ENDBRANCH   7   8
ENDBRANCH   6   7
ENDBRANCH   5   6
ENDBRANCH   4   5
ENDBRANCH   3   4
ENDBRANCH   2   3
ENDBRANCH   1   2
BRANCH   1  12
ATOM     12  C   UNL     1    -110.769 -42.697 -66.343  1.00  0.00     0.000 C 
BRANCH  12  13
ATOM     13  C   UNL     1    -109.967 -43.673 -65.463  1.00  0.00    -0.000 C 
BRANCH  13  14
ATOM     14  C   UNL     1    -110.152 -43.404 -63.960  1.00  0.00    -0.000 C 
BRANCH  14  15
ATOM     15  C   UNL     1    -108.822 -43.116 -63.242  1.00  0.00    -0.000 C 
BRANCH  15  16
ATOM     16  C   UNL     1    -107.614 -43.187 -64.191  1.00  0.00    -0.000 C 
BRANCH  16  17
ATOM     17  C   UNL     1    -106.912 -41.829 -64.360  1.00  0.00    -0.000 C 
BRANCH  17  18
ATOM     18  C   UNL     1    -107.445 -40.756 -63.393  1.00  0.00    -0.000 C 
BRANCH  18  19
ATOM     19  C   UNL     1    -107.276 -39.307 -63.884  1.00  0.00    -0.003 C 
ATOM     20  C   UNL     1    -108.112 -38.994 -65.124  1.00  0.00     0.004 C 
ENDBRANCH  18  19
ENDBRANCH  17  18
ENDBRANCH  16  17
ENDBRANCH  15  16
ENDBRANCH  14  15
ENDBRANCH  13  14
ENDBRANCH  12  13
ENDBRANCH   1  12
TORSDOF 16
ENDMDL
MODEL 8
REMARK VINA RESULT:    -4.011      1.942      3.680
REMARK INTER + INTRA:         -10.049
REMARK INTER:                  -7.845
REMARK INTRA:                  -2.204
REMARK UNBOUND:                -2.286
REMARK SMILES CCCCCCCCCCCCCCCCCC(=O)[O-]
REMARK SMILES IDX 10 1 11 2 12 3 13 4 14 5 15 6 16 7 17 8 18 9 19 10 20 11
REMARK SMILES IDX 9 12 8 13 7 14 6 15 5 16 4 17 3 18 2 19 1 20
REMARK H PARENT
REMARK Flexibility Score: inf
ROOT
ATOM      1  C   UNL     1    -112.359 -41.498 -65.252  1.00  0.00     0.000 C 
ENDROOT
BRANCH   1   2
ATOM      2  C   UNL     1    -113.723 -41.118 -65.855  1.00  0.00     0.000 C 
BRANCH   2   3
ATOM      3  C   UNL     1    -113.810 -41.424 -67.359  1.00  0.00     0.000 C 
BRANCH   3   4
ATOM      4  C   UNL     1    -113.712 -42.929 -67.664  1.00  0.00     0.000 C 
BRANCH   4   5
ATOM      5  C   UNL     1    -112.765 -43.241 -68.838  1.00  0.00     0.000 C 
BRANCH   5   6
ATOM      6  C   UNL     1    -111.279 -43.375 -68.460  1.00  0.00     0.000 C 
BRANCH   6   7
ATOM      7  C   UNL     1    -110.387 -42.331 -69.154  1.00  0.00     0.006 C 
BRANCH   7   8
ATOM      8  C   UNL     1    -110.085 -41.132 -68.246  1.00  0.00     0.053 C 
BRANCH   8   9
ATOM      9  C   UNL     1    -108.621 -41.013 -67.956  1.00  0.00     0.041 C 
ATOM     10  O   UNL     1    -108.084 -39.879 -67.855  1.00  0.00    -0.550 OA
ATOM     11  O   UNL     1    -107.843 -42.157 -67.828  1.00  0.00    -0.550 OA
ENDBRANCH   8   9
ENDBRANCH   7   8
ENDBRANCH   6   7
ENDBRANCH   5   6
ENDBRANCH   4   5
ENDBRANCH   3   4
ENDBRANCH   2   3
ENDBRANCH   1   2
BRANCH   1  12
ATOM     12  C   UNL     1    -112.460 -42.655 -64.244  1.00  0.00     0.000 C 
BRANCH  12  13
ATOM     13  C   UNL     1    -111.132 -43.416 -64.084  1.00  0.00    -0.000 C 
BRANCH  13  14
ATOM     14  C   UNL     1    -110.049 -42.931 -65.063  1.00  0.00    -0.000 C 
BRANCH  14  15
ATOM     15  C   UNL     1    -108.692 -42.698 -64.377  1.00  0.00    -0.000 C 
BRANCH  15  16
ATOM     16  C   UNL     1    -108.707 -43.099 -62.893  1.00  0.00    -0.000 C 
BRANCH  16  17
ATOM     17  C   UNL     1    -107.672 -42.326 -62.058  1.00  0.00    -0.000 C 
BRANCH  17  18
ATOM     18  C   UNL     1    -106.775 -41.414 -62.914  1.00  0.00    -0.000 C 
BRANCH  18  19
ATOM     19  C   UNL     1    -106.930 -39.909 -62.631  1.00  0.00    -0.003 C 
ATOM     20  C   UNL     1    -107.357 -39.111 -63.863  1.00  0.00     0.004 C 
ENDBRANCH  18  19
ENDBRANCH  17  18
ENDBRANCH  16  17
ENDBRANCH  15  16
ENDBRANCH  14  15
ENDBRANCH  13  14
ENDBRANCH  12  13
ENDBRANCH   1  12
TORSDOF 16
ENDMDL
MODEL 9
REMARK VINA RESULT:    -3.972      3.653      7.248
REMARK INTER + INTRA:          -9.973
REMARK INTER:                  -7.465
REMARK INTRA:                  -2.507
REMARK UNBOUND:                -2.286
REMARK SMILES CCCCCCCCCCCCCCCCCC(=O)[O-]
REMARK SMILES IDX 10 1 11 2 12 3 13 4 14 5 15 6 16 7 17 8 18 9 19 10 20 11
REMARK SMILES IDX 9 12 8 13 7 14 6 15 5 16 4 17 3 18 2 19 1 20
REMARK H PARENT
REMARK Flexibility Score: inf
ROOT
ATOM      1  C   UNL     1    -110.620 -41.509 -65.707  1.00  0.00     0.000 C 
ENDROOT
BRANCH   1   2
ATOM      2  C   UNL     1    -110.766 -42.968 -65.239  1.00  0.00     0.000 C 
BRANCH   2   3
ATOM      3  C   UNL     1    -109.511 -43.809 -65.525  1.00  0.00     0.000 C 
BRANCH   3   4
ATOM      4  C   UNL     1    -108.218 -42.976 -65.478  1.00  0.00     0.000 C 
BRANCH   4   5
ATOM      5  C   UNL     1    -107.185 -43.530 -64.480  1.00  0.00     0.000 C 
BRANCH   5   6
ATOM      6  C   UNL     1    -107.685 -43.667 -63.031  1.00  0.00     0.000 C 
BRANCH   6   7
ATOM      7  C   UNL     1    -108.100 -42.321 -62.410  1.00  0.00     0.006 C 
BRANCH   7   8
ATOM      8  C   UNL     1    -106.902 -41.387 -62.200  1.00  0.00     0.053 C 
BRANCH   8   9
ATOM      9  C   UNL     1    -105.889 -41.987 -61.275  1.00  0.00     0.041 C 
ATOM     10  O   UNL     1    -104.733 -42.262 -61.692  1.00  0.00    -0.550 OA
ATOM     11  O   UNL     1    -106.232 -42.272 -59.960  1.00  0.00    -0.550 OA
ENDBRANCH   8   9
ENDBRANCH   7   8
ENDBRANCH   6   7
ENDBRANCH   5   6
ENDBRANCH   4   5
ENDBRANCH   3   4
ENDBRANCH   2   3
ENDBRANCH   1   2
BRANCH   1  12
ATOM     12  C   UNL     1    -111.963 -40.760 -65.728  1.00  0.00     0.000 C 
BRANCH  12  13
ATOM     13  C   UNL     1    -113.085 -41.538 -65.018  1.00  0.00    -0.000 C 
BRANCH  13  14
ATOM     14  C   UNL     1    -114.235 -41.917 -65.966  1.00  0.00    -0.000 C 
BRANCH  14  15
ATOM     15  C   UNL     1    -113.980 -41.466 -67.416  1.00  0.00    -0.000 C 
BRANCH  15  16
ATOM     16  C   UNL     1    -113.717 -42.648 -68.362  1.00  0.00    -0.000 C 
BRANCH  16  17
ATOM     17  C   UNL     1    -112.373 -42.530 -69.102  1.00  0.00    -0.000 C 
BRANCH  17  18
ATOM     18  C   UNL     1    -111.441 -43.728 -68.842  1.00  0.00    -0.000 C 
BRANCH  18  19
ATOM     19  C   UNL     1    -109.972 -43.497 -69.238  1.00  0.00    -0.003 C 
ATOM     20  C   UNL     1    -109.563 -42.026 -69.182  1.00  0.00     0.004 C 
ENDBRANCH  18  19
ENDBRANCH  17  18
ENDBRANCH  16  17
ENDBRANCH  15  16
ENDBRANCH  14  15
ENDBRANCH  13  14
ENDBRANCH  12  13
ENDBRANCH   1  12
TORSDOF 16
ENDMDL
