MODEL 1
REMARK VINA RESULT:     2.885      0.000      0.000
REMARK INTER + INTRA:           3.385
REMARK INTER:                   3.391
REMARK INTRA:                  -0.006
REMARK UNBOUND:                -0.006
REMARK SMILES O=c1c(O)c(-c2ccc(O)cc2)oc2cc(O)cc(O)c12
REMARK SMILES IDX 5 1 3 2 2 3 1 4 21 5 19 6 18 7 16 8 15 9 14 10 13 11 6 12
REMARK SMILES IDX 7 13 8 14 9 15 12 16 11 17 10 18 4 20 20 22 17 24
REMARK H PARENT 10 19 4 21 20 23 17 25
REMARK Flexibility Score: inf
ROOT
ATOM      1  C   UNL     1       3.941   9.112  12.963  1.00  0.00     0.180 A 
ATOM      2  C   UNL     1       4.206   9.030  14.344  1.00  0.00     0.208 A 
ATOM      3  C   UNL     1       5.257   8.210  14.786  1.00  0.00     0.238 A 
ATOM      4  O   UNL     1       5.509   8.137  16.019  1.00  0.00    -0.285 OA
ATOM      5  C   UNL     1       6.009   7.475  13.847  1.00  0.00     0.111 A 
ATOM      6  C   UNL     1       7.080   6.623  14.209  1.00  0.00     0.134 A 
ATOM      7  C   UNL     1       7.775   5.918  13.216  1.00  0.00     0.093 A 
ATOM      8  C   UNL     1       7.418   6.046  11.868  1.00  0.00     0.123 A 
ATOM      9  C   UNL     1       6.362   6.884  11.507  1.00  0.00     0.094 A 
ATOM     10  C   UNL     1       5.659   7.598  12.482  1.00  0.00     0.146 A 
ATOM     11  O   UNL     1       4.663   8.392  12.109  1.00  0.00    -0.452 OA
ENDROOT
BRANCH   1  12
ATOM     12  C   UNL     1       2.864   9.968  12.419  1.00  0.00     0.021 A 
ATOM     13  C   UNL     1       3.176  10.946  11.459  1.00  0.00     0.016 A 
ATOM     14  C   UNL     1       2.178  11.781  10.947  1.00  0.00     0.047 A 
ATOM     15  C   UNL     1       0.861  11.661  11.398  1.00  0.00     0.115 A 
ATOM     16  C   UNL     1       1.539   9.866  12.883  1.00  0.00     0.016 A 
ATOM     17  C   UNL     1       0.544  10.703  12.370  1.00  0.00     0.047 A 
BRANCH  15  18
ATOM     18  O   UNL     1      -0.124  12.499  10.879  1.00  0.00    -0.508 OA
ATOM     19  H   UNL     1       0.100  13.230  10.214  1.00  0.00     0.293 HD
ENDBRANCH  15  18
ENDBRANCH   1  12
BRANCH   2  20
ATOM     20  O   UNL     1       3.415   9.731  15.258  1.00  0.00    -0.502 OA
ATOM     21  H   UNL     1       3.807  10.224  16.050  1.00  0.00     0.293 HD
ENDBRANCH   2  20
BRANCH   6  22
ATOM     22  O   UNL     1       7.459   6.474  15.545  1.00  0.00    -0.507 OA
ATOM     23  H   UNL     1       7.820   5.596  15.901  1.00  0.00     0.293 HD
ENDBRANCH   6  22
BRANCH   8  24
ATOM     24  O   UNL     1       8.107   5.345  10.882  1.00  0.00    -0.508 OA
ATOM     25  H   UNL     1       8.671   5.823  10.189  1.00  0.00     0.293 HD
ENDBRANCH   8  24
TORSDOF 5
ENDMDL
