MODEL 1
REMARK VINA RESULT:    -3.336      0.000      0.000
REMARK INTER + INTRA:          -8.185
REMARK INTER:                  -6.262
REMARK INTRA:                  -1.924
REMARK UNBOUND:                -1.924
REMARK SMILES CCCCCCCCC=CCCCCCCCC(=O)[O-]
REMARK SMILES IDX 10 1 9 2 11 3 12 4 13 5 14 6 15 7 16 8 17 9 18 10 19 11
REMARK SMILES IDX 20 12 8 13 7 14 6 15 5 16 4 17 3 18 2 19 1 20
REMARK H PARENT
REMARK Flexibility Score: inf
ROOT
ATOM      1  C   UNL     1       8.118 -16.711   8.519  1.00  0.00    -0.031 C 
ATOM      2  C   UNL     1       7.791 -18.015   8.582  1.00  0.00    -0.031 C 
ENDROOT
BRANCH   1   3
ATOM      3  C   UNL     1       7.679 -15.766   7.427  1.00  0.00     0.027 C 
BRANCH   3   4
ATOM      4  C   UNL     1       8.683 -14.622   7.218  1.00  0.00     0.004 C 
BRANCH   4   5
ATOM      5  C   UNL     1      10.122 -15.048   7.553  1.00  0.00     0.000 C 
BRANCH   5   6
ATOM      6  C   UNL     1      10.978 -15.299   6.298  1.00  0.00     0.000 C 
BRANCH   6   7
ATOM      7  C   UNL     1      10.896 -16.729   5.727  1.00  0.00     0.000 C 
BRANCH   7   8
ATOM      8  C   UNL     1      10.058 -16.873   4.439  1.00  0.00     0.006 C 
BRANCH   8   9
ATOM      9  C   UNL     1       8.994 -17.980   4.495  1.00  0.00     0.053 C 
BRANCH   9  10
ATOM     10  C   UNL     1       8.530 -18.378   3.128  1.00  0.00     0.041 C 
ATOM     11  O   UNL     1       9.203 -18.062   2.112  1.00  0.00    -0.550 OA
ATOM     12  O   UNL     1       7.375 -19.134   2.979  1.00  0.00    -0.550 OA
ENDBRANCH   9  10
ENDBRANCH   8   9
ENDBRANCH   7   8
ENDBRANCH   6   7
ENDBRANCH   5   6
ENDBRANCH   4   5
ENDBRANCH   3   4
ENDBRANCH   1   3
BRANCH   2  13
ATOM     13  C   UNL     1       6.855 -18.711   7.625  1.00  0.00     0.027 C 
BRANCH  13  14
ATOM     14  C   UNL     1       5.410 -18.637   8.130  1.00  0.00     0.004 C 
BRANCH  14  15
ATOM     15  C   UNL     1       4.414 -18.760   6.970  1.00  0.00     0.000 C 
BRANCH  15  16
ATOM     16  C   UNL     1       4.978 -19.566   5.787  1.00  0.00     0.000 C 
BRANCH  16  17
ATOM     17  C   UNL     1       3.974 -19.743   4.627  1.00  0.00    -0.000 C 
BRANCH  17  18
ATOM     18  C   UNL     1       2.889 -18.649   4.589  1.00  0.00    -0.000 C 
BRANCH  18  19
ATOM     19  C   UNL     1       2.884 -17.829   3.286  1.00  0.00    -0.003 C 
ATOM     20  C   UNL     1       3.715 -18.478   2.178  1.00  0.00     0.004 C 
ENDBRANCH  18  19
ENDBRANCH  17  18
ENDBRANCH  16  17
ENDBRANCH  15  16
ENDBRANCH  14  15
ENDBRANCH  13  14
ENDBRANCH   2  13
TORSDOF 15
ENDMDL
MODEL 2
REMARK VINA RESULT:    -3.248      4.123      7.508
REMARK INTER + INTRA:          -8.019
REMARK INTER:                  -6.603
REMARK INTRA:                  -1.416
REMARK UNBOUND:                -1.924
REMARK SMILES CCCCCCCCC=CCCCCCCCC(=O)[O-]
REMARK SMILES IDX 10 1 9 2 11 3 12 4 13 5 14 6 15 7 16 8 17 9 18 10 19 11
REMARK SMILES IDX 20 12 8 13 7 14 6 15 5 16 4 17 3 18 2 19 1 20
REMARK H PARENT
REMARK Flexibility Score: inf
ROOT
ATOM      1  C   UNL     1       9.566 -18.779   2.056  1.00  0.00    -0.031 C 
ATOM      2  C   UNL     1       8.945 -18.209   3.106  1.00  0.00    -0.031 C 
ENDROOT
BRANCH   1   3
ATOM      3  C   UNL     1      11.051 -19.034   1.971  1.00  0.00     0.027 C 
BRANCH   3   4
ATOM      4  C   UNL     1      11.457 -19.623   0.612  1.00  0.00     0.004 C 
BRANCH   4   5
ATOM      5  C   UNL     1      12.739 -18.978   0.062  1.00  0.00     0.000 C 
BRANCH   5   6
ATOM      6  C   UNL     1      12.468 -18.014  -1.108  1.00  0.00     0.000 C 
BRANCH   6   7
ATOM      7  C   UNL     1      11.007 -17.979  -1.600  1.00  0.00     0.000 C 
BRANCH   7   8
ATOM      8  C   UNL     1      10.701 -16.908  -2.668  1.00  0.00     0.006 C 
BRANCH   8   9
ATOM      9  C   UNL     1      11.831 -15.890  -2.887  1.00  0.00     0.053 C 
BRANCH   9  10
ATOM     10  C   UNL     1      11.609 -14.631  -2.106  1.00  0.00     0.041 C 
ATOM     11  O   UNL     1      12.502 -13.744  -2.067  1.00  0.00    -0.550 OA
ATOM     12  O   UNL     1      10.400 -14.420  -1.456  1.00  0.00    -0.550 OA
ENDBRANCH   9  10
ENDBRANCH   8   9
ENDBRANCH   7   8
ENDBRANCH   6   7
ENDBRANCH   5   6
ENDBRANCH   4   5
ENDBRANCH   3   4
ENDBRANCH   1   3
BRANCH   2  13
ATOM     13  C   UNL     1       9.622 -17.826   4.398  1.00  0.00     0.027 C 
BRANCH  13  14
ATOM     14  C   UNL     1      10.079 -16.364   4.357  1.00  0.00     0.004 C 
BRANCH  14  15
ATOM     15  C   UNL     1      11.506 -16.218   4.901  1.00  0.00     0.000 C 
BRANCH  15  16
ATOM     16  C   UNL     1      11.557 -16.202   6.438  1.00  0.00     0.000 C 
BRANCH  16  17
ATOM     17  C   UNL     1      11.357 -14.796   7.047  1.00  0.00    -0.000 C 
BRANCH  17  18
ATOM     18  C   UNL     1      10.154 -14.714   8.006  1.00  0.00    -0.000 C 
BRANCH  18  19
ATOM     19  C   UNL     1       8.792 -14.707   7.287  1.00  0.00    -0.003 C 
ATOM     20  C   UNL     1       7.990 -15.986   7.531  1.00  0.00     0.004 C 
ENDBRANCH  18  19
ENDBRANCH  17  18
ENDBRANCH  16  17
ENDBRANCH  15  16
ENDBRANCH  14  15
ENDBRANCH  13  14
ENDBRANCH   2  13
TORSDOF 15
ENDMDL
MODEL 3
REMARK VINA RESULT:    -3.246      1.306      5.975
REMARK INTER + INTRA:          -8.016
REMARK INTER:                  -6.291
REMARK INTRA:                  -1.725
REMARK UNBOUND:                -1.924
REMARK SMILES CCCCCCCCC=CCCCCCCCC(=O)[O-]
REMARK SMILES IDX 10 1 9 2 11 3 12 4 13 5 14 6 15 7 16 8 17 9 18 10 19 11
REMARK SMILES IDX 20 12 8 13 7 14 6 15 5 16 4 17 3 18 2 19 1 20
REMARK H PARENT
REMARK Flexibility Score: inf
ROOT
ATOM      1  C   UNL     1       7.796 -18.300   7.982  1.00  0.00    -0.031 C 
ATOM      2  C   UNL     1       7.971 -17.010   8.321  1.00  0.00    -0.031 C 
ENDROOT
BRANCH   1   3
ATOM      3  C   UNL     1       6.868 -18.785   6.895  1.00  0.00     0.027 C 
BRANCH   3   4
ATOM      4  C   UNL     1       5.688 -19.589   7.461  1.00  0.00     0.004 C 
BRANCH   4   5
ATOM      5  C   UNL     1       4.352 -18.843   7.307  1.00  0.00     0.000 C 
BRANCH   5   6
ATOM      6  C   UNL     1       3.543 -19.314   6.085  1.00  0.00     0.000 C 
BRANCH   6   7
ATOM      7  C   UNL     1       2.819 -18.196   5.309  1.00  0.00     0.000 C 
BRANCH   7   8
ATOM      8  C   UNL     1       2.329 -18.587   3.900  1.00  0.00     0.006 C 
BRANCH   8   9
ATOM      9  C   UNL     1       3.122 -17.946   2.751  1.00  0.00     0.053 C 
BRANCH   9  10
ATOM     10  C   UNL     1       4.057 -18.921   2.104  1.00  0.00     0.041 C 
ATOM     11  O   UNL     1       3.787 -19.402   0.972  1.00  0.00    -0.550 OA
ATOM     12  O   UNL     1       5.244 -19.268   2.734  1.00  0.00    -0.550 OA
ENDBRANCH   9  10
ENDBRANCH   8   9
ENDBRANCH   7   8
ENDBRANCH   6   7
ENDBRANCH   5   6
ENDBRANCH   4   5
ENDBRANCH   3   4
ENDBRANCH   1   3
BRANCH   2  13
ATOM     13  C   UNL     1       7.343 -15.842   7.603  1.00  0.00     0.027 C 
BRANCH  13  14
ATOM     14  C   UNL     1       8.420 -14.943   6.986  1.00  0.00     0.004 C 
BRANCH  14  15
ATOM     15  C   UNL     1       9.793 -15.219   7.613  1.00  0.00     0.000 C 
BRANCH  15  16
ATOM     16  C   UNL     1      10.909 -15.346   6.563  1.00  0.00     0.000 C 
BRANCH  16  17
ATOM     17  C   UNL     1      10.394 -15.317   5.107  1.00  0.00    -0.000 C 
BRANCH  17  18
ATOM     18  C   UNL     1      10.501 -16.680   4.396  1.00  0.00    -0.000 C 
BRANCH  18  19
ATOM     19  C   UNL     1       9.207 -17.513   4.461  1.00  0.00    -0.003 C 
ATOM     20  C   UNL     1       8.934 -18.281   3.167  1.00  0.00     0.004 C 
ENDBRANCH  18  19
ENDBRANCH  17  18
ENDBRANCH  16  17
ENDBRANCH  15  16
ENDBRANCH  14  15
ENDBRANCH  13  14
ENDBRANCH   2  13
TORSDOF 15
ENDMDL
MODEL 4
REMARK VINA RESULT:    -3.206      4.565      6.206
REMARK INTER + INTRA:          -7.940
REMARK INTER:                  -4.874
REMARK INTRA:                  -3.066
REMARK UNBOUND:                -1.924
REMARK SMILES CCCCCCCCC=CCCCCCCCC(=O)[O-]
REMARK SMILES IDX 10 1 9 2 11 3 12 4 13 5 14 6 15 7 16 8 17 9 18 10 19 11
REMARK SMILES IDX 20 12 8 13 7 14 6 15 5 16 4 17 3 18 2 19 1 20
REMARK H PARENT
REMARK Flexibility Score: inf
ROOT
ATOM      1  C   UNL     1       8.500 -18.164   8.081  1.00  0.00    -0.031 C 
ATOM      2  C   UNL     1       9.673 -18.819   8.004  1.00  0.00    -0.031 C 
ENDROOT
BRANCH   1   3
ATOM      3  C   UNL     1       8.332 -16.761   8.614  1.00  0.00     0.027 C 
BRANCH   3   4
ATOM      4  C   UNL     1       7.813 -15.795   7.539  1.00  0.00     0.004 C 
BRANCH   4   5
ATOM      5  C   UNL     1       8.822 -14.677   7.230  1.00  0.00     0.000 C 
BRANCH   5   6
ATOM      6  C   UNL     1       9.999 -14.644   8.223  1.00  0.00     0.000 C 
BRANCH   6   7
ATOM      7  C   UNL     1      11.397 -14.581   7.577  1.00  0.00     0.000 C 
BRANCH   7   8
ATOM      8  C   UNL     1      12.574 -14.864   8.534  1.00  0.00     0.006 C 
BRANCH   8   9
ATOM      9  C   UNL     1      12.285 -14.541  10.008  1.00  0.00     0.053 C 
BRANCH   9  10
ATOM     10  C   UNL     1      12.754 -13.168  10.382  1.00  0.00     0.041 C 
ATOM     11  O   UNL     1      13.986 -12.919  10.461  1.00  0.00    -0.550 OA
ATOM     12  O   UNL     1      11.831 -12.155  10.604  1.00  0.00    -0.550 OA
ENDBRANCH   9  10
ENDBRANCH   8   9
ENDBRANCH   7   8
ENDBRANCH   6   7
ENDBRANCH   5   6
ENDBRANCH   4   5
ENDBRANCH   3   4
ENDBRANCH   1   3
BRANCH   2  13
ATOM     13  C   UNL     1      11.014 -18.220   8.345  1.00  0.00     0.027 C 
BRANCH  13  14
ATOM     14  C   UNL     1      12.042 -18.535   7.252  1.00  0.00     0.004 C 
BRANCH  14  15
ATOM     15  C   UNL     1      11.388 -18.531   5.864  1.00  0.00     0.000 C 
BRANCH  15  16
ATOM     16  C   UNL     1      11.579 -17.197   5.122  1.00  0.00     0.000 C 
BRANCH  16  17
ATOM     17  C   UNL     1      10.279 -16.648   4.494  1.00  0.00    -0.000 C 
BRANCH  17  18
ATOM     18  C   UNL     1       9.127 -17.671   4.489  1.00  0.00    -0.000 C 
BRANCH  18  19
ATOM     19  C   UNL     1       8.607 -18.008   3.079  1.00  0.00    -0.003 C 
ATOM     20  C   UNL     1       9.629 -18.781   2.243  1.00  0.00     0.004 C 
ENDBRANCH  18  19
ENDBRANCH  17  18
ENDBRANCH  16  17
ENDBRANCH  15  16
ENDBRANCH  14  15
ENDBRANCH  13  14
ENDBRANCH   2  13
TORSDOF 15
ENDMDL
MODEL 5
REMARK VINA RESULT:    -3.198      1.942      6.059
REMARK INTER + INTRA:          -7.927
REMARK INTER:                  -5.477
REMARK INTRA:                  -2.450
REMARK UNBOUND:                -1.924
REMARK SMILES CCCCCCCCC=CCCCCCCCC(=O)[O-]
REMARK SMILES IDX 10 1 9 2 11 3 12 4 13 5 14 6 15 7 16 8 17 9 18 10 19 11
REMARK SMILES IDX 20 12 8 13 7 14 6 15 5 16 4 17 3 18 2 19 1 20
REMARK H PARENT
REMARK Flexibility Score: inf
ROOT
ATOM      1  C   UNL     1       8.622 -18.540   4.752  1.00  0.00    -0.031 C 
ATOM      2  C   UNL     1       9.267 -17.555   4.098  1.00  0.00    -0.031 C 
ENDROOT
BRANCH   1   3
ATOM      3  C   UNL     1       9.150 -19.248   5.976  1.00  0.00     0.027 C 
BRANCH   3   4
ATOM      4  C   UNL     1       8.028 -19.917   6.783  1.00  0.00     0.004 C 
BRANCH   4   5
ATOM      5  C   UNL     1       6.685 -19.186   6.621  1.00  0.00     0.000 C 
BRANCH   5   6
ATOM      6  C   UNL     1       5.473 -20.123   6.774  1.00  0.00     0.000 C 
BRANCH   6   7
ATOM      7  C   UNL     1       4.897 -20.667   5.451  1.00  0.00     0.000 C 
BRANCH   7   8
ATOM      8  C   UNL     1       4.243 -19.610   4.538  1.00  0.00     0.006 C 
BRANCH   8   9
ATOM      9  C   UNL     1       4.863 -19.510   3.136  1.00  0.00     0.053 C 
BRANCH   9  10
ATOM     10  C   UNL     1       3.948 -18.829   2.166  1.00  0.00     0.041 C 
ATOM     11  O   UNL     1       3.383 -17.748   2.480  1.00  0.00    -0.550 OA
ATOM     12  O   UNL     1       3.752 -19.367   0.901  1.00  0.00    -0.550 OA
ENDBRANCH   9  10
ENDBRANCH   8   9
ENDBRANCH   7   8
ENDBRANCH   6   7
ENDBRANCH   5   6
ENDBRANCH   4   5
ENDBRANCH   3   4
ENDBRANCH   1   3
BRANCH   2  13
ATOM     13  C   UNL     1      10.570 -16.941   4.543  1.00  0.00     0.027 C 
BRANCH  13  14
ATOM     14  C   UNL     1      10.377 -15.463   4.903  1.00  0.00     0.004 C 
BRANCH  14  15
ATOM     15  C   UNL     1      10.134 -15.291   6.408  1.00  0.00     0.000 C 
BRANCH  15  16
ATOM     16  C   UNL     1       8.697 -14.844   6.729  1.00  0.00     0.000 C 
BRANCH  16  17
ATOM     17  C   UNL     1       7.895 -15.883   7.543  1.00  0.00    -0.000 C 
BRANCH  17  18
ATOM     18  C   UNL     1       8.747 -16.622   8.593  1.00  0.00    -0.000 C 
BRANCH  18  19
ATOM     19  C   UNL     1       7.912 -17.329   9.678  1.00  0.00    -0.003 C 
ATOM     20  C   UNL     1       6.419 -17.019   9.569  1.00  0.00     0.004 C 
ENDBRANCH  18  19
ENDBRANCH  17  18
ENDBRANCH  16  17
ENDBRANCH  15  16
ENDBRANCH  14  15
ENDBRANCH  13  14
ENDBRANCH   2  13
TORSDOF 15
ENDMDL
MODEL 6
REMARK VINA RESULT:    -3.154      2.334      5.609
REMARK INTER + INTRA:          -7.843
REMARK INTER:                  -6.048
REMARK INTRA:                  -1.795
REMARK UNBOUND:                -1.924
REMARK SMILES CCCCCCCCC=CCCCCCCCC(=O)[O-]
REMARK SMILES IDX 10 1 9 2 11 3 12 4 13 5 14 6 15 7 16 8 17 9 18 10 19 11
REMARK SMILES IDX 20 12 8 13 7 14 6 15 5 16 4 17 3 18 2 19 1 20
REMARK H PARENT
REMARK Flexibility Score: inf
ROOT
ATOM      1  C   UNL     1      10.124 -17.829   4.041  1.00  0.00    -0.031 C 
ATOM      2  C   UNL     1      10.387 -17.047   5.104  1.00  0.00    -0.031 C 
ENDROOT
BRANCH   1   3
ATOM      3  C   UNL     1       8.939 -17.660   3.121  1.00  0.00     0.027 C 
BRANCH   3   4
ATOM      4  C   UNL     1       8.063 -18.920   3.073  1.00  0.00     0.004 C 
BRANCH   4   5
ATOM      5  C   UNL     1       7.714 -19.435   4.479  1.00  0.00     0.000 C 
BRANCH   5   6
ATOM      6  C   UNL     1       6.219 -19.766   4.640  1.00  0.00     0.000 C 
BRANCH   6   7
ATOM      7  C   UNL     1       5.699 -20.901   3.735  1.00  0.00     0.000 C 
BRANCH   7   8
ATOM      8  C   UNL     1       4.464 -20.545   2.883  1.00  0.00     0.006 C 
BRANCH   8   9
ATOM      9  C   UNL     1       4.359 -19.060   2.506  1.00  0.00     0.053 C 
BRANCH   9  10
ATOM     10  C   UNL     1       3.029 -18.480   2.879  1.00  0.00     0.041 C 
ATOM     11  O   UNL     1       2.880 -17.232   2.951  1.00  0.00    -0.550 OA
ATOM     12  O   UNL     1       1.946 -19.317   3.109  1.00  0.00    -0.550 OA
ENDBRANCH   9  10
ENDBRANCH   8   9
ENDBRANCH   7   8
ENDBRANCH   6   7
ENDBRANCH   5   6
ENDBRANCH   4   5
ENDBRANCH   3   4
ENDBRANCH   1   3
BRANCH   2  13
ATOM     13  C   UNL     1       9.594 -15.821   5.483  1.00  0.00     0.027 C 
BRANCH  13  14
ATOM     14  C   UNL     1       9.126 -15.908   6.941  1.00  0.00     0.004 C 
BRANCH  14  15
ATOM     15  C   UNL     1       8.566 -17.301   7.256  1.00  0.00     0.000 C 
BRANCH  15  16
ATOM     16  C   UNL     1       7.184 -17.246   7.930  1.00  0.00     0.000 C 
BRANCH  16  17
ATOM     17  C   UNL     1       6.662 -15.809   8.150  1.00  0.00    -0.000 C 
BRANCH  17  18
ATOM     18  C   UNL     1       5.138 -15.681   7.961  1.00  0.00    -0.000 C 
BRANCH  18  19
ATOM     19  C   UNL     1       4.704 -14.351   7.317  1.00  0.00    -0.003 C 
ATOM     20  C   UNL     1       5.892 -13.496   6.874  1.00  0.00     0.004 C 
ENDBRANCH  18  19
ENDBRANCH  17  18
ENDBRANCH  16  17
ENDBRANCH  15  16
ENDBRANCH  14  15
ENDBRANCH  13  14
ENDBRANCH   2  13
TORSDOF 15
ENDMDL
MODEL 7
REMARK VINA RESULT:    -3.131      2.415      5.204
REMARK INTER + INTRA:          -7.800
REMARK INTER:                  -5.549
REMARK INTRA:                  -2.251
REMARK UNBOUND:                -1.924
REMARK SMILES CCCCCCCCC=CCCCCCCCC(=O)[O-]
REMARK SMILES IDX 10 1 9 2 11 3 12 4 13 5 14 6 15 7 16 8 17 9 18 10 19 11
REMARK SMILES IDX 20 12 8 13 7 14 6 15 5 16 4 17 3 18 2 19 1 20
REMARK H PARENT
REMARK Flexibility Score: inf
ROOT
ATOM      1  C   UNL     1       4.734 -19.176   2.612  1.00  0.00    -0.031 C 
ATOM      2  C   UNL     1       3.747 -18.339   2.241  1.00  0.00    -0.031 C 
ENDROOT
BRANCH   1   3
ATOM      3  C   UNL     1       4.782 -19.921   3.924  1.00  0.00     0.027 C 
BRANCH   3   4
ATOM      4  C   UNL     1       6.169 -19.844   4.580  1.00  0.00     0.004 C 
BRANCH   4   5
ATOM      5  C   UNL     1       7.192 -20.750   3.876  1.00  0.00     0.000 C 
BRANCH   5   6
ATOM      6  C   UNL     1       8.490 -20.009   3.505  1.00  0.00     0.000 C 
BRANCH   6   7
ATOM      7  C   UNL     1       8.308 -18.529   3.115  1.00  0.00     0.000 C 
BRANCH   7   8
ATOM      8  C   UNL     1       9.337 -17.558   3.730  1.00  0.00     0.006 C 
BRANCH   8   9
ATOM      9  C   UNL     1       9.639 -17.810   5.215  1.00  0.00     0.053 C 
BRANCH   9  10
ATOM     10  C   UNL     1       9.101 -16.719   6.089  1.00  0.00     0.041 C 
ATOM     11  O   UNL     1       8.311 -16.993   7.030  1.00  0.00    -0.550 OA
ATOM     12  O   UNL     1       9.503 -15.406   5.887  1.00  0.00    -0.550 OA
ENDBRANCH   9  10
ENDBRANCH   8   9
ENDBRANCH   7   8
ENDBRANCH   6   7
ENDBRANCH   5   6
ENDBRANCH   4   5
ENDBRANCH   3   4
ENDBRANCH   1   3
BRANCH   2  13
ATOM     13  C   UNL     1       2.489 -18.092   3.036  1.00  0.00     0.027 C 
BRANCH  13  14
ATOM     14  C   UNL     1       1.372 -19.043   2.591  1.00  0.00     0.004 C 
BRANCH  14  15
ATOM     15  C   UNL     1       0.627 -19.621   3.800  1.00  0.00     0.000 C 
BRANCH  15  16
ATOM     16  C   UNL     1       1.204 -20.971   4.261  1.00  0.00     0.000 C 
BRANCH  16  17
ATOM     17  C   UNL     1       1.742 -20.950   5.709  1.00  0.00    -0.000 C 
BRANCH  17  18
ATOM     18  C   UNL     1       1.505 -19.607   6.427  1.00  0.00    -0.000 C 
BRANCH  18  19
ATOM     19  C   UNL     1       2.798 -18.944   6.938  1.00  0.00    -0.003 C 
ATOM     20  C   UNL     1       2.970 -17.514   6.425  1.00  0.00     0.004 C 
ENDBRANCH  18  19
ENDBRANCH  17  18
ENDBRANCH  16  17
ENDBRANCH  15  16
ENDBRANCH  14  15
ENDBRANCH  13  14
ENDBRANCH   2  13
TORSDOF 15
ENDMDL
MODEL 8
REMARK VINA RESULT:    -3.083      2.905      5.409
REMARK INTER + INTRA:          -7.710
REMARK INTER:                  -4.873
REMARK INTRA:                  -2.838
REMARK UNBOUND:                -1.924
REMARK SMILES CCCCCCCCC=CCCCCCCCC(=O)[O-]
REMARK SMILES IDX 10 1 9 2 11 3 12 4 13 5 14 6 15 7 16 8 17 9 18 10 19 11
REMARK SMILES IDX 20 12 8 13 7 14 6 15 5 16 4 17 3 18 2 19 1 20
REMARK H PARENT
REMARK Flexibility Score: inf
ROOT
ATOM      1  C   UNL     1       8.465 -15.338   6.958  1.00  0.00    -0.031 C 
ATOM      2  C   UNL     1       9.611 -14.754   7.353  1.00  0.00    -0.031 C 
ENDROOT
BRANCH   1   3
ATOM      3  C   UNL     1       7.539 -16.114   7.864  1.00  0.00     0.027 C 
BRANCH   3   4
ATOM      4  C   UNL     1       7.459 -17.597   7.472  1.00  0.00     0.004 C 
BRANCH   4   5
ATOM      5  C   UNL     1       8.759 -18.351   7.796  1.00  0.00     0.000 C 
BRANCH   5   6
ATOM      6  C   UNL     1       9.428 -18.951   6.546  1.00  0.00     0.000 C 
BRANCH   6   7
ATOM      7  C   UNL     1      10.723 -18.245   6.095  1.00  0.00     0.000 C 
BRANCH   7   8
ATOM      8  C   UNL     1      10.604 -17.431   4.790  1.00  0.00     0.006 C 
BRANCH   8   9
ATOM      9  C   UNL     1       9.235 -17.534   4.100  1.00  0.00     0.053 C 
BRANCH   9  10
ATOM     10  C   UNL     1       9.273 -18.451   2.916  1.00  0.00     0.041 C 
ATOM     11  O   UNL     1      10.276 -18.464   2.156  1.00  0.00    -0.550 OA
ATOM     12  O   UNL     1       8.216 -19.319   2.676  1.00  0.00    -0.550 OA
ENDBRANCH   9  10
ENDBRANCH   8   9
ENDBRANCH   7   8
ENDBRANCH   6   7
ENDBRANCH   5   6
ENDBRANCH   4   5
ENDBRANCH   3   4
ENDBRANCH   1   3
BRANCH   2  13
ATOM     13  C   UNL     1      10.098 -14.699   8.779  1.00  0.00     0.027 C 
BRANCH  13  14
ATOM     14  C   UNL     1      11.061 -15.857   9.067  1.00  0.00     0.004 C 
BRANCH  14  15
ATOM     15  C   UNL     1      10.629 -16.633  10.318  1.00  0.00     0.000 C 
BRANCH  15  16
ATOM     16  C   UNL     1       9.501 -15.929  11.093  1.00  0.00     0.000 C 
BRANCH  16  17
ATOM     17  C   UNL     1       8.285 -16.838  11.374  1.00  0.00    -0.000 C 
BRANCH  17  18
ATOM     18  C   UNL     1       7.414 -16.344  12.545  1.00  0.00    -0.000 C 
BRANCH  18  19
ATOM     19  C   UNL     1       5.901 -16.471  12.286  1.00  0.00    -0.003 C 
ATOM     20  C   UNL     1       5.581 -16.863  10.844  1.00  0.00     0.004 C 
ENDBRANCH  18  19
ENDBRANCH  17  18
ENDBRANCH  16  17
ENDBRANCH  15  16
ENDBRANCH  14  15
ENDBRANCH  13  14
ENDBRANCH   2  13
TORSDOF 15
ENDMDL
MODEL 9
REMARK VINA RESULT:    -3.082      2.463      3.986
REMARK INTER + INTRA:          -7.708
REMARK INTER:                  -5.893
REMARK INTRA:                  -1.814
REMARK UNBOUND:                -1.924
REMARK SMILES CCCCCCCCC=CCCCCCCCC(=O)[O-]
REMARK SMILES IDX 10 1 9 2 11 3 12 4 13 5 14 6 15 7 16 8 17 9 18 10 19 11
REMARK SMILES IDX 20 12 8 13 7 14 6 15 5 16 4 17 3 18 2 19 1 20
REMARK H PARENT
REMARK Flexibility Score: inf
ROOT
ATOM      1  C   UNL     1       8.334 -18.911   3.095  1.00  0.00    -0.031 C 
ATOM      2  C   UNL     1       7.491 -19.694   3.794  1.00  0.00    -0.031 C 
ENDROOT
BRANCH   1   3
ATOM      3  C   UNL     1       8.875 -17.586   3.574  1.00  0.00     0.027 C 
BRANCH   3   4
ATOM      4  C   UNL     1      10.208 -17.745   4.320  1.00  0.00     0.004 C 
BRANCH   4   5
ATOM      5  C   UNL     1      10.150 -17.154   5.739  1.00  0.00     0.000 C 
BRANCH   5   6
ATOM      6  C   UNL     1       9.929 -15.630   5.742  1.00  0.00     0.000 C 
BRANCH   6   7
ATOM      7  C   UNL     1       9.266 -15.069   7.016  1.00  0.00     0.000 C 
BRANCH   7   8
ATOM      8  C   UNL     1       7.746 -15.311   7.124  1.00  0.00     0.006 C 
BRANCH   8   9
ATOM      9  C   UNL     1       7.355 -16.515   7.995  1.00  0.00     0.053 C 
BRANCH   9  10
ATOM     10  C   UNL     1       5.939 -16.423   8.473  1.00  0.00     0.041 C 
ATOM     11  O   UNL     1       5.126 -15.649   7.902  1.00  0.00    -0.550 OA
ATOM     12  O   UNL     1       5.507 -17.221   9.524  1.00  0.00    -0.550 OA
ENDBRANCH   9  10
ENDBRANCH   8   9
ENDBRANCH   7   8
ENDBRANCH   6   7
ENDBRANCH   5   6
ENDBRANCH   4   5
ENDBRANCH   3   4
ENDBRANCH   1   3
BRANCH   2  13
ATOM     13  C   UNL     1       7.034 -19.415   5.204  1.00  0.00     0.027 C 
BRANCH  13  14
ATOM     14  C   UNL     1       5.702 -20.117   5.490  1.00  0.00     0.004 C 
BRANCH  14  15
ATOM     15  C   UNL     1       4.959 -19.437   6.647  1.00  0.00     0.000 C 
BRANCH  15  16
ATOM     16  C   UNL     1       3.431 -19.484   6.480  1.00  0.00     0.000 C 
BRANCH  16  17
ATOM     17  C   UNL     1       2.871 -18.345   5.600  1.00  0.00    -0.000 C 
BRANCH  17  18
ATOM     18  C   UNL     1       2.380 -18.827   4.221  1.00  0.00    -0.000 C 
BRANCH  18  19
ATOM     19  C   UNL     1       2.931 -17.999   3.045  1.00  0.00    -0.003 C 
ATOM     20  C   UNL     1       4.002 -18.745   2.249  1.00  0.00     0.004 C 
ENDBRANCH  18  19
ENDBRANCH  17  18
ENDBRANCH  16  17
ENDBRANCH  15  16
ENDBRANCH  14  15
ENDBRANCH  13  14
ENDBRANCH   2  13
TORSDOF 15
ENDMDL
