MODEL 1
REMARK VINA RESULT:    -5.078      0.000      0.000
REMARK INTER + INTRA:          -8.554
REMARK INTER:                  -8.046
REMARK INTRA:                  -0.508
REMARK UNBOUND:                -0.508
REMARK SMILES CCCCCCCCCCCC(=O)[O-]
REMARK SMILES IDX 7 1 8 2 9 3 10 4 11 5 12 6 13 7 14 8 6 9 5 10 4 11 3 12 2 13
REMARK SMILES IDX 1 14
REMARK H PARENT
REMARK Flexibility Score: inf
ROOT
ATOM      1  C   UNL     1      -4.942  37.069  19.848  1.00  0.00     0.000 C 
ENDROOT
BRANCH   1   2
ATOM      2  C   UNL     1      -5.681  36.333  20.977  1.00  0.00     0.000 C 
BRANCH   2   3
ATOM      3  C   UNL     1      -4.731  35.501  21.857  1.00  0.00     0.000 C 
BRANCH   3   4
ATOM      4  C   UNL     1      -5.306  35.236  23.259  1.00  0.00     0.006 C 
BRANCH   4   5
ATOM      5  C   UNL     1      -6.100  36.430  23.805  1.00  0.00     0.053 C 
BRANCH   5   6
ATOM      6  C   UNL     1      -5.173  37.446  24.395  1.00  0.00     0.041 C 
ATOM      7  O   UNL     1      -4.652  37.247  25.524  1.00  0.00    -0.550 OA
ATOM      8  O   UNL     1      -4.847  38.590  23.677  1.00  0.00    -0.550 OA
ENDBRANCH   5   6
ENDBRANCH   4   5
ENDBRANCH   3   4
ENDBRANCH   2   3
ENDBRANCH   1   2
BRANCH   1   9
ATOM      9  C   UNL     1      -3.767  36.251  19.281  1.00  0.00     0.000 C 
BRANCH   9  10
ATOM     10  C   UNL     1      -2.767  37.117  18.498  1.00  0.00    -0.000 C 
BRANCH  10  11
ATOM     11  C   UNL     1      -3.165  37.290  17.023  1.00  0.00    -0.000 C 
BRANCH  11  12
ATOM     12  C   UNL     1      -2.742  36.095  16.153  1.00  0.00    -0.000 C 
BRANCH  12  13
ATOM     13  C   UNL     1      -2.650  36.449  14.662  1.00  0.00    -0.003 C 
ATOM     14  C   UNL     1      -3.859  37.268  14.217  1.00  0.00     0.004 C 
ENDBRANCH  12  13
ENDBRANCH  11  12
ENDBRANCH  10  11
ENDBRANCH   9  10
ENDBRANCH   1   9
TORSDOF 10
ENDMDL
MODEL 2
REMARK VINA RESULT:    -5.007      1.162      1.361
REMARK INTER + INTRA:          -8.442
REMARK INTER:                  -8.069
REMARK INTRA:                  -0.373
REMARK UNBOUND:                -0.508
REMARK SMILES CCCCCCCCCCCC(=O)[O-]
REMARK SMILES IDX 7 1 8 2 9 3 10 4 11 5 12 6 13 7 14 8 6 9 5 10 4 11 3 12 2 13
REMARK SMILES IDX 1 14
REMARK H PARENT
REMARK Flexibility Score: inf
ROOT
ATOM      1  C   UNL     1      -3.878  35.759  19.857  1.00  0.00     0.000 C 
ENDROOT
BRANCH   1   2
ATOM      2  C   UNL     1      -5.384  35.997  20.044  1.00  0.00     0.000 C 
BRANCH   2   3
ATOM      3  C   UNL     1      -5.783  36.110  21.526  1.00  0.00     0.000 C 
BRANCH   3   4
ATOM      4  C   UNL     1      -4.751  36.889  22.358  1.00  0.00     0.006 C 
BRANCH   4   5
ATOM      5  C   UNL     1      -5.392  37.664  23.516  1.00  0.00     0.053 C 
BRANCH   5   6
ATOM      6  C   UNL     1      -5.222  36.917  24.801  1.00  0.00     0.041 C 
ATOM      7  O   UNL     1      -5.789  35.805  24.967  1.00  0.00    -0.550 OA
ATOM      8  O   UNL     1      -4.398  37.425  25.797  1.00  0.00    -0.550 OA
ENDBRANCH   5   6
ENDBRANCH   4   5
ENDBRANCH   3   4
ENDBRANCH   2   3
ENDBRANCH   1   2
BRANCH   1   9
ATOM      9  C   UNL     1      -3.154  36.987  19.275  1.00  0.00     0.000 C 
BRANCH   9  10
ATOM     10  C   UNL     1      -3.556  37.278  17.821  1.00  0.00    -0.000 C 
BRANCH  10  11
ATOM     11  C   UNL     1      -3.202  36.123  16.869  1.00  0.00    -0.000 C 
BRANCH  11  12
ATOM     12  C   UNL     1      -2.240  36.555  15.750  1.00  0.00    -0.000 C 
BRANCH  12  13
ATOM     13  C   UNL     1      -2.891  36.518  14.361  1.00  0.00    -0.003 C 
ATOM     14  C   UNL     1      -3.984  37.577  14.237  1.00  0.00     0.004 C 
ENDBRANCH  12  13
ENDBRANCH  11  12
ENDBRANCH  10  11
ENDBRANCH   9  10
ENDBRANCH   1   9
TORSDOF 10
ENDMDL
MODEL 3
REMARK VINA RESULT:    -4.970      3.908      7.271
REMARK INTER + INTRA:          -8.384
REMARK INTER:                  -7.552
REMARK INTRA:                  -0.832
REMARK UNBOUND:                -0.508
REMARK SMILES CCCCCCCCCCCC(=O)[O-]
REMARK SMILES IDX 7 1 8 2 9 3 10 4 11 5 12 6 13 7 14 8 6 9 5 10 4 11 3 12 2 13
REMARK SMILES IDX 1 14
REMARK H PARENT
REMARK Flexibility Score: inf
ROOT
ATOM      1  C   UNL     1      -4.158  35.987  19.911  1.00  0.00     0.000 C 
ENDROOT
BRANCH   1   2
ATOM      2  C   UNL     1      -3.960  37.007  18.780  1.00  0.00     0.000 C 
BRANCH   2   3
ATOM      3  C   UNL     1      -2.475  37.296  18.499  1.00  0.00     0.000 C 
BRANCH   3   4
ATOM      4  C   UNL     1      -2.047  36.871  17.085  1.00  0.00     0.006 C 
BRANCH   4   5
ATOM      5  C   UNL     1      -3.213  36.311  16.261  1.00  0.00     0.053 C 
BRANCH   5   6
ATOM      6  C   UNL     1      -3.224  36.916  14.893  1.00  0.00     0.041 C 
ATOM      7  O   UNL     1      -2.520  36.419  13.975  1.00  0.00    -0.550 OA
ATOM      8  O   UNL     1      -4.048  38.001  14.619  1.00  0.00    -0.550 OA
ENDBRANCH   5   6
ENDBRANCH   4   5
ENDBRANCH   3   4
ENDBRANCH   2   3
ENDBRANCH   1   2
BRANCH   1   9
ATOM      9  C   UNL     1      -5.642  35.658  20.156  1.00  0.00     0.000 C 
BRANCH   9  10
ATOM     10  C   UNL     1      -6.015  35.676  21.647  1.00  0.00    -0.000 C 
BRANCH  10  11
ATOM     11  C   UNL     1      -4.846  36.120  22.542  1.00  0.00    -0.000 C 
BRANCH  11  12
ATOM     12  C   UNL     1      -5.294  37.052  23.679  1.00  0.00    -0.000 C 
BRANCH  12  13
ATOM     13  C   UNL     1      -5.362  38.524  23.249  1.00  0.00    -0.003 C 
ATOM     14  C   UNL     1      -4.291  38.842  22.209  1.00  0.00     0.004 C 
ENDBRANCH  12  13
ENDBRANCH  11  12
ENDBRANCH  10  11
ENDBRANCH   9  10
ENDBRANCH   1   9
TORSDOF 10
ENDMDL
MODEL 4
REMARK VINA RESULT:    -4.944      3.815      7.083
REMARK INTER + INTRA:          -8.341
REMARK INTER:                  -7.423
REMARK INTRA:                  -0.919
REMARK UNBOUND:                -0.508
REMARK SMILES CCCCCCCCCCCC(=O)[O-]
REMARK SMILES IDX 7 1 8 2 9 3 10 4 11 5 12 6 13 7 14 8 6 9 5 10 4 11 3 12 2 13
REMARK SMILES IDX 1 14
REMARK H PARENT
REMARK Flexibility Score: inf
ROOT
ATOM      1  C   UNL     1      -5.550  35.775  20.405  1.00  0.00     0.000 C 
ENDROOT
BRANCH   1   2
ATOM      2  C   UNL     1      -5.035  36.889  19.481  1.00  0.00     0.000 C 
BRANCH   2   3
ATOM      3  C   UNL     1      -3.499  36.988  19.477  1.00  0.00     0.000 C 
BRANCH   3   4
ATOM      4  C   UNL     1      -2.928  37.247  18.073  1.00  0.00     0.006 C 
BRANCH   4   5
ATOM      5  C   UNL     1      -3.485  36.277  17.023  1.00  0.00     0.053 C 
BRANCH   5   6
ATOM      6  C   UNL     1      -2.965  36.625  15.664  1.00  0.00     0.041 C 
ATOM      7  O   UNL     1      -3.696  37.238  14.844  1.00  0.00    -0.550 OA
ATOM      8  O   UNL     1      -1.655  36.314  15.320  1.00  0.00    -0.550 OA
ENDBRANCH   5   6
ENDBRANCH   4   5
ENDBRANCH   3   4
ENDBRANCH   2   3
ENDBRANCH   1   2
BRANCH   1   9
ATOM      9  C   UNL     1      -4.605  35.508  21.591  1.00  0.00     0.000 C 
BRANCH   9  10
ATOM     10  C   UNL     1      -5.346  35.441  22.936  1.00  0.00    -0.000 C 
BRANCH  10  11
ATOM     11  C   UNL     1      -5.953  36.794  23.344  1.00  0.00    -0.000 C 
BRANCH  11  12
ATOM     12  C   UNL     1      -4.990  37.642  24.188  1.00  0.00    -0.000 C 
BRANCH  12  13
ATOM     13  C   UNL     1      -4.757  39.040  23.598  1.00  0.00    -0.003 C 
ATOM     14  C   UNL     1      -5.354  39.152  22.198  1.00  0.00     0.004 C 
ENDBRANCH  12  13
ENDBRANCH  11  12
ENDBRANCH  10  11
ENDBRANCH   9  10
ENDBRANCH   1   9
TORSDOF 10
ENDMDL
MODEL 5
REMARK VINA RESULT:    -4.764      3.690      7.014
REMARK INTER + INTRA:          -8.057
REMARK INTER:                  -7.239
REMARK INTRA:                  -0.818
REMARK UNBOUND:                -0.508
REMARK SMILES CCCCCCCCCCCC(=O)[O-]
REMARK SMILES IDX 7 1 8 2 9 3 10 4 11 5 12 6 13 7 14 8 6 9 5 10 4 11 3 12 2 13
REMARK SMILES IDX 1 14
REMARK H PARENT
REMARK Flexibility Score: inf
ROOT
ATOM      1  C   UNL     1      -5.351  37.692  20.353  1.00  0.00     0.000 C 
ENDROOT
BRANCH   1   2
ATOM      2  C   UNL     1      -5.469  36.186  20.069  1.00  0.00     0.000 C 
BRANCH   2   3
ATOM      3  C   UNL     1      -4.166  35.587  19.512  1.00  0.00     0.000 C 
BRANCH   3   4
ATOM      4  C   UNL     1      -4.018  35.802  17.997  1.00  0.00     0.006 C 
BRANCH   4   5
ATOM      5  C   UNL     1      -3.044  36.937  17.656  1.00  0.00     0.053 C 
BRANCH   5   6
ATOM      6  C   UNL     1      -2.826  37.011  16.177  1.00  0.00     0.041 C 
ATOM      7  O   UNL     1      -3.540  37.769  15.469  1.00  0.00    -0.550 OA
ATOM      8  O   UNL     1      -1.804  36.279  15.587  1.00  0.00    -0.550 OA
ENDBRANCH   5   6
ENDBRANCH   4   5
ENDBRANCH   3   4
ENDBRANCH   2   3
ENDBRANCH   1   2
BRANCH   1   9
ATOM      9  C   UNL     1      -4.246  38.013  21.377  1.00  0.00     0.000 C 
BRANCH   9  10
ATOM     10  C   UNL     1      -4.720  38.976  22.477  1.00  0.00    -0.000 C 
BRANCH  10  11
ATOM     11  C   UNL     1      -4.954  38.266  23.821  1.00  0.00    -0.000 C 
BRANCH  11  12
ATOM     12  C   UNL     1      -5.962  37.111  23.711  1.00  0.00    -0.000 C 
BRANCH  12  13
ATOM     13  C   UNL     1      -5.469  35.827  24.395  1.00  0.00    -0.003 C 
ATOM     14  C   UNL     1      -5.586  34.627  23.460  1.00  0.00     0.004 C 
ENDBRANCH  12  13
ENDBRANCH  11  12
ENDBRANCH  10  11
ENDBRANCH   9  10
ENDBRANCH   1   9
TORSDOF 10
ENDMDL
MODEL 6
REMARK VINA RESULT:    -4.751      1.209      1.546
REMARK INTER + INTRA:          -8.037
REMARK INTER:                  -7.295
REMARK INTRA:                  -0.742
REMARK UNBOUND:                -0.508
REMARK SMILES CCCCCCCCCCCC(=O)[O-]
REMARK SMILES IDX 7 1 8 2 9 3 10 4 11 5 12 6 13 7 14 8 6 9 5 10 4 11 3 12 2 13
REMARK SMILES IDX 1 14
REMARK H PARENT
REMARK Flexibility Score: inf
ROOT
ATOM      1  C   UNL     1      -4.985  35.317  19.540  1.00  0.00     0.000 C 
ENDROOT
BRANCH   1   2
ATOM      2  C   UNL     1      -6.076  35.527  20.602  1.00  0.00     0.000 C 
BRANCH   2   3
ATOM      3  C   UNL     1      -5.572  35.246  22.029  1.00  0.00     0.000 C 
BRANCH   3   4
ATOM      4  C   UNL     1      -6.104  36.262  23.053  1.00  0.00     0.006 C 
BRANCH   4   5
ATOM      5  C   UNL     1      -4.996  37.156  23.625  1.00  0.00     0.053 C 
BRANCH   5   6
ATOM      6  C   UNL     1      -5.078  38.528  23.035  1.00  0.00     0.041 C 
ATOM      7  O   UNL     1      -4.886  39.541  23.758  1.00  0.00    -0.550 OA
ATOM      8  O   UNL     1      -5.317  38.688  21.676  1.00  0.00    -0.550 OA
ENDBRANCH   5   6
ENDBRANCH   4   5
ENDBRANCH   3   4
ENDBRANCH   2   3
ENDBRANCH   1   2
BRANCH   1   9
ATOM      9  C   UNL     1      -3.742  36.189  19.792  1.00  0.00     0.000 C 
BRANCH   9  10
ATOM     10  C   UNL     1      -3.573  37.298  18.742  1.00  0.00    -0.000 C 
BRANCH  10  11
ATOM     11  C   UNL     1      -2.121  37.430  18.250  1.00  0.00    -0.000 C 
BRANCH  11  12
ATOM     12  C   UNL     1      -1.903  36.782  16.874  1.00  0.00    -0.000 C 
BRANCH  12  13
ATOM     13  C   UNL     1      -3.220  36.431  16.168  1.00  0.00    -0.003 C 
ATOM     14  C   UNL     1      -3.062  36.486  14.651  1.00  0.00     0.004 C 
ENDBRANCH  12  13
ENDBRANCH  11  12
ENDBRANCH  10  11
ENDBRANCH   9  10
ENDBRANCH   1   9
TORSDOF 10
ENDMDL
MODEL 7
REMARK VINA RESULT:    -4.336      1.312      1.878
REMARK INTER + INTRA:          -7.378
REMARK INTER:                  -6.907
REMARK INTRA:                  -0.470
REMARK UNBOUND:                -0.508
REMARK SMILES CCCCCCCCCCCC(=O)[O-]
REMARK SMILES IDX 7 1 8 2 9 3 10 4 11 5 12 6 13 7 14 8 6 9 5 10 4 11 3 12 2 13
REMARK SMILES IDX 1 14
REMARK H PARENT
REMARK Flexibility Score: inf
ROOT
ATOM      1  C   UNL     1      -3.250  36.661  19.666  1.00  0.00     0.000 C 
ENDROOT
BRANCH   1   2
ATOM      2  C   UNL     1      -4.762  36.498  19.448  1.00  0.00     0.000 C 
BRANCH   2   3
ATOM      3  C   UNL     1      -5.482  35.958  20.696  1.00  0.00     0.000 C 
BRANCH   3   4
ATOM      4  C   UNL     1      -5.748  37.051  21.744  1.00  0.00     0.006 C 
BRANCH   4   5
ATOM      5  C   UNL     1      -4.895  36.875  23.007  1.00  0.00     0.053 C 
BRANCH   5   6
ATOM      6  C   UNL     1      -5.571  35.949  23.968  1.00  0.00     0.041 C 
ATOM      7  O   UNL     1      -5.603  34.712  23.739  1.00  0.00    -0.550 OA
ATOM      8  O   UNL     1      -6.125  36.447  25.141  1.00  0.00    -0.550 OA
ENDBRANCH   5   6
ENDBRANCH   4   5
ENDBRANCH   3   4
ENDBRANCH   2   3
ENDBRANCH   1   2
BRANCH   1   9
ATOM      9  C   UNL     1      -2.612  37.639  18.663  1.00  0.00     0.000 C 
BRANCH   9  10
ATOM     10  C   UNL     1      -1.598  36.955  17.732  1.00  0.00    -0.000 C 
BRANCH  10  11
ATOM     11  C   UNL     1      -2.270  36.258  16.537  1.00  0.00    -0.000 C 
BRANCH  11  12
ATOM     12  C   UNL     1      -3.444  37.067  15.966  1.00  0.00    -0.000 C 
BRANCH  12  13
ATOM     13  C   UNL     1      -3.515  37.008  14.433  1.00  0.00    -0.003 C 
ATOM     14  C   UNL     1      -4.339  38.166  13.876  1.00  0.00     0.004 C 
ENDBRANCH  12  13
ENDBRANCH  11  12
ENDBRANCH  10  11
ENDBRANCH   9  10
ENDBRANCH   1   9
TORSDOF 10
ENDMDL
