MODEL 1
REMARK VINA RESULT:    -5.143      0.000      0.000
REMARK INTER + INTRA:         -15.114
REMARK INTER:                 -11.757
REMARK INTRA:                  -3.357
REMARK UNBOUND:                -3.357
REMARK SMILES CCCCCCCCCCCCCCCCCCCCCCCC(=O)[O-]
REMARK SMILES IDX 13 1 14 2 15 3 16 4 17 5 18 6 19 7 20 8 21 9 22 10 23 11
REMARK SMILES IDX 24 12 25 13 26 14 12 15 11 16 10 17 9 18 8 19 7 20 6 21 5 22
REMARK SMILES IDX 4 23 3 24 2 25 1 26
REMARK H PARENT
REMARK Flexibility Score: inf
ROOT
ATOM      1  C   UNL     1     138.404 129.756 129.096  1.00  0.00     0.000 C 
ENDROOT
BRANCH   1   2
ATOM      2  C   UNL     1     138.982 130.424 130.353  1.00  0.00     0.000 C 
BRANCH   2   3
ATOM      3  C   UNL     1     137.881 131.130 131.153  1.00  0.00     0.000 C 
BRANCH   3   4
ATOM      4  C   UNL     1     138.243 132.602 131.410  1.00  0.00     0.000 C 
BRANCH   4   5
ATOM      5  C   UNL     1     139.638 132.971 130.880  1.00  0.00     0.000 C 
BRANCH   5   6
ATOM      6  C   UNL     1     140.361 133.986 131.778  1.00  0.00     0.000 C 
BRANCH   6   7
ATOM      7  C   UNL     1     140.575 135.317 131.045  1.00  0.00     0.000 C 
BRANCH   7   8
ATOM      8  C   UNL     1     140.072 135.231 129.597  1.00  0.00     0.000 C 
BRANCH   8   9
ATOM      9  C   UNL     1     138.684 135.867 129.404  1.00  0.00     0.000 C 
BRANCH   9  10
ATOM     10  C   UNL     1     138.167 136.676 130.606  1.00  0.00     0.006 C 
BRANCH  10  11
ATOM     11  C   UNL     1     138.061 138.180 130.315  1.00  0.00     0.053 C 
BRANCH  11  12
ATOM     12  C   UNL     1     136.630 138.622 130.300  1.00  0.00     0.041 C 
ATOM     13  O   UNL     1     136.342 139.849 130.304  1.00  0.00    -0.550 OA
ATOM     14  O   UNL     1     135.610 137.677 130.293  1.00  0.00    -0.550 OA
ENDBRANCH  11  12
ENDBRANCH  10  11
ENDBRANCH   9  10
ENDBRANCH   8   9
ENDBRANCH   7   8
ENDBRANCH   6   7
ENDBRANCH   5   6
ENDBRANCH   4   5
ENDBRANCH   3   4
ENDBRANCH   2   3
ENDBRANCH   1   2
BRANCH   1  15
ATOM     15  C   UNL     1     138.323 130.718 127.899  1.00  0.00     0.000 C 
BRANCH  15  16
ATOM     16  C   UNL     1     136.892 131.225 127.648  1.00  0.00     0.000 C 
BRANCH  16  17
ATOM     17  C   UNL     1     136.834 132.376 126.627  1.00  0.00     0.000 C 
BRANCH  17  18
ATOM     18  C   UNL     1     136.428 133.744 127.205  1.00  0.00    -0.000 C 
BRANCH  18  19
ATOM     19  C   UNL     1     136.282 133.735 128.736  1.00  0.00    -0.000 C 
BRANCH  19  20
ATOM     20  C   UNL     1     134.983 134.424 129.209  1.00  0.00    -0.000 C 
BRANCH  20  21
ATOM     21  C   UNL     1     133.954 133.459 129.833  1.00  0.00    -0.000 C 
BRANCH  21  22
ATOM     22  C   UNL     1     134.443 132.711 131.086  1.00  0.00    -0.000 C 
BRANCH  22  23
ATOM     23  C   UNL     1     133.605 131.459 131.404  1.00  0.00    -0.000 C 
BRANCH  23  24
ATOM     24  C   UNL     1     133.443 130.537 130.182  1.00  0.00    -0.000 C 
BRANCH  24  25
ATOM     25  C   UNL     1     134.751 129.863 129.723  1.00  0.00    -0.003 C 
ATOM     26  C   UNL     1     134.914 128.449 130.279  1.00  0.00     0.004 C 
ENDBRANCH  24  25
ENDBRANCH  23  24
ENDBRANCH  22  23
ENDBRANCH  21  22
ENDBRANCH  20  21
ENDBRANCH  19  20
ENDBRANCH  18  19
ENDBRANCH  17  18
ENDBRANCH  16  17
ENDBRANCH  15  16
ENDBRANCH   1  15
TORSDOF 22
ENDMDL
MODEL 2
REMARK VINA RESULT:    -5.123      0.943      2.081
REMARK INTER + INTRA:         -15.068
REMARK INTER:                 -11.216
REMARK INTRA:                  -3.852
REMARK UNBOUND:                -3.357
REMARK SMILES CCCCCCCCCCCCCCCCCCCCCCCC(=O)[O-]
REMARK SMILES IDX 13 1 14 2 15 3 16 4 17 5 18 6 19 7 20 8 21 9 22 10 23 11
REMARK SMILES IDX 24 12 25 13 26 14 12 15 11 16 10 17 9 18 8 19 7 20 6 21 5 22
REMARK SMILES IDX 4 23 3 24 2 25 1 26
REMARK H PARENT
REMARK Flexibility Score: inf
ROOT
ATOM      1  C   UNL     1     137.007 131.105 127.582  1.00  0.00     0.000 C 
ENDROOT
BRANCH   1   2
ATOM      2  C   UNL     1     138.445 130.880 128.073  1.00  0.00     0.000 C 
BRANCH   2   3
ATOM      3  C   UNL     1     138.467 129.952 129.294  1.00  0.00     0.000 C 
BRANCH   3   4
ATOM      4  C   UNL     1     139.016 130.682 130.531  1.00  0.00     0.000 C 
BRANCH   4   5
ATOM      5  C   UNL     1     139.617 132.055 130.192  1.00  0.00     0.000 C 
BRANCH   5   6
ATOM      6  C   UNL     1     139.576 133.027 131.380  1.00  0.00     0.000 C 
BRANCH   6   7
ATOM      7  C   UNL     1     140.360 134.309 131.072  1.00  0.00     0.000 C 
BRANCH   7   8
ATOM      8  C   UNL     1     139.918 134.912 129.731  1.00  0.00     0.000 C 
BRANCH   8   9
ATOM      9  C   UNL     1     139.387 136.350 129.863  1.00  0.00     0.000 C 
BRANCH   9  10
ATOM     10  C   UNL     1     137.935 136.463 130.362  1.00  0.00     0.006 C 
BRANCH  10  11
ATOM     11  C   UNL     1     137.597 137.858 130.908  1.00  0.00     0.053 C 
BRANCH  11  12
ATOM     12  C   UNL     1     136.312 138.362 130.328  1.00  0.00     0.041 C 
ATOM     13  O   UNL     1     136.202 139.567 129.973  1.00  0.00    -0.550 OA
ATOM     14  O   UNL     1     135.228 137.503 130.188  1.00  0.00    -0.550 OA
ENDBRANCH  11  12
ENDBRANCH  10  11
ENDBRANCH   9  10
ENDBRANCH   8   9
ENDBRANCH   7   8
ENDBRANCH   6   7
ENDBRANCH   5   6
ENDBRANCH   4   5
ENDBRANCH   3   4
ENDBRANCH   2   3
ENDBRANCH   1   2
BRANCH   1  15
ATOM     15  C   UNL     1     136.808 132.493 126.952  1.00  0.00     0.000 C 
BRANCH  15  16
ATOM     16  C   UNL     1     136.911 133.628 127.986  1.00  0.00     0.000 C 
BRANCH  16  17
ATOM     17  C   UNL     1     135.557 134.299 128.277  1.00  0.00     0.000 C 
BRANCH  17  18
ATOM     18  C   UNL     1     135.031 134.118 129.713  1.00  0.00    -0.000 C 
BRANCH  18  19
ATOM     19  C   UNL     1     136.018 133.373 130.629  1.00  0.00    -0.000 C 
BRANCH  19  20
ATOM     20  C   UNL     1     135.448 132.034 131.146  1.00  0.00    -0.000 C 
BRANCH  20  21
ATOM     21  C   UNL     1     134.004 131.750 130.685  1.00  0.00    -0.000 C 
BRANCH  21  22
ATOM     22  C   UNL     1     133.844 130.520 129.775  1.00  0.00    -0.000 C 
BRANCH  22  23
ATOM     23  C   UNL     1     135.091 129.616 129.759  1.00  0.00    -0.000 C 
BRANCH  23  24
ATOM     24  C   UNL     1     134.888 128.324 130.570  1.00  0.00    -0.000 C 
BRANCH  24  25
ATOM     25  C   UNL     1     135.960 127.246 130.318  1.00  0.00    -0.003 C 
ATOM     26  C   UNL     1     135.474 125.837 130.656  1.00  0.00     0.004 C 
ENDBRANCH  24  25
ENDBRANCH  23  24
ENDBRANCH  22  23
ENDBRANCH  21  22
ENDBRANCH  20  21
ENDBRANCH  19  20
ENDBRANCH  18  19
ENDBRANCH  17  18
ENDBRANCH  16  17
ENDBRANCH  15  16
ENDBRANCH   1  15
TORSDOF 22
ENDMDL
MODEL 3
REMARK VINA RESULT:    -5.105      3.048      7.166
REMARK INTER + INTRA:         -15.027
REMARK INTER:                 -10.938
REMARK INTRA:                  -4.089
REMARK UNBOUND:                -3.357
REMARK SMILES CCCCCCCCCCCCCCCCCCCCCCCC(=O)[O-]
REMARK SMILES IDX 13 1 14 2 15 3 16 4 17 5 18 6 19 7 20 8 21 9 22 10 23 11
REMARK SMILES IDX 24 12 25 13 26 14 12 15 11 16 10 17 9 18 8 19 7 20 6 21 5 22
REMARK SMILES IDX 4 23 3 24 2 25 1 26
REMARK H PARENT
REMARK Flexibility Score: inf
ROOT
ATOM      1  C   UNL     1     134.086 132.505 129.850  1.00  0.00     0.000 C 
ENDROOT
BRANCH   1   2
ATOM      2  C   UNL     1     133.999 134.037 129.939  1.00  0.00     0.000 C 
BRANCH   2   3
ATOM      3  C   UNL     1     135.099 134.697 129.100  1.00  0.00     0.000 C 
BRANCH   3   4
ATOM      4  C   UNL     1     136.192 133.684 128.726  1.00  0.00     0.000 C 
BRANCH   4   5
ATOM      5  C   UNL     1     136.334 133.498 127.207  1.00  0.00     0.000 C 
BRANCH   5   6
ATOM      6  C   UNL     1     137.020 132.174 126.836  1.00  0.00     0.000 C 
BRANCH   6   7
ATOM      7  C   UNL     1     136.983 131.186 128.009  1.00  0.00     0.000 C 
BRANCH   7   8
ATOM      8  C   UNL     1     138.366 130.560 128.239  1.00  0.00     0.000 C 
BRANCH   8   9
ATOM      9  C   UNL     1     138.502 129.894 129.620  1.00  0.00     0.000 C 
BRANCH   9  10
ATOM     10  C   UNL     1     137.174 129.470 130.271  1.00  0.00     0.006 C 
BRANCH  10  11
ATOM     11  C   UNL     1     136.967 127.948 130.272  1.00  0.00     0.053 C 
BRANCH  11  12
ATOM     12  C   UNL     1     135.511 127.607 130.361  1.00  0.00     0.041 C 
ATOM     13  O   UNL     1     134.636 128.489 130.149  1.00  0.00    -0.550 OA
ATOM     14  O   UNL     1     135.119 126.315 130.691  1.00  0.00    -0.550 OA
ENDBRANCH  11  12
ENDBRANCH  10  11
ENDBRANCH   9  10
ENDBRANCH   8   9
ENDBRANCH   7   8
ENDBRANCH   6   7
ENDBRANCH   5   6
ENDBRANCH   4   5
ENDBRANCH   3   4
ENDBRANCH   2   3
ENDBRANCH   1   2
BRANCH   1  15
ATOM     15  C   UNL     1     134.217 131.840 131.230  1.00  0.00     0.000 C 
BRANCH  15  16
ATOM     16  C   UNL     1     134.900 132.755 132.262  1.00  0.00     0.000 C 
BRANCH  16  17
ATOM     17  C   UNL     1     136.358 132.355 132.546  1.00  0.00     0.000 C 
BRANCH  17  18
ATOM     18  C   UNL     1     137.419 133.130 131.743  1.00  0.00    -0.000 C 
BRANCH  18  19
ATOM     19  C   UNL     1     138.797 132.446 131.744  1.00  0.00    -0.000 C 
BRANCH  19  20
ATOM     20  C   UNL     1     139.887 133.314 131.078  1.00  0.00    -0.000 C 
BRANCH  20  21
ATOM     21  C   UNL     1     139.592 133.669 129.606  1.00  0.00    -0.000 C 
BRANCH  21  22
ATOM     22  C   UNL     1     139.591 135.174 129.289  1.00  0.00    -0.000 C 
BRANCH  22  23
ATOM     23  C   UNL     1     140.020 136.042 130.487  1.00  0.00    -0.000 C 
BRANCH  23  24
ATOM     24  C   UNL     1     139.107 137.266 130.681  1.00  0.00    -0.000 C 
BRANCH  24  25
ATOM     25  C   UNL     1     137.601 136.940 130.647  1.00  0.00    -0.003 C 
ATOM     26  C   UNL     1     136.737 138.168 130.361  1.00  0.00     0.004 C 
ENDBRANCH  24  25
ENDBRANCH  23  24
ENDBRANCH  22  23
ENDBRANCH  21  22
ENDBRANCH  20  21
ENDBRANCH  19  20
ENDBRANCH  18  19
ENDBRANCH  17  18
ENDBRANCH  16  17
ENDBRANCH  15  16
ENDBRANCH   1  15
TORSDOF 22
ENDMDL
MODEL 4
REMARK VINA RESULT:    -5.087      1.071      2.807
REMARK INTER + INTRA:         -14.986
REMARK INTER:                 -10.733
REMARK INTRA:                  -4.253
REMARK UNBOUND:                -3.357
REMARK SMILES CCCCCCCCCCCCCCCCCCCCCCCC(=O)[O-]
REMARK SMILES IDX 13 1 14 2 15 3 16 4 17 5 18 6 19 7 20 8 21 9 22 10 23 11
REMARK SMILES IDX 24 12 25 13 26 14 12 15 11 16 10 17 9 18 8 19 7 20 6 21 5 22
REMARK SMILES IDX 4 23 3 24 2 25 1 26
REMARK H PARENT
REMARK Flexibility Score: inf
ROOT
ATOM      1  C   UNL     1     137.003 132.068 126.869  1.00  0.00     0.000 C 
ENDROOT
BRANCH   1   2
ATOM      2  C   UNL     1     136.364 133.431 127.174  1.00  0.00     0.000 C 
BRANCH   2   3
ATOM      3  C   UNL     1     136.840 133.967 128.530  1.00  0.00     0.000 C 
BRANCH   3   4
ATOM      4  C   UNL     1     138.216 134.641 128.405  1.00  0.00     0.000 C 
BRANCH   4   5
ATOM      5  C   UNL     1     139.283 133.979 129.292  1.00  0.00     0.000 C 
BRANCH   5   6
ATOM      6  C   UNL     1     140.388 134.957 129.715  1.00  0.00     0.000 C 
BRANCH   6   7
ATOM      7  C   UNL     1     140.356 135.205 131.229  1.00  0.00     0.000 C 
BRANCH   7   8
ATOM      8  C   UNL     1     139.566 136.479 131.559  1.00  0.00     0.000 C 
BRANCH   8   9
ATOM      9  C   UNL     1     139.469 137.451 130.369  1.00  0.00     0.000 C 
BRANCH   9  10
ATOM     10  C   UNL     1     138.105 138.146 130.208  1.00  0.00     0.006 C 
BRANCH  10  11
ATOM     11  C   UNL     1     136.924 137.237 130.577  1.00  0.00     0.053 C 
BRANCH  11  12
ATOM     12  C   UNL     1     135.625 137.850 130.150  1.00  0.00     0.041 C 
ATOM     13  O   UNL     1     134.581 137.147 130.083  1.00  0.00    -0.550 OA
ATOM     14  O   UNL     1     135.569 139.197 129.813  1.00  0.00    -0.550 OA
ENDBRANCH  11  12
ENDBRANCH  10  11
ENDBRANCH   9  10
ENDBRANCH   8   9
ENDBRANCH   7   8
ENDBRANCH   6   7
ENDBRANCH   5   6
ENDBRANCH   4   5
ENDBRANCH   3   4
ENDBRANCH   2   3
ENDBRANCH   1   2
BRANCH   1  15
ATOM     15  C   UNL     1     137.057 131.152 128.102  1.00  0.00     0.000 C 
BRANCH  15  16
ATOM     16  C   UNL     1     138.465 130.581 128.348  1.00  0.00     0.000 C 
BRANCH  16  17
ATOM     17  C   UNL     1     138.781 130.386 129.841  1.00  0.00     0.000 C 
BRANCH  17  18
ATOM     18  C   UNL     1     137.650 130.784 130.807  1.00  0.00    -0.000 C 
BRANCH  18  19
ATOM     19  C   UNL     1     138.051 131.909 131.777  1.00  0.00    -0.000 C 
BRANCH  19  20
ATOM     20  C   UNL     1     136.986 133.025 131.860  1.00  0.00    -0.000 C 
BRANCH  20  21
ATOM     21  C   UNL     1     135.835 132.719 132.840  1.00  0.00    -0.000 C 
BRANCH  21  22
ATOM     22  C   UNL     1     134.477 132.433 132.177  1.00  0.00    -0.000 C 
BRANCH  22  23
ATOM     23  C   UNL     1     134.365 133.019 130.757  1.00  0.00    -0.000 C 
BRANCH  23  24
ATOM     24  C   UNL     1     133.908 131.971 129.725  1.00  0.00    -0.000 C 
BRANCH  24  25
ATOM     25  C   UNL     1     133.516 130.613 130.338  1.00  0.00    -0.003 C 
ATOM     26  C   UNL     1     134.423 129.472 129.878  1.00  0.00     0.004 C 
ENDBRANCH  24  25
ENDBRANCH  23  24
ENDBRANCH  22  23
ENDBRANCH  21  22
ENDBRANCH  20  21
ENDBRANCH  19  20
ENDBRANCH  18  19
ENDBRANCH  17  18
ENDBRANCH  16  17
ENDBRANCH  15  16
ENDBRANCH   1  15
TORSDOF 22
ENDMDL
MODEL 5
REMARK VINA RESULT:    -5.034      0.931      3.073
REMARK INTER + INTRA:         -14.866
REMARK INTER:                 -11.201
REMARK INTRA:                  -3.664
REMARK UNBOUND:                -3.357
REMARK SMILES CCCCCCCCCCCCCCCCCCCCCCCC(=O)[O-]
REMARK SMILES IDX 13 1 14 2 15 3 16 4 17 5 18 6 19 7 20 8 21 9 22 10 23 11
REMARK SMILES IDX 24 12 25 13 26 14 12 15 11 16 10 17 9 18 8 19 7 20 6 21 5 22
REMARK SMILES IDX 4 23 3 24 2 25 1 26
REMARK H PARENT
REMARK Flexibility Score: inf
ROOT
ATOM      1  C   UNL     1     134.736 132.458 132.212  1.00  0.00     0.000 C 
ENDROOT
BRANCH   1   2
ATOM      2  C   UNL     1     136.157 132.597 132.777  1.00  0.00     0.000 C 
BRANCH   2   3
ATOM      3  C   UNL     1     137.178 132.796 131.650  1.00  0.00     0.000 C 
BRANCH   3   4
ATOM      4  C   UNL     1     138.562 132.269 132.059  1.00  0.00     0.000 C 
BRANCH   4   5
ATOM      5  C   UNL     1     139.708 132.961 131.302  1.00  0.00     0.000 C 
BRANCH   5   6
ATOM      6  C   UNL     1     139.253 133.561 129.964  1.00  0.00     0.000 C 
BRANCH   6   7
ATOM      7  C   UNL     1     139.951 134.899 129.693  1.00  0.00     0.000 C 
BRANCH   7   8
ATOM      8  C   UNL     1     140.410 135.552 131.005  1.00  0.00     0.000 C 
BRANCH   8   9
ATOM      9  C   UNL     1     139.619 136.825 131.352  1.00  0.00     0.000 C 
BRANCH   9  10
ATOM     10  C   UNL     1     138.168 136.849 130.840  1.00  0.00     0.006 C 
BRANCH  10  11
ATOM     11  C   UNL     1     137.868 138.062 129.948  1.00  0.00     0.053 C 
BRANCH  11  12
ATOM     12  C   UNL     1     136.486 138.583 130.201  1.00  0.00     0.041 C 
ATOM     13  O   UNL     1     136.287 139.820 130.339  1.00  0.00    -0.550 OA
ATOM     14  O   UNL     1     135.416 137.700 130.296  1.00  0.00    -0.550 OA
ENDBRANCH  11  12
ENDBRANCH  10  11
ENDBRANCH   9  10
ENDBRANCH   8   9
ENDBRANCH   7   8
ENDBRANCH   6   7
ENDBRANCH   5   6
ENDBRANCH   4   5
ENDBRANCH   3   4
ENDBRANCH   2   3
ENDBRANCH   1   2
BRANCH   1  15
ATOM     15  C   UNL     1     134.699 132.547 130.677  1.00  0.00     0.000 C 
BRANCH  15  16
ATOM     16  C   UNL     1     134.054 133.854 130.180  1.00  0.00     0.000 C 
BRANCH  16  17
ATOM     17  C   UNL     1     134.761 134.439 128.945  1.00  0.00     0.000 C 
BRANCH  17  18
ATOM     18  C   UNL     1     136.098 133.769 128.576  1.00  0.00    -0.000 C 
BRANCH  18  19
ATOM     19  C   UNL     1     136.226 133.459 127.075  1.00  0.00    -0.000 C 
BRANCH  19  20
ATOM     20  C   UNL     1     137.017 132.160 126.805  1.00  0.00    -0.000 C 
BRANCH  20  21
ATOM     21  C   UNL     1     137.083 131.206 128.015  1.00  0.00    -0.000 C 
BRANCH  21  22
ATOM     22  C   UNL     1     138.465 130.581 128.274  1.00  0.00    -0.000 C 
BRANCH  22  23
ATOM     23  C   UNL     1     138.485 129.649 129.500  1.00  0.00    -0.000 C 
BRANCH  23  24
ATOM     24  C   UNL     1     137.146 129.652 130.259  1.00  0.00    -0.000 C 
BRANCH  24  25
ATOM     25  C   UNL     1     136.424 128.291 130.267  1.00  0.00    -0.003 C 
ATOM     26  C   UNL     1     134.902 128.430 130.288  1.00  0.00     0.004 C 
ENDBRANCH  24  25
ENDBRANCH  23  24
ENDBRANCH  22  23
ENDBRANCH  21  22
ENDBRANCH  20  21
ENDBRANCH  19  20
ENDBRANCH  18  19
ENDBRANCH  17  18
ENDBRANCH  16  17
ENDBRANCH  15  16
ENDBRANCH   1  15
TORSDOF 22
ENDMDL
MODEL 6
REMARK VINA RESULT:    -5.015      3.789      7.567
REMARK INTER + INTRA:         -14.822
REMARK INTER:                 -11.042
REMARK INTRA:                  -3.780
REMARK UNBOUND:                -3.357
REMARK SMILES CCCCCCCCCCCCCCCCCCCCCCCC(=O)[O-]
REMARK SMILES IDX 13 1 14 2 15 3 16 4 17 5 18 6 19 7 20 8 21 9 22 10 23 11
REMARK SMILES IDX 24 12 25 13 26 14 12 15 11 16 10 17 9 18 8 19 7 20 6 21 5 22
REMARK SMILES IDX 4 23 3 24 2 25 1 26
REMARK H PARENT
REMARK Flexibility Score: inf
ROOT
ATOM      1  C   UNL     1     136.677 131.720 127.250  1.00  0.00     0.000 C 
ENDROOT
BRANCH   1   2
ATOM      2  C   UNL     1     136.942 133.219 127.050  1.00  0.00     0.000 C 
BRANCH   2   3
ATOM      3  C   UNL     1     137.095 133.932 128.399  1.00  0.00     0.000 C 
BRANCH   3   4
ATOM      4  C   UNL     1     135.750 134.009 129.139  1.00  0.00     0.000 C 
BRANCH   4   5
ATOM      5  C   UNL     1     135.888 133.751 130.648  1.00  0.00     0.000 C 
BRANCH   5   6
ATOM      6  C   UNL     1     134.891 132.701 131.161  1.00  0.00     0.000 C 
BRANCH   6   7
ATOM      7  C   UNL     1     134.047 132.134 130.012  1.00  0.00     0.000 C 
BRANCH   7   8
ATOM      8  C   UNL     1     133.773 130.638 130.223  1.00  0.00     0.000 C 
BRANCH   8   9
ATOM      9  C   UNL     1     134.999 129.755 129.930  1.00  0.00     0.000 C 
BRANCH   9  10
ATOM     10  C   UNL     1     134.728 128.240 129.950  1.00  0.00     0.006 C 
BRANCH  10  11
ATOM     11  C   UNL     1     135.888 127.433 130.551  1.00  0.00     0.053 C 
BRANCH  11  12
ATOM     12  C   UNL     1     135.553 125.973 130.602  1.00  0.00     0.041 C 
ATOM     13  O   UNL     1     134.359 125.589 130.476  1.00  0.00    -0.550 OA
ATOM     14  O   UNL     1     136.560 125.036 130.801  1.00  0.00    -0.550 OA
ENDBRANCH  11  12
ENDBRANCH  10  11
ENDBRANCH   9  10
ENDBRANCH   8   9
ENDBRANCH   7   8
ENDBRANCH   6   7
ENDBRANCH   5   6
ENDBRANCH   4   5
ENDBRANCH   3   4
ENDBRANCH   2   3
ENDBRANCH   1   2
BRANCH   1  15
ATOM     15  C   UNL     1     137.972 130.894 127.317  1.00  0.00     0.000 C 
BRANCH  15  16
ATOM     16  C   UNL     1     138.208 130.284 128.711  1.00  0.00     0.000 C 
BRANCH  16  17
ATOM     17  C   UNL     1     139.141 131.137 129.588  1.00  0.00     0.000 C 
BRANCH  17  18
ATOM     18  C   UNL     1     138.682 131.320 131.047  1.00  0.00    -0.000 C 
BRANCH  18  19
ATOM     19  C   UNL     1     138.983 132.722 131.604  1.00  0.00    -0.000 C 
BRANCH  19  20
ATOM     20  C   UNL     1     140.031 133.480 130.759  1.00  0.00    -0.000 C 
BRANCH  20  21
ATOM     21  C   UNL     1     140.131 134.984 131.089  1.00  0.00    -0.000 C 
BRANCH  21  22
ATOM     22  C   UNL     1     139.936 135.925 129.887  1.00  0.00    -0.000 C 
BRANCH  22  23
ATOM     23  C   UNL     1     139.178 137.216 130.251  1.00  0.00    -0.000 C 
BRANCH  23  24
ATOM     24  C   UNL     1     137.853 136.931 130.983  1.00  0.00    -0.000 C 
BRANCH  24  25
ATOM     25  C   UNL     1     136.614 137.544 130.303  1.00  0.00    -0.003 C 
ATOM     26  C   UNL     1     136.666 139.070 130.246  1.00  0.00     0.004 C 
ENDBRANCH  24  25
ENDBRANCH  23  24
ENDBRANCH  22  23
ENDBRANCH  21  22
ENDBRANCH  20  21
ENDBRANCH  19  20
ENDBRANCH  18  19
ENDBRANCH  17  18
ENDBRANCH  16  17
ENDBRANCH  15  16
ENDBRANCH   1  15
TORSDOF 22
ENDMDL
MODEL 7
REMARK VINA RESULT:    -4.956      3.106      7.060
REMARK INTER + INTRA:         -14.687
REMARK INTER:                 -11.523
REMARK INTRA:                  -3.165
REMARK UNBOUND:                -3.357
REMARK SMILES CCCCCCCCCCCCCCCCCCCCCCCC(=O)[O-]
REMARK SMILES IDX 13 1 14 2 15 3 16 4 17 5 18 6 19 7 20 8 21 9 22 10 23 11
REMARK SMILES IDX 24 12 25 13 26 14 12 15 11 16 10 17 9 18 8 19 7 20 6 21 5 22
REMARK SMILES IDX 4 23 3 24 2 25 1 26
REMARK H PARENT
REMARK Flexibility Score: inf
ROOT
ATOM      1  C   UNL     1     138.411 130.892 127.859  1.00  0.00     0.000 C 
ENDROOT
BRANCH   1   2
ATOM      2  C   UNL     1     136.958 131.339 127.641  1.00  0.00     0.000 C 
BRANCH   2   3
ATOM      3  C   UNL     1     136.896 132.573 126.733  1.00  0.00     0.000 C 
BRANCH   3   4
ATOM      4  C   UNL     1     136.537 133.833 127.537  1.00  0.00     0.000 C 
BRANCH   4   5
ATOM      5  C   UNL     1     135.992 133.508 128.937  1.00  0.00     0.000 C 
BRANCH   5   6
ATOM      6  C   UNL     1     134.543 133.981 129.131  1.00  0.00     0.000 C 
BRANCH   6   7
ATOM      7  C   UNL     1     133.991 133.525 130.487  1.00  0.00     0.000 C 
BRANCH   7   8
ATOM      8  C   UNL     1     134.637 132.202 130.924  1.00  0.00     0.000 C 
BRANCH   8   9
ATOM      9  C   UNL     1     133.954 130.967 130.309  1.00  0.00     0.000 C 
BRANCH   9  10
ATOM     10  C   UNL     1     134.916 129.868 129.824  1.00  0.00     0.006 C 
BRANCH  10  11
ATOM     11  C   UNL     1     134.341 128.454 129.991  1.00  0.00     0.053 C 
BRANCH  11  12
ATOM     12  C   UNL     1     135.398 127.498 130.450  1.00  0.00     0.041 C 
ATOM     13  O   UNL     1     136.579 127.896 130.640  1.00  0.00    -0.550 OA
ATOM     14  O   UNL     1     135.083 126.160 130.659  1.00  0.00    -0.550 OA
ENDBRANCH  11  12
ENDBRANCH  10  11
ENDBRANCH   9  10
ENDBRANCH   8   9
ENDBRANCH   7   8
ENDBRANCH   6   7
ENDBRANCH   5   6
ENDBRANCH   4   5
ENDBRANCH   3   4
ENDBRANCH   2   3
ENDBRANCH   1   2
BRANCH   1  15
ATOM     15  C   UNL     1     138.555 129.896 129.022  1.00  0.00     0.000 C 
BRANCH  15  16
ATOM     16  C   UNL     1     139.163 130.545 130.278  1.00  0.00     0.000 C 
BRANCH  16  17
ATOM     17  C   UNL     1     138.144 131.378 131.076  1.00  0.00     0.000 C 
BRANCH  17  18
ATOM     18  C   UNL     1     138.576 132.823 131.384  1.00  0.00    -0.000 C 
BRANCH  18  19
ATOM     19  C   UNL     1     139.639 133.357 130.408  1.00  0.00    -0.000 C 
BRANCH  19  20
ATOM     20  C   UNL     1     140.344 134.624 130.940  1.00  0.00    -0.000 C 
BRANCH  20  21
ATOM     21  C   UNL     1     140.032 135.900 130.131  1.00  0.00    -0.000 C 
BRANCH  21  22
ATOM     22  C   UNL     1     139.270 136.989 130.906  1.00  0.00    -0.000 C 
BRANCH  22  23
ATOM     23  C   UNL     1     137.786 137.085 130.506  1.00  0.00    -0.000 C 
BRANCH  23  24
ATOM     24  C   UNL     1     137.290 138.542 130.442  1.00  0.00    -0.000 C 
BRANCH  24  25
ATOM     25  C   UNL     1     135.828 138.689 129.978  1.00  0.00    -0.003 C 
ATOM     26  C   UNL     1     135.037 137.387 130.093  1.00  0.00     0.004 C 
ENDBRANCH  24  25
ENDBRANCH  23  24
ENDBRANCH  22  23
ENDBRANCH  21  22
ENDBRANCH  20  21
ENDBRANCH  19  20
ENDBRANCH  18  19
ENDBRANCH  17  18
ENDBRANCH  16  17
ENDBRANCH  15  16
ENDBRANCH   1  15
TORSDOF 22
ENDMDL
MODEL 8
REMARK VINA RESULT:    -4.909      2.825      6.618
REMARK INTER + INTRA:         -14.578
REMARK INTER:                 -11.358
REMARK INTRA:                  -3.220
REMARK UNBOUND:                -3.357
REMARK SMILES CCCCCCCCCCCCCCCCCCCCCCCC(=O)[O-]
REMARK SMILES IDX 13 1 14 2 15 3 16 4 17 5 18 6 19 7 20 8 21 9 22 10 23 11
REMARK SMILES IDX 24 12 25 13 26 14 12 15 11 16 10 17 9 18 8 19 7 20 6 21 5 22
REMARK SMILES IDX 4 23 3 24 2 25 1 26
REMARK H PARENT
REMARK Flexibility Score: inf
ROOT
ATOM      1  C   UNL     1     136.113 132.522 132.782  1.00  0.00     0.000 C 
ENDROOT
BRANCH   1   2
ATOM      2  C   UNL     1     134.693 132.756 132.244  1.00  0.00     0.000 C 
BRANCH   2   3
ATOM      3  C   UNL     1     134.297 131.656 131.252  1.00  0.00     0.000 C 
BRANCH   3   4
ATOM      4  C   UNL     1     134.183 132.215 129.824  1.00  0.00     0.000 C 
BRANCH   4   5
ATOM      5  C   UNL     1     133.980 133.738 129.799  1.00  0.00     0.000 C 
BRANCH   5   6
ATOM      6  C   UNL     1     134.945 134.446 128.836  1.00  0.00     0.000 C 
BRANCH   6   7
ATOM      7  C   UNL     1     136.229 133.628 128.641  1.00  0.00     0.000 C 
BRANCH   7   8
ATOM      8  C   UNL     1     136.594 133.531 127.153  1.00  0.00     0.000 C 
BRANCH   8   9
ATOM      9  C   UNL     1     136.972 132.104 126.718  1.00  0.00     0.000 C 
BRANCH   9  10
ATOM     10  C   UNL     1     136.924 131.050 127.838  1.00  0.00     0.006 C 
BRANCH  10  11
ATOM     11  C   UNL     1     138.318 130.582 128.280  1.00  0.00     0.053 C 
BRANCH  11  12
ATOM     12  C   UNL     1     138.255 129.891 129.607  1.00  0.00     0.041 C 
ATOM     13  O   UNL     1     139.312 129.516 130.182  1.00  0.00    -0.550 OA
ATOM     14  O   UNL     1     137.024 129.651 130.208  1.00  0.00    -0.550 OA
ENDBRANCH  11  12
ENDBRANCH  10  11
ENDBRANCH   9  10
ENDBRANCH   8   9
ENDBRANCH   7   8
ENDBRANCH   6   7
ENDBRANCH   5   6
ENDBRANCH   4   5
ENDBRANCH   3   4
ENDBRANCH   2   3
ENDBRANCH   1   2
BRANCH   1  15
ATOM     15  C   UNL     1     137.200 132.866 131.751  1.00  0.00     0.000 C 
BRANCH  15  16
ATOM     16  C   UNL     1     138.582 132.320 132.151  1.00  0.00     0.000 C 
BRANCH  16  17
ATOM     17  C   UNL     1     139.701 132.759 131.189  1.00  0.00     0.000 C 
BRANCH  17  18
ATOM     18  C   UNL     1     139.225 133.489 129.919  1.00  0.00    -0.000 C 
BRANCH  18  19
ATOM     19  C   UNL     1     140.111 134.689 129.544  1.00  0.00    -0.000 C 
BRANCH  19  20
ATOM     20  C   UNL     1     140.650 135.435 130.785  1.00  0.00    -0.000 C 
BRANCH  20  21
ATOM     21  C   UNL     1     139.682 136.497 131.346  1.00  0.00    -0.000 C 
BRANCH  21  22
ATOM     22  C   UNL     1     139.090 137.454 130.296  1.00  0.00    -0.000 C 
BRANCH  22  23
ATOM     23  C   UNL     1     137.555 137.554 130.371  1.00  0.00    -0.000 C 
BRANCH  23  24
ATOM     24  C   UNL     1     137.058 139.009 130.273  1.00  0.00    -0.000 C 
BRANCH  24  25
ATOM     25  C   UNL     1     135.577 139.142 129.870  1.00  0.00    -0.003 C 
ATOM     26  C   UNL     1     134.841 137.803 129.873  1.00  0.00     0.004 C 
ENDBRANCH  24  25
ENDBRANCH  23  24
ENDBRANCH  22  23
ENDBRANCH  21  22
ENDBRANCH  20  21
ENDBRANCH  19  20
ENDBRANCH  18  19
ENDBRANCH  17  18
ENDBRANCH  16  17
ENDBRANCH  15  16
ENDBRANCH   1  15
TORSDOF 22
ENDMDL
MODEL 9
REMARK VINA RESULT:    -4.892      2.830      6.127
REMARK INTER + INTRA:         -14.541
REMARK INTER:                 -11.515
REMARK INTRA:                  -3.026
REMARK UNBOUND:                -3.357
REMARK SMILES CCCCCCCCCCCCCCCCCCCCCCCC(=O)[O-]
REMARK SMILES IDX 13 1 14 2 15 3 16 4 17 5 18 6 19 7 20 8 21 9 22 10 23 11
REMARK SMILES IDX 24 12 25 13 26 14 12 15 11 16 10 17 9 18 8 19 7 20 6 21 5 22
REMARK SMILES IDX 4 23 3 24 2 25 1 26
REMARK H PARENT
REMARK Flexibility Score: inf
ROOT
ATOM      1  C   UNL     1     136.716 133.137 127.368  1.00  0.00     0.000 C 
ENDROOT
BRANCH   1   2
ATOM      2  C   UNL     1     136.607 131.691 127.875  1.00  0.00     0.000 C 
BRANCH   2   3
ATOM      3  C   UNL     1     137.871 130.894 127.530  1.00  0.00     0.000 C 
BRANCH   3   4
ATOM      4  C   UNL     1     138.546 130.351 128.800  1.00  0.00     0.000 C 
BRANCH   4   5
ATOM      5  C   UNL     1     137.769 130.701 130.080  1.00  0.00     0.000 C 
BRANCH   5   6
ATOM      6  C   UNL     1     138.572 131.602 131.030  1.00  0.00     0.000 C 
BRANCH   6   7
ATOM      7  C   UNL     1     137.723 132.031 132.233  1.00  0.00     0.000 C 
BRANCH   7   8
ATOM      8  C   UNL     1     136.509 132.854 131.779  1.00  0.00     0.000 C 
BRANCH   8   9
ATOM      9  C   UNL     1     135.199 132.421 132.461  1.00  0.00     0.000 C 
BRANCH   9  10
ATOM     10  C   UNL     1     133.957 132.437 131.553  1.00  0.00     0.006 C 
BRANCH  10  11
ATOM     11  C   UNL     1     134.199 131.759 130.196  1.00  0.00     0.053 C 
BRANCH  11  12
ATOM     12  C   UNL     1     133.782 130.321 130.236  1.00  0.00     0.041 C 
ATOM     13  O   UNL     1     132.627 130.002 130.627  1.00  0.00    -0.550 OA
ATOM     14  O   UNL     1     134.676 129.328 129.851  1.00  0.00    -0.550 OA
ENDBRANCH  11  12
ENDBRANCH  10  11
ENDBRANCH   9  10
ENDBRANCH   8   9
ENDBRANCH   7   8
ENDBRANCH   6   7
ENDBRANCH   5   6
ENDBRANCH   4   5
ENDBRANCH   3   4
ENDBRANCH   2   3
ENDBRANCH   1   2
BRANCH   1  15
ATOM     15  C   UNL     1     136.587 134.171 128.499  1.00  0.00     0.000 C 
BRANCH  15  16
ATOM     16  C   UNL     1     135.133 134.628 128.715  1.00  0.00     0.000 C 
BRANCH  16  17
ATOM     17  C   UNL     1     134.947 135.442 130.007  1.00  0.00     0.000 C 
BRANCH  17  18
ATOM     18  C   UNL     1     134.342 136.845 129.816  1.00  0.00    -0.000 C 
BRANCH  18  19
ATOM     19  C   UNL     1     135.377 137.975 129.957  1.00  0.00    -0.000 C 
BRANCH  19  20
ATOM     20  C   UNL     1     136.685 137.495 130.624  1.00  0.00    -0.000 C 
BRANCH  20  21
ATOM     21  C   UNL     1     137.911 138.374 130.301  1.00  0.00    -0.000 C 
BRANCH  21  22
ATOM     22  C   UNL     1     139.205 137.597 130.001  1.00  0.00    -0.000 C 
BRANCH  22  23
ATOM     23  C   UNL     1     139.538 136.545 131.076  1.00  0.00    -0.000 C 
BRANCH  23  24
ATOM     24  C   UNL     1     140.375 135.381 130.515  1.00  0.00    -0.000 C 
BRANCH  24  25
ATOM     25  C   UNL     1     140.561 134.209 131.499  1.00  0.00    -0.003 C 
ATOM     26  C   UNL     1     141.456 134.568 132.684  1.00  0.00     0.004 C 
ENDBRANCH  24  25
ENDBRANCH  23  24
ENDBRANCH  22  23
ENDBRANCH  21  22
ENDBRANCH  20  21
ENDBRANCH  19  20
ENDBRANCH  18  19
ENDBRANCH  17  18
ENDBRANCH  16  17
ENDBRANCH  15  16
ENDBRANCH   1  15
TORSDOF 22
ENDMDL
