MODEL 1
REMARK VINA RESULT:    19.892      0.000      0.000
REMARK INTER + INTRA:          24.317
REMARK INTER:                  23.962
REMARK INTRA:                   0.356
REMARK UNBOUND:                 0.356
REMARK SMILES O=c1c(O)c(-c2ccc(O)c(O)c2)oc2cc(O)cc(O)c12
REMARK SMILES IDX 5 1 3 2 2 3 1 4 22 5 20 6 19 7 17 8 16 9 15 10 14 11 6 12
REMARK SMILES IDX 7 13 8 14 9 15 13 16 11 17 10 18 12 20 4 22 21 24 18 26
REMARK H PARENT 10 19 12 21 4 23 21 25 18 27
REMARK Flexibility Score: inf
ROOT
ATOM      1  C   UNL     1       0.298 -16.381 -26.470  1.00  0.00     0.180 A 
ATOM      2  C   UNL     1      -0.951 -16.981 -26.240  1.00  0.00     0.208 A 
ATOM      3  C   UNL     1      -0.997 -18.324 -25.832  1.00  0.00     0.238 A 
ATOM      4  O   UNL     1      -2.116 -18.839 -25.575  1.00  0.00    -0.285 OA
ATOM      5  C   UNL     1       0.206 -19.053 -25.673  1.00  0.00     0.111 A 
ATOM      6  C   UNL     1       0.276 -20.429 -25.301  1.00  0.00     0.134 A 
ATOM      7  C   UNL     1       1.523 -21.014 -25.048  1.00  0.00     0.093 A 
ATOM      8  C   UNL     1       2.706 -20.289 -25.215  1.00  0.00     0.123 A 
ATOM      9  C   UNL     1       2.650 -18.962 -25.634  1.00  0.00     0.094 A 
ATOM     10  C   UNL     1       1.419 -18.341 -25.861  1.00  0.00     0.146 A 
ATOM     11  O   UNL     1       1.411 -17.072 -26.249  1.00  0.00    -0.452 OA
ENDROOT
BRANCH   1  12
ATOM     12  C   UNL     1       0.427 -14.978 -26.927  1.00  0.00     0.025 A 
ATOM     13  C   UNL     1       1.545 -14.547 -27.661  1.00  0.00     0.016 A 
ATOM     14  C   UNL     1       1.656 -13.213 -28.062  1.00  0.00     0.051 A 
ATOM     15  C   UNL     1       0.660 -12.287 -27.723  1.00  0.00     0.157 A 
ATOM     16  C   UNL     1      -0.559 -14.042 -26.573  1.00  0.00     0.062 A 
ATOM     17  C   UNL     1      -0.452 -12.706 -26.972  1.00  0.00     0.158 A 
BRANCH  15  18
ATOM     18  O   UNL     1       0.772 -10.958 -28.125  1.00  0.00    -0.504 OA
ATOM     19  H   UNL     1      -0.021 -10.447 -28.496  1.00  0.00     0.293 HD
ENDBRANCH  15  18
BRANCH  17  20
ATOM     20  O   UNL     1      -1.457 -11.808 -26.612  1.00  0.00    -0.504 OA
ATOM     21  H   UNL     1      -1.288 -10.812 -26.539  1.00  0.00     0.293 HD
ENDBRANCH  17  20
ENDBRANCH   1  12
BRANCH   2  22
ATOM     22  O   UNL     1      -2.125 -16.237 -26.382  1.00  0.00    -0.502 OA
ATOM     23  H   UNL     1      -2.786 -16.399 -27.133  1.00  0.00     0.293 HD
ENDBRANCH   2  22
BRANCH   6  24
ATOM     24  O   UNL     1      -0.838 -21.267 -25.197  1.00  0.00    -0.507 OA
ATOM     25  H   UNL     1      -1.795 -20.970 -25.317  1.00  0.00     0.293 HD
ENDBRANCH   6  24
BRANCH   8  26
ATOM     26  O   UNL     1       3.943 -20.883 -24.975  1.00  0.00    -0.508 OA
ATOM     27  H   UNL     1       4.423 -20.768 -24.089  1.00  0.00     0.293 HD
ENDBRANCH   8  26
TORSDOF 6
ENDMDL
