MODEL 1
REMARK VINA RESULT:    -4.296      0.000      0.000
REMARK INTER + INTRA:         -10.094
REMARK INTER:                  -8.315
REMARK INTRA:                  -1.779
REMARK UNBOUND:                -1.779
REMARK SMILES CCCCCCCCCCCCCCCCCC(=O)[O-]
REMARK SMILES IDX 10 1 11 2 12 3 13 4 14 5 15 6 16 7 17 8 18 9 19 10 20 11
REMARK SMILES IDX 9 12 8 13 7 14 6 15 5 16 4 17 3 18 2 19 1 20
REMARK H PARENT
REMARK Flexibility Score: inf
ROOT
ATOM      1  C   UNL     1      98.702 -68.655   3.662  1.00  0.00     0.000 C 
ENDROOT
BRANCH   1   2
ATOM      2  C   UNL     1      97.652 -67.559   3.909  1.00  0.00     0.000 C 
BRANCH   2   3
ATOM      3  C   UNL     1      98.265 -66.149   3.922  1.00  0.00     0.000 C 
BRANCH   3   4
ATOM      4  C   UNL     1      98.109 -65.422   2.574  1.00  0.00     0.000 C 
BRANCH   4   5
ATOM      5  C   UNL     1      99.453 -64.936   2.009  1.00  0.00     0.000 C 
BRANCH   5   6
ATOM      6  C   UNL     1      99.866 -65.695   0.736  1.00  0.00     0.000 C 
BRANCH   6   7
ATOM      7  C   UNL     1      98.946 -66.888   0.435  1.00  0.00     0.006 C 
BRANCH   7   8
ATOM      8  C   UNL     1      99.727 -68.162   0.091  1.00  0.00     0.053 C 
BRANCH   8   9
ATOM      9  C   UNL     1      98.791 -69.244  -0.348  1.00  0.00     0.041 C 
ATOM     10  O   UNL     1      98.276 -69.210  -1.496  1.00  0.00    -0.550 OA
ATOM     11  O   UNL     1      98.526 -70.317   0.494  1.00  0.00    -0.550 OA
ENDBRANCH   8   9
ENDBRANCH   7   8
ENDBRANCH   6   7
ENDBRANCH   5   6
ENDBRANCH   4   5
ENDBRANCH   3   4
ENDBRANCH   2   3
ENDBRANCH   1   2
BRANCH   1  12
ATOM     12  C   UNL     1      99.993 -68.433   4.467  1.00  0.00     0.000 C 
BRANCH  12  13
ATOM     13  C   UNL     1     100.260 -69.558   5.483  1.00  0.00    -0.000 C 
BRANCH  13  14
ATOM     14  C   UNL     1     100.669 -69.018   6.863  1.00  0.00    -0.000 C 
BRANCH  14  15
ATOM     15  C   UNL     1     101.504 -67.729   6.766  1.00  0.00    -0.000 C 
BRANCH  15  16
ATOM     16  C   UNL     1     100.915 -66.579   7.599  1.00  0.00    -0.000 C 
BRANCH  16  17
ATOM     17  C   UNL     1     101.390 -66.599   9.060  1.00  0.00    -0.000 C 
BRANCH  17  18
ATOM     18  C   UNL     1     100.225 -66.310  10.019  1.00  0.00    -0.000 C 
BRANCH  18  19
ATOM     19  C   UNL     1     100.075 -67.383  11.108  1.00  0.00    -0.003 C 
ATOM     20  C   UNL     1     100.545 -68.763  10.648  1.00  0.00     0.004 C 
ENDBRANCH  18  19
ENDBRANCH  17  18
ENDBRANCH  16  17
ENDBRANCH  15  16
ENDBRANCH  14  15
ENDBRANCH  13  14
ENDBRANCH  12  13
ENDBRANCH   1  12
TORSDOF 16
ENDMDL
MODEL 2
REMARK VINA RESULT:    -4.252      0.949      1.597
REMARK INTER + INTRA:         -10.008
REMARK INTER:                  -7.469
REMARK INTRA:                  -2.539
REMARK UNBOUND:                -1.779
REMARK SMILES CCCCCCCCCCCCCCCCCC(=O)[O-]
REMARK SMILES IDX 10 1 11 2 12 3 13 4 14 5 15 6 16 7 17 8 18 9 19 10 20 11
REMARK SMILES IDX 9 12 8 13 7 14 6 15 5 16 4 17 3 18 2 19 1 20
REMARK H PARENT
REMARK Flexibility Score: inf
ROOT
ATOM      1  C   UNL     1      97.689 -67.582   4.208  1.00  0.00     0.000 C 
ENDROOT
BRANCH   1   2
ATOM      2  C   UNL     1      97.999 -66.210   3.585  1.00  0.00     0.000 C 
BRANCH   2   3
ATOM      3  C   UNL     1      99.120 -65.467   4.331  1.00  0.00     0.000 C 
BRANCH   3   4
ATOM      4  C   UNL     1     100.437 -65.427   3.534  1.00  0.00     0.000 C 
BRANCH   4   5
ATOM      5  C   UNL     1     100.213 -65.570   2.020  1.00  0.00     0.000 C 
BRANCH   5   6
ATOM      6  C   UNL     1     101.247 -66.496   1.355  1.00  0.00     0.000 C 
BRANCH   6   7
ATOM      7  C   UNL     1     100.648 -67.848   0.941  1.00  0.00     0.006 C 
BRANCH   7   8
ATOM      8  C   UNL     1      99.292 -67.702   0.239  1.00  0.00     0.053 C 
BRANCH   8   9
ATOM      9  C   UNL     1      98.845 -69.019  -0.311  1.00  0.00     0.041 C 
ATOM     10  O   UNL     1      98.800 -70.035   0.432  1.00  0.00    -0.550 OA
ATOM     11  O   UNL     1      98.433 -69.116  -1.635  1.00  0.00    -0.550 OA
ENDBRANCH   8   9
ENDBRANCH   7   8
ENDBRANCH   6   7
ENDBRANCH   5   6
ENDBRANCH   4   5
ENDBRANCH   3   4
ENDBRANCH   2   3
ENDBRANCH   1   2
BRANCH   1  12
ATOM     12  C   UNL     1      98.702 -68.663   3.796  1.00  0.00     0.000 C 
BRANCH  12  13
ATOM     13  C   UNL     1      99.603 -69.108   4.962  1.00  0.00    -0.000 C 
BRANCH  13  14
ATOM     14  C   UNL     1     101.099 -68.953   4.641  1.00  0.00    -0.000 C 
BRANCH  14  15
ATOM     15  C   UNL     1     101.847 -68.138   5.711  1.00  0.00    -0.000 C 
BRANCH  15  16
ATOM     16  C   UNL     1     101.119 -68.129   7.065  1.00  0.00    -0.000 C 
BRANCH  16  17
ATOM     17  C   UNL     1     100.861 -66.710   7.593  1.00  0.00    -0.000 C 
BRANCH  17  18
ATOM     18  C   UNL     1     100.754 -66.706   9.125  1.00  0.00    -0.000 C 
BRANCH  18  19
ATOM     19  C   UNL     1     100.927 -68.106   9.734  1.00  0.00    -0.003 C 
ATOM     20  C   UNL     1     100.168 -68.276  11.050  1.00  0.00     0.004 C 
ENDBRANCH  18  19
ENDBRANCH  17  18
ENDBRANCH  16  17
ENDBRANCH  15  16
ENDBRANCH  14  15
ENDBRANCH  13  14
ENDBRANCH  12  13
ENDBRANCH   1  12
TORSDOF 16
ENDMDL
MODEL 3
REMARK VINA RESULT:    -3.982      1.967      2.498
REMARK INTER + INTRA:          -9.485
REMARK INTER:                  -8.227
REMARK INTRA:                  -1.258
REMARK UNBOUND:                -1.779
REMARK SMILES CCCCCCCCCCCCCCCCCC(=O)[O-]
REMARK SMILES IDX 10 1 11 2 12 3 13 4 14 5 15 6 16 7 17 8 18 9 19 10 20 11
REMARK SMILES IDX 9 12 8 13 7 14 6 15 5 16 4 17 3 18 2 19 1 20
REMARK H PARENT
REMARK Flexibility Score: inf
ROOT
ATOM      1  C   UNL     1      99.412 -68.667   4.209  1.00  0.00     0.000 C 
ENDROOT
BRANCH   1   2
ATOM      2  C   UNL     1     100.596 -68.029   3.463  1.00  0.00     0.000 C 
BRANCH   2   3
ATOM      3  C   UNL     1     100.200 -67.503   2.074  1.00  0.00     0.000 C 
BRANCH   3   4
ATOM      4  C   UNL     1      98.947 -68.198   1.511  1.00  0.00     0.000 C 
BRANCH   4   5
ATOM      5  C   UNL     1      99.182 -68.791   0.113  1.00  0.00     0.000 C 
BRANCH   5   6
ATOM      6  C   UNL     1     100.402 -68.172  -0.593  1.00  0.00     0.000 C 
BRANCH   6   7
ATOM      7  C   UNL     1     100.017 -67.388  -1.857  1.00  0.00     0.006 C 
BRANCH   7   8
ATOM      8  C   UNL     1      98.830 -68.015  -2.600  1.00  0.00     0.053 C 
BRANCH   8   9
ATOM      9  C   UNL     1      97.699 -67.039  -2.691  1.00  0.00     0.041 C 
ATOM     10  O   UNL     1      96.862 -67.123  -3.628  1.00  0.00    -0.550 OA
ATOM     11  O   UNL     1      97.541 -66.065  -1.713  1.00  0.00    -0.550 OA
ENDBRANCH   8   9
ENDBRANCH   7   8
ENDBRANCH   6   7
ENDBRANCH   5   6
ENDBRANCH   4   5
ENDBRANCH   3   4
ENDBRANCH   2   3
ENDBRANCH   1   2
BRANCH   1  12
ATOM     12  C   UNL     1      99.856 -69.520   5.409  1.00  0.00     0.000 C 
BRANCH  12  13
ATOM     13  C   UNL     1     101.373 -69.782   5.421  1.00  0.00    -0.000 C 
BRANCH  13  14
ATOM     14  C   UNL     1     102.061 -69.195   6.665  1.00  0.00    -0.000 C 
BRANCH  14  15
ATOM     15  C   UNL     1     101.060 -68.539   7.634  1.00  0.00    -0.000 C 
BRANCH  15  16
ATOM     16  C   UNL     1     101.205 -67.010   7.689  1.00  0.00    -0.000 C 
BRANCH  16  17
ATOM     17  C   UNL     1     101.527 -66.492   9.099  1.00  0.00    -0.000 C 
BRANCH  17  18
ATOM     18  C   UNL     1     100.250 -66.032   9.819  1.00  0.00    -0.000 C 
BRANCH  18  19
ATOM     19  C   UNL     1     100.065 -66.708  11.186  1.00  0.00    -0.003 C 
ATOM     20  C   UNL     1     100.173 -68.231  11.112  1.00  0.00     0.004 C 
ENDBRANCH  18  19
ENDBRANCH  17  18
ENDBRANCH  16  17
ENDBRANCH  15  16
ENDBRANCH  14  15
ENDBRANCH  13  14
ENDBRANCH  12  13
ENDBRANCH   1  12
TORSDOF 16
ENDMDL
MODEL 4
REMARK VINA RESULT:    -3.918      3.789      7.719
REMARK INTER + INTRA:          -9.362
REMARK INTER:                  -6.739
REMARK INTRA:                  -2.623
REMARK UNBOUND:                -1.779
REMARK SMILES CCCCCCCCCCCCCCCCCC(=O)[O-]
REMARK SMILES IDX 10 1 11 2 12 3 13 4 14 5 15 6 16 7 17 8 18 9 19 10 20 11
REMARK SMILES IDX 9 12 8 13 7 14 6 15 5 16 4 17 3 18 2 19 1 20
REMARK H PARENT
REMARK Flexibility Score: inf
ROOT
ATOM      1  C   UNL     1      97.678 -67.572   3.961  1.00  0.00     0.000 C 
ENDROOT
BRANCH   1   2
ATOM      2  C   UNL     1      98.776 -68.627   3.738  1.00  0.00     0.000 C 
BRANCH   2   3
ATOM      3  C   UNL     1      99.499 -69.008   5.040  1.00  0.00     0.000 C 
BRANCH   3   4
ATOM      4  C   UNL     1     101.020 -69.157   4.851  1.00  0.00     0.000 C 
BRANCH   4   5
ATOM      5  C   UNL     1     101.820 -68.234   5.783  1.00  0.00     0.000 C 
BRANCH   5   6
ATOM      6  C   UNL     1     100.917 -67.435   6.740  1.00  0.00     0.000 C 
BRANCH   6   7
ATOM      7  C   UNL     1     101.457 -67.411   8.178  1.00  0.00     0.006 C 
BRANCH   7   8
ATOM      8  C   UNL     1     101.106 -68.683   8.960  1.00  0.00     0.053 C 
BRANCH   8   9
ATOM      9  C   UNL     1     100.460 -68.332  10.263  1.00  0.00     0.041 C 
ATOM     10  O   UNL     1     100.327 -69.205  11.161  1.00  0.00    -0.550 OA
ATOM     11  O   UNL     1     100.047 -67.028  10.505  1.00  0.00    -0.550 OA
ENDBRANCH   8   9
ENDBRANCH   7   8
ENDBRANCH   6   7
ENDBRANCH   5   6
ENDBRANCH   4   5
ENDBRANCH   3   4
ENDBRANCH   2   3
ENDBRANCH   1   2
BRANCH   1  12
ATOM     12  C   UNL     1      98.034 -66.207   3.351  1.00  0.00     0.000 C 
BRANCH  12  13
ATOM     13  C   UNL     1      98.926 -65.358   4.275  1.00  0.00    -0.000 C 
BRANCH  13  14
ATOM     14  C   UNL     1     100.383 -65.292   3.787  1.00  0.00    -0.000 C 
BRANCH  14  15
ATOM     15  C   UNL     1     100.514 -65.607   2.286  1.00  0.00    -0.000 C 
BRANCH  15  16
ATOM     16  C   UNL     1     101.340 -66.875   2.018  1.00  0.00    -0.000 C 
BRANCH  16  17
ATOM     17  C   UNL     1     101.082 -67.471   0.625  1.00  0.00    -0.000 C 
BRANCH  17  18
ATOM     18  C   UNL     1      99.650 -67.169   0.157  1.00  0.00    -0.000 C 
BRANCH  18  19
ATOM     19  C   UNL     1      99.045 -68.311  -0.673  1.00  0.00    -0.003 C 
ATOM     20  C   UNL     1      98.704 -69.539   0.171  1.00  0.00     0.004 C 
ENDBRANCH  18  19
ENDBRANCH  17  18
ENDBRANCH  16  17
ENDBRANCH  15  16
ENDBRANCH  14  15
ENDBRANCH  13  14
ENDBRANCH  12  13
ENDBRANCH   1  12
TORSDOF 16
ENDMDL
MODEL 5
REMARK VINA RESULT:    -3.859      3.687      8.274
REMARK INTER + INTRA:          -9.248
REMARK INTER:                  -7.001
REMARK INTRA:                  -2.247
REMARK UNBOUND:                -1.779
REMARK SMILES CCCCCCCCCCCCCCCCCC(=O)[O-]
REMARK SMILES IDX 10 1 11 2 12 3 13 4 14 5 15 6 16 7 17 8 18 9 19 10 20 11
REMARK SMILES IDX 9 12 8 13 7 14 6 15 5 16 4 17 3 18 2 19 1 20
REMARK H PARENT
REMARK Flexibility Score: inf
ROOT
ATOM      1  C   UNL     1      97.780 -67.547   3.713  1.00  0.00     0.000 C 
ENDROOT
BRANCH   1   2
ATOM      2  C   UNL     1      98.653 -68.814   3.723  1.00  0.00     0.000 C 
BRANCH   2   3
ATOM      3  C   UNL     1      99.488 -68.942   5.007  1.00  0.00     0.000 C 
BRANCH   3   4
ATOM      4  C   UNL     1     101.003 -68.947   4.731  1.00  0.00     0.000 C 
BRANCH   4   5
ATOM      5  C   UNL     1     101.712 -67.715   5.315  1.00  0.00     0.000 C 
BRANCH   5   6
ATOM      6  C   UNL     1     100.985 -67.147   6.548  1.00  0.00     0.000 C 
BRANCH   6   7
ATOM      7  C   UNL     1     101.691 -67.504   7.865  1.00  0.00     0.006 C 
BRANCH   7   8
ATOM      8  C   UNL     1     100.989 -68.638   8.622  1.00  0.00     0.053 C 
BRANCH   8   9
ATOM      9  C   UNL     1     100.439 -68.137   9.920  1.00  0.00     0.041 C 
ATOM     10  O   UNL     1     100.174 -66.915  10.067  1.00  0.00    -0.550 OA
ATOM     11  O   UNL     1     100.174 -69.028  10.953  1.00  0.00    -0.550 OA
ENDBRANCH   8   9
ENDBRANCH   7   8
ENDBRANCH   6   7
ENDBRANCH   5   6
ENDBRANCH   4   5
ENDBRANCH   3   4
ENDBRANCH   2   3
ENDBRANCH   1   2
BRANCH   1  12
ATOM     12  C   UNL     1      98.610 -66.254   3.779  1.00  0.00     0.000 C 
BRANCH  12  13
ATOM     13  C   UNL     1      99.099 -65.792   2.395  1.00  0.00    -0.000 C 
BRANCH  13  14
ATOM     14  C   UNL     1     100.593 -66.079   2.173  1.00  0.00    -0.000 C 
BRANCH  14  15
ATOM     15  C   UNL     1     100.828 -67.258   1.211  1.00  0.00    -0.000 C 
BRANCH  15  16
ATOM     16  C   UNL     1      99.705 -67.404   0.171  1.00  0.00    -0.000 C 
BRANCH  16  17
ATOM     17  C   UNL     1      99.137 -68.831   0.107  1.00  0.00    -0.000 C 
BRANCH  17  18
ATOM     18  C   UNL     1      98.376 -69.058  -1.208  1.00  0.00    -0.000 C 
BRANCH  18  19
ATOM     19  C   UNL     1      99.022 -68.334  -2.399  1.00  0.00    -0.003 C 
ATOM     20  C   UNL     1      98.009 -67.557  -3.240  1.00  0.00     0.004 C 
ENDBRANCH  18  19
ENDBRANCH  17  18
ENDBRANCH  16  17
ENDBRANCH  15  16
ENDBRANCH  14  15
ENDBRANCH  13  14
ENDBRANCH  12  13
ENDBRANCH   1  12
TORSDOF 16
ENDMDL
MODEL 6
REMARK VINA RESULT:    -3.806      2.095      2.833
REMARK INTER + INTRA:          -9.145
REMARK INTER:                  -8.156
REMARK INTRA:                  -0.989
REMARK UNBOUND:                -1.779
REMARK SMILES CCCCCCCCCCCCCCCCCC(=O)[O-]
REMARK SMILES IDX 10 1 11 2 12 3 13 4 14 5 15 6 16 7 17 8 18 9 19 10 20 11
REMARK SMILES IDX 9 12 8 13 7 14 6 15 5 16 4 17 3 18 2 19 1 20
REMARK H PARENT
REMARK Flexibility Score: inf
ROOT
ATOM      1  C   UNL     1      98.703 -68.606   3.164  1.00  0.00     0.000 C 
ENDROOT
BRANCH   1   2
ATOM      2  C   UNL     1      99.326 -67.816   2.000  1.00  0.00     0.000 C 
BRANCH   2   3
ATOM      3  C   UNL     1     100.862 -67.880   2.003  1.00  0.00     0.000 C 
BRANCH   3   4
ATOM      4  C   UNL     1     101.478 -67.397   0.677  1.00  0.00     0.000 C 
BRANCH   4   5
ATOM      5  C   UNL     1     100.799 -68.025  -0.550  1.00  0.00     0.000 C 
BRANCH   5   6
ATOM      6  C   UNL     1     101.265 -67.389  -1.872  1.00  0.00     0.000 C 
BRANCH   6   7
ATOM      7  C   UNL     1     100.201 -67.476  -2.977  1.00  0.00     0.006 C 
BRANCH   7   8
ATOM      8  C   UNL     1      98.883 -68.083  -2.478  1.00  0.00     0.053 C 
BRANCH   8   9
ATOM      9  C   UNL     1      97.774 -67.086  -2.592  1.00  0.00     0.041 C 
ATOM     10  O   UNL     1      96.927 -67.181  -3.519  1.00  0.00    -0.550 OA
ATOM     11  O   UNL     1      97.647 -66.077  -1.644  1.00  0.00    -0.550 OA
ENDBRANCH   8   9
ENDBRANCH   7   8
ENDBRANCH   6   7
ENDBRANCH   5   6
ENDBRANCH   4   5
ENDBRANCH   3   4
ENDBRANCH   2   3
ENDBRANCH   1   2
BRANCH   1  12
ATOM     12  C   UNL     1      99.288 -68.211   4.530  1.00  0.00     0.000 C 
BRANCH  12  13
ATOM     13  C   UNL     1      99.810 -69.423   5.324  1.00  0.00    -0.000 C 
BRANCH  13  14
ATOM     14  C   UNL     1     101.346 -69.499   5.339  1.00  0.00    -0.000 C 
BRANCH  14  15
ATOM     15  C   UNL     1     101.932 -69.247   6.740  1.00  0.00    -0.000 C 
BRANCH  15  16
ATOM     16  C   UNL     1     100.878 -68.751   7.742  1.00  0.00    -0.000 C 
BRANCH  16  17
ATOM     17  C   UNL     1     101.479 -68.391   9.110  1.00  0.00    -0.000 C 
BRANCH  17  18
ATOM     18  C   UNL     1     100.557 -68.846  10.251  1.00  0.00    -0.000 C 
BRANCH  18  19
ATOM     19  C   UNL     1     100.516 -67.843  11.414  1.00  0.00    -0.003 C 
ATOM     20  C   UNL     1      99.951 -66.483  11.003  1.00  0.00     0.004 C 
ENDBRANCH  18  19
ENDBRANCH  17  18
ENDBRANCH  16  17
ENDBRANCH  15  16
ENDBRANCH  14  15
ENDBRANCH  13  14
ENDBRANCH  12  13
ENDBRANCH   1  12
TORSDOF 16
ENDMDL
MODEL 7
REMARK VINA RESULT:    -3.527      2.377      3.640
REMARK INTER + INTRA:          -8.605
REMARK INTER:                  -6.114
REMARK INTRA:                  -2.491
REMARK UNBOUND:                -1.779
REMARK SMILES CCCCCCCCCCCCCCCCCC(=O)[O-]
REMARK SMILES IDX 10 1 11 2 12 3 13 4 14 5 15 6 16 7 17 8 18 9 19 10 20 11
REMARK SMILES IDX 9 12 8 13 7 14 6 15 5 16 4 17 3 18 2 19 1 20
REMARK H PARENT
REMARK Flexibility Score: inf
ROOT
ATOM      1  C   UNL     1      97.787 -67.478   3.826  1.00  0.00     0.000 C 
ENDROOT
BRANCH   1   2
ATOM      2  C   UNL     1      98.435 -68.434   2.809  1.00  0.00     0.000 C 
BRANCH   2   3
ATOM      3  C   UNL     1      99.910 -68.095   2.541  1.00  0.00     0.000 C 
BRANCH   3   4
ATOM      4  C   UNL     1     100.225 -67.966   1.039  1.00  0.00     0.000 C 
BRANCH   4   5
ATOM      5  C   UNL     1     100.051 -66.529   0.524  1.00  0.00     0.000 C 
BRANCH   5   6
ATOM      6  C   UNL     1      98.726 -66.332  -0.235  1.00  0.00     0.000 C 
BRANCH   6   7
ATOM      7  C   UNL     1      98.525 -67.369  -1.350  1.00  0.00     0.006 C 
BRANCH   7   8
ATOM      8  C   UNL     1      99.161 -66.938  -2.678  1.00  0.00     0.053 C 
BRANCH   8   9
ATOM      9  C   UNL     1      98.173 -67.065  -3.795  1.00  0.00     0.041 C 
ATOM     10  O   UNL     1      98.571 -67.204  -4.981  1.00  0.00    -0.550 OA
ATOM     11  O   UNL     1      96.811 -67.078  -3.519  1.00  0.00    -0.550 OA
ENDBRANCH   8   9
ENDBRANCH   7   8
ENDBRANCH   6   7
ENDBRANCH   5   6
ENDBRANCH   4   5
ENDBRANCH   3   4
ENDBRANCH   2   3
ENDBRANCH   1   2
BRANCH   1  12
ATOM     12  C   UNL     1      97.248 -66.194   3.174  1.00  0.00     0.000 C 
BRANCH  12  13
ATOM     13  C   UNL     1      98.194 -64.993   3.356  1.00  0.00    -0.000 C 
BRANCH  13  14
ATOM     14  C   UNL     1      99.037 -65.098   4.638  1.00  0.00    -0.000 C 
BRANCH  14  15
ATOM     15  C   UNL     1     100.537 -64.878   4.374  1.00  0.00    -0.000 C 
BRANCH  15  16
ATOM     16  C   UNL     1     101.416 -65.960   5.022  1.00  0.00    -0.000 C 
BRANCH  16  17
ATOM     17  C   UNL     1     100.661 -66.790   6.072  1.00  0.00    -0.000 C 
BRANCH  17  18
ATOM     18  C   UNL     1     101.638 -67.610   6.928  1.00  0.00    -0.000 C 
BRANCH  18  19
ATOM     19  C   UNL     1     101.230 -69.087   7.040  1.00  0.00    -0.003 C 
ATOM     20  C   UNL     1     100.204 -69.499   5.984  1.00  0.00     0.004 C 
ENDBRANCH  18  19
ENDBRANCH  17  18
ENDBRANCH  16  17
ENDBRANCH  15  16
ENDBRANCH  14  15
ENDBRANCH  13  14
ENDBRANCH  12  13
ENDBRANCH   1  12
TORSDOF 16
ENDMDL
MODEL 8
REMARK VINA RESULT:    -3.516      4.065      9.101
REMARK INTER + INTRA:          -8.583
REMARK INTER:                  -7.370
REMARK INTRA:                  -1.213
REMARK UNBOUND:                -1.779
REMARK SMILES CCCCCCCCCCCCCCCCCC(=O)[O-]
REMARK SMILES IDX 10 1 11 2 12 3 13 4 14 5 15 6 16 7 17 8 18 9 19 10 20 11
REMARK SMILES IDX 9 12 8 13 7 14 6 15 5 16 4 17 3 18 2 19 1 20
REMARK H PARENT
REMARK Flexibility Score: inf
ROOT
ATOM      1  C   UNL     1      99.509 -68.052   2.282  1.00  0.00     0.000 C 
ENDROOT
BRANCH   1   2
ATOM      2  C   UNL     1      98.732 -68.620   3.484  1.00  0.00     0.000 C 
BRANCH   2   3
ATOM      3  C   UNL     1      99.482 -68.427   4.812  1.00  0.00     0.000 C 
BRANCH   3   4
ATOM      4  C   UNL     1     100.007 -69.752   5.394  1.00  0.00     0.000 C 
BRANCH   4   5
ATOM      5  C   UNL     1     101.440 -69.628   5.936  1.00  0.00     0.000 C 
BRANCH   5   6
ATOM      6  C   UNL     1     101.601 -68.449   6.913  1.00  0.00     0.000 C 
BRANCH   6   7
ATOM      7  C   UNL     1     100.958 -68.724   8.280  1.00  0.00     0.006 C 
BRANCH   7   8
ATOM      8  C   UNL     1     100.965 -67.492   9.193  1.00  0.00     0.053 C 
BRANCH   8   9
ATOM      9  C   UNL     1     100.279 -67.798  10.487  1.00  0.00     0.041 C 
ATOM     10  O   UNL     1     100.170 -68.988  10.882  1.00  0.00    -0.550 OA
ATOM     11  O   UNL     1      99.801 -66.762  11.282  1.00  0.00    -0.550 OA
ENDBRANCH   8   9
ENDBRANCH   7   8
ENDBRANCH   6   7
ENDBRANCH   5   6
ENDBRANCH   4   5
ENDBRANCH   3   4
ENDBRANCH   2   3
ENDBRANCH   1   2
BRANCH   1  12
ATOM     12  C   UNL     1     100.904 -67.535   2.669  1.00  0.00     0.000 C 
BRANCH  12  13
ATOM     13  C   UNL     1     101.880 -67.516   1.479  1.00  0.00    -0.000 C 
BRANCH  13  14
ATOM     14  C   UNL     1     101.277 -66.842   0.235  1.00  0.00    -0.000 C 
BRANCH  14  15
ATOM     15  C   UNL     1     101.438 -67.700  -1.033  1.00  0.00    -0.000 C 
BRANCH  15  16
ATOM     16  C   UNL     1     100.094 -68.014  -1.709  1.00  0.00    -0.000 C 
BRANCH  16  17
ATOM     17  C   UNL     1      98.952 -67.116  -1.208  1.00  0.00    -0.000 C 
BRANCH  17  18
ATOM     18  C   UNL     1      98.341 -66.310  -2.364  1.00  0.00    -0.000 C 
BRANCH  18  19
ATOM     19  C   UNL     1      97.602 -67.196  -3.378  1.00  0.00    -0.003 C 
ATOM     20  C   UNL     1      97.026 -66.401  -4.550  1.00  0.00     0.004 C 
ENDBRANCH  18  19
ENDBRANCH  17  18
ENDBRANCH  16  17
ENDBRANCH  15  16
ENDBRANCH  14  15
ENDBRANCH  13  14
ENDBRANCH  12  13
ENDBRANCH   1  12
TORSDOF 16
ENDMDL
MODEL 9
REMARK VINA RESULT:    -3.473      3.281      7.685
REMARK INTER + INTRA:          -8.501
REMARK INTER:                  -5.716
REMARK INTRA:                  -2.785
REMARK UNBOUND:                -1.779
REMARK SMILES CCCCCCCCCCCCCCCCCC(=O)[O-]
REMARK SMILES IDX 10 1 11 2 12 3 13 4 14 5 15 6 16 7 17 8 18 9 19 10 20 11
REMARK SMILES IDX 9 12 8 13 7 14 6 15 5 16 4 17 3 18 2 19 1 20
REMARK H PARENT
REMARK Flexibility Score: inf
ROOT
ATOM      1  C   UNL     1      98.789 -67.775   1.529  1.00  0.00     0.000 C 
ENDROOT
BRANCH   1   2
ATOM      2  C   UNL     1      98.540 -68.525   2.849  1.00  0.00     0.000 C 
BRANCH   2   3
ATOM      3  C   UNL     1      97.909 -67.626   3.925  1.00  0.00     0.000 C 
BRANCH   3   4
ATOM      4  C   UNL     1      98.452 -66.186   3.889  1.00  0.00     0.000 C 
BRANCH   4   5
ATOM      5  C   UNL     1      99.583 -65.959   4.904  1.00  0.00     0.000 C 
BRANCH   5   6
ATOM      6  C   UNL     1     100.979 -66.159   4.287  1.00  0.00     0.000 C 
BRANCH   6   7
ATOM      7  C   UNL     1     101.859 -67.109   5.113  1.00  0.00     0.006 C 
BRANCH   7   8
ATOM      8  C   UNL     1     101.736 -68.569   4.660  1.00  0.00     0.053 C 
BRANCH   8   9
ATOM      9  C   UNL     1     100.979 -69.368   5.674  1.00  0.00     0.041 C 
ATOM     10  O   UNL     1     100.962 -69.009   6.880  1.00  0.00    -0.550 OA
ATOM     11  O   UNL     1     100.251 -70.484   5.277  1.00  0.00    -0.550 OA
ENDBRANCH   8   9
ENDBRANCH   7   8
ENDBRANCH   6   7
ENDBRANCH   5   6
ENDBRANCH   4   5
ENDBRANCH   3   4
ENDBRANCH   2   3
ENDBRANCH   1   2
BRANCH   1  12
ATOM     12  C   UNL     1     100.197 -68.021   0.963  1.00  0.00     0.000 C 
BRANCH  12  13
ATOM     13  C   UNL     1     100.970 -66.714   0.706  1.00  0.00    -0.000 C 
BRANCH  13  14
ATOM     14  C   UNL     1     102.017 -66.860  -0.411  1.00  0.00    -0.000 C 
BRANCH  14  15
ATOM     15  C   UNL     1     101.787 -68.116  -1.270  1.00  0.00    -0.000 C 
BRANCH  15  16
ATOM     16  C   UNL     1     101.741 -67.803  -2.775  1.00  0.00    -0.000 C 
BRANCH  16  17
ATOM     17  C   UNL     1     100.319 -67.513  -3.279  1.00  0.00    -0.000 C 
BRANCH  17  18
ATOM     18  C   UNL     1      99.294 -68.420  -2.582  1.00  0.00    -0.000 C 
BRANCH  18  19
ATOM     19  C   UNL     1      98.021 -67.667  -2.169  1.00  0.00    -0.003 C 
ATOM     20  C   UNL     1      98.280 -66.192  -1.861  1.00  0.00     0.004 C 
ENDBRANCH  18  19
ENDBRANCH  17  18
ENDBRANCH  16  17
ENDBRANCH  15  16
ENDBRANCH  14  15
ENDBRANCH  13  14
ENDBRANCH  12  13
ENDBRANCH   1  12
TORSDOF 16
ENDMDL
