MODEL 1
REMARK VINA RESULT:    -5.131      0.000      0.000
REMARK INTER + INTRA:          -6.503
REMARK INTER:                  -6.181
REMARK INTRA:                  -0.322
REMARK UNBOUND:                -0.322
REMARK SMILES O=c1c(O)c(-c2ccc(O)c(O)c2)oc2cc(O)cc(O)c12
REMARK SMILES IDX 5 1 3 2 2 3 1 4 22 5 20 6 19 7 17 8 16 9 15 10 14 11 6 12
REMARK SMILES IDX 7 13 8 14 9 15 13 16 11 17 10 18 12 20 4 22 21 24 18 26
REMARK H PARENT 10 19 12 21 4 23 21 25 18 27
REMARK Flexibility Score: inf
ROOT
ATOM      1  C   UNL     1      19.020  53.213  42.564  1.00  0.00     0.180 A 
ATOM      2  C   UNL     1      19.667  52.011  42.228  1.00  0.00     0.208 A 
ATOM      3  C   UNL     1      20.775  51.599  42.986  1.00  0.00     0.238 A 
ATOM      4  O   UNL     1      21.383  50.551  42.648  1.00  0.00    -0.285 OA
ATOM      5  C   UNL     1      21.212  52.386  44.080  1.00  0.00     0.111 A 
ATOM      6  C   UNL     1      22.298  52.044  44.941  1.00  0.00     0.134 A 
ATOM      7  C   UNL     1      22.726  52.961  45.909  1.00  0.00     0.093 A 
ATOM      8  C   UNL     1      22.066  54.176  46.092  1.00  0.00     0.123 A 
ATOM      9  C   UNL     1      20.966  54.494  45.296  1.00  0.00     0.094 A 
ATOM     10  C   UNL     1      20.538  53.616  44.296  1.00  0.00     0.146 A 
ATOM     11  O   UNL     1      19.494  53.961  43.553  1.00  0.00    -0.452 OA
ENDROOT
BRANCH   1  12
ATOM     12  C   UNL     1      17.830  53.700  41.827  1.00  0.00     0.025 A 
ATOM     13  C   UNL     1      17.956  54.543  40.710  1.00  0.00     0.016 A 
ATOM     14  C   UNL     1      16.822  54.970  40.015  1.00  0.00     0.051 A 
ATOM     15  C   UNL     1      15.547  54.552  40.419  1.00  0.00     0.157 A 
ATOM     16  C   UNL     1      16.552  53.266  42.215  1.00  0.00     0.062 A 
ATOM     17  C   UNL     1      15.412  53.695  41.518  1.00  0.00     0.158 A 
BRANCH  15  18
ATOM     18  O   UNL     1      14.413  54.977  39.730  1.00  0.00    -0.504 OA
ATOM     19  H   UNL     1      13.968  54.394  39.031  1.00  0.00     0.293 HD
ENDBRANCH  15  18
BRANCH  17  20
ATOM     20  O   UNL     1      14.144  53.274  41.913  1.00  0.00    -0.504 OA
ATOM     21  H   UNL     1      13.662  52.521  41.435  1.00  0.00     0.293 HD
ENDBRANCH  17  20
ENDBRANCH   1  12
BRANCH   2  22
ATOM     22  O   UNL     1      19.232  51.261  41.132  1.00  0.00    -0.502 OA
ATOM     23  H   UNL     1      18.279  50.929  41.043  1.00  0.00     0.293 HD
ENDBRANCH   2  22
BRANCH   6  24
ATOM     24  O   UNL     1      22.967  50.818  44.903  1.00  0.00    -0.507 OA
ATOM     25  H   UNL     1      22.521  49.923  44.774  1.00  0.00     0.293 HD
ENDBRANCH   6  24
BRANCH   8  26
ATOM     26  O   UNL     1      22.509  55.057  47.076  1.00  0.00    -0.508 OA
ATOM     27  H   UNL     1      23.059  55.877  46.846  1.00  0.00     0.293 HD
ENDBRANCH   8  26
TORSDOF 6
ENDMDL
MODEL 2
REMARK VINA RESULT:    -4.872      1.690      7.091
REMARK INTER + INTRA:          -6.191
REMARK INTER:                  -5.880
REMARK INTRA:                  -0.312
REMARK UNBOUND:                -0.322
REMARK SMILES O=c1c(O)c(-c2ccc(O)c(O)c2)oc2cc(O)cc(O)c12
REMARK SMILES IDX 5 1 3 2 2 3 1 4 22 5 20 6 19 7 17 8 16 9 15 10 14 11 6 12
REMARK SMILES IDX 7 13 8 14 9 15 13 16 11 17 10 18 12 20 4 22 21 24 18 26
REMARK H PARENT 10 19 12 21 4 23 21 25 18 27
REMARK Flexibility Score: inf
ROOT
ATOM      1  C   UNL     1      19.169  53.128  42.637  1.00  0.00     0.180 A 
ATOM      2  C   UNL     1      19.146  54.039  41.567  1.00  0.00     0.208 A 
ATOM      3  C   UNL     1      18.008  54.099  40.747  1.00  0.00     0.238 A 
ATOM      4  O   UNL     1      18.014  54.878  39.759  1.00  0.00    -0.285 OA
ATOM      5  C   UNL     1      16.900  53.258  41.016  1.00  0.00     0.111 A 
ATOM      6  C   UNL     1      15.680  53.262  40.275  1.00  0.00     0.134 A 
ATOM      7  C   UNL     1      14.704  52.296  40.549  1.00  0.00     0.093 A 
ATOM      8  C   UNL     1      14.874  51.370  41.577  1.00  0.00     0.123 A 
ATOM      9  C   UNL     1      16.038  51.395  42.346  1.00  0.00     0.094 A 
ATOM     10  C   UNL     1      17.046  52.323  42.074  1.00  0.00     0.146 A 
ATOM     11  O   UNL     1      18.142  52.306  42.823  1.00  0.00    -0.452 OA
ENDROOT
BRANCH   1  12
ATOM     12  C   UNL     1      20.323  53.024  43.559  1.00  0.00     0.025 A 
ATOM     13  C   UNL     1      20.501  53.937  44.614  1.00  0.00     0.016 A 
ATOM     14  C   UNL     1      21.583  53.805  45.487  1.00  0.00     0.051 A 
ATOM     15  C   UNL     1      22.496  52.754  45.328  1.00  0.00     0.157 A 
ATOM     16  C   UNL     1      21.228  51.960  43.417  1.00  0.00     0.062 A 
ATOM     17  C   UNL     1      22.316  51.828  44.293  1.00  0.00     0.158 A 
BRANCH  15  18
ATOM     18  O   UNL     1      23.578  52.620  46.196  1.00  0.00    -0.504 OA
ATOM     19  H   UNL     1      24.295  51.920  46.045  1.00  0.00     0.293 HD
ENDBRANCH  15  18
BRANCH  17  20
ATOM     20  O   UNL     1      23.221  50.779  44.141  1.00  0.00    -0.504 OA
ATOM     21  H   UNL     1      23.053  49.869  44.557  1.00  0.00     0.293 HD
ENDBRANCH  17  20
ENDBRANCH   1  12
BRANCH   2  22
ATOM     22  O   UNL     1      20.257  54.845  41.306  1.00  0.00    -0.502 OA
ATOM     23  H   UNL     1      20.394  55.314  40.418  1.00  0.00     0.293 HD
ENDBRANCH   2  22
BRANCH   6  24
ATOM     24  O   UNL     1      15.370  54.202  39.289  1.00  0.00    -0.507 OA
ATOM     25  H   UNL     1      15.749  55.136  39.245  1.00  0.00     0.293 HD
ENDBRANCH   6  24
BRANCH   8  26
ATOM     26  O   UNL     1      13.875  50.433  41.830  1.00  0.00    -0.508 OA
ATOM     27  H   UNL     1      14.033  49.642  42.444  1.00  0.00     0.293 HD
ENDBRANCH   8  26
TORSDOF 6
ENDMDL
MODEL 3
REMARK VINA RESULT:    -4.710      1.894      3.152
REMARK INTER + INTRA:          -5.995
REMARK INTER:                  -5.711
REMARK INTRA:                  -0.285
REMARK UNBOUND:                -0.322
REMARK SMILES O=c1c(O)c(-c2ccc(O)c(O)c2)oc2cc(O)cc(O)c12
REMARK SMILES IDX 5 1 3 2 2 3 1 4 22 5 20 6 19 7 17 8 16 9 15 10 14 11 6 12
REMARK SMILES IDX 7 13 8 14 9 15 13 16 11 17 10 18 12 20 4 22 21 24 18 26
REMARK H PARENT 10 19 12 21 4 23 21 25 18 27
REMARK Flexibility Score: inf
ROOT
ATOM      1  C   UNL     1      18.695  52.567  41.817  1.00  0.00     0.180 A 
ATOM      2  C   UNL     1      18.811  53.665  42.688  1.00  0.00     0.208 A 
ATOM      3  C   UNL     1      19.856  53.683  43.625  1.00  0.00     0.238 A 
ATOM      4  O   UNL     1      19.923  54.642  44.437  1.00  0.00    -0.285 OA
ATOM      5  C   UNL     1      20.782  52.612  43.669  1.00  0.00     0.111 A 
ATOM      6  C   UNL     1      21.903  52.545  44.550  1.00  0.00     0.134 A 
ATOM      7  C   UNL     1      22.675  51.378  44.597  1.00  0.00     0.093 A 
ATOM      8  C   UNL     1      22.409  50.303  43.751  1.00  0.00     0.123 A 
ATOM      9  C   UNL     1      21.351  50.381  42.843  1.00  0.00     0.094 A 
ATOM     10  C   UNL     1      20.540  51.518  42.798  1.00  0.00     0.146 A 
ATOM     11  O   UNL     1      19.538  51.548  41.928  1.00  0.00    -0.452 OA
ENDROOT
BRANCH   1  12
ATOM     12  C   UNL     1      17.634  52.488  40.786  1.00  0.00     0.025 A 
ATOM     13  C   UNL     1      17.705  53.243  39.603  1.00  0.00     0.016 A 
ATOM     14  C   UNL     1      16.706  53.134  38.633  1.00  0.00     0.051 A 
ATOM     15  C   UNL     1      15.628  52.260  38.825  1.00  0.00     0.157 A 
ATOM     16  C   UNL     1      16.562  51.597  40.964  1.00  0.00     0.062 A 
ATOM     17  C   UNL     1      15.557  51.488  39.991  1.00  0.00     0.158 A 
BRANCH  15  18
ATOM     18  O   UNL     1      14.628  52.149  37.861  1.00  0.00    -0.504 OA
ATOM     19  H   UNL     1      14.645  51.417  37.161  1.00  0.00     0.293 HD
ENDBRANCH  15  18
BRANCH  17  20
ATOM     20  O   UNL     1      14.488  50.614  40.177  1.00  0.00    -0.504 OA
ATOM     21  H   UNL     1      13.646  50.901  40.662  1.00  0.00     0.293 HD
ENDBRANCH  17  20
ENDBRANCH   1  12
BRANCH   2  22
ATOM     22  O   UNL     1      17.874  54.701  42.641  1.00  0.00    -0.502 OA
ATOM     23  H   UNL     1      17.081  54.746  43.270  1.00  0.00     0.293 HD
ENDBRANCH   2  22
BRANCH   6  24
ATOM     24  O   UNL     1      22.312  53.599  45.373  1.00  0.00    -0.507 OA
ATOM     25  H   UNL     1      23.032  54.264  45.139  1.00  0.00     0.293 HD
ENDBRANCH   6  24
BRANCH   8  26
ATOM     26  O   UNL     1      23.207  49.164  43.814  1.00  0.00    -0.508 OA
ATOM     27  H   UNL     1      23.675  48.798  42.993  1.00  0.00     0.293 HD
ENDBRANCH   8  26
TORSDOF 6
ENDMDL
MODEL 4
REMARK VINA RESULT:    -4.672      1.862      6.844
REMARK INTER + INTRA:          -5.950
REMARK INTER:                  -5.629
REMARK INTRA:                  -0.321
REMARK UNBOUND:                -0.322
REMARK SMILES O=c1c(O)c(-c2ccc(O)c(O)c2)oc2cc(O)cc(O)c12
REMARK SMILES IDX 5 1 3 2 2 3 1 4 22 5 20 6 19 7 17 8 16 9 15 10 14 11 6 12
REMARK SMILES IDX 7 13 8 14 9 15 13 16 11 17 10 18 12 20 4 22 21 24 18 26
REMARK H PARENT 10 19 12 21 4 23 21 25 18 27
REMARK Flexibility Score: inf
ROOT
ATOM      1  C   UNL     1      18.857  52.418  42.586  1.00  0.00     0.180 A 
ATOM      2  C   UNL     1      18.573  51.456  41.601  1.00  0.00     0.208 A 
ATOM      3  C   UNL     1      17.613  51.749  40.620  1.00  0.00     0.238 A 
ATOM      4  O   UNL     1      17.324  50.864  39.774  1.00  0.00    -0.285 OA
ATOM      5  C   UNL     1      16.960  53.005  40.625  1.00  0.00     0.111 A 
ATOM      6  C   UNL     1      16.000  53.424  39.656  1.00  0.00     0.134 A 
ATOM      7  C   UNL     1      15.322  54.637  39.835  1.00  0.00     0.093 A 
ATOM      8  C   UNL     1      15.616  55.475  40.909  1.00  0.00     0.123 A 
ATOM      9  C   UNL     1      16.596  55.103  41.831  1.00  0.00     0.094 A 
ATOM     10  C   UNL     1      17.264  53.882  41.700  1.00  0.00     0.146 A 
ATOM     11  O   UNL     1      18.181  53.561  42.603  1.00  0.00    -0.452 OA
ENDROOT
BRANCH   1  12
ATOM     12  C   UNL     1      19.875  52.192  43.639  1.00  0.00     0.025 A 
ATOM     13  C   UNL     1      19.529  51.638  44.884  1.00  0.00     0.016 A 
ATOM     14  C   UNL     1      20.509  51.410  45.852  1.00  0.00     0.051 A 
ATOM     15  C   UNL     1      21.850  51.721  45.588  1.00  0.00     0.157 A 
ATOM     16  C   UNL     1      21.223  52.482  43.371  1.00  0.00     0.062 A 
ATOM     17  C   UNL     1      22.207  52.255  44.344  1.00  0.00     0.158 A 
BRANCH  15  18
ATOM     18  O   UNL     1      22.830  51.498  46.552  1.00  0.00    -0.504 OA
ATOM     19  H   UNL     1      23.573  52.167  46.718  1.00  0.00     0.293 HD
ENDBRANCH  15  18
BRANCH  17  20
ATOM     20  O   UNL     1      23.542  52.556  44.080  1.00  0.00    -0.504 OA
ATOM     21  H   UNL     1      24.027  53.295  44.577  1.00  0.00     0.293 HD
ENDBRANCH  17  20
ENDBRANCH   1  12
BRANCH   2  22
ATOM     22  O   UNL     1      19.213  50.214  41.627  1.00  0.00    -0.502 OA
ATOM     23  H   UNL     1      19.502  49.733  40.783  1.00  0.00     0.293 HD
ENDBRANCH   2  22
BRANCH   6  24
ATOM     24  O   UNL     1      15.698  52.705  38.496  1.00  0.00    -0.507 OA
ATOM     25  H   UNL     1      14.770  52.425  38.218  1.00  0.00     0.293 HD
ENDBRANCH   6  24
BRANCH   8  26
ATOM     26  O   UNL     1      14.933  56.681  41.047  1.00  0.00    -0.508 OA
ATOM     27  H   UNL     1      14.640  57.220  40.240  1.00  0.00     0.293 HD
ENDBRANCH   8  26
TORSDOF 6
ENDMDL
MODEL 5
REMARK VINA RESULT:    -4.604      2.091      7.060
REMARK INTER + INTRA:          -5.869
REMARK INTER:                  -5.552
REMARK INTRA:                  -0.317
REMARK UNBOUND:                -0.322
REMARK SMILES O=c1c(O)c(-c2ccc(O)c(O)c2)oc2cc(O)cc(O)c12
REMARK SMILES IDX 5 1 3 2 2 3 1 4 22 5 20 6 19 7 17 8 16 9 15 10 14 11 6 12
REMARK SMILES IDX 7 13 8 14 9 15 13 16 11 17 10 18 12 20 4 22 21 24 18 26
REMARK H PARENT 10 19 12 21 4 23 21 25 18 27
REMARK Flexibility Score: inf
ROOT
ATOM      1  C   UNL     1      17.370  53.400  41.741  1.00  0.00     0.180 A 
ATOM      2  C   UNL     1      16.847  52.597  40.712  1.00  0.00     0.208 A 
ATOM      3  C   UNL     1      15.842  53.121  39.883  1.00  0.00     0.238 A 
ATOM      4  O   UNL     1      15.341  52.379  38.999  1.00  0.00    -0.285 OA
ATOM      5  C   UNL     1      15.384  54.445  40.082  1.00  0.00     0.111 A 
ATOM      6  C   UNL     1      14.399  55.092  39.277  1.00  0.00     0.134 A 
ATOM      7  C   UNL     1      13.928  56.358  39.647  1.00  0.00     0.093 A 
ATOM      8  C   UNL     1      14.451  57.028  40.752  1.00  0.00     0.123 A 
ATOM      9  C   UNL     1      15.458  56.430  41.512  1.00  0.00     0.094 A 
ATOM     10  C   UNL     1      15.923  55.152  41.190  1.00  0.00     0.146 A 
ATOM     11  O   UNL     1      16.873  54.614  41.944  1.00  0.00    -0.452 OA
ENDROOT
BRANCH   1  12
ATOM     12  C   UNL     1      18.448  52.926  42.640  1.00  0.00     0.025 A 
ATOM     13  C   UNL     1      19.798  52.966  42.248  1.00  0.00     0.016 A 
ATOM     14  C   UNL     1      20.800  52.537  43.121  1.00  0.00     0.051 A 
ATOM     15  C   UNL     1      20.471  52.075  44.402  1.00  0.00     0.157 A 
ATOM     16  C   UNL     1      18.125  52.482  43.933  1.00  0.00     0.062 A 
ATOM     17  C   UNL     1      19.131  52.051  44.810  1.00  0.00     0.158 A 
BRANCH  15  18
ATOM     18  O   UNL     1      21.467  51.645  45.276  1.00  0.00    -0.504 OA
ATOM     19  H   UNL     1      21.754  50.674  45.316  1.00  0.00     0.293 HD
ENDBRANCH  15  18
BRANCH  17  20
ATOM     20  O   UNL     1      18.807  51.598  46.087  1.00  0.00    -0.504 OA
ATOM     21  H   UNL     1      17.857  51.641  46.440  1.00  0.00     0.293 HD
ENDBRANCH  17  20
ENDBRANCH   1  12
BRANCH   2  22
ATOM     22  O   UNL     1      17.299  51.285  40.547  1.00  0.00    -0.502 OA
ATOM     23  H   UNL     1      18.279  51.057  40.425  1.00  0.00     0.293 HD
ENDBRANCH   2  22
BRANCH   6  24
ATOM     24  O   UNL     1      13.876  54.550  38.100  1.00  0.00    -0.507 OA
ATOM     25  H   UNL     1      14.063  54.899  37.173  1.00  0.00     0.293 HD
ENDBRANCH   6  24
BRANCH   8  26
ATOM     26  O   UNL     1      13.970  58.292  41.081  1.00  0.00    -0.508 OA
ATOM     27  H   UNL     1      14.484  58.913  41.696  1.00  0.00     0.293 HD
ENDBRANCH   8  26
TORSDOF 6
ENDMDL
MODEL 6
REMARK VINA RESULT:    -4.580      2.094      7.543
REMARK INTER + INTRA:          -5.839
REMARK INTER:                  -5.910
REMARK INTRA:                   0.071
REMARK UNBOUND:                -0.322
REMARK SMILES O=c1c(O)c(-c2ccc(O)c(O)c2)oc2cc(O)cc(O)c12
REMARK SMILES IDX 5 1 3 2 2 3 1 4 22 5 20 6 19 7 17 8 16 9 15 10 14 11 6 12
REMARK SMILES IDX 7 13 8 14 9 15 13 16 11 17 10 18 12 20 4 22 21 24 18 26
REMARK H PARENT 10 19 12 21 4 23 21 25 18 27
REMARK Flexibility Score: inf
ROOT
ATOM      1  C   UNL     1      18.789  52.007  42.057  1.00  0.00     0.180 A 
ATOM      2  C   UNL     1      18.233  53.204  42.542  1.00  0.00     0.208 A 
ATOM      3  C   UNL     1      17.143  53.772  41.863  1.00  0.00     0.238 A 
ATOM      4  O   UNL     1      16.684  54.871  42.270  1.00  0.00    -0.285 OA
ATOM      5  C   UNL     1      16.612  53.130  40.719  1.00  0.00     0.111 A 
ATOM      6  C   UNL     1      15.485  53.595  39.977  1.00  0.00     0.134 A 
ATOM      7  C   UNL     1      15.129  52.951  38.786  1.00  0.00     0.093 A 
ATOM      8  C   UNL     1      15.816  51.821  38.344  1.00  0.00     0.123 A 
ATOM      9  C   UNL     1      16.883  51.322  39.093  1.00  0.00     0.094 A 
ATOM     10  C   UNL     1      17.285  51.964  40.267  1.00  0.00     0.146 A 
ATOM     11  O   UNL     1      18.311  51.464  40.944  1.00  0.00    -0.452 OA
ENDROOT
BRANCH   1  12
ATOM     12  C   UNL     1      19.923  51.334  42.733  1.00  0.00     0.025 A 
ATOM     13  C   UNL     1      19.911  49.950  42.980  1.00  0.00     0.016 A 
ATOM     14  C   UNL     1      21.002  49.333  43.596  1.00  0.00     0.051 A 
ATOM     15  C   UNL     1      22.125  50.086  43.962  1.00  0.00     0.157 A 
ATOM     16  C   UNL     1      21.060  52.081  43.082  1.00  0.00     0.062 A 
ATOM     17  C   UNL     1      22.156  51.462  43.702  1.00  0.00     0.158 A 
BRANCH  15  18
ATOM     18  O   UNL     1      23.215  49.474  44.579  1.00  0.00    -0.504 OA
ATOM     19  H   UNL     1      23.155  49.111  45.523  1.00  0.00     0.293 HD
ENDBRANCH  15  18
BRANCH  17  20
ATOM     20  O   UNL     1      23.277  52.207  44.061  1.00  0.00    -0.504 OA
ATOM     21  H   UNL     1      24.216  51.887  43.852  1.00  0.00     0.293 HD
ENDBRANCH  17  20
ENDBRANCH   1  12
BRANCH   2  22
ATOM     22  O   UNL     1      18.786  53.833  43.661  1.00  0.00    -0.502 OA
ATOM     23  H   UNL     1      19.785  53.887  43.817  1.00  0.00     0.293 HD
ENDBRANCH   2  22
BRANCH   6  24
ATOM     24  O   UNL     1      14.673  54.659  40.379  1.00  0.00    -0.507 OA
ATOM     25  H   UNL     1      15.010  55.518  40.784  1.00  0.00     0.293 HD
ENDBRANCH   6  24
BRANCH   8  26
ATOM     26  O   UNL     1      15.424  51.196  37.163  1.00  0.00    -0.508 OA
ATOM     27  H   UNL     1      16.068  51.070  36.390  1.00  0.00     0.293 HD
ENDBRANCH   8  26
TORSDOF 6
ENDMDL
MODEL 7
REMARK VINA RESULT:    -4.412      2.099      3.065
REMARK INTER + INTRA:          -5.637
REMARK INTER:                  -5.303
REMARK INTRA:                  -0.334
REMARK UNBOUND:                -0.322
REMARK SMILES O=c1c(O)c(-c2ccc(O)c(O)c2)oc2cc(O)cc(O)c12
REMARK SMILES IDX 5 1 3 2 2 3 1 4 22 5 20 6 19 7 17 8 16 9 15 10 14 11 6 12
REMARK SMILES IDX 7 13 8 14 9 15 13 16 11 17 10 18 12 20 4 22 21 24 18 26
REMARK H PARENT 10 19 12 21 4 23 21 25 18 27
REMARK Flexibility Score: inf
ROOT
ATOM      1  C   UNL     1      17.041  53.154  42.544  1.00  0.00     0.180 A 
ATOM      2  C   UNL     1      16.456  52.647  43.716  1.00  0.00     0.208 A 
ATOM      3  C   UNL     1      17.286  52.266  44.782  1.00  0.00     0.238 A 
ATOM      4  O   UNL     1      16.760  51.762  45.809  1.00  0.00    -0.285 OA
ATOM      5  C   UNL     1      18.690  52.411  44.669  1.00  0.00     0.111 A 
ATOM      6  C   UNL     1      19.624  52.095  45.701  1.00  0.00     0.134 A 
ATOM      7  C   UNL     1      20.997  52.155  45.431  1.00  0.00     0.093 A 
ATOM      8  C   UNL     1      21.470  52.582  44.192  1.00  0.00     0.123 A 
ATOM      9  C   UNL     1      20.566  52.951  43.195  1.00  0.00     0.094 A 
ATOM     10  C   UNL     1      19.190  52.867  43.421  1.00  0.00     0.146 A 
ATOM     11  O   UNL     1      18.364  53.216  42.443  1.00  0.00    -0.452 OA
ENDROOT
BRANCH   1  12
ATOM     12  C   UNL     1      16.230  53.599  41.387  1.00  0.00     0.025 A 
ATOM     13  C   UNL     1      15.750  54.918  41.294  1.00  0.00     0.016 A 
ATOM     14  C   UNL     1      15.008  55.323  40.182  1.00  0.00     0.051 A 
ATOM     15  C   UNL     1      14.746  54.422  39.141  1.00  0.00     0.157 A 
ATOM     16  C   UNL     1      15.983  52.706  40.331  1.00  0.00     0.062 A 
ATOM     17  C   UNL     1      15.237  53.112  39.215  1.00  0.00     0.158 A 
BRANCH  15  18
ATOM     18  O   UNL     1      14.004  54.821  38.031  1.00  0.00    -0.504 OA
ATOM     19  H   UNL     1      13.898  55.800  37.789  1.00  0.00     0.293 HD
ENDBRANCH  15  18
BRANCH  17  20
ATOM     20  O   UNL     1      14.981  52.220  38.175  1.00  0.00    -0.504 OA
ATOM     21  H   UNL     1      15.721  51.884  37.570  1.00  0.00     0.293 HD
ENDBRANCH  17  20
ENDBRANCH   1  12
BRANCH   2  22
ATOM     22  O   UNL     1      15.069  52.491  43.799  1.00  0.00    -0.502 OA
ATOM     23  H   UNL     1      14.422  53.203  43.483  1.00  0.00     0.293 HD
ENDBRANCH   2  22
BRANCH   6  24
ATOM     24  O   UNL     1      19.258  51.747  47.004  1.00  0.00    -0.507 OA
ATOM     25  H   UNL     1      19.857  51.275  47.663  1.00  0.00     0.293 HD
ENDBRANCH   6  24
BRANCH   8  26
ATOM     26  O   UNL     1      22.843  52.644  43.964  1.00  0.00    -0.508 OA
ATOM     27  H   UNL     1      23.478  53.033  44.652  1.00  0.00     0.293 HD
ENDBRANCH   8  26
TORSDOF 6
ENDMDL
MODEL 8
REMARK VINA RESULT:    -4.274      2.672      7.474
REMARK INTER + INTRA:          -5.471
REMARK INTER:                  -5.238
REMARK INTRA:                  -0.233
REMARK UNBOUND:                -0.322
REMARK SMILES O=c1c(O)c(-c2ccc(O)c(O)c2)oc2cc(O)cc(O)c12
REMARK SMILES IDX 5 1 3 2 2 3 1 4 22 5 20 6 19 7 17 8 16 9 15 10 14 11 6 12
REMARK SMILES IDX 7 13 8 14 9 15 13 16 11 17 10 18 12 20 4 22 21 24 18 26
REMARK H PARENT 10 19 12 21 4 23 21 25 18 27
REMARK Flexibility Score: inf
ROOT
ATOM      1  C   UNL     1      18.003  52.613  41.870  1.00  0.00     0.180 A 
ATOM      2  C   UNL     1      17.127  53.677  41.592  1.00  0.00     0.208 A 
ATOM      3  C   UNL     1      16.292  53.595  40.466  1.00  0.00     0.238 A 
ATOM      4  O   UNL     1      15.549  54.573  40.192  1.00  0.00    -0.285 OA
ATOM      5  C   UNL     1      16.330  52.443  39.643  1.00  0.00     0.111 A 
ATOM      6  C   UNL     1      15.499  52.236  38.500  1.00  0.00     0.134 A 
ATOM      7  C   UNL     1      15.716  51.118  37.684  1.00  0.00     0.093 A 
ATOM      8  C   UNL     1      16.685  50.169  38.004  1.00  0.00     0.123 A 
ATOM      9  C   UNL     1      17.462  50.331  39.151  1.00  0.00     0.094 A 
ATOM     10  C   UNL     1      17.296  51.454  39.966  1.00  0.00     0.146 A 
ATOM     11  O   UNL     1      18.063  51.577  41.042  1.00  0.00    -0.452 OA
ENDROOT
BRANCH   1  12
ATOM     12  C   UNL     1      18.896  52.616  43.052  1.00  0.00     0.025 A 
ATOM     13  C   UNL     1      18.385  52.502  44.356  1.00  0.00     0.016 A 
ATOM     14  C   UNL     1      19.248  52.482  45.454  1.00  0.00     0.051 A 
ATOM     15  C   UNL     1      20.634  52.563  45.265  1.00  0.00     0.157 A 
ATOM     16  C   UNL     1      20.287  52.675  42.866  1.00  0.00     0.062 A 
ATOM     17  C   UNL     1      21.155  52.657  43.969  1.00  0.00     0.158 A 
BRANCH  15  18
ATOM     18  O   UNL     1      21.498  52.546  46.358  1.00  0.00    -0.504 OA
ATOM     19  H   UNL     1      22.247  51.867  46.431  1.00  0.00     0.293 HD
ENDBRANCH  15  18
BRANCH  17  20
ATOM     20  O   UNL     1      22.533  52.730  43.783  1.00  0.00    -0.504 OA
ATOM     21  H   UNL     1      23.005  53.618  43.651  1.00  0.00     0.293 HD
ENDBRANCH  17  20
ENDBRANCH   1  12
BRANCH   2  22
ATOM     22  O   UNL     1      17.121  54.813  42.405  1.00  0.00    -0.502 OA
ATOM     23  H   UNL     1      17.463  54.802  43.358  1.00  0.00     0.293 HD
ENDBRANCH   2  22
BRANCH   6  24
ATOM     24  O   UNL     1      14.441  53.075  38.143  1.00  0.00    -0.507 OA
ATOM     25  H   UNL     1      14.147  53.884  38.668  1.00  0.00     0.293 HD
ENDBRANCH   6  24
BRANCH   8  26
ATOM     26  O   UNL     1      16.861  49.061  37.178  1.00  0.00    -0.508 OA
ATOM     27  H   UNL     1      16.086  48.461  36.922  1.00  0.00     0.293 HD
ENDBRANCH   8  26
TORSDOF 6
ENDMDL
MODEL 9
REMARK VINA RESULT:    -4.110      2.669      3.460
REMARK INTER + INTRA:          -5.273
REMARK INTER:                  -4.942
REMARK INTRA:                  -0.331
REMARK UNBOUND:                -0.322
REMARK SMILES O=c1c(O)c(-c2ccc(O)c(O)c2)oc2cc(O)cc(O)c12
REMARK SMILES IDX 5 1 3 2 2 3 1 4 22 5 20 6 19 7 17 8 16 9 15 10 14 11 6 12
REMARK SMILES IDX 7 13 8 14 9 15 13 16 11 17 10 18 12 20 4 22 21 24 18 26
REMARK H PARENT 10 19 12 21 4 23 21 25 18 27
REMARK Flexibility Score: inf
ROOT
ATOM      1  C   UNL     1      18.364  52.057  42.186  1.00  0.00     0.180 A 
ATOM      2  C   UNL     1      17.488  52.263  43.266  1.00  0.00     0.208 A 
ATOM      3  C   UNL     1      18.025  52.490  44.544  1.00  0.00     0.238 A 
ATOM      4  O   UNL     1      17.237  52.620  45.516  1.00  0.00    -0.285 OA
ATOM      5  C   UNL     1      19.429  52.525  44.723  1.00  0.00     0.111 A 
ATOM      6  C   UNL     1      20.082  52.788  45.965  1.00  0.00     0.134 A 
ATOM      7  C   UNL     1      21.474  52.667  46.051  1.00  0.00     0.093 A 
ATOM      8  C   UNL     1      22.242  52.360  44.929  1.00  0.00     0.123 A 
ATOM      9  C   UNL     1      21.619  52.160  43.696  1.00  0.00     0.094 A 
ATOM     10  C   UNL     1      20.228  52.237  43.586  1.00  0.00     0.146 A 
ATOM     11  O   UNL     1      19.674  52.029  42.398  1.00  0.00    -0.452 OA
ENDROOT
BRANCH   1  12
ATOM     12  C   UNL     1      17.874  51.835  40.806  1.00  0.00     0.025 A 
ATOM     13  C   UNL     1      17.637  52.911  39.932  1.00  0.00     0.016 A 
ATOM     14  C   UNL     1      17.199  52.677  38.626  1.00  0.00     0.051 A 
ATOM     15  C   UNL     1      17.003  51.367  38.171  1.00  0.00     0.157 A 
ATOM     16  C   UNL     1      17.696  50.523  40.338  1.00  0.00     0.062 A 
ATOM     17  C   UNL     1      17.255  50.288  39.027  1.00  0.00     0.158 A 
BRANCH  15  18
ATOM     18  O   UNL     1      16.564  51.129  36.870  1.00  0.00    -0.504 OA
ATOM     19  H   UNL     1      16.954  50.382  36.307  1.00  0.00     0.293 HD
ENDBRANCH  15  18
BRANCH  17  20
ATOM     20  O   UNL     1      17.066  48.985  38.570  1.00  0.00    -0.504 OA
ATOM     21  H   UNL     1      17.542  48.198  38.997  1.00  0.00     0.293 HD
ENDBRANCH  17  20
ENDBRANCH   1  12
BRANCH   2  22
ATOM     22  O   UNL     1      16.106  52.203  43.072  1.00  0.00    -0.502 OA
ATOM     23  H   UNL     1      15.656  51.430  42.597  1.00  0.00     0.293 HD
ENDBRANCH   2  22
BRANCH   6  24
ATOM     24  O   UNL     1      19.416  53.192  47.125  1.00  0.00    -0.507 OA
ATOM     25  H   UNL     1      18.415  53.197  47.242  1.00  0.00     0.293 HD
ENDBRANCH   6  24
BRANCH   8  26
ATOM     26  O   UNL     1      23.627  52.264  45.049  1.00  0.00    -0.508 OA
ATOM     27  H   UNL     1      24.122  51.411  44.815  1.00  0.00     0.293 HD
ENDBRANCH   8  26
TORSDOF 6
ENDMDL
