MODEL 1
REMARK VINA RESULT:    -3.095      0.000      0.000
REMARK INTER + INTRA:          -7.099
REMARK INTER:                  -5.266
REMARK INTRA:                  -1.833
REMARK UNBOUND:                -1.833
REMARK SMILES CCCCCCCCCCCCCC(=O)[O-]
REMARK SMILES IDX 8 1 9 2 10 3 11 4 12 5 13 6 14 7 15 8 16 9 7 10 6 11 5 12
REMARK SMILES IDX 4 13 3 14 2 15 1 16
REMARK H PARENT
REMARK Flexibility Score: inf
ROOT
ATOM      1  C   UNL     1      24.127  -5.415 -26.777  1.00  0.00     0.000 C 
ENDROOT
BRANCH   1   2
ATOM      2  C   UNL     1      25.275  -4.467 -27.156  1.00  0.00     0.000 C 
BRANCH   2   3
ATOM      3  C   UNL     1      25.305  -4.147 -28.661  1.00  0.00     0.000 C 
BRANCH   3   4
ATOM      4  C   UNL     1      23.930  -3.679 -29.183  1.00  0.00     0.000 C 
BRANCH   4   5
ATOM      5  C   UNL     1      23.602  -4.187 -30.597  1.00  0.00     0.006 C 
BRANCH   5   6
ATOM      6  C   UNL     1      24.841  -4.680 -31.356  1.00  0.00     0.053 C 
BRANCH   6   7
ATOM      7  C   UNL     1      24.548  -4.784 -32.819  1.00  0.00     0.041 C 
ATOM      8  O   UNL     1      23.415  -4.463 -33.264  1.00  0.00    -0.550 OA
ATOM      9  O   UNL     1      25.513  -5.283 -33.686  1.00  0.00    -0.550 OA
ENDBRANCH   6   7
ENDBRANCH   5   6
ENDBRANCH   4   5
ENDBRANCH   3   4
ENDBRANCH   2   3
ENDBRANCH   1   2
BRANCH   1  10
ATOM     10  C   UNL     1      24.601  -6.868 -26.587  1.00  0.00     0.000 C 
BRANCH  10  11
ATOM     11  C   UNL     1      24.236  -7.768 -27.778  1.00  0.00    -0.000 C 
BRANCH  11  12
ATOM     12  C   UNL     1      25.311  -7.761 -28.875  1.00  0.00    -0.000 C 
BRANCH  12  13
ATOM     13  C   UNL     1      26.686  -8.121 -28.299  1.00  0.00    -0.000 C 
BRANCH  13  14
ATOM     14  C   UNL     1      27.704  -7.004 -28.561  1.00  0.00    -0.000 C 
BRANCH  14  15
ATOM     15  C   UNL     1      28.382  -6.561 -27.260  1.00  0.00    -0.003 C 
ATOM     16  C   UNL     1      28.265  -7.636 -26.184  1.00  0.00     0.004 C 
ENDBRANCH  14  15
ENDBRANCH  13  14
ENDBRANCH  12  13
ENDBRANCH  11  12
ENDBRANCH  10  11
ENDBRANCH   1  10
TORSDOF 12
ENDMDL
MODEL 2
REMARK VINA RESULT:    -3.068      1.466      2.973
REMARK INTER + INTRA:          -7.053
REMARK INTER:                  -5.351
REMARK INTRA:                  -1.702
REMARK UNBOUND:                -1.833
REMARK SMILES CCCCCCCCCCCCCC(=O)[O-]
REMARK SMILES IDX 8 1 9 2 10 3 11 4 12 5 13 6 14 7 15 8 16 9 7 10 6 11 5 12
REMARK SMILES IDX 4 13 3 14 2 15 1 16
REMARK H PARENT
REMARK Flexibility Score: inf
ROOT
ATOM      1  C   UNL     1      26.477  -5.468 -29.649  1.00  0.00     0.000 C 
ENDROOT
BRANCH   1   2
ATOM      2  C   UNL     1      25.592  -4.315 -29.151  1.00  0.00     0.000 C 
BRANCH   2   3
ATOM      3  C   UNL     1      24.380  -4.062 -30.066  1.00  0.00     0.000 C 
BRANCH   3   4
ATOM      4  C   UNL     1      24.136  -5.230 -31.045  1.00  0.00     0.000 C 
BRANCH   4   5
ATOM      5  C   UNL     1      23.991  -4.785 -32.510  1.00  0.00     0.006 C 
BRANCH   5   6
ATOM      6  C   UNL     1      25.222  -5.122 -33.360  1.00  0.00     0.053 C 
BRANCH   6   7
ATOM      7  C   UNL     1      26.276  -4.073 -33.191  1.00  0.00     0.041 C 
ATOM      8  O   UNL     1      27.456  -4.402 -32.901  1.00  0.00    -0.550 OA
ATOM      9  O   UNL     1      25.943  -2.729 -33.306  1.00  0.00    -0.550 OA
ENDBRANCH   6   7
ENDBRANCH   5   6
ENDBRANCH   4   5
ENDBRANCH   3   4
ENDBRANCH   2   3
ENDBRANCH   1   2
BRANCH   1  10
ATOM     10  C   UNL     1      27.326  -6.088 -28.524  1.00  0.00     0.000 C 
BRANCH  10  11
ATOM     11  C   UNL     1      26.922  -7.537 -28.210  1.00  0.00    -0.000 C 
BRANCH  11  12
ATOM     12  C   UNL     1      25.593  -7.935 -28.869  1.00  0.00    -0.000 C 
BRANCH  12  13
ATOM     13  C   UNL     1      24.438  -7.862 -27.863  1.00  0.00    -0.000 C 
BRANCH  13  14
ATOM     14  C   UNL     1      24.944  -8.050 -26.427  1.00  0.00    -0.000 C 
BRANCH  14  15
ATOM     15  C   UNL     1      24.545  -6.863 -25.543  1.00  0.00    -0.003 C 
ATOM     16  C   UNL     1      23.747  -5.831 -26.334  1.00  0.00     0.004 C 
ENDBRANCH  14  15
ENDBRANCH  13  14
ENDBRANCH  12  13
ENDBRANCH  11  12
ENDBRANCH  10  11
ENDBRANCH   1  10
TORSDOF 12
ENDMDL
MODEL 3
REMARK VINA RESULT:    -3.061      1.349      2.518
REMARK INTER + INTRA:          -7.041
REMARK INTER:                  -5.436
REMARK INTRA:                  -1.605
REMARK UNBOUND:                -1.833
REMARK SMILES CCCCCCCCCCCCCC(=O)[O-]
REMARK SMILES IDX 8 1 9 2 10 3 11 4 12 5 13 6 14 7 15 8 16 9 7 10 6 11 5 12
REMARK SMILES IDX 4 13 3 14 2 15 1 16
REMARK H PARENT
REMARK Flexibility Score: inf
ROOT
ATOM      1  C   UNL     1      24.983  -4.015 -27.963  1.00  0.00     0.000 C 
ENDROOT
BRANCH   1   2
ATOM      2  C   UNL     1      24.143  -4.460 -29.169  1.00  0.00     0.000 C 
BRANCH   2   3
ATOM      3  C   UNL     1      25.007  -4.833 -30.387  1.00  0.00     0.000 C 
BRANCH   3   4
ATOM      4  C   UNL     1      24.182  -5.516 -31.498  1.00  0.00     0.000 C 
BRANCH   4   5
ATOM      5  C   UNL     1      23.827  -4.579 -32.665  1.00  0.00     0.006 C 
BRANCH   5   6
ATOM      6  C   UNL     1      25.019  -3.739 -33.140  1.00  0.00     0.053 C 
BRANCH   6   7
ATOM      7  C   UNL     1      25.588  -4.308 -34.401  1.00  0.00     0.041 C 
ATOM      8  O   UNL     1      25.392  -3.729 -35.502  1.00  0.00    -0.550 OA
ATOM      9  O   UNL     1      26.295  -5.503 -34.367  1.00  0.00    -0.550 OA
ENDBRANCH   6   7
ENDBRANCH   5   6
ENDBRANCH   4   5
ENDBRANCH   3   4
ENDBRANCH   2   3
ENDBRANCH   1   2
BRANCH   1  10
ATOM     10  C   UNL     1      24.326  -4.383 -26.619  1.00  0.00     0.000 C 
BRANCH  10  11
ATOM     11  C   UNL     1      23.734  -5.801 -26.621  1.00  0.00    -0.000 C 
BRANCH  11  12
ATOM     12  C   UNL     1      24.485  -6.755 -25.680  1.00  0.00    -0.000 C 
BRANCH  12  13
ATOM     13  C   UNL     1      25.015  -7.975 -26.444  1.00  0.00    -0.000 C 
BRANCH  13  14
ATOM     14  C   UNL     1      24.678  -7.879 -27.938  1.00  0.00    -0.000 C 
BRANCH  14  15
ATOM     15  C   UNL     1      25.938  -8.042 -28.796  1.00  0.00    -0.003 C 
ATOM     16  C   UNL     1      27.073  -7.164 -28.280  1.00  0.00     0.004 C 
ENDBRANCH  14  15
ENDBRANCH  13  14
ENDBRANCH  12  13
ENDBRANCH  11  12
ENDBRANCH  10  11
ENDBRANCH   1  10
TORSDOF 12
ENDMDL
MODEL 4
REMARK VINA RESULT:    -3.050     13.289     15.004
REMARK INTER + INTRA:          -7.022
REMARK INTER:                  -4.971
REMARK INTRA:                  -2.051
REMARK UNBOUND:                -1.833
REMARK SMILES CCCCCCCCCCCCCC(=O)[O-]
REMARK SMILES IDX 8 1 9 2 10 3 11 4 12 5 13 6 14 7 15 8 16 9 7 10 6 11 5 12
REMARK SMILES IDX 4 13 3 14 2 15 1 16
REMARK H PARENT
REMARK Flexibility Score: inf
ROOT
ATOM      1  C   UNL     1      32.401   4.146 -32.704  1.00  0.00     0.000 C 
ENDROOT
BRANCH   1   2
ATOM      2  C   UNL     1      31.949   3.569 -31.355  1.00  0.00     0.000 C 
BRANCH   2   3
ATOM      3  C   UNL     1      33.117   2.986 -30.539  1.00  0.00     0.000 C 
BRANCH   3   4
ATOM      4  C   UNL     1      33.340   3.748 -29.216  1.00  0.00     0.000 C 
BRANCH   4   5
ATOM      5  C   UNL     1      34.820   3.863 -28.812  1.00  0.00     0.006 C 
BRANCH   5   6
ATOM      6  C   UNL     1      35.066   4.937 -27.746  1.00  0.00     0.053 C 
BRANCH   6   7
ATOM      7  C   UNL     1      35.487   4.305 -26.457  1.00  0.00     0.041 C 
ATOM      8  O   UNL     1      35.354   4.929 -25.371  1.00  0.00    -0.550 OA
ATOM      9  O   UNL     1      36.072   3.045 -26.460  1.00  0.00    -0.550 OA
ENDBRANCH   6   7
ENDBRANCH   5   6
ENDBRANCH   4   5
ENDBRANCH   3   4
ENDBRANCH   2   3
ENDBRANCH   1   2
BRANCH   1  10
ATOM     10  C   UNL     1      33.911   3.965 -32.947  1.00  0.00     0.000 C 
BRANCH  10  11
ATOM     11  C   UNL     1      34.649   5.304 -33.102  1.00  0.00    -0.000 C 
BRANCH  11  12
ATOM     12  C   UNL     1      35.162   5.854 -31.763  1.00  0.00    -0.000 C 
BRANCH  12  13
ATOM     13  C   UNL     1      34.582   7.246 -31.484  1.00  0.00    -0.000 C 
BRANCH  13  14
ATOM     14  C   UNL     1      33.717   7.238 -30.217  1.00  0.00    -0.000 C 
BRANCH  14  15
ATOM     15  C   UNL     1      32.228   7.144 -30.569  1.00  0.00    -0.003 C 
ATOM     16  C   UNL     1      31.359   7.265 -29.322  1.00  0.00     0.004 C 
ENDBRANCH  14  15
ENDBRANCH  13  14
ENDBRANCH  12  13
ENDBRANCH  11  12
ENDBRANCH  10  11
ENDBRANCH   1  10
TORSDOF 12
ENDMDL
MODEL 5
REMARK VINA RESULT:    -3.046      3.560      5.958
REMARK INTER + INTRA:          -7.016
REMARK INTER:                  -4.972
REMARK INTRA:                  -2.044
REMARK UNBOUND:                -1.833
REMARK SMILES CCCCCCCCCCCCCC(=O)[O-]
REMARK SMILES IDX 8 1 9 2 10 3 11 4 12 5 13 6 14 7 15 8 16 9 7 10 6 11 5 12
REMARK SMILES IDX 4 13 3 14 2 15 1 16
REMARK H PARENT
REMARK Flexibility Score: inf
ROOT
ATOM      1  C   UNL     1      26.867  -7.845 -28.341  1.00  0.00     0.000 C 
ENDROOT
BRANCH   1   2
ATOM      2  C   UNL     1      25.423  -8.080 -28.809  1.00  0.00     0.000 C 
BRANCH   2   3
ATOM      3  C   UNL     1      24.390  -7.803 -27.702  1.00  0.00     0.000 C 
BRANCH   3   4
ATOM      4  C   UNL     1      24.977  -8.018 -26.291  1.00  0.00     0.000 C 
BRANCH   4   5
ATOM      5  C   UNL     1      24.925  -6.762 -25.405  1.00  0.00     0.006 C 
BRANCH   5   6
ATOM      6  C   UNL     1      23.736  -5.850 -25.731  1.00  0.00     0.053 C 
BRANCH   6   7
ATOM      7  C   UNL     1      23.170  -5.263 -24.477  1.00  0.00     0.041 C 
ATOM      8  O   UNL     1      21.925  -5.140 -24.339  1.00  0.00    -0.550 OA
ATOM      9  O   UNL     1      24.022  -4.807 -23.478  1.00  0.00    -0.550 OA
ENDBRANCH   6   7
ENDBRANCH   5   6
ENDBRANCH   4   5
ENDBRANCH   3   4
ENDBRANCH   2   3
ENDBRANCH   1   2
BRANCH   1  10
ATOM     10  C   UNL     1      27.440  -6.508 -28.847  1.00  0.00     0.000 C 
BRANCH  10  11
ATOM     11  C   UNL     1      27.418  -5.412 -27.771  1.00  0.00    -0.000 C 
BRANCH  11  12
ATOM     12  C   UNL     1      26.324  -4.363 -28.019  1.00  0.00    -0.000 C 
BRANCH  12  13
ATOM     13  C   UNL     1      25.795  -4.450 -29.456  1.00  0.00    -0.000 C 
BRANCH  13  14
ATOM     14  C   UNL     1      24.262  -4.449 -29.480  1.00  0.00    -0.000 C 
BRANCH  14  15
ATOM     15  C   UNL     1      23.727  -5.481 -30.479  1.00  0.00    -0.003 C 
ATOM     16  C   UNL     1      24.397  -5.329 -31.840  1.00  0.00     0.004 C 
ENDBRANCH  14  15
ENDBRANCH  13  14
ENDBRANCH  12  13
ENDBRANCH  11  12
ENDBRANCH  10  11
ENDBRANCH   1  10
TORSDOF 12
ENDMDL
MODEL 6
REMARK VINA RESULT:    -3.042      1.578      3.267
REMARK INTER + INTRA:          -7.009
REMARK INTER:                  -4.955
REMARK INTRA:                  -2.054
REMARK UNBOUND:                -1.833
REMARK SMILES CCCCCCCCCCCCCC(=O)[O-]
REMARK SMILES IDX 8 1 9 2 10 3 11 4 12 5 13 6 14 7 15 8 16 9 7 10 6 11 5 12
REMARK SMILES IDX 4 13 3 14 2 15 1 16
REMARK H PARENT
REMARK Flexibility Score: inf
ROOT
ATOM      1  C   UNL     1      27.911  -6.815 -28.617  1.00  0.00     0.000 C 
ENDROOT
BRANCH   1   2
ATOM      2  C   UNL     1      27.700  -5.535 -27.795  1.00  0.00     0.000 C 
BRANCH   2   3
ATOM      3  C   UNL     1      26.692  -4.572 -28.448  1.00  0.00     0.000 C 
BRANCH   3   4
ATOM      4  C   UNL     1      26.926  -4.428 -29.966  1.00  0.00     0.000 C 
BRANCH   4   5
ATOM      5  C   UNL     1      25.700  -4.805 -30.816  1.00  0.00     0.006 C 
BRANCH   5   6
ATOM      6  C   UNL     1      24.374  -4.611 -30.071  1.00  0.00     0.053 C 
BRANCH   6   7
ATOM      7  C   UNL     1      23.672  -3.387 -30.568  1.00  0.00     0.041 C 
ATOM      8  O   UNL     1      22.758  -2.858 -29.883  1.00  0.00    -0.550 OA
ATOM      9  O   UNL     1      23.994  -2.859 -31.812  1.00  0.00    -0.550 OA
ENDBRANCH   6   7
ENDBRANCH   5   6
ENDBRANCH   4   5
ENDBRANCH   3   4
ENDBRANCH   2   3
ENDBRANCH   1   2
BRANCH   1  10
ATOM     10  C   UNL     1      26.994  -7.966 -28.162  1.00  0.00     0.000 C 
BRANCH  10  11
ATOM     11  C   UNL     1      25.629  -7.947 -28.868  1.00  0.00    -0.000 C 
BRANCH  11  12
ATOM     12  C   UNL     1      24.455  -7.871 -27.881  1.00  0.00    -0.000 C 
BRANCH  12  13
ATOM     13  C   UNL     1      24.942  -8.019 -26.435  1.00  0.00    -0.000 C 
BRANCH  13  14
ATOM     14  C   UNL     1      24.634  -6.757 -25.618  1.00  0.00    -0.000 C 
BRANCH  14  15
ATOM     15  C   UNL     1      23.725  -5.804 -26.401  1.00  0.00    -0.003 C 
ATOM     16  C   UNL     1      24.020  -4.349 -26.050  1.00  0.00     0.004 C 
ENDBRANCH  14  15
ENDBRANCH  13  14
ENDBRANCH  12  13
ENDBRANCH  11  12
ENDBRANCH  10  11
ENDBRANCH   1  10
TORSDOF 12
ENDMDL
MODEL 7
REMARK VINA RESULT:    -3.018      2.972      5.696
REMARK INTER + INTRA:          -6.968
REMARK INTER:                  -5.230
REMARK INTRA:                  -1.738
REMARK UNBOUND:                -1.833
REMARK SMILES CCCCCCCCCCCCCC(=O)[O-]
REMARK SMILES IDX 8 1 9 2 10 3 11 4 12 5 13 6 14 7 15 8 16 9 7 10 6 11 5 12
REMARK SMILES IDX 4 13 3 14 2 15 1 16
REMARK H PARENT
REMARK Flexibility Score: inf
ROOT
ATOM      1  C   UNL     1      27.550  -5.383 -28.064  1.00  0.00     0.000 C 
ENDROOT
BRANCH   1   2
ATOM      2  C   UNL     1      27.771  -6.712 -28.801  1.00  0.00     0.000 C 
BRANCH   2   3
ATOM      3  C   UNL     1      26.889  -7.847 -28.250  1.00  0.00     0.000 C 
BRANCH   3   4
ATOM      4  C   UNL     1      25.471  -7.829 -28.858  1.00  0.00     0.000 C 
BRANCH   4   5
ATOM      5  C   UNL     1      24.350  -7.814 -27.805  1.00  0.00     0.006 C 
BRANCH   5   6
ATOM      6  C   UNL     1      24.882  -7.757 -26.368  1.00  0.00     0.053 C 
BRANCH   6   7
ATOM      7  C   UNL     1      24.542  -6.443 -25.738  1.00  0.00     0.041 C 
ATOM      8  O   UNL     1      23.408  -5.927 -25.921  1.00  0.00    -0.550 OA
ATOM      9  O   UNL     1      25.495  -5.766 -24.987  1.00  0.00    -0.550 OA
ENDBRANCH   6   7
ENDBRANCH   5   6
ENDBRANCH   4   5
ENDBRANCH   3   4
ENDBRANCH   2   3
ENDBRANCH   1   2
BRANCH   1  10
ATOM     10  C   UNL     1      26.768  -4.362 -28.912  1.00  0.00     0.000 C 
BRANCH  10  11
ATOM     11  C   UNL     1      25.509  -3.845 -28.198  1.00  0.00    -0.000 C 
BRANCH  11  12
ATOM     12  C   UNL     1      24.213  -4.290 -28.891  1.00  0.00    -0.000 C 
BRANCH  12  13
ATOM     13  C   UNL     1      24.249  -3.961 -30.388  1.00  0.00    -0.000 C 
BRANCH  13  14
ATOM     14  C   UNL     1      24.080  -5.228 -31.236  1.00  0.00    -0.000 C 
BRANCH  14  15
ATOM     15  C   UNL     1      24.078  -4.893 -32.731  1.00  0.00    -0.003 C 
ATOM     16  C   UNL     1      25.495  -4.884 -33.296  1.00  0.00     0.004 C 
ENDBRANCH  14  15
ENDBRANCH  13  14
ENDBRANCH  12  13
ENDBRANCH  11  12
ENDBRANCH  10  11
ENDBRANCH   1  10
TORSDOF 12
ENDMDL
MODEL 8
REMARK VINA RESULT:    -3.002      1.375      2.612
REMARK INTER + INTRA:          -6.941
REMARK INTER:                  -5.075
REMARK INTRA:                  -1.866
REMARK UNBOUND:                -1.833
REMARK SMILES CCCCCCCCCCCCCC(=O)[O-]
REMARK SMILES IDX 8 1 9 2 10 3 11 4 12 5 13 6 14 7 15 8 16 9 7 10 6 11 5 12
REMARK SMILES IDX 4 13 3 14 2 15 1 16
REMARK H PARENT
REMARK Flexibility Score: inf
ROOT
ATOM      1  C   UNL     1      24.919  -7.748 -26.881  1.00  0.00     0.000 C 
ENDROOT
BRANCH   1   2
ATOM      2  C   UNL     1      24.494  -7.771 -28.356  1.00  0.00     0.000 C 
BRANCH   2   3
ATOM      3  C   UNL     1      23.961  -6.410 -28.840  1.00  0.00     0.000 C 
BRANCH   3   4
ATOM      4  C   UNL     1      24.032  -6.271 -30.376  1.00  0.00     0.000 C 
BRANCH   4   5
ATOM      5  C   UNL     1      24.286  -4.831 -30.852  1.00  0.00     0.006 C 
BRANCH   5   6
ATOM      6  C   UNL     1      25.268  -4.756 -32.028  1.00  0.00     0.053 C 
BRANCH   6   7
ATOM      7  C   UNL     1      24.548  -4.390 -33.287  1.00  0.00     0.041 C 
ATOM      8  O   UNL     1      23.291  -4.306 -33.297  1.00  0.00    -0.550 OA
ATOM      9  O   UNL     1      25.261  -4.188 -34.462  1.00  0.00    -0.550 OA
ENDBRANCH   6   7
ENDBRANCH   5   6
ENDBRANCH   4   5
ENDBRANCH   3   4
ENDBRANCH   2   3
ENDBRANCH   1   2
BRANCH   1  10
ATOM     10  C   UNL     1      26.426  -7.481 -26.705  1.00  0.00     0.000 C 
BRANCH  10  11
ATOM     11  C   UNL     1      27.253  -7.955 -27.910  1.00  0.00    -0.000 C 
BRANCH  11  12
ATOM     12  C   UNL     1      28.246  -6.891 -28.400  1.00  0.00    -0.000 C 
BRANCH  12  13
ATOM     13  C   UNL     1      27.529  -5.798 -29.200  1.00  0.00    -0.000 C 
BRANCH  13  14
ATOM     14  C   UNL     1      28.191  -4.431 -28.982  1.00  0.00    -0.000 C 
BRANCH  14  15
ATOM     15  C   UNL     1      27.143  -3.355 -28.677  1.00  0.00    -0.003 C 
ATOM     16  C   UNL     1      26.167  -3.826 -27.602  1.00  0.00     0.004 C 
ENDBRANCH  14  15
ENDBRANCH  13  14
ENDBRANCH  12  13
ENDBRANCH  11  12
ENDBRANCH  10  11
ENDBRANCH   1  10
TORSDOF 12
ENDMDL
MODEL 9
REMARK VINA RESULT:    -2.968     11.579     13.436
REMARK INTER + INTRA:          -6.882
REMARK INTER:                  -5.774
REMARK INTRA:                  -1.108
REMARK UNBOUND:                -1.833
REMARK SMILES CCCCCCCCCCCCCC(=O)[O-]
REMARK SMILES IDX 8 1 9 2 10 3 11 4 12 5 13 6 14 7 15 8 16 9 7 10 6 11 5 12
REMARK SMILES IDX 4 13 3 14 2 15 1 16
REMARK H PARENT
REMARK Flexibility Score: inf
ROOT
ATOM      1  C   UNL     1      33.166   0.184 -34.818  1.00  0.00     0.000 C 
ENDROOT
BRANCH   1   2
ATOM      2  C   UNL     1      32.164   0.713 -33.781  1.00  0.00     0.000 C 
BRANCH   2   3
ATOM      3  C   UNL     1      32.133   2.250 -33.719  1.00  0.00     0.000 C 
BRANCH   3   4
ATOM      4  C   UNL     1      33.513   2.846 -33.368  1.00  0.00     0.000 C 
BRANCH   4   5
ATOM      5  C   UNL     1      33.467   4.343 -33.018  1.00  0.00     0.006 C 
BRANCH   5   6
ATOM      6  C   UNL     1      34.859   4.984 -32.954  1.00  0.00     0.053 C 
BRANCH   6   7
ATOM      7  C   UNL     1      34.969   5.872 -31.755  1.00  0.00     0.041 C 
ATOM      8  O   UNL     1      36.045   6.480 -31.513  1.00  0.00    -0.550 OA
ATOM      9  O   UNL     1      33.898   5.992 -30.878  1.00  0.00    -0.550 OA
ENDBRANCH   6   7
ENDBRANCH   5   6
ENDBRANCH   4   5
ENDBRANCH   3   4
ENDBRANCH   2   3
ENDBRANCH   1   2
BRANCH   1  10
ATOM     10  C   UNL     1      33.042  -1.336 -35.036  1.00  0.00     0.000 C 
BRANCH  10  11
ATOM     11  C   UNL     1      33.471  -1.767 -36.447  1.00  0.00    -0.000 C 
BRANCH  11  12
ATOM     12  C   UNL     1      32.285  -1.877 -37.417  1.00  0.00    -0.000 C 
BRANCH  12  13
ATOM     13  C   UNL     1      32.448  -0.909 -38.595  1.00  0.00    -0.000 C 
BRANCH  13  14
ATOM     14  C   UNL     1      31.867   0.470 -38.259  1.00  0.00    -0.000 C 
BRANCH  14  15
ATOM     15  C   UNL     1      30.394   0.361 -37.848  1.00  0.00    -0.003 C 
ATOM     16  C   UNL     1      30.053   1.367 -36.753  1.00  0.00     0.004 C 
ENDBRANCH  14  15
ENDBRANCH  13  14
ENDBRANCH  12  13
ENDBRANCH  11  12
ENDBRANCH  10  11
ENDBRANCH   1  10
TORSDOF 12
ENDMDL
