MODEL 1
REMARK VINA RESULT:    -3.910      0.000      0.000
REMARK INTER + INTRA:          -7.279
REMARK INTER:                  -6.196
REMARK INTRA:                  -1.083
REMARK UNBOUND:                -1.083
REMARK SMILES CCCCCCCCCCCC(=O)[O-]
REMARK SMILES IDX 7 1 8 2 9 3 10 4 11 5 12 6 13 7 14 8 6 9 5 10 4 11 3 12 2 13
REMARK SMILES IDX 1 14
REMARK H PARENT
REMARK Flexibility Score: inf
ROOT
ATOM      1  C   UNL     1     129.594 136.062 130.371  1.00  0.00     0.000 C 
ENDROOT
BRANCH   1   2
ATOM      2  C   UNL     1     129.565 134.743 129.584  1.00  0.00     0.000 C 
BRANCH   2   3
ATOM      3  C   UNL     1     130.966 134.146 129.377  1.00  0.00     0.000 C 
BRANCH   3   4
ATOM      4  C   UNL     1     130.992 133.058 128.290  1.00  0.00     0.006 C 
BRANCH   4   5
ATOM      5  C   UNL     1     130.188 131.816 128.696  1.00  0.00     0.053 C 
BRANCH   5   6
ATOM      6  C   UNL     1     129.043 131.567 127.762  1.00  0.00     0.041 C 
ATOM      7  O   UNL     1     127.859 131.759 128.146  1.00  0.00    -0.550 OA
ATOM      8  O   UNL     1     129.286 131.155 126.458  1.00  0.00    -0.550 OA
ENDBRANCH   5   6
ENDBRANCH   4   5
ENDBRANCH   3   4
ENDBRANCH   2   3
ENDBRANCH   1   2
BRANCH   1   9
ATOM      9  C   UNL     1     130.985 136.711 130.302  1.00  0.00     0.000 C 
BRANCH   9  10
ATOM     10  C   UNL     1     131.234 137.710 131.442  1.00  0.00    -0.000 C 
BRANCH  10  11
ATOM     11  C   UNL     1     132.498 137.378 132.255  1.00  0.00    -0.000 C 
BRANCH  11  12
ATOM     12  C   UNL     1     133.007 135.951 131.997  1.00  0.00    -0.000 C 
BRANCH  12  13
ATOM     13  C   UNL     1     132.802 135.021 133.203  1.00  0.00    -0.003 C 
ATOM     14  C   UNL     1     131.775 133.936 132.891  1.00  0.00     0.004 C 
ENDBRANCH  12  13
ENDBRANCH  11  12
ENDBRANCH  10  11
ENDBRANCH   9  10
ENDBRANCH   1   9
TORSDOF 10
ENDMDL
MODEL 2
REMARK VINA RESULT:    -3.872      0.926      2.515
REMARK INTER + INTRA:          -7.218
REMARK INTER:                  -6.567
REMARK INTRA:                  -0.651
REMARK UNBOUND:                -1.083
REMARK SMILES CCCCCCCCCCCC(=O)[O-]
REMARK SMILES IDX 7 1 8 2 9 3 10 4 11 5 12 6 13 7 14 8 6 9 5 10 4 11 3 12 2 13
REMARK SMILES IDX 1 14
REMARK H PARENT
REMARK Flexibility Score: inf
ROOT
ATOM      1  C   UNL     1     131.765 133.315 130.740  1.00  0.00     0.000 C 
ENDROOT
BRANCH   1   2
ATOM      2  C   UNL     1     130.821 133.968 129.719  1.00  0.00     0.000 C 
BRANCH   2   3
ATOM      3  C   UNL     1     130.696 133.153 128.423  1.00  0.00     0.000 C 
BRANCH   3   4
ATOM      4  C   UNL     1     130.670 131.636 128.676  1.00  0.00     0.006 C 
BRANCH   4   5
ATOM      5  C   UNL     1     129.257 131.052 128.549  1.00  0.00     0.053 C 
BRANCH   5   6
ATOM      6  C   UNL     1     128.508 131.655 127.400  1.00  0.00     0.041 C 
ATOM      7  O   UNL     1     128.703 131.238 126.228  1.00  0.00    -0.550 OA
ATOM      8  O   UNL     1     127.570 132.654 127.628  1.00  0.00    -0.550 OA
ENDBRANCH   5   6
ENDBRANCH   4   5
ENDBRANCH   3   4
ENDBRANCH   2   3
ENDBRANCH   1   2
BRANCH   1   9
ATOM      9  C   UNL     1     131.376 133.707 132.174  1.00  0.00     0.000 C 
BRANCH   9  10
ATOM     10  C   UNL     1     132.349 134.719 132.799  1.00  0.00    -0.000 C 
BRANCH  10  11
ATOM     11  C   UNL     1     133.071 135.575 131.743  1.00  0.00    -0.000 C 
BRANCH  11  12
ATOM     12  C   UNL     1     133.135 137.061 132.131  1.00  0.00    -0.000 C 
BRANCH  12  13
ATOM     13  C   UNL     1     131.757 137.740 132.106  1.00  0.00    -0.003 C 
ATOM     14  C   UNL     1     131.014 137.424 130.810  1.00  0.00     0.004 C 
ENDBRANCH  12  13
ENDBRANCH  11  12
ENDBRANCH  10  11
ENDBRANCH   9  10
ENDBRANCH   1   9
TORSDOF 10
ENDMDL
MODEL 3
REMARK VINA RESULT:    -3.673      3.719      6.280
REMARK INTER + INTRA:          -6.903
REMARK INTER:                  -6.091
REMARK INTRA:                  -0.812
REMARK UNBOUND:                -1.083
REMARK SMILES CCCCCCCCCCCC(=O)[O-]
REMARK SMILES IDX 7 1 8 2 9 3 10 4 11 5 12 6 13 7 14 8 6 9 5 10 4 11 3 12 2 13
REMARK SMILES IDX 1 14
REMARK H PARENT
REMARK Flexibility Score: inf
ROOT
ATOM      1  C   UNL     1     129.970 135.826 130.420  1.00  0.00     0.000 C 
ENDROOT
BRANCH   1   2
ATOM      2  C   UNL     1     130.174 137.304 130.785  1.00  0.00     0.000 C 
BRANCH   2   3
ATOM      3  C   UNL     1     131.651 137.655 131.028  1.00  0.00     0.000 C 
BRANCH   3   4
ATOM      4  C   UNL     1     131.919 138.121 132.469  1.00  0.00     0.006 C 
BRANCH   4   5
ATOM      5  C   UNL     1     132.965 137.246 133.175  1.00  0.00     0.053 C 
BRANCH   5   6
ATOM      6  C   UNL     1     134.187 137.052 132.331  1.00  0.00     0.041 C 
ATOM      7  O   UNL     1     134.961 138.019 132.104  1.00  0.00    -0.550 OA
ATOM      8  O   UNL     1     134.489 135.795 131.823  1.00  0.00    -0.550 OA
ENDBRANCH   5   6
ENDBRANCH   4   5
ENDBRANCH   3   4
ENDBRANCH   2   3
ENDBRANCH   1   2
BRANCH   1   9
ATOM      9  C   UNL     1     131.318 135.097 130.312  1.00  0.00     0.000 C 
BRANCH   9  10
ATOM     10  C   UNL     1     131.204 133.589 130.587  1.00  0.00    -0.000 C 
BRANCH  10  11
ATOM     11  C   UNL     1     131.556 132.735 129.356  1.00  0.00    -0.000 C 
BRANCH  11  12
ATOM     12  C   UNL     1     130.587 132.961 128.184  1.00  0.00    -0.000 C 
BRANCH  12  13
ATOM     13  C   UNL     1     129.422 131.959 128.177  1.00  0.00    -0.003 C 
ATOM     14  C   UNL     1     128.095 132.664 127.907  1.00  0.00     0.004 C 
ENDBRANCH  12  13
ENDBRANCH  11  12
ENDBRANCH  10  11
ENDBRANCH   9  10
ENDBRANCH   1   9
TORSDOF 10
ENDMDL
MODEL 4
REMARK VINA RESULT:    -3.654     11.981     15.135
REMARK INTER + INTRA:          -6.874
REMARK INTER:                  -5.931
REMARK INTRA:                  -0.943
REMARK UNBOUND:                -1.083
REMARK SMILES CCCCCCCCCCCC(=O)[O-]
REMARK SMILES IDX 7 1 8 2 9 3 10 4 11 5 12 6 13 7 14 8 6 9 5 10 4 11 3 12 2 13
REMARK SMILES IDX 1 14
REMARK H PARENT
REMARK Flexibility Score: inf
ROOT
ATOM      1  C   UNL     1     124.796 118.731 130.995  1.00  0.00     0.000 C 
ENDROOT
BRANCH   1   2
ATOM      2  C   UNL     1     125.612 119.820 130.281  1.00  0.00     0.000 C 
BRANCH   2   3
ATOM      3  C   UNL     1     125.022 121.225 130.475  1.00  0.00     0.000 C 
BRANCH   3   4
ATOM      4  C   UNL     1     124.670 121.910 129.143  1.00  0.00     0.006 C 
BRANCH   4   5
ATOM      5  C   UNL     1     124.904 123.426 129.193  1.00  0.00     0.053 C 
BRANCH   5   6
ATOM      6  C   UNL     1     126.048 123.840 128.318  1.00  0.00     0.041 C 
ATOM      7  O   UNL     1     126.160 125.038 127.946  1.00  0.00    -0.550 OA
ATOM      8  O   UNL     1     127.008 122.909 127.942  1.00  0.00    -0.550 OA
ENDBRANCH   5   6
ENDBRANCH   4   5
ENDBRANCH   3   4
ENDBRANCH   2   3
ENDBRANCH   1   2
BRANCH   1   9
ATOM      9  C   UNL     1     123.514 119.320 131.605  1.00  0.00     0.000 C 
BRANCH   9  10
ATOM     10  C   UNL     1     123.145 118.677 132.951  1.00  0.00    -0.000 C 
BRANCH  10  11
ATOM     11  C   UNL     1     122.318 119.615 133.848  1.00  0.00    -0.000 C 
BRANCH  11  12
ATOM     12  C   UNL     1     122.565 121.100 133.534  1.00  0.00    -0.000 C 
BRANCH  12  13
ATOM     13  C   UNL     1     123.636 121.727 134.438  1.00  0.00    -0.003 C 
ATOM     14  C   UNL     1     124.456 122.767 133.678  1.00  0.00     0.004 C 
ENDBRANCH  12  13
ENDBRANCH  11  12
ENDBRANCH  10  11
ENDBRANCH   9  10
ENDBRANCH   1   9
TORSDOF 10
ENDMDL
MODEL 5
REMARK VINA RESULT:    -3.651     11.797     14.721
REMARK INTER + INTRA:          -6.868
REMARK INTER:                  -6.024
REMARK INTRA:                  -0.844
REMARK UNBOUND:                -1.083
REMARK SMILES CCCCCCCCCCCC(=O)[O-]
REMARK SMILES IDX 7 1 8 2 9 3 10 4 11 5 12 6 13 7 14 8 6 9 5 10 4 11 3 12 2 13
REMARK SMILES IDX 1 14
REMARK H PARENT
REMARK Flexibility Score: inf
ROOT
ATOM      1  C   UNL     1     123.702 122.382 131.309  1.00  0.00     0.000 C 
ENDROOT
BRANCH   1   2
ATOM      2  C   UNL     1     124.257 121.282 130.391  1.00  0.00     0.000 C 
BRANCH   2   3
ATOM      3  C   UNL     1     125.441 121.764 129.539  1.00  0.00     0.000 C 
BRANCH   3   4
ATOM      4  C   UNL     1     125.007 122.697 128.395  1.00  0.00     0.006 C 
BRANCH   4   5
ATOM      5  C   UNL     1     125.815 124.003 128.376  1.00  0.00     0.053 C 
BRANCH   5   6
ATOM      6  C   UNL     1     126.946 123.941 127.396  1.00  0.00     0.041 C 
ATOM      7  O   UNL     1     126.924 124.652 126.357  1.00  0.00    -0.550 OA
ATOM      8  O   UNL     1     128.040 123.123 127.647  1.00  0.00    -0.550 OA
ENDBRANCH   5   6
ENDBRANCH   4   5
ENDBRANCH   3   4
ENDBRANCH   2   3
ENDBRANCH   1   2
BRANCH   1   9
ATOM      9  C   UNL     1     124.389 122.346 132.683  1.00  0.00     0.000 C 
BRANCH   9  10
ATOM     10  C   UNL     1     123.415 122.023 133.827  1.00  0.00    -0.000 C 
BRANCH  10  11
ATOM     11  C   UNL     1     122.373 120.961 133.434  1.00  0.00    -0.000 C 
BRANCH  11  12
ATOM     12  C   UNL     1     122.881 119.527 133.649  1.00  0.00    -0.000 C 
BRANCH  12  13
ATOM     13  C   UNL     1     122.621 118.618 132.438  1.00  0.00    -0.003 C 
ATOM     14  C   UNL     1     123.908 117.936 131.978  1.00  0.00     0.004 C 
ENDBRANCH  12  13
ENDBRANCH  11  12
ENDBRANCH  10  11
ENDBRANCH   9  10
ENDBRANCH   1   9
TORSDOF 10
ENDMDL
MODEL 6
REMARK VINA RESULT:    -3.574     11.369     13.646
REMARK INTER + INTRA:          -6.747
REMARK INTER:                  -6.012
REMARK INTRA:                  -0.735
REMARK UNBOUND:                -1.083
REMARK SMILES CCCCCCCCCCCC(=O)[O-]
REMARK SMILES IDX 7 1 8 2 9 3 10 4 11 5 12 6 13 7 14 8 6 9 5 10 4 11 3 12 2 13
REMARK SMILES IDX 1 14
REMARK H PARENT
REMARK Flexibility Score: inf
ROOT
ATOM      1  C   UNL     1     124.074 120.510 131.089  1.00  0.00     0.000 C 
ENDROOT
BRANCH   1   2
ATOM      2  C   UNL     1     124.988 121.496 130.347  1.00  0.00     0.000 C 
BRANCH   2   3
ATOM      3  C   UNL     1     124.349 122.883 130.177  1.00  0.00     0.000 C 
BRANCH   3   4
ATOM      4  C   UNL     1     125.046 123.729 129.098  1.00  0.00     0.006 C 
BRANCH   4   5
ATOM      5  C   UNL     1     125.831 122.865 128.102  1.00  0.00     0.053 C 
BRANCH   5   6
ATOM      6  C   UNL     1     127.167 123.461 127.782  1.00  0.00     0.041 C 
ATOM      7  O   UNL     1     127.241 124.596 127.240  1.00  0.00    -0.550 OA
ATOM      8  O   UNL     1     128.331 122.780 128.113  1.00  0.00    -0.550 OA
ENDBRANCH   5   6
ENDBRANCH   4   5
ENDBRANCH   3   4
ENDBRANCH   2   3
ENDBRANCH   1   2
BRANCH   1   9
ATOM      9  C   UNL     1     123.085 121.257 131.997  1.00  0.00     0.000 C 
BRANCH   9  10
ATOM     10  C   UNL     1     123.075 120.720 133.437  1.00  0.00    -0.000 C 
BRANCH  10  11
ATOM     11  C   UNL     1     123.598 121.748 134.455  1.00  0.00    -0.000 C 
BRANCH  11  12
ATOM     12  C   UNL     1     124.500 122.812 133.810  1.00  0.00    -0.000 C 
BRANCH  12  13
ATOM     13  C   UNL     1     125.326 123.594 134.842  1.00  0.00    -0.003 C 
ATOM     14  C   UNL     1     125.769 124.944 134.281  1.00  0.00     0.004 C 
ENDBRANCH  12  13
ENDBRANCH  11  12
ENDBRANCH  10  11
ENDBRANCH   9  10
ENDBRANCH   1   9
TORSDOF 10
ENDMDL
MODEL 7
REMARK VINA RESULT:    -3.562      3.278      5.919
REMARK INTER + INTRA:          -6.727
REMARK INTER:                  -5.992
REMARK INTRA:                  -0.735
REMARK UNBOUND:                -1.083
REMARK SMILES CCCCCCCCCCCC(=O)[O-]
REMARK SMILES IDX 7 1 8 2 9 3 10 4 11 5 12 6 13 7 14 8 6 9 5 10 4 11 3 12 2 13
REMARK SMILES IDX 1 14
REMARK H PARENT
REMARK Flexibility Score: inf
ROOT
ATOM      1  C   UNL     1     130.389 135.661 130.910  1.00  0.00     0.000 C 
ENDROOT
BRANCH   1   2
ATOM      2  C   UNL     1     130.993 137.074 130.886  1.00  0.00     0.000 C 
BRANCH   2   3
ATOM      3  C   UNL     1     132.342 137.153 131.617  1.00  0.00     0.000 C 
BRANCH   3   4
ATOM      4  C   UNL     1     132.456 136.132 132.763  1.00  0.00     0.006 C 
BRANCH   4   5
ATOM      5  C   UNL     1     133.912 135.740 133.047  1.00  0.00     0.053 C 
BRANCH   5   6
ATOM      6  C   UNL     1     134.085 134.254 133.112  1.00  0.00     0.041 C 
ATOM      7  O   UNL     1     133.768 133.625 134.156  1.00  0.00    -0.550 OA
ATOM      8  O   UNL     1     134.563 133.559 132.008  1.00  0.00    -0.550 OA
ENDBRANCH   5   6
ENDBRANCH   4   5
ENDBRANCH   3   4
ENDBRANCH   2   3
ENDBRANCH   1   2
BRANCH   1   9
ATOM      9  C   UNL     1     131.011 134.781 129.814  1.00  0.00     0.000 C 
BRANCH   9  10
ATOM     10  C   UNL     1     131.446 133.402 130.334  1.00  0.00    -0.000 C 
BRANCH  10  11
ATOM     11  C   UNL     1     131.121 132.268 129.346  1.00  0.00    -0.000 C 
BRANCH  11  12
ATOM     12  C   UNL     1     130.399 132.772 128.086  1.00  0.00    -0.000 C 
BRANCH  12  13
ATOM     13  C   UNL     1     129.119 131.981 127.780  1.00  0.00    -0.003 C 
ATOM     14  C   UNL     1     129.240 130.535 128.255  1.00  0.00     0.004 C 
ENDBRANCH  12  13
ENDBRANCH  11  12
ENDBRANCH  10  11
ENDBRANCH   9  10
ENDBRANCH   1   9
TORSDOF 10
ENDMDL
MODEL 8
REMARK VINA RESULT:    -3.538     13.505     15.835
REMARK INTER + INTRA:          -6.689
REMARK INTER:                  -5.554
REMARK INTRA:                  -1.135
REMARK UNBOUND:                -1.083
REMARK SMILES CCCCCCCCCCCC(=O)[O-]
REMARK SMILES IDX 7 1 8 2 9 3 10 4 11 5 12 6 13 7 14 8 6 9 5 10 4 11 3 12 2 13
REMARK SMILES IDX 1 14
REMARK H PARENT
REMARK Flexibility Score: inf
ROOT
ATOM      1  C   UNL     1     122.995 118.995 132.101  1.00  0.00     0.000 C 
ENDROOT
BRANCH   1   2
ATOM      2  C   UNL     1     124.215 118.210 131.597  1.00  0.00     0.000 C 
BRANCH   2   3
ATOM      3  C   UNL     1     125.109 119.041 130.664  1.00  0.00     0.000 C 
BRANCH   3   4
ATOM      4  C   UNL     1     124.605 120.484 130.490  1.00  0.00     0.006 C 
BRANCH   4   5
ATOM      5  C   UNL     1     125.635 121.377 129.785  1.00  0.00     0.053 C 
BRANCH   5   6
ATOM      6  C   UNL     1     124.982 122.515 129.063  1.00  0.00     0.041 C 
ATOM      7  O   UNL     1     124.555 122.358 127.888  1.00  0.00    -0.550 OA
ATOM      8  O   UNL     1     124.814 123.738 129.699  1.00  0.00    -0.550 OA
ENDBRANCH   5   6
ENDBRANCH   4   5
ENDBRANCH   3   4
ENDBRANCH   2   3
ENDBRANCH   1   2
BRANCH   1   9
ATOM      9  C   UNL     1     122.732 118.703 133.587  1.00  0.00     0.000 C 
BRANCH   9  10
ATOM     10  C   UNL     1     122.568 119.981 134.425  1.00  0.00    -0.000 C 
BRANCH  10  11
ATOM     11  C   UNL     1     123.412 121.151 133.889  1.00  0.00    -0.000 C 
BRANCH  11  12
ATOM     12  C   UNL     1     122.576 122.419 133.648  1.00  0.00    -0.000 C 
BRANCH  12  13
ATOM     13  C   UNL     1     122.047 122.515 132.209  1.00  0.00    -0.003 C 
ATOM     14  C   UNL     1     120.565 122.153 132.144  1.00  0.00     0.004 C 
ENDBRANCH  12  13
ENDBRANCH  11  12
ENDBRANCH  10  11
ENDBRANCH   9  10
ENDBRANCH   1   9
TORSDOF 10
ENDMDL
MODEL 9
REMARK VINA RESULT:    -3.520     11.588     14.197
REMARK INTER + INTRA:          -6.661
REMARK INTER:                  -5.927
REMARK INTRA:                  -0.734
REMARK UNBOUND:                -1.083
REMARK SMILES CCCCCCCCCCCC(=O)[O-]
REMARK SMILES IDX 7 1 8 2 9 3 10 4 11 5 12 6 13 7 14 8 6 9 5 10 4 11 3 12 2 13
REMARK SMILES IDX 1 14
REMARK H PARENT
REMARK Flexibility Score: inf
ROOT
ATOM      1  C   UNL     1     124.234 120.195 131.221  1.00  0.00     0.000 C 
ENDROOT
BRANCH   1   2
ATOM      2  C   UNL     1     123.395 121.275 131.923  1.00  0.00     0.000 C 
BRANCH   2   3
ATOM      3  C   UNL     1     123.245 121.020 133.430  1.00  0.00     0.000 C 
BRANCH   3   4
ATOM      4  C   UNL     1     123.699 122.218 134.282  1.00  0.00     0.006 C 
BRANCH   4   5
ATOM      5  C   UNL     1     124.860 122.983 133.632  1.00  0.00     0.053 C 
BRANCH   5   6
ATOM      6  C   UNL     1     125.444 124.001 134.563  1.00  0.00     0.041 C 
ATOM      7  O   UNL     1     124.714 124.902 135.054  1.00  0.00    -0.550 OA
ATOM      8  O   UNL     1     126.786 123.934 134.914  1.00  0.00    -0.550 OA
ENDBRANCH   5   6
ENDBRANCH   4   5
ENDBRANCH   3   4
ENDBRANCH   2   3
ENDBRANCH   1   2
BRANCH   1   9
ATOM      9  C   UNL     1     125.133 120.817 130.140  1.00  0.00     0.000 C 
BRANCH   9  10
ATOM     10  C   UNL     1     124.820 122.300 129.887  1.00  0.00    -0.000 C 
BRANCH  10  11
ATOM     11  C   UNL     1     125.266 122.768 128.490  1.00  0.00    -0.000 C 
BRANCH  11  12
ATOM     12  C   UNL     1     125.670 124.251 128.467  1.00  0.00    -0.000 C 
BRANCH  12  13
ATOM     13  C   UNL     1     127.157 124.456 128.139  1.00  0.00    -0.003 C 
ATOM     14  C   UNL     1     127.820 123.135 127.754  1.00  0.00     0.004 C 
ENDBRANCH  12  13
ENDBRANCH  11  12
ENDBRANCH  10  11
ENDBRANCH   9  10
ENDBRANCH   1   9
TORSDOF 10
ENDMDL
