MODEL 1
REMARK VINA RESULT:    -6.868      0.000      0.000
REMARK INTER + INTRA:         -19.397
REMARK INTER:                 -17.306
REMARK INTRA:                  -2.091
REMARK UNBOUND:                -2.091
REMARK SMILES CCCCCCCCCCCCCCCCCCCCCCCCCCCC(=O)[O-]
REMARK SMILES IDX 15 1 16 2 17 3 18 4 19 5 20 6 21 7 22 8 23 9 24 10 25 11
REMARK SMILES IDX 26 12 27 13 28 14 29 15 30 16 14 17 13 18 12 19 11 20 10 21
REMARK SMILES IDX 9 22 8 23 7 24 6 25 5 26 4 27 3 28 2 29 1 30
REMARK H PARENT
REMARK Flexibility Score: inf
ROOT
ATOM      1  C   UNL     1     -22.548 -22.458  31.378  1.00  0.00     0.000 C 
ENDROOT
BRANCH   1   2
ATOM      2  C   UNL     1     -22.114 -23.719  30.606  1.00  0.00     0.000 C 
BRANCH   2   3
ATOM      3  C   UNL     1     -22.007 -23.549  29.077  1.00  0.00     0.000 C 
BRANCH   3   4
ATOM      4  C   UNL     1     -22.897 -24.496  28.247  1.00  0.00     0.000 C 
BRANCH   4   5
ATOM      5  C   UNL     1     -23.507 -25.666  29.038  1.00  0.00     0.000 C 
BRANCH   5   6
ATOM      6  C   UNL     1     -24.986 -25.440  29.387  1.00  0.00     0.000 C 
BRANCH   6   7
ATOM      7  C   UNL     1     -25.215 -25.550  30.902  1.00  0.00     0.000 C 
BRANCH   7   8
ATOM      8  C   UNL     1     -25.587 -26.977  31.340  1.00  0.00     0.000 C 
BRANCH   8   9
ATOM      9  C   UNL     1     -25.317 -28.018  30.240  1.00  0.00     0.000 C 
BRANCH   9  10
ATOM     10  C   UNL     1     -26.472 -29.023  30.097  1.00  0.00     0.000 C 
BRANCH  10  11
ATOM     11  C   UNL     1     -26.988 -29.169  28.645  1.00  0.00     0.000 C 
BRANCH  11  12
ATOM     12  C   UNL     1     -26.129 -28.413  27.613  1.00  0.00     0.006 C 
BRANCH  12  13
ATOM     13  C   UNL     1     -26.938 -27.839  26.441  1.00  0.00     0.053 C 
BRANCH  13  14
ATOM     14  C   UNL     1     -26.913 -28.745  25.249  1.00  0.00     0.041 C 
ATOM     15  O   UNL     1     -27.989 -29.205  24.781  1.00  0.00    -0.550 OA
ATOM     16  O   UNL     1     -25.703 -29.123  24.682  1.00  0.00    -0.550 OA
ENDBRANCH  13  14
ENDBRANCH  12  13
ENDBRANCH  11  12
ENDBRANCH  10  11
ENDBRANCH   9  10
ENDBRANCH   8   9
ENDBRANCH   7   8
ENDBRANCH   6   7
ENDBRANCH   5   6
ENDBRANCH   4   5
ENDBRANCH   3   4
ENDBRANCH   2   3
ENDBRANCH   1   2
BRANCH   1  17
ATOM     17  C   UNL     1     -21.395 -21.562  31.863  1.00  0.00     0.000 C 
BRANCH  17  18
ATOM     18  C   UNL     1     -21.357 -20.199  31.156  1.00  0.00     0.000 C 
BRANCH  18  19
ATOM     19  C   UNL     1     -22.222 -20.222  29.889  1.00  0.00     0.000 C 
BRANCH  19  20
ATOM     20  C   UNL     1     -21.435 -19.728  28.665  1.00  0.00     0.000 C 
BRANCH  20  21
ATOM     21  C   UNL     1     -20.077 -19.119  29.051  1.00  0.00     0.000 C 
BRANCH  21  22
ATOM     22  C   UNL     1     -20.121 -17.582  29.133  1.00  0.00    -0.000 C 
BRANCH  22  23
ATOM     23  C   UNL     1     -19.609 -17.055  30.491  1.00  0.00    -0.000 C 
BRANCH  23  24
ATOM     24  C   UNL     1     -18.197 -16.449  30.433  1.00  0.00    -0.000 C 
BRANCH  24  25
ATOM     25  C   UNL     1     -18.180 -15.035  29.834  1.00  0.00    -0.000 C 
BRANCH  25  26
ATOM     26  C   UNL     1     -17.189 -14.884  28.664  1.00  0.00    -0.000 C 
BRANCH  26  27
ATOM     27  C   UNL     1     -17.243 -16.002  27.607  1.00  0.00    -0.000 C 
BRANCH  27  28
ATOM     28  C   UNL     1     -18.021 -15.599  26.342  1.00  0.00    -0.000 C 
BRANCH  28  29
ATOM     29  C   UNL     1     -17.107 -15.028  25.247  1.00  0.00    -0.003 C 
ATOM     30  C   UNL     1     -16.239 -16.100  24.585  1.00  0.00     0.004 C 
ENDBRANCH  28  29
ENDBRANCH  27  28
ENDBRANCH  26  27
ENDBRANCH  25  26
ENDBRANCH  24  25
ENDBRANCH  23  24
ENDBRANCH  22  23
ENDBRANCH  21  22
ENDBRANCH  20  21
ENDBRANCH  19  20
ENDBRANCH  18  19
ENDBRANCH  17  18
ENDBRANCH   1  17
TORSDOF 26
ENDMDL
MODEL 2
REMARK VINA RESULT:    -6.576      4.298     12.404
REMARK INTER + INTRA:         -18.662
REMARK INTER:                 -16.612
REMARK INTRA:                  -2.050
REMARK UNBOUND:                -2.091
REMARK SMILES CCCCCCCCCCCCCCCCCCCCCCCCCCCC(=O)[O-]
REMARK SMILES IDX 15 1 16 2 17 3 18 4 19 5 20 6 21 7 22 8 23 9 24 10 25 11
REMARK SMILES IDX 26 12 27 13 28 14 29 15 30 16 14 17 13 18 12 19 11 20 10 21
REMARK SMILES IDX 9 22 8 23 7 24 6 25 5 26 4 27 3 28 2 29 1 30
REMARK H PARENT
REMARK Flexibility Score: inf
ROOT
ATOM      1  C   UNL     1     -21.712 -22.166  31.788  1.00  0.00     0.000 C 
ENDROOT
BRANCH   1   2
ATOM      2  C   UNL     1     -21.640 -20.792  31.094  1.00  0.00     0.000 C 
BRANCH   2   3
ATOM      3  C   UNL     1     -22.332 -20.714  29.719  1.00  0.00     0.000 C 
BRANCH   3   4
ATOM      4  C   UNL     1     -21.450 -20.183  28.570  1.00  0.00     0.000 C 
BRANCH   4   5
ATOM      5  C   UNL     1     -21.188 -18.668  28.605  1.00  0.00     0.000 C 
BRANCH   5   6
ATOM      6  C   UNL     1     -19.691 -18.324  28.599  1.00  0.00     0.000 C 
BRANCH   6   7
ATOM      7  C   UNL     1     -19.030 -18.724  29.927  1.00  0.00     0.000 C 
BRANCH   7   8
ATOM      8  C   UNL     1     -19.395 -17.771  31.077  1.00  0.00     0.000 C 
BRANCH   8   9
ATOM      9  C   UNL     1     -19.323 -16.292  30.659  1.00  0.00     0.000 C 
BRANCH   9  10
ATOM     10  C   UNL     1     -17.892 -15.859  30.300  1.00  0.00     0.000 C 
BRANCH  10  11
ATOM     11  C   UNL     1     -17.832 -14.786  29.187  1.00  0.00     0.000 C 
BRANCH  11  12
ATOM     12  C   UNL     1     -16.964 -15.200  27.985  1.00  0.00     0.006 C 
BRANCH  12  13
ATOM     13  C   UNL     1     -17.722 -16.018  26.929  1.00  0.00     0.053 C 
BRANCH  13  14
ATOM     14  C   UNL     1     -17.448 -15.529  25.541  1.00  0.00     0.041 C 
ATOM     15  O   UNL     1     -18.402 -15.197  24.787  1.00  0.00    -0.550 OA
ATOM     16  O   UNL     1     -16.146 -15.481  25.059  1.00  0.00    -0.550 OA
ENDBRANCH  13  14
ENDBRANCH  12  13
ENDBRANCH  11  12
ENDBRANCH  10  11
ENDBRANCH   9  10
ENDBRANCH   8   9
ENDBRANCH   7   8
ENDBRANCH   6   7
ENDBRANCH   5   6
ENDBRANCH   4   5
ENDBRANCH   3   4
ENDBRANCH   2   3
ENDBRANCH   1   2
BRANCH   1  17
ATOM     17  C   UNL     1     -23.024 -22.940  31.567  1.00  0.00     0.000 C 
BRANCH  17  18
ATOM     18  C   UNL     1     -22.808 -24.311  30.910  1.00  0.00     0.000 C 
BRANCH  18  19
ATOM     19  C   UNL     1     -22.293 -24.147  29.473  1.00  0.00     0.000 C 
BRANCH  19  20
ATOM     20  C   UNL     1     -23.215 -24.851  28.465  1.00  0.00     0.000 C 
BRANCH  20  21
ATOM     21  C   UNL     1     -23.764 -26.183  29.007  1.00  0.00     0.000 C 
BRANCH  21  22
ATOM     22  C   UNL     1     -25.203 -26.055  29.539  1.00  0.00    -0.000 C 
BRANCH  22  23
ATOM     23  C   UNL     1     -25.472 -27.003  30.727  1.00  0.00    -0.000 C 
BRANCH  23  24
ATOM     24  C   UNL     1     -25.909 -28.417  30.310  1.00  0.00    -0.000 C 
BRANCH  24  25
ATOM     25  C   UNL     1     -26.942 -28.411  29.174  1.00  0.00    -0.000 C 
BRANCH  25  26
ATOM     26  C   UNL     1     -26.411 -29.032  27.868  1.00  0.00    -0.000 C 
BRANCH  26  27
ATOM     27  C   UNL     1     -26.477 -28.119  26.631  1.00  0.00    -0.000 C 
BRANCH  27  28
ATOM     28  C   UNL     1     -26.658 -28.897  25.316  1.00  0.00    -0.000 C 
BRANCH  28  29
ATOM     29  C   UNL     1     -28.136 -29.065  24.929  1.00  0.00    -0.003 C 
ATOM     30  C   UNL     1     -28.583 -28.065  23.861  1.00  0.00     0.004 C 
ENDBRANCH  28  29
ENDBRANCH  27  28
ENDBRANCH  26  27
ENDBRANCH  25  26
ENDBRANCH  24  25
ENDBRANCH  23  24
ENDBRANCH  22  23
ENDBRANCH  21  22
ENDBRANCH  20  21
ENDBRANCH  19  20
ENDBRANCH  18  19
ENDBRANCH  17  18
ENDBRANCH   1  17
TORSDOF 26
ENDMDL
MODEL 3
REMARK VINA RESULT:    -6.509      1.083      2.184
REMARK INTER + INTRA:         -18.494
REMARK INTER:                 -16.221
REMARK INTRA:                  -2.273
REMARK UNBOUND:                -2.091
REMARK SMILES CCCCCCCCCCCCCCCCCCCCCCCCCCCC(=O)[O-]
REMARK SMILES IDX 15 1 16 2 17 3 18 4 19 5 20 6 21 7 22 8 23 9 24 10 25 11
REMARK SMILES IDX 26 12 27 13 28 14 29 15 30 16 14 17 13 18 12 19 11 20 10 21
REMARK SMILES IDX 9 22 8 23 7 24 6 25 5 26 4 27 3 28 2 29 1 30
REMARK H PARENT
REMARK Flexibility Score: inf
ROOT
ATOM      1  C   UNL     1     -22.519 -21.271  28.607  1.00  0.00     0.000 C 
ENDROOT
BRANCH   1   2
ATOM      2  C   UNL     1     -22.156 -22.756  28.408  1.00  0.00     0.000 C 
BRANCH   2   3
ATOM      3  C   UNL     1     -21.865 -23.540  29.703  1.00  0.00     0.000 C 
BRANCH   3   4
ATOM      4  C   UNL     1     -22.347 -22.864  31.003  1.00  0.00     0.000 C 
BRANCH   4   5
ATOM      5  C   UNL     1     -23.467 -23.615  31.744  1.00  0.00     0.000 C 
BRANCH   5   6
ATOM      6  C   UNL     1     -23.474 -25.120  31.442  1.00  0.00     0.000 C 
BRANCH   6   7
ATOM      7  C   UNL     1     -24.912 -25.651  31.333  1.00  0.00     0.000 C 
BRANCH   7   8
ATOM      8  C   UNL     1     -25.413 -25.702  29.880  1.00  0.00     0.000 C 
BRANCH   8   9
ATOM      9  C   UNL     1     -24.315 -26.140  28.895  1.00  0.00     0.000 C 
BRANCH   9  10
ATOM     10  C   UNL     1     -24.714 -27.396  28.103  1.00  0.00     0.000 C 
BRANCH  10  11
ATOM     11  C   UNL     1     -25.835 -28.221  28.778  1.00  0.00     0.000 C 
BRANCH  11  12
ATOM     12  C   UNL     1     -26.873 -28.771  27.781  1.00  0.00     0.006 C 
BRANCH  12  13
ATOM     13  C   UNL     1     -26.998 -27.936  26.498  1.00  0.00     0.053 C 
BRANCH  13  14
ATOM     14  C   UNL     1     -26.956 -28.793  25.270  1.00  0.00     0.041 C 
ATOM     15  O   UNL     1     -28.026 -29.225  24.763  1.00  0.00    -0.550 OA
ATOM     16  O   UNL     1     -25.738 -29.155  24.709  1.00  0.00    -0.550 OA
ENDBRANCH  13  14
ENDBRANCH  12  13
ENDBRANCH  11  12
ENDBRANCH  10  11
ENDBRANCH   9  10
ENDBRANCH   8   9
ENDBRANCH   7   8
ENDBRANCH   6   7
ENDBRANCH   5   6
ENDBRANCH   4   5
ENDBRANCH   3   4
ENDBRANCH   2   3
ENDBRANCH   1   2
BRANCH   1  17
ATOM     17  C   UNL     1     -21.388 -20.277  28.292  1.00  0.00     0.000 C 
BRANCH  17  18
ATOM     18  C   UNL     1     -21.292 -19.135  29.315  1.00  0.00     0.000 C 
BRANCH  18  19
ATOM     19  C   UNL     1     -21.345 -19.686  30.747  1.00  0.00     0.000 C 
BRANCH  19  20
ATOM     20  C   UNL     1     -20.309 -18.997  31.650  1.00  0.00     0.000 C 
BRANCH  20  21
ATOM     21  C   UNL     1     -19.098 -18.476  30.857  1.00  0.00     0.000 C 
BRANCH  21  22
ATOM     22  C   UNL     1     -18.411 -17.284  31.547  1.00  0.00    -0.000 C 
BRANCH  22  23
ATOM     23  C   UNL     1     -18.269 -16.068  30.606  1.00  0.00    -0.000 C 
BRANCH  23  24
ATOM     24  C   UNL     1     -18.520 -16.393  29.124  1.00  0.00    -0.000 C 
BRANCH  24  25
ATOM     25  C   UNL     1     -17.599 -15.609  28.178  1.00  0.00    -0.000 C 
BRANCH  25  26
ATOM     26  C   UNL     1     -17.497 -16.235  26.773  1.00  0.00    -0.000 C 
BRANCH  26  27
ATOM     27  C   UNL     1     -17.868 -15.299  25.609  1.00  0.00    -0.000 C 
BRANCH  27  28
ATOM     28  C   UNL     1     -16.703 -15.062  24.631  1.00  0.00    -0.000 C 
BRANCH  28  29
ATOM     29  C   UNL     1     -15.997 -16.366  24.230  1.00  0.00    -0.003 C 
ATOM     30  C   UNL     1     -14.913 -16.149  23.173  1.00  0.00     0.004 C 
ENDBRANCH  28  29
ENDBRANCH  27  28
ENDBRANCH  26  27
ENDBRANCH  25  26
ENDBRANCH  24  25
ENDBRANCH  23  24
ENDBRANCH  22  23
ENDBRANCH  21  22
ENDBRANCH  20  21
ENDBRANCH  19  20
ENDBRANCH  18  19
ENDBRANCH  17  18
ENDBRANCH   1  17
TORSDOF 26
ENDMDL
MODEL 4
REMARK VINA RESULT:    -6.452      4.298     12.395
REMARK INTER + INTRA:         -18.350
REMARK INTER:                 -16.362
REMARK INTRA:                  -1.988
REMARK UNBOUND:                -2.091
REMARK SMILES CCCCCCCCCCCCCCCCCCCCCCCCCCCC(=O)[O-]
REMARK SMILES IDX 15 1 16 2 17 3 18 4 19 5 20 6 21 7 22 8 23 9 24 10 25 11
REMARK SMILES IDX 26 12 27 13 28 14 29 15 30 16 14 17 13 18 12 19 11 20 10 21
REMARK SMILES IDX 9 22 8 23 7 24 6 25 5 26 4 27 3 28 2 29 1 30
REMARK H PARENT
REMARK Flexibility Score: inf
ROOT
ATOM      1  C   UNL     1     -21.657 -21.619  31.705  1.00  0.00     0.000 C 
ENDROOT
BRANCH   1   2
ATOM      2  C   UNL     1     -21.632 -20.354  30.826  1.00  0.00     0.000 C 
BRANCH   2   3
ATOM      3  C   UNL     1     -21.902 -20.591  29.327  1.00  0.00     0.000 C 
BRANCH   3   4
ATOM      4  C   UNL     1     -21.253 -19.567  28.373  1.00  0.00     0.000 C 
BRANCH   4   5
ATOM      5  C   UNL     1     -20.658 -18.328  29.064  1.00  0.00     0.000 C 
BRANCH   5   6
ATOM      6  C   UNL     1     -19.141 -18.437  29.276  1.00  0.00     0.000 C 
BRANCH   6   7
ATOM      7  C   UNL     1     -18.789 -18.371  30.770  1.00  0.00     0.000 C 
BRANCH   7   8
ATOM      8  C   UNL     1     -18.190 -17.014  31.175  1.00  0.00     0.000 C 
BRANCH   8   9
ATOM      9  C   UNL     1     -18.881 -15.833  30.472  1.00  0.00     0.000 C 
BRANCH   9  10
ATOM     10  C   UNL     1     -17.871 -14.812  29.923  1.00  0.00     0.000 C 
BRANCH  10  11
ATOM     11  C   UNL     1     -17.093 -15.319  28.685  1.00  0.00     0.000 C 
BRANCH  11  12
ATOM     12  C   UNL     1     -18.009 -15.763  27.528  1.00  0.00     0.006 C 
BRANCH  12  13
ATOM     13  C   UNL     1     -17.245 -16.306  26.311  1.00  0.00     0.053 C 
BRANCH  13  14
ATOM     14  C   UNL     1     -17.345 -15.385  25.134  1.00  0.00     0.041 C 
ATOM     15  O   UNL     1     -16.304 -14.872  24.642  1.00  0.00    -0.550 OA
ATOM     16  O   UNL     1     -18.587 -15.055  24.607  1.00  0.00    -0.550 OA
ENDBRANCH  13  14
ENDBRANCH  12  13
ENDBRANCH  11  12
ENDBRANCH  10  11
ENDBRANCH   9  10
ENDBRANCH   8   9
ENDBRANCH   7   8
ENDBRANCH   6   7
ENDBRANCH   5   6
ENDBRANCH   4   5
ENDBRANCH   3   4
ENDBRANCH   2   3
ENDBRANCH   1   2
BRANCH   1  17
ATOM     17  C   UNL     1     -22.764 -22.631  31.361  1.00  0.00     0.000 C 
BRANCH  17  18
ATOM     18  C   UNL     1     -22.213 -23.984  30.887  1.00  0.00     0.000 C 
BRANCH  18  19
ATOM     19  C   UNL     1     -21.872 -23.934  29.391  1.00  0.00     0.000 C 
BRANCH  19  20
ATOM     20  C   UNL     1     -23.087 -24.309  28.528  1.00  0.00     0.000 C 
BRANCH  20  21
ATOM     21  C   UNL     1     -23.710 -25.652  28.948  1.00  0.00     0.000 C 
BRANCH  21  22
ATOM     22  C   UNL     1     -25.144 -25.495  29.485  1.00  0.00    -0.000 C 
BRANCH  22  23
ATOM     23  C   UNL     1     -25.429 -26.441  30.672  1.00  0.00    -0.000 C 
BRANCH  23  24
ATOM     24  C   UNL     1     -25.044 -27.906  30.408  1.00  0.00    -0.000 C 
BRANCH  24  25
ATOM     25  C   UNL     1     -26.266 -28.826  30.262  1.00  0.00    -0.000 C 
BRANCH  25  26
ATOM     26  C   UNL     1     -26.968 -28.689  28.898  1.00  0.00    -0.000 C 
BRANCH  26  27
ATOM     27  C   UNL     1     -26.044 -28.351  27.714  1.00  0.00    -0.000 C 
BRANCH  27  28
ATOM     28  C   UNL     1     -26.812 -27.903  26.458  1.00  0.00    -0.000 C 
BRANCH  28  29
ATOM     29  C   UNL     1     -27.319 -29.089  25.623  1.00  0.00    -0.003 C 
ATOM     30  C   UNL     1     -28.008 -28.648  24.331  1.00  0.00     0.004 C 
ENDBRANCH  28  29
ENDBRANCH  27  28
ENDBRANCH  26  27
ENDBRANCH  25  26
ENDBRANCH  24  25
ENDBRANCH  23  24
ENDBRANCH  22  23
ENDBRANCH  21  22
ENDBRANCH  20  21
ENDBRANCH  19  20
ENDBRANCH  18  19
ENDBRANCH  17  18
ENDBRANCH   1  17
TORSDOF 26
ENDMDL
MODEL 5
REMARK VINA RESULT:    -6.344      0.992      1.715
REMARK INTER + INTRA:         -18.077
REMARK INTER:                 -15.810
REMARK INTRA:                  -2.267
REMARK UNBOUND:                -2.091
REMARK SMILES CCCCCCCCCCCCCCCCCCCCCCCCCCCC(=O)[O-]
REMARK SMILES IDX 15 1 16 2 17 3 18 4 19 5 20 6 21 7 22 8 23 9 24 10 25 11
REMARK SMILES IDX 26 12 27 13 28 14 29 15 30 16 14 17 13 18 12 19 11 20 10 21
REMARK SMILES IDX 9 22 8 23 7 24 6 25 5 26 4 27 3 28 2 29 1 30
REMARK H PARENT
REMARK Flexibility Score: inf
ROOT
ATOM      1  C   UNL     1     -22.196 -21.930  28.347  1.00  0.00     0.000 C 
ENDROOT
BRANCH   1   2
ATOM      2  C   UNL     1     -21.805 -23.355  28.786  1.00  0.00     0.000 C 
BRANCH   2   3
ATOM      3  C   UNL     1     -22.756 -24.472  28.314  1.00  0.00     0.000 C 
BRANCH   3   4
ATOM      4  C   UNL     1     -23.242 -25.432  29.419  1.00  0.00     0.000 C 
BRANCH   4   5
ATOM      5  C   UNL     1     -22.990 -24.942  30.856  1.00  0.00     0.000 C 
BRANCH   5   6
ATOM      6  C   UNL     1     -24.286 -24.769  31.661  1.00  0.00     0.000 C 
BRANCH   6   7
ATOM      7  C   UNL     1     -25.467 -25.452  30.953  1.00  0.00     0.000 C 
BRANCH   7   8
ATOM      8  C   UNL     1     -25.941 -26.717  31.687  1.00  0.00     0.000 C 
BRANCH   8   9
ATOM      9  C   UNL     1     -25.458 -28.009  31.004  1.00  0.00     0.000 C 
BRANCH   9  10
ATOM     10  C   UNL     1     -25.783 -28.026  29.501  1.00  0.00     0.000 C 
BRANCH  10  11
ATOM     11  C   UNL     1     -26.786 -29.133  29.099  1.00  0.00     0.000 C 
BRANCH  11  12
ATOM     12  C   UNL     1     -27.438 -28.897  27.724  1.00  0.00     0.006 C 
BRANCH  12  13
ATOM     13  C   UNL     1     -26.482 -28.297  26.683  1.00  0.00     0.053 C 
BRANCH  13  14
ATOM     14  C   UNL     1     -26.732 -28.847  25.313  1.00  0.00     0.041 C 
ATOM     15  O   UNL     1     -27.912 -29.064  24.924  1.00  0.00    -0.550 OA
ATOM     16  O   UNL     1     -25.668 -29.166  24.480  1.00  0.00    -0.550 OA
ENDBRANCH  13  14
ENDBRANCH  12  13
ENDBRANCH  11  12
ENDBRANCH  10  11
ENDBRANCH   9  10
ENDBRANCH   8   9
ENDBRANCH   7   8
ENDBRANCH   6   7
ENDBRANCH   5   6
ENDBRANCH   4   5
ENDBRANCH   3   4
ENDBRANCH   2   3
ENDBRANCH   1   2
BRANCH   1  17
ATOM     17  C   UNL     1     -22.426 -20.934  29.497  1.00  0.00     0.000 C 
BRANCH  17  18
ATOM     18  C   UNL     1     -22.328 -21.586  30.884  1.00  0.00     0.000 C 
BRANCH  18  19
ATOM     19  C   UNL     1     -21.044 -21.143  31.599  1.00  0.00     0.000 C 
BRANCH  19  20
ATOM     20  C   UNL     1     -20.886 -19.615  31.567  1.00  0.00     0.000 C 
BRANCH  20  21
ATOM     21  C   UNL     1     -19.448 -19.184  31.229  1.00  0.00     0.000 C 
BRANCH  21  22
ATOM     22  C   UNL     1     -19.255 -17.659  31.309  1.00  0.00    -0.000 C 
BRANCH  22  23
ATOM     23  C   UNL     1     -19.906 -16.924  30.117  1.00  0.00    -0.000 C 
BRANCH  23  24
ATOM     24  C   UNL     1     -19.739 -17.649  28.772  1.00  0.00    -0.000 C 
BRANCH  24  25
ATOM     25  C   UNL     1     -19.038 -16.786  27.713  1.00  0.00    -0.000 C 
BRANCH  25  26
ATOM     26  C   UNL     1     -17.823 -16.016  28.265  1.00  0.00    -0.000 C 
BRANCH  26  27
ATOM     27  C   UNL     1     -17.150 -15.050  27.274  1.00  0.00    -0.000 C 
BRANCH  27  28
ATOM     28  C   UNL     1     -17.414 -15.416  25.803  1.00  0.00    -0.000 C 
BRANCH  28  29
ATOM     29  C   UNL     1     -16.161 -15.268  24.925  1.00  0.00    -0.003 C 
ATOM     30  C   UNL     1     -15.956 -16.458  23.986  1.00  0.00     0.004 C 
ENDBRANCH  28  29
ENDBRANCH  27  28
ENDBRANCH  26  27
ENDBRANCH  25  26
ENDBRANCH  24  25
ENDBRANCH  23  24
ENDBRANCH  22  23
ENDBRANCH  21  22
ENDBRANCH  20  21
ENDBRANCH  19  20
ENDBRANCH  18  19
ENDBRANCH  17  18
ENDBRANCH   1  17
TORSDOF 26
ENDMDL
MODEL 6
REMARK VINA RESULT:    -6.104      4.417     12.491
REMARK INTER + INTRA:         -17.474
REMARK INTER:                 -15.251
REMARK INTRA:                  -2.223
REMARK UNBOUND:                -2.091
REMARK SMILES CCCCCCCCCCCCCCCCCCCCCCCCCCCC(=O)[O-]
REMARK SMILES IDX 15 1 16 2 17 3 18 4 19 5 20 6 21 7 22 8 23 9 24 10 25 11
REMARK SMILES IDX 26 12 27 13 28 14 29 15 30 16 14 17 13 18 12 19 11 20 10 21
REMARK SMILES IDX 9 22 8 23 7 24 6 25 5 26 4 27 3 28 2 29 1 30
REMARK H PARENT
REMARK Flexibility Score: inf
ROOT
ATOM      1  C   UNL     1     -22.541 -21.298  29.261  1.00  0.00     0.000 C 
ENDROOT
BRANCH   1   2
ATOM      2  C   UNL     1     -21.600 -20.457  28.377  1.00  0.00     0.000 C 
BRANCH   2   3
ATOM      3  C   UNL     1     -21.518 -18.961  28.742  1.00  0.00     0.000 C 
BRANCH   3   4
ATOM      4  C   UNL     1     -20.186 -18.270  28.386  1.00  0.00     0.000 C 
BRANCH   4   5
ATOM      5  C   UNL     1     -18.999 -18.656  29.285  1.00  0.00     0.000 C 
BRANCH   5   6
ATOM      6  C   UNL     1     -19.365 -18.679  30.777  1.00  0.00     0.000 C 
BRANCH   6   7
ATOM      7  C   UNL     1     -19.114 -17.308  31.424  1.00  0.00     0.000 C 
BRANCH   7   8
ATOM      8  C   UNL     1     -17.994 -16.521  30.722  1.00  0.00     0.000 C 
BRANCH   8   9
ATOM      9  C   UNL     1     -18.508 -15.228  30.066  1.00  0.00     0.000 C 
BRANCH   9  10
ATOM     10  C   UNL     1     -17.496 -14.643  29.068  1.00  0.00     0.000 C 
BRANCH  10  11
ATOM     11  C   UNL     1     -16.984 -15.673  28.033  1.00  0.00     0.000 C 
BRANCH  11  12
ATOM     12  C   UNL     1     -18.030 -16.034  26.961  1.00  0.00     0.006 C 
BRANCH  12  13
ATOM     13  C   UNL     1     -17.817 -15.310  25.624  1.00  0.00     0.053 C 
BRANCH  13  14
ATOM     14  C   UNL     1     -16.460 -15.582  25.052  1.00  0.00     0.041 C 
ATOM     15  O   UNL     1     -15.589 -14.671  25.028  1.00  0.00    -0.550 OA
ATOM     16  O   UNL     1     -16.167 -16.824  24.503  1.00  0.00    -0.550 OA
ENDBRANCH  13  14
ENDBRANCH  12  13
ENDBRANCH  11  12
ENDBRANCH  10  11
ENDBRANCH   9  10
ENDBRANCH   8   9
ENDBRANCH   7   8
ENDBRANCH   6   7
ENDBRANCH   5   6
ENDBRANCH   4   5
ENDBRANCH   3   4
ENDBRANCH   2   3
ENDBRANCH   1   2
BRANCH   1  17
ATOM     17  C   UNL     1     -22.372 -21.089  30.775  1.00  0.00     0.000 C 
BRANCH  17  18
ATOM     18  C   UNL     1     -22.064 -22.392  31.529  1.00  0.00     0.000 C 
BRANCH  18  19
ATOM     19  C   UNL     1     -23.350 -23.193  31.773  1.00  0.00     0.000 C 
BRANCH  19  20
ATOM     20  C   UNL     1     -23.236 -24.619  31.210  1.00  0.00     0.000 C 
BRANCH  20  21
ATOM     21  C   UNL     1     -22.538 -24.652  29.840  1.00  0.00     0.000 C 
BRANCH  21  22
ATOM     22  C   UNL     1     -23.430 -25.250  28.738  1.00  0.00    -0.000 C 
BRANCH  22  23
ATOM     23  C   UNL     1     -24.171 -26.520  29.212  1.00  0.00    -0.000 C 
BRANCH  23  24
ATOM     24  C   UNL     1     -25.658 -26.557  28.821  1.00  0.00    -0.000 C 
BRANCH  24  25
ATOM     25  C   UNL     1     -26.324 -27.904  29.140  1.00  0.00    -0.000 C 
BRANCH  25  26
ATOM     26  C   UNL     1     -26.482 -28.810  27.904  1.00  0.00    -0.000 C 
BRANCH  26  27
ATOM     27  C   UNL     1     -26.554 -28.073  26.554  1.00  0.00    -0.000 C 
BRANCH  27  28
ATOM     28  C   UNL     1     -26.548 -29.026  25.346  1.00  0.00    -0.000 C 
BRANCH  28  29
ATOM     29  C   UNL     1     -27.927 -29.136  24.677  1.00  0.00    -0.003 C 
ATOM     30  C   UNL     1     -28.530 -27.771  24.341  1.00  0.00     0.004 C 
ENDBRANCH  28  29
ENDBRANCH  27  28
ENDBRANCH  26  27
ENDBRANCH  25  26
ENDBRANCH  24  25
ENDBRANCH  23  24
ENDBRANCH  22  23
ENDBRANCH  21  22
ENDBRANCH  20  21
ENDBRANCH  19  20
ENDBRANCH  18  19
ENDBRANCH  17  18
ENDBRANCH   1  17
TORSDOF 26
ENDMDL
MODEL 7
REMARK VINA RESULT:    -5.743      0.988      2.005
REMARK INTER + INTRA:         -16.563
REMARK INTER:                 -15.229
REMARK INTRA:                  -1.333
REMARK UNBOUND:                -2.091
REMARK SMILES CCCCCCCCCCCCCCCCCCCCCCCCCCCC(=O)[O-]
REMARK SMILES IDX 15 1 16 2 17 3 18 4 19 5 20 6 21 7 22 8 23 9 24 10 25 11
REMARK SMILES IDX 26 12 27 13 28 14 29 15 30 16 14 17 13 18 12 19 11 20 10 21
REMARK SMILES IDX 9 22 8 23 7 24 6 25 5 26 4 27 3 28 2 29 1 30
REMARK H PARENT
REMARK Flexibility Score: inf
ROOT
ATOM      1  C   UNL     1     -21.840 -23.595  29.826  1.00  0.00     0.000 C 
ENDROOT
BRANCH   1   2
ATOM      2  C   UNL     1     -22.743 -24.005  28.646  1.00  0.00     0.000 C 
BRANCH   2   3
ATOM      3  C   UNL     1     -23.431 -25.376  28.791  1.00  0.00     0.000 C 
BRANCH   3   4
ATOM      4  C   UNL     1     -24.835 -25.341  29.429  1.00  0.00     0.000 C 
BRANCH   4   5
ATOM      5  C   UNL     1     -24.855 -25.537  30.955  1.00  0.00     0.000 C 
BRANCH   5   6
ATOM      6  C   UNL     1     -25.658 -26.774  31.385  1.00  0.00     0.000 C 
BRANCH   6   7
ATOM      7  C   UNL     1     -25.248 -28.007  30.564  1.00  0.00     0.000 C 
BRANCH   7   8
ATOM      8  C   UNL     1     -26.431 -28.950  30.287  1.00  0.00     0.000 C 
BRANCH   8   9
ATOM      9  C   UNL     1     -26.732 -29.088  28.784  1.00  0.00     0.000 C 
BRANCH   9  10
ATOM     10  C   UNL     1     -26.067 -27.977  27.955  1.00  0.00     0.000 C 
BRANCH  10  11
ATOM     11  C   UNL     1     -26.762 -27.721  26.596  1.00  0.00     0.000 C 
BRANCH  11  12
ATOM     12  C   UNL     1     -26.317 -28.695  25.489  1.00  0.00     0.006 C 
BRANCH  12  13
ATOM     13  C   UNL     1     -27.430 -29.641  25.016  1.00  0.00     0.053 C 
BRANCH  13  14
ATOM     14  C   UNL     1     -28.669 -28.894  24.630  1.00  0.00     0.041 C 
ATOM     15  O   UNL     1     -29.800 -29.309  25.002  1.00  0.00    -0.550 OA
ATOM     16  O   UNL     1     -28.586 -27.768  23.821  1.00  0.00    -0.550 OA
ENDBRANCH  13  14
ENDBRANCH  12  13
ENDBRANCH  11  12
ENDBRANCH  10  11
ENDBRANCH   9  10
ENDBRANCH   8   9
ENDBRANCH   7   8
ENDBRANCH   6   7
ENDBRANCH   5   6
ENDBRANCH   4   5
ENDBRANCH   3   4
ENDBRANCH   2   3
ENDBRANCH   1   2
BRANCH   1  17
ATOM     17  C   UNL     1     -22.510 -22.691  30.876  1.00  0.00     0.000 C 
BRANCH  17  18
ATOM     18  C   UNL     1     -21.570 -21.604  31.419  1.00  0.00     0.000 C 
BRANCH  18  19
ATOM     19  C   UNL     1     -21.884 -20.247  30.775  1.00  0.00     0.000 C 
BRANCH  19  20
ATOM     20  C   UNL     1     -21.590 -20.263  29.266  1.00  0.00     0.000 C 
BRANCH  20  21
ATOM     21  C   UNL     1     -21.011 -18.927  28.770  1.00  0.00     0.000 C 
BRANCH  21  22
ATOM     22  C   UNL     1     -19.523 -18.759  29.128  1.00  0.00    -0.000 C 
BRANCH  22  23
ATOM     23  C   UNL     1     -19.266 -18.912  30.643  1.00  0.00    -0.000 C 
BRANCH  23  24
ATOM     24  C   UNL     1     -18.677 -17.655  31.305  1.00  0.00    -0.000 C 
BRANCH  24  25
ATOM     25  C   UNL     1     -19.011 -16.366  30.539  1.00  0.00    -0.000 C 
BRANCH  25  26
ATOM     26  C   UNL     1     -17.770 -15.511  30.220  1.00  0.00    -0.000 C 
BRANCH  26  27
ATOM     27  C   UNL     1     -17.791 -14.808  28.851  1.00  0.00    -0.000 C 
BRANCH  27  28
ATOM     28  C   UNL     1     -18.005 -15.780  27.677  1.00  0.00    -0.000 C 
BRANCH  28  29
ATOM     29  C   UNL     1     -16.958 -15.602  26.567  1.00  0.00    -0.003 C 
ATOM     30  C   UNL     1     -17.590 -15.423  25.185  1.00  0.00     0.004 C 
ENDBRANCH  28  29
ENDBRANCH  27  28
ENDBRANCH  26  27
ENDBRANCH  25  26
ENDBRANCH  24  25
ENDBRANCH  23  24
ENDBRANCH  22  23
ENDBRANCH  21  22
ENDBRANCH  20  21
ENDBRANCH  19  20
ENDBRANCH  18  19
ENDBRANCH  17  18
ENDBRANCH   1  17
TORSDOF 26
ENDMDL
MODEL 8
REMARK VINA RESULT:    -5.385      1.907      3.045
REMARK INTER + INTRA:         -15.661
REMARK INTER:                 -13.648
REMARK INTRA:                  -2.013
REMARK UNBOUND:                -2.091
REMARK SMILES CCCCCCCCCCCCCCCCCCCCCCCCCCCC(=O)[O-]
REMARK SMILES IDX 15 1 16 2 17 3 18 4 19 5 20 6 21 7 22 8 23 9 24 10 25 11
REMARK SMILES IDX 26 12 27 13 28 14 29 15 30 16 14 17 13 18 12 19 11 20 10 21
REMARK SMILES IDX 9 22 8 23 7 24 6 25 5 26 4 27 3 28 2 29 1 30
REMARK H PARENT
REMARK Flexibility Score: inf
ROOT
ATOM      1  C   UNL     1     -22.523 -20.368  28.887  1.00  0.00     0.000 C 
ENDROOT
BRANCH   1   2
ATOM      2  C   UNL     1     -22.085 -21.740  28.338  1.00  0.00     0.000 C 
BRANCH   2   3
ATOM      3  C   UNL     1     -22.425 -22.946  29.237  1.00  0.00     0.000 C 
BRANCH   3   4
ATOM      4  C   UNL     1     -21.947 -22.831  30.699  1.00  0.00     0.000 C 
BRANCH   4   5
ATOM      5  C   UNL     1     -23.075 -22.714  31.739  1.00  0.00     0.000 C 
BRANCH   5   6
ATOM      6  C   UNL     1     -23.928 -23.987  31.837  1.00  0.00     0.000 C 
BRANCH   6   7
ATOM      7  C   UNL     1     -23.117 -25.224  31.419  1.00  0.00     0.000 C 
BRANCH   7   8
ATOM      8  C   UNL     1     -24.009 -26.370  30.912  1.00  0.00     0.000 C 
BRANCH   8   9
ATOM      9  C   UNL     1     -24.051 -26.445  29.376  1.00  0.00     0.000 C 
BRANCH   9  10
ATOM     10  C   UNL     1     -25.221 -25.640  28.788  1.00  0.00     0.000 C 
BRANCH  10  11
ATOM     11  C   UNL     1     -26.265 -26.515  28.054  1.00  0.00     0.000 C 
BRANCH  11  12
ATOM     12  C   UNL     1     -25.809 -27.974  27.857  1.00  0.00     0.006 C 
BRANCH  12  13
ATOM     13  C   UNL     1     -26.872 -29.010  28.251  1.00  0.00     0.053 C 
BRANCH  13  14
ATOM     14  C   UNL     1     -26.642 -29.548  29.629  1.00  0.00     0.041 C 
ATOM     15  O   UNL     1     -26.318 -28.770  30.566  1.00  0.00    -0.550 OA
ATOM     16  O   UNL     1     -26.739 -30.912  29.874  1.00  0.00    -0.550 OA
ENDBRANCH  13  14
ENDBRANCH  12  13
ENDBRANCH  11  12
ENDBRANCH  10  11
ENDBRANCH   9  10
ENDBRANCH   8   9
ENDBRANCH   7   8
ENDBRANCH   6   7
ENDBRANCH   5   6
ENDBRANCH   4   5
ENDBRANCH   3   4
ENDBRANCH   2   3
ENDBRANCH   1   2
BRANCH   1  17
ATOM     17  C   UNL     1     -21.459 -19.260  28.795  1.00  0.00     0.000 C 
BRANCH  17  18
ATOM     18  C   UNL     1     -20.226 -19.538  29.668  1.00  0.00     0.000 C 
BRANCH  18  19
ATOM     19  C   UNL     1     -20.586 -19.439  31.157  1.00  0.00     0.000 C 
BRANCH  19  20
ATOM     20  C   UNL     1     -20.079 -18.123  31.769  1.00  0.00     0.000 C 
BRANCH  20  21
ATOM     21  C   UNL     1     -18.620 -17.825  31.386  1.00  0.00     0.000 C 
BRANCH  21  22
ATOM     22  C   UNL     1     -18.329 -16.316  31.297  1.00  0.00    -0.000 C 
BRANCH  22  23
ATOM     23  C   UNL     1     -18.167 -15.838  29.838  1.00  0.00    -0.000 C 
BRANCH  23  24
ATOM     24  C   UNL     1     -18.803 -16.777  28.799  1.00  0.00    -0.000 C 
BRANCH  24  25
ATOM     25  C   UNL     1     -18.065 -16.763  27.453  1.00  0.00    -0.000 C 
BRANCH  25  26
ATOM     26  C   UNL     1     -17.745 -15.342  26.951  1.00  0.00    -0.000 C 
BRANCH  26  27
ATOM     27  C   UNL     1     -17.534 -15.214  25.431  1.00  0.00    -0.000 C 
BRANCH  27  28
ATOM     28  C   UNL     1     -16.555 -16.259  24.868  1.00  0.00    -0.000 C 
BRANCH  28  29
ATOM     29  C   UNL     1     -15.348 -15.618  24.167  1.00  0.00    -0.003 C 
ATOM     30  C   UNL     1     -15.041 -16.262  22.814  1.00  0.00     0.004 C 
ENDBRANCH  28  29
ENDBRANCH  27  28
ENDBRANCH  26  27
ENDBRANCH  25  26
ENDBRANCH  24  25
ENDBRANCH  23  24
ENDBRANCH  22  23
ENDBRANCH  21  22
ENDBRANCH  20  21
ENDBRANCH  19  20
ENDBRANCH  18  19
ENDBRANCH  17  18
ENDBRANCH   1  17
TORSDOF 26
ENDMDL
MODEL 9
REMARK VINA RESULT:    -4.998      2.721      4.979
REMARK INTER + INTRA:         -14.687
REMARK INTER:                 -13.408
REMARK INTRA:                  -1.279
REMARK UNBOUND:                -2.091
REMARK SMILES CCCCCCCCCCCCCCCCCCCCCCCCCCCC(=O)[O-]
REMARK SMILES IDX 15 1 16 2 17 3 18 4 19 5 20 6 21 7 22 8 23 9 24 10 25 11
REMARK SMILES IDX 26 12 27 13 28 14 29 15 30 16 14 17 13 18 12 19 11 20 10 21
REMARK SMILES IDX 9 22 8 23 7 24 6 25 5 26 4 27 3 28 2 29 1 30
REMARK H PARENT
REMARK Flexibility Score: inf
ROOT
ATOM      1  C   UNL     1     -20.914 -19.122  30.561  1.00  0.00     0.000 C 
ENDROOT
BRANCH   1   2
ATOM      2  C   UNL     1     -21.006 -20.401  31.417  1.00  0.00     0.000 C 
BRANCH   2   3
ATOM      3  C   UNL     1     -22.031 -21.444  30.930  1.00  0.00     0.000 C 
BRANCH   3   4
ATOM      4  C   UNL     1     -22.641 -21.167  29.541  1.00  0.00     0.000 C 
BRANCH   4   5
ATOM      5  C   UNL     1     -21.997 -21.953  28.385  1.00  0.00     0.000 C 
BRANCH   5   6
ATOM      6  C   UNL     1     -21.777 -23.435  28.724  1.00  0.00     0.000 C 
BRANCH   6   7
ATOM      7  C   UNL     1     -23.103 -24.211  28.678  1.00  0.00     0.000 C 
BRANCH   7   8
ATOM      8  C   UNL     1     -23.295 -25.121  29.902  1.00  0.00     0.000 C 
BRANCH   8   9
ATOM      9  C   UNL     1     -24.779 -25.403  30.197  1.00  0.00     0.000 C 
BRANCH   9  10
ATOM     10  C   UNL     1     -25.181 -26.840  29.826  1.00  0.00     0.000 C 
BRANCH  10  11
ATOM     11  C   UNL     1     -26.161 -26.918  28.632  1.00  0.00     0.000 C 
BRANCH  11  12
ATOM     12  C   UNL     1     -25.785 -28.001  27.602  1.00  0.00     0.006 C 
BRANCH  12  13
ATOM     13  C   UNL     1     -26.995 -28.746  27.022  1.00  0.00     0.053 C 
BRANCH  13  14
ATOM     14  C   UNL     1     -26.957 -28.793  25.526  1.00  0.00     0.041 C 
ATOM     15  O   UNL     1     -28.030 -28.780  24.864  1.00  0.00    -0.550 OA
ATOM     16  O   UNL     1     -25.743 -28.899  24.859  1.00  0.00    -0.550 OA
ENDBRANCH  13  14
ENDBRANCH  12  13
ENDBRANCH  11  12
ENDBRANCH  10  11
ENDBRANCH   9  10
ENDBRANCH   8   9
ENDBRANCH   7   8
ENDBRANCH   6   7
ENDBRANCH   5   6
ENDBRANCH   4   5
ENDBRANCH   3   4
ENDBRANCH   2   3
ENDBRANCH   1   2
BRANCH   1  17
ATOM     17  C   UNL     1     -19.622 -18.981  29.739  1.00  0.00     0.000 C 
BRANCH  17  18
ATOM     18  C   UNL     1     -19.651 -17.782  28.778  1.00  0.00     0.000 C 
BRANCH  18  19
ATOM     19  C   UNL     1     -18.225 -17.346  28.414  1.00  0.00     0.000 C 
BRANCH  19  20
ATOM     20  C   UNL     1     -18.147 -15.830  28.177  1.00  0.00     0.000 C 
BRANCH  20  21
ATOM     21  C   UNL     1     -17.044 -15.451  27.174  1.00  0.00     0.000 C 
BRANCH  21  22
ATOM     22  C   UNL     1     -17.463 -15.702  25.714  1.00  0.00    -0.000 C 
BRANCH  22  23
ATOM     23  C   UNL     1     -16.343 -15.341  24.715  1.00  0.00    -0.000 C 
BRANCH  23  24
ATOM     24  C   UNL     1     -15.928 -16.502  23.796  1.00  0.00    -0.000 C 
BRANCH  24  25
ATOM     25  C   UNL     1     -14.817 -16.113  22.809  1.00  0.00    -0.000 C 
BRANCH  25  26
ATOM     26  C   UNL     1     -14.998 -16.741  21.414  1.00  0.00    -0.000 C 
BRANCH  26  27
ATOM     27  C   UNL     1     -13.739 -16.748  20.529  1.00  0.00    -0.000 C 
BRANCH  27  28
ATOM     28  C   UNL     1     -13.808 -17.782  19.391  1.00  0.00    -0.000 C 
BRANCH  28  29
ATOM     29  C   UNL     1     -13.718 -17.135  18.001  1.00  0.00    -0.003 C 
ATOM     30  C   UNL     1     -13.623 -18.166  16.875  1.00  0.00     0.004 C 
ENDBRANCH  28  29
ENDBRANCH  27  28
ENDBRANCH  26  27
ENDBRANCH  25  26
ENDBRANCH  24  25
ENDBRANCH  23  24
ENDBRANCH  22  23
ENDBRANCH  21  22
ENDBRANCH  20  21
ENDBRANCH  19  20
ENDBRANCH  18  19
ENDBRANCH  17  18
ENDBRANCH   1  17
TORSDOF 26
ENDMDL
