MODEL 1
REMARK VINA RESULT:    -2.587      0.000      0.000
REMARK INTER + INTRA:          -6.983
REMARK INTER:                  -4.705
REMARK INTRA:                  -2.278
REMARK UNBOUND:                -2.278
REMARK SMILES CCCCCCCCCCCCCCCC(=O)[O-]
REMARK SMILES IDX 9 1 10 2 11 3 12 4 13 5 14 6 15 7 16 8 17 9 18 10 8 11 7 12
REMARK SMILES IDX 6 13 5 14 4 15 3 16 2 17 1 18
REMARK H PARENT
REMARK Flexibility Score: inf
ROOT
ATOM      1  C   UNL     1     145.850 151.449 155.287  1.00  0.00     0.000 C 
ENDROOT
BRANCH   1   2
ATOM      2  C   UNL     1     144.720 150.445 155.569  1.00  0.00     0.000 C 
BRANCH   2   3
ATOM      3  C   UNL     1     144.197 149.760 154.293  1.00  0.00     0.000 C 
BRANCH   3   4
ATOM      4  C   UNL     1     144.556 150.478 152.978  1.00  0.00     0.000 C 
BRANCH   4   5
ATOM      5  C   UNL     1     143.435 150.506 151.922  1.00  0.00     0.000 C 
BRANCH   5   6
ATOM      6  C   UNL     1     143.814 151.261 150.630  1.00  0.00     0.006 C 
BRANCH   6   7
ATOM      7  C   UNL     1     145.332 151.371 150.439  1.00  0.00     0.053 C 
BRANCH   7   8
ATOM      8  C   UNL     1     145.780 150.501 149.307  1.00  0.00     0.041 C 
ATOM      9  O   UNL     1     145.701 150.915 148.120  1.00  0.00    -0.550 OA
ATOM     10  O   UNL     1     146.329 149.251 149.566  1.00  0.00    -0.550 OA
ENDBRANCH   7   8
ENDBRANCH   6   7
ENDBRANCH   5   6
ENDBRANCH   4   5
ENDBRANCH   3   4
ENDBRANCH   2   3
ENDBRANCH   1   2
BRANCH   1  11
ATOM     11  C   UNL     1     145.492 152.878 155.726  1.00  0.00     0.000 C 
BRANCH  11  12
ATOM     12  C   UNL     1     143.981 153.075 155.917  1.00  0.00    -0.000 C 
BRANCH  12  13
ATOM     13  C   UNL     1     143.468 154.247 155.071  1.00  0.00    -0.000 C 
BRANCH  13  14
ATOM     14  C   UNL     1     143.096 153.781 153.656  1.00  0.00    -0.000 C 
BRANCH  14  15
ATOM     15  C   UNL     1     144.105 154.238 152.587  1.00  0.00    -0.000 C 
BRANCH  15  16
ATOM     16  C   UNL     1     144.556 155.704 152.705  1.00  0.00    -0.000 C 
BRANCH  16  17
ATOM     17  C   UNL     1     146.082 155.857 152.792  1.00  0.00    -0.003 C 
ATOM     18  C   UNL     1     146.772 154.497 152.776  1.00  0.00     0.004 C 
ENDBRANCH  16  17
ENDBRANCH  15  16
ENDBRANCH  14  15
ENDBRANCH  13  14
ENDBRANCH  12  13
ENDBRANCH  11  12
ENDBRANCH   1  11
TORSDOF 14
ENDMDL
MODEL 2
REMARK VINA RESULT:    -2.496      1.417      2.466
REMARK INTER + INTRA:          -6.817
REMARK INTER:                  -5.188
REMARK INTRA:                  -1.630
REMARK UNBOUND:                -2.278
REMARK SMILES CCCCCCCCCCCCCCCC(=O)[O-]
REMARK SMILES IDX 9 1 10 2 11 3 12 4 13 5 14 6 15 7 16 8 17 9 18 10 8 11 7 12
REMARK SMILES IDX 6 13 5 14 4 15 3 16 2 17 1 18
REMARK H PARENT
REMARK Flexibility Score: inf
ROOT
ATOM      1  C   UNL     1     144.607 150.362 154.662  1.00  0.00     0.000 C 
ENDROOT
BRANCH   1   2
ATOM      2  C   UNL     1     144.418 150.307 153.136  1.00  0.00     0.000 C 
BRANCH   2   3
ATOM      3  C   UNL     1     143.767 151.583 152.569  1.00  0.00     0.000 C 
BRANCH   3   4
ATOM      4  C   UNL     1     144.407 152.115 151.273  1.00  0.00     0.000 C 
BRANCH   4   5
ATOM      5  C   UNL     1     144.378 151.138 150.081  1.00  0.00     0.000 C 
BRANCH   5   6
ATOM      6  C   UNL     1     145.779 150.746 149.564  1.00  0.00     0.006 C 
BRANCH   6   7
ATOM      7  C   UNL     1     146.128 151.431 148.237  1.00  0.00     0.053 C 
BRANCH   7   8
ATOM      8  C   UNL     1     145.015 151.260 147.252  1.00  0.00     0.041 C 
ATOM      9  O   UNL     1     144.674 150.108 146.875  1.00  0.00    -0.550 OA
ATOM     10  O   UNL     1     144.322 152.371 146.787  1.00  0.00    -0.550 OA
ENDBRANCH   7   8
ENDBRANCH   6   7
ENDBRANCH   5   6
ENDBRANCH   4   5
ENDBRANCH   3   4
ENDBRANCH   2   3
ENDBRANCH   1   2
BRANCH   1  11
ATOM     11  C   UNL     1     145.697 151.361 155.084  1.00  0.00     0.000 C 
BRANCH  11  12
ATOM     12  C   UNL     1     145.125 152.584 155.816  1.00  0.00    -0.000 C 
BRANCH  12  13
ATOM     13  C   UNL     1     145.529 153.885 155.111  1.00  0.00    -0.000 C 
BRANCH  13  14
ATOM     14  C   UNL     1     146.605 153.622 154.048  1.00  0.00    -0.000 C 
BRANCH  14  15
ATOM     15  C   UNL     1     146.551 154.622 152.878  1.00  0.00    -0.000 C 
BRANCH  15  16
ATOM     16  C   UNL     1     145.260 155.454 152.795  1.00  0.00    -0.000 C 
BRANCH  16  17
ATOM     17  C   UNL     1     145.525 156.961 152.660  1.00  0.00    -0.003 C 
ATOM     18  C   UNL     1     145.484 157.650 154.021  1.00  0.00     0.004 C 
ENDBRANCH  16  17
ENDBRANCH  15  16
ENDBRANCH  14  15
ENDBRANCH  13  14
ENDBRANCH  12  13
ENDBRANCH  11  12
ENDBRANCH   1  11
TORSDOF 14
ENDMDL
MODEL 3
REMARK VINA RESULT:    -2.483      1.619      2.450
REMARK INTER + INTRA:          -6.793
REMARK INTER:                  -4.712
REMARK INTRA:                  -2.081
REMARK UNBOUND:                -2.278
REMARK SMILES CCCCCCCCCCCCCCCC(=O)[O-]
REMARK SMILES IDX 9 1 10 2 11 3 12 4 13 5 14 6 15 7 16 8 17 9 18 10 8 11 7 12
REMARK SMILES IDX 6 13 5 14 4 15 3 16 2 17 1 18
REMARK H PARENT
REMARK Flexibility Score: inf
ROOT
ATOM      1  C   UNL     1     145.762 153.458 154.683  1.00  0.00     0.000 C 
ENDROOT
BRANCH   1   2
ATOM      2  C   UNL     1     145.907 151.964 155.019  1.00  0.00     0.000 C 
BRANCH   2   3
ATOM      3  C   UNL     1     144.691 151.130 154.574  1.00  0.00     0.000 C 
BRANCH   3   4
ATOM      4  C   UNL     1     144.674 150.757 153.079  1.00  0.00     0.000 C 
BRANCH   4   5
ATOM      5  C   UNL     1     143.651 151.532 152.225  1.00  0.00     0.000 C 
BRANCH   5   6
ATOM      6  C   UNL     1     144.170 151.905 150.820  1.00  0.00     0.006 C 
BRANCH   6   7
ATOM      7  C   UNL     1     145.637 151.509 150.610  1.00  0.00     0.053 C 
BRANCH   7   8
ATOM      8  C   UNL     1     145.755 150.515 149.499  1.00  0.00     0.041 C 
ATOM      9  O   UNL     1     145.442 150.839 148.323  1.00  0.00    -0.550 OA
ATOM     10  O   UNL     1     146.257 149.245 149.754  1.00  0.00    -0.550 OA
ENDBRANCH   7   8
ENDBRANCH   6   7
ENDBRANCH   5   6
ENDBRANCH   4   5
ENDBRANCH   3   4
ENDBRANCH   2   3
ENDBRANCH   1   2
BRANCH   1  11
ATOM     11  C   UNL     1     146.897 153.972 153.785  1.00  0.00     0.000 C 
BRANCH  11  12
ATOM     12  C   UNL     1     146.408 154.975 152.730  1.00  0.00    -0.000 C 
BRANCH  12  13
ATOM     13  C   UNL     1     144.876 155.053 152.715  1.00  0.00    -0.000 C 
BRANCH  13  14
ATOM     14  C   UNL     1     144.402 156.500 152.517  1.00  0.00    -0.000 C 
BRANCH  14  15
ATOM     15  C   UNL     1     143.799 157.114 153.794  1.00  0.00    -0.000 C 
BRANCH  15  16
ATOM     16  C   UNL     1     144.650 158.215 154.450  1.00  0.00    -0.000 C 
BRANCH  16  17
ATOM     17  C   UNL     1     145.067 157.874 155.888  1.00  0.00    -0.003 C 
ATOM     18  C   UNL     1     146.307 156.985 155.905  1.00  0.00     0.004 C 
ENDBRANCH  16  17
ENDBRANCH  15  16
ENDBRANCH  14  15
ENDBRANCH  13  14
ENDBRANCH  12  13
ENDBRANCH  11  12
ENDBRANCH   1  11
TORSDOF 14
ENDMDL
MODEL 4
REMARK VINA RESULT:    -2.465     10.805     13.214
REMARK INTER + INTRA:          -6.760
REMARK INTER:                  -3.828
REMARK INTRA:                  -2.932
REMARK UNBOUND:                -2.278
REMARK SMILES CCCCCCCCCCCCCCCC(=O)[O-]
REMARK SMILES IDX 9 1 10 2 11 3 12 4 13 5 14 6 15 7 16 8 17 9 18 10 8 11 7 12
REMARK SMILES IDX 6 13 5 14 4 15 3 16 2 17 1 18
REMARK H PARENT
REMARK Flexibility Score: inf
ROOT
ATOM      1  C   UNL     1     146.867 148.944 142.345  1.00  0.00     0.000 C 
ENDROOT
BRANCH   1   2
ATOM      2  C   UNL     1     145.901 149.561 143.371  1.00  0.00     0.000 C 
BRANCH   2   3
ATOM      3  C   UNL     1     144.582 150.039 142.736  1.00  0.00     0.000 C 
BRANCH   3   4
ATOM      4  C   UNL     1     144.460 149.781 141.222  1.00  0.00     0.000 C 
BRANCH   4   5
ATOM      5  C   UNL     1     143.038 149.450 140.729  1.00  0.00     0.000 C 
BRANCH   5   6
ATOM      6  C   UNL     1     143.006 148.690 139.386  1.00  0.00     0.006 C 
BRANCH   6   7
ATOM      7  C   UNL     1     144.113 149.145 138.427  1.00  0.00     0.053 C 
BRANCH   7   8
ATOM      8  C   UNL     1     143.579 150.146 137.451  1.00  0.00     0.041 C 
ATOM      9  O   UNL     1     142.955 149.760 136.426  1.00  0.00    -0.550 OA
ATOM     10  O   UNL     1     143.728 151.505 137.697  1.00  0.00    -0.550 OA
ENDBRANCH   7   8
ENDBRANCH   6   7
ENDBRANCH   5   6
ENDBRANCH   4   5
ENDBRANCH   3   4
ENDBRANCH   2   3
ENDBRANCH   1   2
BRANCH   1  11
ATOM     11  C   UNL     1     147.579 147.694 142.884  1.00  0.00     0.000 C 
BRANCH  11  12
ATOM     12  C   UNL     1     147.356 146.459 141.999  1.00  0.00    -0.000 C 
BRANCH  12  13
ATOM     13  C   UNL     1     146.749 146.854 140.647  1.00  0.00    -0.000 C 
BRANCH  13  14
ATOM     14  C   UNL     1     145.432 146.105 140.397  1.00  0.00    -0.000 C 
BRANCH  14  15
ATOM     15  C   UNL     1     144.823 145.514 141.682  1.00  0.00    -0.000 C 
BRANCH  15  16
ATOM     16  C   UNL     1     143.405 146.007 142.016  1.00  0.00    -0.000 C 
BRANCH  16  17
ATOM     17  C   UNL     1     143.307 146.657 143.403  1.00  0.00    -0.003 C 
ATOM     18  C   UNL     1     144.474 146.237 144.291  1.00  0.00     0.004 C 
ENDBRANCH  16  17
ENDBRANCH  15  16
ENDBRANCH  14  15
ENDBRANCH  13  14
ENDBRANCH  12  13
ENDBRANCH  11  12
ENDBRANCH   1  11
TORSDOF 14
ENDMDL
MODEL 5
REMARK VINA RESULT:    -2.433      7.341     11.708
REMARK INTER + INTRA:          -6.703
REMARK INTER:                  -3.958
REMARK INTRA:                  -2.744
REMARK UNBOUND:                -2.278
REMARK SMILES CCCCCCCCCCCCCCCC(=O)[O-]
REMARK SMILES IDX 9 1 10 2 11 3 12 4 13 5 14 6 15 7 16 8 17 9 18 10 8 11 7 12
REMARK SMILES IDX 6 13 5 14 4 15 3 16 2 17 1 18
REMARK H PARENT
REMARK Flexibility Score: inf
ROOT
ATOM      1  C   UNL     1     147.220 147.174 142.774  1.00  0.00     0.000 C 
ENDROOT
BRANCH   1   2
ATOM      2  C   UNL     1     146.274 146.421 143.726  1.00  0.00     0.000 C 
BRANCH   2   3
ATOM      3  C   UNL     1     144.793 146.777 143.501  1.00  0.00     0.000 C 
BRANCH   3   4
ATOM      4  C   UNL     1     144.118 147.511 144.676  1.00  0.00     0.000 C 
BRANCH   4   5
ATOM      5  C   UNL     1     142.991 148.483 144.277  1.00  0.00     0.000 C 
BRANCH   5   6
ATOM      6  C   UNL     1     143.289 149.957 144.622  1.00  0.00     0.006 C 
BRANCH   6   7
ATOM      7  C   UNL     1     144.671 150.143 145.261  1.00  0.00     0.053 C 
BRANCH   7   8
ATOM      8  C   UNL     1     144.540 150.755 146.621  1.00  0.00     0.041 C 
ATOM      9  O   UNL     1     144.154 151.947 146.744  1.00  0.00    -0.550 OA
ATOM     10  O   UNL     1     144.798 149.993 147.753  1.00  0.00    -0.550 OA
ENDBRANCH   7   8
ENDBRANCH   6   7
ENDBRANCH   5   6
ENDBRANCH   4   5
ENDBRANCH   3   4
ENDBRANCH   2   3
ENDBRANCH   1   2
BRANCH   1  11
ATOM     11  C   UNL     1     147.071 148.699 142.881  1.00  0.00     0.000 C 
BRANCH  11  12
ATOM     12  C   UNL     1     146.711 149.354 141.539  1.00  0.00    -0.000 C 
BRANCH  12  13
ATOM     13  C   UNL     1     145.313 149.983 141.592  1.00  0.00    -0.000 C 
BRANCH  13  14
ATOM     14  C   UNL     1     144.322 149.194 140.726  1.00  0.00    -0.000 C 
BRANCH  14  15
ATOM     15  C   UNL     1     145.016 148.238 139.738  1.00  0.00    -0.000 C 
BRANCH  15  16
ATOM     16  C   UNL     1     144.569 146.769 139.833  1.00  0.00    -0.000 C 
BRANCH  16  17
ATOM     17  C   UNL     1     145.734 145.777 139.696  1.00  0.00    -0.003 C 
ATOM     18  C   UNL     1     146.966 146.455 139.104  1.00  0.00     0.004 C 
ENDBRANCH  16  17
ENDBRANCH  15  16
ENDBRANCH  14  15
ENDBRANCH  13  14
ENDBRANCH  12  13
ENDBRANCH  11  12
ENDBRANCH   1  11
TORSDOF 14
ENDMDL
MODEL 6
REMARK VINA RESULT:    -2.409      5.709     10.509
REMARK INTER + INTRA:          -6.659
REMARK INTER:                  -4.767
REMARK INTRA:                  -1.892
REMARK UNBOUND:                -2.278
REMARK SMILES CCCCCCCCCCCCCCCC(=O)[O-]
REMARK SMILES IDX 9 1 10 2 11 3 12 4 13 5 14 6 15 7 16 8 17 9 18 10 8 11 7 12
REMARK SMILES IDX 6 13 5 14 4 15 3 16 2 17 1 18
REMARK H PARENT
REMARK Flexibility Score: inf
ROOT
ATOM      1  C   UNL     1     145.823 149.948 143.740  1.00  0.00     0.000 C 
ENDROOT
BRANCH   1   2
ATOM      2  C   UNL     1     144.320 149.947 143.410  1.00  0.00     0.000 C 
BRANCH   2   3
ATOM      3  C   UNL     1     143.435 150.159 144.653  1.00  0.00     0.000 C 
BRANCH   3   4
ATOM      4  C   UNL     1     144.031 149.629 145.971  1.00  0.00     0.000 C 
BRANCH   4   5
ATOM      5  C   UNL     1     143.668 150.445 147.226  1.00  0.00     0.000 C 
BRANCH   5   6
ATOM      6  C   UNL     1     144.563 151.684 147.444  1.00  0.00     0.006 C 
BRANCH   6   7
ATOM      7  C   UNL     1     145.948 151.318 147.993  1.00  0.00     0.053 C 
BRANCH   7   8
ATOM      8  C   UNL     1     145.834 150.791 149.388  1.00  0.00     0.041 C 
ATOM      9  O   UNL     1     145.441 151.542 150.319  1.00  0.00    -0.550 OA
ATOM     10  O   UNL     1     146.118 149.457 149.652  1.00  0.00    -0.550 OA
ENDBRANCH   7   8
ENDBRANCH   6   7
ENDBRANCH   5   6
ENDBRANCH   4   5
ENDBRANCH   3   4
ENDBRANCH   2   3
ENDBRANCH   1   2
BRANCH   1  11
ATOM     11  C   UNL     1     146.698 149.716 142.499  1.00  0.00     0.000 C 
BRANCH  11  12
ATOM     12  C   UNL     1     146.067 148.731 141.506  1.00  0.00    -0.000 C 
BRANCH  12  13
ATOM     13  C   UNL     1     146.889 147.439 141.416  1.00  0.00    -0.000 C 
BRANCH  13  14
ATOM     14  C   UNL     1     147.626 147.164 142.735  1.00  0.00    -0.000 C 
BRANCH  14  15
ATOM     15  C   UNL     1     147.143 145.882 143.437  1.00  0.00    -0.000 C 
BRANCH  15  16
ATOM     16  C   UNL     1     145.632 145.615 143.334  1.00  0.00    -0.000 C 
BRANCH  16  17
ATOM     17  C   UNL     1     144.812 146.403 144.366  1.00  0.00    -0.003 C 
ATOM     18  C   UNL     1     143.321 146.343 144.045  1.00  0.00     0.004 C 
ENDBRANCH  16  17
ENDBRANCH  15  16
ENDBRANCH  14  15
ENDBRANCH  13  14
ENDBRANCH  12  13
ENDBRANCH  11  12
ENDBRANCH   1  11
TORSDOF 14
ENDMDL
MODEL 7
REMARK VINA RESULT:    -2.385      7.391     11.966
REMARK INTER + INTRA:          -6.615
REMARK INTER:                  -4.041
REMARK INTRA:                  -2.575
REMARK UNBOUND:                -2.278
REMARK SMILES CCCCCCCCCCCCCCCC(=O)[O-]
REMARK SMILES IDX 9 1 10 2 11 3 12 4 13 5 14 6 15 7 16 8 17 9 18 10 8 11 7 12
REMARK SMILES IDX 6 13 5 14 4 15 3 16 2 17 1 18
REMARK H PARENT
REMARK Flexibility Score: inf
ROOT
ATOM      1  C   UNL     1     147.154 148.906 142.991  1.00  0.00     0.000 C 
ENDROOT
BRANCH   1   2
ATOM      2  C   UNL     1     146.771 149.873 141.857  1.00  0.00     0.000 C 
BRANCH   2   3
ATOM      3  C   UNL     1     145.447 149.491 141.168  1.00  0.00     0.000 C 
BRANCH   3   4
ATOM      4  C   UNL     1     144.219 150.298 141.630  1.00  0.00     0.000 C 
BRANCH   4   5
ATOM      5  C   UNL     1     143.537 149.774 142.909  1.00  0.00     0.000 C 
BRANCH   5   6
ATOM      6  C   UNL     1     143.816 150.633 144.160  1.00  0.00     0.006 C 
BRANCH   6   7
ATOM      7  C   UNL     1     144.508 149.839 145.276  1.00  0.00     0.053 C 
BRANCH   7   8
ATOM      8  C   UNL     1     144.538 150.636 146.542  1.00  0.00     0.041 C 
ATOM      9  O   UNL     1     144.288 151.870 146.520  1.00  0.00    -0.550 OA
ATOM     10  O   UNL     1     144.796 150.006 147.753  1.00  0.00    -0.550 OA
ENDBRANCH   7   8
ENDBRANCH   6   7
ENDBRANCH   5   6
ENDBRANCH   4   5
ENDBRANCH   3   4
ENDBRANCH   2   3
ENDBRANCH   1   2
BRANCH   1  11
ATOM     11  C   UNL     1     147.465 147.491 142.478  1.00  0.00     0.000 C 
BRANCH  11  12
ATOM     12  C   UNL     1     146.912 146.394 143.400  1.00  0.00    -0.000 C 
BRANCH  12  13
ATOM     13  C   UNL     1     145.403 146.567 143.616  1.00  0.00    -0.000 C 
BRANCH  13  14
ATOM     14  C   UNL     1     144.606 145.604 142.724  1.00  0.00    -0.000 C 
BRANCH  14  15
ATOM     15  C   UNL     1     143.653 146.330 141.756  1.00  0.00    -0.000 C 
BRANCH  15  16
ATOM     16  C   UNL     1     143.977 146.144 140.264  1.00  0.00    -0.000 C 
BRANCH  16  17
ATOM     17  C   UNL     1     145.375 145.556 140.022  1.00  0.00    -0.003 C 
ATOM     18  C   UNL     1     146.212 146.475 139.138  1.00  0.00     0.004 C 
ENDBRANCH  16  17
ENDBRANCH  15  16
ENDBRANCH  14  15
ENDBRANCH  13  14
ENDBRANCH  12  13
ENDBRANCH  11  12
ENDBRANCH   1  11
TORSDOF 14
ENDMDL
MODEL 8
REMARK VINA RESULT:    -2.349      6.589     11.123
REMARK INTER + INTRA:          -6.548
REMARK INTER:                  -4.510
REMARK INTRA:                  -2.038
REMARK UNBOUND:                -2.278
REMARK SMILES CCCCCCCCCCCCCCCC(=O)[O-]
REMARK SMILES IDX 9 1 10 2 11 3 12 4 13 5 14 6 15 7 16 8 17 9 18 10 8 11 7 12
REMARK SMILES IDX 6 13 5 14 4 15 3 16 2 17 1 18
REMARK H PARENT
REMARK Flexibility Score: inf
ROOT
ATOM      1  C   UNL     1     147.002 148.612 142.166  1.00  0.00     0.000 C 
ENDROOT
BRANCH   1   2
ATOM      2  C   UNL     1     146.625 149.817 143.044  1.00  0.00     0.000 C 
BRANCH   2   3
ATOM      3  C   UNL     1     145.115 149.892 143.340  1.00  0.00     0.000 C 
BRANCH   3   4
ATOM      4  C   UNL     1     144.750 149.946 144.836  1.00  0.00     0.000 C 
BRANCH   4   5
ATOM      5  C   UNL     1     143.942 151.186 145.265  1.00  0.00     0.000 C 
BRANCH   5   6
ATOM      6  C   UNL     1     144.255 151.668 146.698  1.00  0.00     0.006 C 
BRANCH   6   7
ATOM      7  C   UNL     1     144.729 150.529 147.610  1.00  0.00     0.053 C 
BRANCH   7   8
ATOM      8  C   UNL     1     145.830 151.002 148.507  1.00  0.00     0.041 C 
ATOM      9  O   UNL     1     146.733 151.756 148.057  1.00  0.00    -0.550 OA
ATOM     10  O   UNL     1     145.831 150.649 149.850  1.00  0.00    -0.550 OA
ENDBRANCH   7   8
ENDBRANCH   6   7
ENDBRANCH   5   6
ENDBRANCH   4   5
ENDBRANCH   3   4
ENDBRANCH   2   3
ENDBRANCH   1   2
BRANCH   1  11
ATOM     11  C   UNL     1     147.382 147.375 142.996  1.00  0.00     0.000 C 
BRANCH  11  12
ATOM     12  C   UNL     1     146.399 146.211 142.804  1.00  0.00    -0.000 C 
BRANCH  12  13
ATOM     13  C   UNL     1     145.243 146.296 143.809  1.00  0.00    -0.000 C 
BRANCH  13  14
ATOM     14  C   UNL     1     143.887 146.244 143.091  1.00  0.00    -0.000 C 
BRANCH  14  15
ATOM     15  C   UNL     1     144.002 146.467 141.572  1.00  0.00    -0.000 C 
BRANCH  15  16
ATOM     16  C   UNL     1     143.205 147.665 141.028  1.00  0.00    -0.000 C 
BRANCH  16  17
ATOM     17  C   UNL     1     144.006 148.517 140.033  1.00  0.00    -0.003 C 
ATOM     18  C   UNL     1     144.977 147.656 139.230  1.00  0.00     0.004 C 
ENDBRANCH  16  17
ENDBRANCH  15  16
ENDBRANCH  14  15
ENDBRANCH  13  14
ENDBRANCH  12  13
ENDBRANCH  11  12
ENDBRANCH   1  11
TORSDOF 14
ENDMDL
MODEL 9
REMARK VINA RESULT:    -2.319      7.626     11.834
REMARK INTER + INTRA:          -6.494
REMARK INTER:                  -4.260
REMARK INTRA:                  -2.233
REMARK UNBOUND:                -2.278
REMARK SMILES CCCCCCCCCCCCCCCC(=O)[O-]
REMARK SMILES IDX 9 1 10 2 11 3 12 4 13 5 14 6 15 7 16 8 17 9 18 10 8 11 7 12
REMARK SMILES IDX 6 13 5 14 4 15 3 16 2 17 1 18
REMARK H PARENT
REMARK Flexibility Score: inf
ROOT
ATOM      1  C   UNL     1     146.571 146.160 143.723  1.00  0.00     0.000 C 
ENDROOT
BRANCH   1   2
ATOM      2  C   UNL     1     145.489 145.288 143.064  1.00  0.00     0.000 C 
BRANCH   2   3
ATOM      3  C   UNL     1     144.107 145.968 143.040  1.00  0.00     0.000 C 
BRANCH   3   4
ATOM      4  C   UNL     1     143.979 147.207 143.946  1.00  0.00     0.000 C 
BRANCH   4   5
ATOM      5  C   UNL     1     143.369 148.450 143.270  1.00  0.00     0.000 C 
BRANCH   5   6
ATOM      6  C   UNL     1     143.321 149.694 144.182  1.00  0.00     0.006 C 
BRANCH   6   7
ATOM      7  C   UNL     1     144.638 149.921 144.936  1.00  0.00     0.053 C 
BRANCH   7   8
ATOM      8  C   UNL     1     144.368 150.255 146.369  1.00  0.00     0.041 C 
ATOM      9  O   UNL     1     143.354 149.784 146.949  1.00  0.00    -0.550 OA
ATOM     10  O   UNL     1     145.261 151.049 147.078  1.00  0.00    -0.550 OA
ENDBRANCH   7   8
ENDBRANCH   6   7
ENDBRANCH   5   6
ENDBRANCH   4   5
ENDBRANCH   3   4
ENDBRANCH   2   3
ENDBRANCH   1   2
BRANCH   1  11
ATOM     11  C   UNL     1     147.428 146.913 142.694  1.00  0.00     0.000 C 
BRANCH  11  12
ATOM     12  C   UNL     1     147.359 148.437 142.870  1.00  0.00    -0.000 C 
BRANCH  12  13
ATOM     13  C   UNL     1     146.615 149.092 141.699  1.00  0.00    -0.000 C 
BRANCH  13  14
ATOM     14  C   UNL     1     146.468 148.113 140.525  1.00  0.00    -0.000 C 
BRANCH  14  15
ATOM     15  C   UNL     1     145.017 147.985 140.027  1.00  0.00    -0.000 C 
BRANCH  15  16
ATOM     16  C   UNL     1     144.324 149.318 139.693  1.00  0.00    -0.000 C 
BRANCH  16  17
ATOM     17  C   UNL     1     143.940 149.439 138.212  1.00  0.00    -0.003 C 
ATOM     18  C   UNL     1     143.564 150.874 137.857  1.00  0.00     0.004 C 
ENDBRANCH  16  17
ENDBRANCH  15  16
ENDBRANCH  14  15
ENDBRANCH  13  14
ENDBRANCH  12  13
ENDBRANCH  11  12
ENDBRANCH   1  11
TORSDOF 14
ENDMDL
