MODEL 1
REMARK VINA RESULT:    -3.765      0.000      0.000
REMARK INTER + INTRA:         -12.541
REMARK INTER:                  -8.168
REMARK INTRA:                  -4.373
REMARK UNBOUND:                -4.373
REMARK SMILES CCCCCCCCCCCCCCCCCCCCCC(=O)[O-]
REMARK SMILES IDX 12 1 11 2 10 3 9 4 8 5 7 6 6 7 5 8 4 9 3 10 2 11 1 12 13 13
REMARK SMILES IDX 14 14 15 15 16 16 17 17 18 18 19 19 20 20 21 21 22 22 23 23
REMARK SMILES IDX 24 24
REMARK H PARENT
REMARK Flexibility Score: inf
ROOT
ATOM      1  C   UNL     1      -3.819  27.004  58.563  1.00  0.00     0.000 C 
ENDROOT
BRANCH   1   2
ATOM      2  C   UNL     1      -4.128  28.255  57.727  1.00  0.00     0.000 C 
BRANCH   2   3
ATOM      3  C   UNL     1      -5.423  28.075  56.926  1.00  0.00     0.000 C 
BRANCH   3   4
ATOM      4  C   UNL     1      -5.149  28.133  55.416  1.00  0.00    -0.000 C 
BRANCH   4   5
ATOM      5  C   UNL     1      -5.504  26.820  54.701  1.00  0.00    -0.000 C 
BRANCH   5   6
ATOM      6  C   UNL     1      -4.267  25.953  54.409  1.00  0.00    -0.000 C 
BRANCH   6   7
ATOM      7  C   UNL     1      -4.255  24.648  55.221  1.00  0.00    -0.000 C 
BRANCH   7   8
ATOM      8  C   UNL     1      -5.601  24.370  55.914  1.00  0.00    -0.000 C 
BRANCH   8   9
ATOM      9  C   UNL     1      -5.421  23.672  57.280  1.00  0.00    -0.000 C 
BRANCH   9  10
ATOM     10  C   UNL     1      -6.341  24.227  58.385  1.00  0.00    -0.000 C 
BRANCH  10  11
ATOM     11  C   UNL     1      -7.445  25.173  57.887  1.00  0.00    -0.003 C 
ATOM     12  C   UNL     1      -7.908  26.160  58.959  1.00  0.00     0.004 C 
ENDBRANCH  10  11
ENDBRANCH   9  10
ENDBRANCH   8   9
ENDBRANCH   7   8
ENDBRANCH   6   7
ENDBRANCH   5   6
ENDBRANCH   4   5
ENDBRANCH   3   4
ENDBRANCH   2   3
ENDBRANCH   1   2
BRANCH   1  13
ATOM     13  C   UNL     1      -2.616  26.209  58.026  1.00  0.00     0.000 C 
BRANCH  13  14
ATOM     14  C   UNL     1      -1.501  27.061  57.383  1.00  0.00     0.000 C 
BRANCH  14  15
ATOM     15  C   UNL     1      -0.980  26.550  56.028  1.00  0.00     0.000 C 
BRANCH  15  16
ATOM     16  C   UNL     1      -1.007  27.628  54.932  1.00  0.00     0.000 C 
BRANCH  16  17
ATOM     17  C   UNL     1      -1.506  28.990  55.446  1.00  0.00     0.000 C 
BRANCH  17  18
ATOM     18  C   UNL     1      -2.109  29.918  54.370  1.00  0.00     0.000 C 
BRANCH  18  19
ATOM     19  C   UNL     1      -2.404  31.358  54.835  1.00  0.00     0.000 C 
BRANCH  19  20
ATOM     20  C   UNL     1      -3.655  31.511  55.718  1.00  0.00     0.006 C 
BRANCH  20  21
ATOM     21  C   UNL     1      -4.736  32.387  55.071  1.00  0.00     0.053 C 
BRANCH  21  22
ATOM     22  C   UNL     1      -6.058  31.687  55.094  1.00  0.00     0.041 C 
ATOM     23  O   UNL     1      -6.577  31.349  56.191  1.00  0.00    -0.550 OA
ATOM     24  O   UNL     1      -6.742  31.453  53.909  1.00  0.00    -0.550 OA
ENDBRANCH  21  22
ENDBRANCH  20  21
ENDBRANCH  19  20
ENDBRANCH  18  19
ENDBRANCH  17  18
ENDBRANCH  16  17
ENDBRANCH  15  16
ENDBRANCH  14  15
ENDBRANCH  13  14
ENDBRANCH   1  13
TORSDOF 20
ENDMDL
MODEL 2
REMARK VINA RESULT:    -3.747      1.646      3.456
REMARK INTER + INTRA:         -12.501
REMARK INTER:                  -9.984
REMARK INTRA:                  -2.517
REMARK UNBOUND:                -4.373
REMARK SMILES CCCCCCCCCCCCCCCCCCCCCC(=O)[O-]
REMARK SMILES IDX 12 1 11 2 10 3 9 4 8 5 7 6 6 7 5 8 4 9 3 10 2 11 1 12 13 13
REMARK SMILES IDX 14 14 15 15 16 16 17 17 18 18 19 19 20 20 21 21 22 22 23 23
REMARK SMILES IDX 24 24
REMARK H PARENT
REMARK Flexibility Score: inf
ROOT
ATOM      1  C   UNL     1      -1.741  24.461  55.999  1.00  0.00     0.000 C 
ENDROOT
BRANCH   1   2
ATOM      2  C   UNL     1      -2.597  24.590  54.730  1.00  0.00     0.000 C 
BRANCH   2   3
ATOM      3  C   UNL     1      -4.091  24.622  55.074  1.00  0.00     0.000 C 
BRANCH   3   4
ATOM      4  C   UNL     1      -4.419  23.624  56.195  1.00  0.00    -0.000 C 
BRANCH   4   5
ATOM      5  C   UNL     1      -5.013  24.307  57.437  1.00  0.00    -0.000 C 
BRANCH   5   6
ATOM      6  C   UNL     1      -6.509  23.998  57.624  1.00  0.00    -0.000 C 
BRANCH   6   7
ATOM      7  C   UNL     1      -7.384  25.261  57.576  1.00  0.00    -0.000 C 
BRANCH   7   8
ATOM      8  C   UNL     1      -7.010  26.281  58.665  1.00  0.00    -0.000 C 
BRANCH   8   9
ATOM      9  C   UNL     1      -7.498  25.846  60.064  1.00  0.00    -0.000 C 
BRANCH   9  10
ATOM     10  C   UNL     1      -6.548  26.256  61.207  1.00  0.00    -0.000 C 
BRANCH  10  11
ATOM     11  C   UNL     1      -7.167  26.188  62.613  1.00  0.00    -0.003 C 
ATOM     12  C   UNL     1      -8.597  25.647  62.605  1.00  0.00     0.004 C 
ENDBRANCH  10  11
ENDBRANCH   9  10
ENDBRANCH   8   9
ENDBRANCH   7   8
ENDBRANCH   6   7
ENDBRANCH   5   6
ENDBRANCH   4   5
ENDBRANCH   3   4
ENDBRANCH   2   3
ENDBRANCH   1   2
BRANCH   1  13
ATOM     13  C   UNL     1      -0.841  25.687  56.238  1.00  0.00     0.000 C 
BRANCH  13  14
ATOM     14  C   UNL     1      -1.586  26.982  56.625  1.00  0.00     0.000 C 
BRANCH  14  15
ATOM     15  C   UNL     1      -2.320  26.940  57.978  1.00  0.00     0.000 C 
BRANCH  15  16
ATOM     16  C   UNL     1      -3.610  27.776  57.983  1.00  0.00     0.000 C 
BRANCH  16  17
ATOM     17  C   UNL     1      -4.358  27.729  56.639  1.00  0.00     0.000 C 
BRANCH  17  18
ATOM     18  C   UNL     1      -4.980  29.067  56.186  1.00  0.00     0.000 C 
BRANCH  18  19
ATOM     19  C   UNL     1      -4.237  29.782  55.040  1.00  0.00     0.000 C 
BRANCH  19  20
ATOM     20  C   UNL     1      -4.875  31.105  54.580  1.00  0.00     0.006 C 
BRANCH  20  21
ATOM     21  C   UNL     1      -5.773  31.737  55.653  1.00  0.00     0.053 C 
BRANCH  21  22
ATOM     22  C   UNL     1      -7.193  31.779  55.186  1.00  0.00     0.041 C 
ATOM     23  O   UNL     1      -7.460  32.105  53.999  1.00  0.00    -0.550 OA
ATOM     24  O   UNL     1      -8.219  31.411  56.045  1.00  0.00    -0.550 OA
ENDBRANCH  21  22
ENDBRANCH  20  21
ENDBRANCH  19  20
ENDBRANCH  18  19
ENDBRANCH  17  18
ENDBRANCH  16  17
ENDBRANCH  15  16
ENDBRANCH  14  15
ENDBRANCH  13  14
ENDBRANCH   1  13
TORSDOF 20
ENDMDL
MODEL 3
REMARK VINA RESULT:    -3.709      1.446      3.138
REMARK INTER + INTRA:         -12.418
REMARK INTER:                  -9.057
REMARK INTRA:                  -3.361
REMARK UNBOUND:                -4.373
REMARK SMILES CCCCCCCCCCCCCCCCCCCCCC(=O)[O-]
REMARK SMILES IDX 12 1 11 2 10 3 9 4 8 5 7 6 6 7 5 8 4 9 3 10 2 11 1 12 13 13
REMARK SMILES IDX 14 14 15 15 16 16 17 17 18 18 19 19 20 20 21 21 22 22 23 23
REMARK SMILES IDX 24 24
REMARK H PARENT
REMARK Flexibility Score: inf
ROOT
ATOM      1  C   UNL     1      -2.209  30.212  57.555  1.00  0.00     0.000 C 
ENDROOT
BRANCH   1   2
ATOM      2  C   UNL     1      -1.203  29.259  58.218  1.00  0.00     0.000 C 
BRANCH   2   3
ATOM      3  C   UNL     1      -1.678  27.804  58.122  1.00  0.00     0.000 C 
BRANCH   3   4
ATOM      4  C   UNL     1      -2.725  27.494  59.201  1.00  0.00    -0.000 C 
BRANCH   4   5
ATOM      5  C   UNL     1      -3.392  26.124  58.999  1.00  0.00    -0.000 C 
BRANCH   5   6
ATOM      6  C   UNL     1      -3.063  25.502  57.631  1.00  0.00    -0.000 C 
BRANCH   6   7
ATOM      7  C   UNL     1      -4.266  24.776  57.007  1.00  0.00    -0.000 C 
BRANCH   7   8
ATOM      8  C   UNL     1      -5.295  24.324  58.058  1.00  0.00    -0.000 C 
BRANCH   8   9
ATOM      9  C   UNL     1      -6.724  24.797  57.717  1.00  0.00    -0.000 C 
BRANCH   9  10
ATOM     10  C   UNL     1      -7.010  26.254  58.130  1.00  0.00    -0.000 C 
BRANCH  10  11
ATOM     11  C   UNL     1      -8.010  26.409  59.289  1.00  0.00    -0.003 C 
ATOM     12  C   UNL     1      -7.473  25.861  60.612  1.00  0.00     0.004 C 
ENDBRANCH  10  11
ENDBRANCH   9  10
ENDBRANCH   8   9
ENDBRANCH   7   8
ENDBRANCH   6   7
ENDBRANCH   5   6
ENDBRANCH   4   5
ENDBRANCH   3   4
ENDBRANCH   2   3
ENDBRANCH   1   2
BRANCH   1  13
ATOM     13  C   UNL     1      -1.602  30.993  56.376  1.00  0.00     0.000 C 
BRANCH  13  14
ATOM     14  C   UNL     1      -1.229  30.139  55.146  1.00  0.00     0.000 C 
BRANCH  14  15
ATOM     15  C   UNL     1      -2.407  29.737  54.241  1.00  0.00     0.000 C 
BRANCH  15  16
ATOM     16  C   UNL     1      -2.565  28.213  54.106  1.00  0.00     0.000 C 
BRANCH  16  17
ATOM     17  C   UNL     1      -3.959  27.717  54.531  1.00  0.00     0.000 C 
BRANCH  17  18
ATOM     18  C   UNL     1      -4.455  28.243  55.894  1.00  0.00     0.000 C 
BRANCH  18  19
ATOM     19  C   UNL     1      -5.748  29.082  55.843  1.00  0.00     0.000 C 
BRANCH  19  20
ATOM     20  C   UNL     1      -5.584  30.551  56.273  1.00  0.00     0.006 C 
BRANCH  20  21
ATOM     21  C   UNL     1      -5.754  31.535  55.107  1.00  0.00     0.053 C 
BRANCH  21  22
ATOM     22  C   UNL     1      -7.185  31.951  54.981  1.00  0.00     0.041 C 
ATOM     23  O   UNL     1      -7.616  32.416  53.892  1.00  0.00    -0.550 OA
ATOM     24  O   UNL     1      -8.057  31.778  56.047  1.00  0.00    -0.550 OA
ENDBRANCH  21  22
ENDBRANCH  20  21
ENDBRANCH  19  20
ENDBRANCH  18  19
ENDBRANCH  17  18
ENDBRANCH  16  17
ENDBRANCH  15  16
ENDBRANCH  14  15
ENDBRANCH  13  14
ENDBRANCH   1  13
TORSDOF 20
ENDMDL
MODEL 4
REMARK VINA RESULT:    -3.694      2.512      5.072
REMARK INTER + INTRA:         -12.386
REMARK INTER:                  -8.389
REMARK INTRA:                  -3.997
REMARK UNBOUND:                -4.373
REMARK SMILES CCCCCCCCCCCCCCCCCCCCCC(=O)[O-]
REMARK SMILES IDX 12 1 11 2 10 3 9 4 8 5 7 6 6 7 5 8 4 9 3 10 2 11 1 12 13 13
REMARK SMILES IDX 14 14 15 15 16 16 17 17 18 18 19 19 20 20 21 21 22 22 23 23
REMARK SMILES IDX 24 24
REMARK H PARENT
REMARK Flexibility Score: inf
ROOT
ATOM      1  C   UNL     1      -4.996  30.651  56.120  1.00  0.00     0.000 C 
ENDROOT
BRANCH   1   2
ATOM      2  C   UNL     1      -5.218  29.133  56.036  1.00  0.00     0.000 C 
BRANCH   2   3
ATOM      3  C   UNL     1      -4.344  28.509  54.941  1.00  0.00     0.000 C 
BRANCH   3   4
ATOM      4  C   UNL     1      -3.516  27.341  55.497  1.00  0.00    -0.000 C 
BRANCH   4   5
ATOM      5  C   UNL     1      -2.034  27.426  55.101  1.00  0.00    -0.000 C 
BRANCH   5   6
ATOM      6  C   UNL     1      -1.115  26.680  56.084  1.00  0.00    -0.000 C 
BRANCH   6   7
ATOM      7  C   UNL     1      -0.461  25.439  55.456  1.00  0.00    -0.000 C 
BRANCH   7   8
ATOM      8  C   UNL     1      -1.270  24.877  54.274  1.00  0.00    -0.000 C 
BRANCH   8   9
ATOM      9  C   UNL     1      -1.846  23.477  54.574  1.00  0.00    -0.000 C 
BRANCH   9  10
ATOM     10  C   UNL     1      -2.609  23.393  55.910  1.00  0.00    -0.000 C 
BRANCH  10  11
ATOM     11  C   UNL     1      -4.137  23.294  55.772  1.00  0.00    -0.003 C 
ATOM     12  C   UNL     1      -4.654  23.895  54.464  1.00  0.00     0.004 C 
ENDBRANCH  10  11
ENDBRANCH   9  10
ENDBRANCH   8   9
ENDBRANCH   7   8
ENDBRANCH   6   7
ENDBRANCH   5   6
ENDBRANCH   4   5
ENDBRANCH   3   4
ENDBRANCH   2   3
ENDBRANCH   1   2
BRANCH   1  13
ATOM     13  C   UNL     1      -3.653  31.023  56.773  1.00  0.00     0.000 C 
BRANCH  13  14
ATOM     14  C   UNL     1      -3.353  30.308  58.108  1.00  0.00     0.000 C 
BRANCH  14  15
ATOM     15  C   UNL     1      -1.896  29.850  58.295  1.00  0.00     0.000 C 
BRANCH  15  16
ATOM     16  C   UNL     1      -1.784  28.484  58.992  1.00  0.00     0.000 C 
BRANCH  16  17
ATOM     17  C   UNL     1      -3.141  27.771  59.131  1.00  0.00     0.000 C 
BRANCH  17  18
ATOM     18  C   UNL     1      -3.081  26.230  59.083  1.00  0.00     0.000 C 
BRANCH  18  19
ATOM     19  C   UNL     1      -4.413  25.530  58.746  1.00  0.00     0.000 C 
BRANCH  19  20
ATOM     20  C   UNL     1      -5.565  26.478  58.369  1.00  0.00     0.006 C 
BRANCH  20  21
ATOM     21  C   UNL     1      -6.931  25.778  58.352  1.00  0.00     0.053 C 
BRANCH  21  22
ATOM     22  C   UNL     1      -7.177  25.148  57.019  1.00  0.00     0.041 C 
ATOM     23  O   UNL     1      -7.107  25.839  55.968  1.00  0.00    -0.550 OA
ATOM     24  O   UNL     1      -7.434  23.786  56.929  1.00  0.00    -0.550 OA
ENDBRANCH  21  22
ENDBRANCH  20  21
ENDBRANCH  19  20
ENDBRANCH  18  19
ENDBRANCH  17  18
ENDBRANCH  16  17
ENDBRANCH  15  16
ENDBRANCH  14  15
ENDBRANCH  13  14
ENDBRANCH   1  13
TORSDOF 20
ENDMDL
MODEL 5
REMARK VINA RESULT:    -3.673      1.494      3.257
REMARK INTER + INTRA:         -12.340
REMARK INTER:                  -8.663
REMARK INTRA:                  -3.677
REMARK UNBOUND:                -4.373
REMARK SMILES CCCCCCCCCCCCCCCCCCCCCC(=O)[O-]
REMARK SMILES IDX 12 1 11 2 10 3 9 4 8 5 7 6 6 7 5 8 4 9 3 10 2 11 1 12 13 13
REMARK SMILES IDX 14 14 15 15 16 16 17 17 18 18 19 19 20 20 21 21 22 22 23 23
REMARK SMILES IDX 24 24
REMARK H PARENT
REMARK Flexibility Score: inf
ROOT
ATOM      1  C   UNL     1      -2.952  28.657  59.125  1.00  0.00     0.000 C 
ENDROOT
BRANCH   1   2
ATOM      2  C   UNL     1      -2.110  27.485  58.600  1.00  0.00     0.000 C 
BRANCH   2   3
ATOM      3  C   UNL     1      -2.907  26.175  58.636  1.00  0.00     0.000 C 
BRANCH   3   4
ATOM      4  C   UNL     1      -4.209  26.345  59.432  1.00  0.00    -0.000 C 
BRANCH   4   5
ATOM      5  C   UNL     1      -5.371  25.529  58.844  1.00  0.00    -0.000 C 
BRANCH   5   6
ATOM      6  C   UNL     1      -4.915  24.570  57.730  1.00  0.00    -0.000 C 
BRANCH   6   7
ATOM      7  C   UNL     1      -6.043  24.235  56.741  1.00  0.00    -0.000 C 
BRANCH   7   8
ATOM      8  C   UNL     1      -6.734  25.492  56.183  1.00  0.00    -0.000 C 
BRANCH   8   9
ATOM      9  C   UNL     1      -6.151  25.923  54.820  1.00  0.00    -0.000 C 
BRANCH   9  10
ATOM     10  C   UNL     1      -5.641  27.377  54.796  1.00  0.00    -0.000 C 
BRANCH  10  11
ATOM     11  C   UNL     1      -4.346  27.617  55.589  1.00  0.00    -0.003 C 
ATOM     12  C   UNL     1      -3.138  26.899  54.983  1.00  0.00     0.004 C 
ENDBRANCH  10  11
ENDBRANCH   9  10
ENDBRANCH   8   9
ENDBRANCH   7   8
ENDBRANCH   6   7
ENDBRANCH   5   6
ENDBRANCH   4   5
ENDBRANCH   3   4
ENDBRANCH   2   3
ENDBRANCH   1   2
BRANCH   1  13
ATOM     13  C   UNL     1      -2.609  29.992  58.440  1.00  0.00     0.000 C 
BRANCH  13  14
ATOM     14  C   UNL     1      -1.107  30.224  58.170  1.00  0.00     0.000 C 
BRANCH  14  15
ATOM     15  C   UNL     1      -0.770  30.809  56.787  1.00  0.00     0.000 C 
BRANCH  15  16
ATOM     16  C   UNL     1      -1.003  29.810  55.642  1.00  0.00     0.000 C 
BRANCH  16  17
ATOM     17  C   UNL     1      -1.920  30.368  54.539  1.00  0.00     0.000 C 
BRANCH  17  18
ATOM     18  C   UNL     1      -2.194  31.885  54.619  1.00  0.00     0.000 C 
BRANCH  18  19
ATOM     19  C   UNL     1      -3.657  32.273  54.916  1.00  0.00     0.000 C 
BRANCH  19  20
ATOM     20  C   UNL     1      -4.674  31.128  54.767  1.00  0.00     0.006 C 
BRANCH  20  21
ATOM     21  C   UNL     1      -5.752  31.144  55.859  1.00  0.00     0.053 C 
BRANCH  21  22
ATOM     22  C   UNL     1      -7.063  31.589  55.291  1.00  0.00     0.041 C 
ATOM     23  O   UNL     1      -7.150  31.916  54.077  1.00  0.00    -0.550 OA
ATOM     24  O   UNL     1      -8.200  31.594  56.087  1.00  0.00    -0.550 OA
ENDBRANCH  21  22
ENDBRANCH  20  21
ENDBRANCH  19  20
ENDBRANCH  18  19
ENDBRANCH  17  18
ENDBRANCH  16  17
ENDBRANCH  15  16
ENDBRANCH  14  15
ENDBRANCH  13  14
ENDBRANCH   1  13
TORSDOF 20
ENDMDL
MODEL 6
REMARK VINA RESULT:    -3.656      1.392      2.155
REMARK INTER + INTRA:         -12.304
REMARK INTER:                  -8.731
REMARK INTRA:                  -3.573
REMARK UNBOUND:                -4.373
REMARK SMILES CCCCCCCCCCCCCCCCCCCCCC(=O)[O-]
REMARK SMILES IDX 12 1 11 2 10 3 9 4 8 5 7 6 6 7 5 8 4 9 3 10 2 11 1 12 13 13
REMARK SMILES IDX 14 14 15 15 16 16 17 17 18 18 19 19 20 20 21 21 22 22 23 23
REMARK SMILES IDX 24 24
REMARK H PARENT
REMARK Flexibility Score: inf
ROOT
ATOM      1  C   UNL     1      -4.793  27.587  57.339  1.00  0.00     0.000 C 
ENDROOT
BRANCH   1   2
ATOM      2  C   UNL     1      -4.691  27.431  55.814  1.00  0.00     0.000 C 
BRANCH   2   3
ATOM      3  C   UNL     1      -3.259  27.687  55.329  1.00  0.00     0.000 C 
BRANCH   3   4
ATOM      4  C   UNL     1      -2.788  26.568  54.388  1.00  0.00    -0.000 C 
BRANCH   4   5
ATOM      5  C   UNL     1      -3.788  25.404  54.309  1.00  0.00    -0.000 C 
BRANCH   5   6
ATOM      6  C   UNL     1      -3.188  24.076  54.805  1.00  0.00    -0.000 C 
BRANCH   6   7
ATOM      7  C   UNL     1      -3.732  23.659  56.181  1.00  0.00    -0.000 C 
BRANCH   7   8
ATOM      8  C   UNL     1      -5.266  23.740  56.261  1.00  0.00    -0.000 C 
BRANCH   8   9
ATOM      9  C   UNL     1      -5.778  23.706  57.717  1.00  0.00    -0.000 C 
BRANCH   9  10
ATOM     10  C   UNL     1      -6.970  24.647  57.977  1.00  0.00    -0.000 C 
BRANCH  10  11
ATOM     11  C   UNL     1      -6.946  25.351  59.344  1.00  0.00    -0.003 C 
ATOM     12  C   UNL     1      -7.999  26.454  59.462  1.00  0.00     0.004 C 
ENDBRANCH  10  11
ENDBRANCH   9  10
ENDBRANCH   8   9
ENDBRANCH   7   8
ENDBRANCH   6   7
ENDBRANCH   5   6
ENDBRANCH   4   5
ENDBRANCH   3   4
ENDBRANCH   2   3
ENDBRANCH   1   2
BRANCH   1  13
ATOM     13  C   UNL     1      -3.683  26.832  58.091  1.00  0.00     0.000 C 
BRANCH  13  14
ATOM     14  C   UNL     1      -3.100  27.570  59.314  1.00  0.00     0.000 C 
BRANCH  14  15
ATOM     15  C   UNL     1      -1.818  28.379  59.046  1.00  0.00     0.000 C 
BRANCH  15  16
ATOM     16  C   UNL     1      -2.082  29.886  58.899  1.00  0.00     0.000 C 
BRANCH  16  17
ATOM     17  C   UNL     1      -2.094  30.351  57.431  1.00  0.00     0.000 C 
BRANCH  17  18
ATOM     18  C   UNL     1      -3.406  31.014  56.963  1.00  0.00     0.000 C 
BRANCH  18  19
ATOM     19  C   UNL     1      -3.551  31.179  55.437  1.00  0.00     0.000 C 
BRANCH  19  20
ATOM     20  C   UNL     1      -4.990  31.055  54.906  1.00  0.00     0.006 C 
BRANCH  20  21
ATOM     21  C   UNL     1      -5.932  32.121  55.483  1.00  0.00     0.053 C 
BRANCH  21  22
ATOM     22  C   UNL     1      -7.313  31.568  55.636  1.00  0.00     0.041 C 
ATOM     23  O   UNL     1      -7.853  31.518  56.773  1.00  0.00    -0.550 OA
ATOM     24  O   UNL     1      -8.026  31.156  54.519  1.00  0.00    -0.550 OA
ENDBRANCH  21  22
ENDBRANCH  20  21
ENDBRANCH  19  20
ENDBRANCH  18  19
ENDBRANCH  17  18
ENDBRANCH  16  17
ENDBRANCH  15  16
ENDBRANCH  14  15
ENDBRANCH  13  14
ENDBRANCH   1  13
TORSDOF 20
ENDMDL
MODEL 7
REMARK VINA RESULT:    -3.643      2.601      5.082
REMARK INTER + INTRA:         -12.274
REMARK INTER:                  -8.388
REMARK INTRA:                  -3.886
REMARK UNBOUND:                -4.373
REMARK SMILES CCCCCCCCCCCCCCCCCCCCCC(=O)[O-]
REMARK SMILES IDX 12 1 11 2 10 3 9 4 8 5 7 6 6 7 5 8 4 9 3 10 2 11 1 12 13 13
REMARK SMILES IDX 14 14 15 15 16 16 17 17 18 18 19 19 20 20 21 21 22 22 23 23
REMARK SMILES IDX 24 24
REMARK H PARENT
REMARK Flexibility Score: inf
ROOT
ATOM      1  C   UNL     1      -3.577  30.696  57.281  1.00  0.00     0.000 C 
ENDROOT
BRANCH   1   2
ATOM      2  C   UNL     1      -4.363  31.237  56.077  1.00  0.00     0.000 C 
BRANCH   2   3
ATOM      3  C   UNL     1      -5.383  30.206  55.578  1.00  0.00     0.000 C 
BRANCH   3   4
ATOM      4  C   UNL     1      -5.256  28.886  56.353  1.00  0.00    -0.000 C 
BRANCH   4   5
ATOM      5  C   UNL     1      -4.897  27.701  55.444  1.00  0.00    -0.000 C 
BRANCH   5   6
ATOM      6  C   UNL     1      -3.767  28.035  54.454  1.00  0.00    -0.000 C 
BRANCH   6   7
ATOM      7  C   UNL     1      -3.036  26.781  53.947  1.00  0.00    -0.000 C 
BRANCH   7   8
ATOM      8  C   UNL     1      -3.564  25.487  54.590  1.00  0.00    -0.000 C 
BRANCH   8   9
ATOM      9  C   UNL     1      -2.427  24.613  55.162  1.00  0.00    -0.000 C 
BRANCH   9  10
ATOM     10  C   UNL     1      -2.248  23.270  54.427  1.00  0.00    -0.000 C 
BRANCH  10  11
ATOM     11  C   UNL     1      -3.434  22.301  54.561  1.00  0.00    -0.003 C 
ATOM     12  C   UNL     1      -3.440  21.554  55.896  1.00  0.00     0.004 C 
ENDBRANCH  10  11
ENDBRANCH   9  10
ENDBRANCH   8   9
ENDBRANCH   7   8
ENDBRANCH   6   7
ENDBRANCH   5   6
ENDBRANCH   4   5
ENDBRANCH   3   4
ENDBRANCH   2   3
ENDBRANCH   1   2
BRANCH   1  13
ATOM     13  C   UNL     1      -2.066  30.594  57.010  1.00  0.00     0.000 C 
BRANCH  13  14
ATOM     14  C   UNL     1      -1.343  29.449  57.750  1.00  0.00     0.000 C 
BRANCH  14  15
ATOM     15  C   UNL     1      -1.268  28.115  56.985  1.00  0.00     0.000 C 
BRANCH  15  16
ATOM     16  C   UNL     1      -1.900  26.946  57.759  1.00  0.00     0.000 C 
BRANCH  16  17
ATOM     17  C   UNL     1      -2.668  27.405  59.012  1.00  0.00     0.000 C 
BRANCH  17  18
ATOM     18  C   UNL     1      -3.967  26.625  59.307  1.00  0.00     0.000 C 
BRANCH  18  19
ATOM     19  C   UNL     1      -4.261  25.452  58.351  1.00  0.00     0.000 C 
BRANCH  19  20
ATOM     20  C   UNL     1      -5.753  25.211  58.060  1.00  0.00     0.006 C 
BRANCH  20  21
ATOM     21  C   UNL     1      -5.984  24.130  56.996  1.00  0.00     0.053 C 
BRANCH  21  22
ATOM     22  C   UNL     1      -7.222  24.428  56.210  1.00  0.00     0.041 C 
ATOM     23  O   UNL     1      -7.210  25.322  55.323  1.00  0.00    -0.550 OA
ATOM     24  O   UNL     1      -8.376  23.685  56.422  1.00  0.00    -0.550 OA
ENDBRANCH  21  22
ENDBRANCH  20  21
ENDBRANCH  19  20
ENDBRANCH  18  19
ENDBRANCH  17  18
ENDBRANCH  16  17
ENDBRANCH  15  16
ENDBRANCH  14  15
ENDBRANCH  13  14
ENDBRANCH   1  13
TORSDOF 20
ENDMDL
MODEL 8
REMARK VINA RESULT:    -3.642      2.256      4.054
REMARK INTER + INTRA:         -12.273
REMARK INTER:                  -8.568
REMARK INTRA:                  -3.705
REMARK UNBOUND:                -4.373
REMARK SMILES CCCCCCCCCCCCCCCCCCCCCC(=O)[O-]
REMARK SMILES IDX 12 1 11 2 10 3 9 4 8 5 7 6 6 7 5 8 4 9 3 10 2 11 1 12 13 13
REMARK SMILES IDX 14 14 15 15 16 16 17 17 18 18 19 19 20 20 21 21 22 22 23 23
REMARK SMILES IDX 24 24
REMARK H PARENT
REMARK Flexibility Score: inf
ROOT
ATOM      1  C   UNL     1      -4.788  26.534  58.505  1.00  0.00     0.000 C 
ENDROOT
BRANCH   1   2
ATOM      2  C   UNL     1      -3.427  25.893  58.816  1.00  0.00     0.000 C 
BRANCH   2   3
ATOM      3  C   UNL     1      -2.276  26.819  58.404  1.00  0.00     0.000 C 
BRANCH   3   4
ATOM      4  C   UNL     1      -1.743  26.449  57.013  1.00  0.00    -0.000 C 
BRANCH   4   5
ATOM      5  C   UNL     1      -2.007  24.979  56.651  1.00  0.00    -0.000 C 
BRANCH   5   6
ATOM      6  C   UNL     1      -2.160  24.761  55.135  1.00  0.00    -0.000 C 
BRANCH   6   7
ATOM      7  C   UNL     1      -3.258  23.742  54.792  1.00  0.00    -0.000 C 
BRANCH   7   8
ATOM      8  C   UNL     1      -3.676  22.892  56.004  1.00  0.00    -0.000 C 
BRANCH   8   9
ATOM      9  C   UNL     1      -3.350  21.395  55.809  1.00  0.00    -0.000 C 
BRANCH   9  10
ATOM     10  C   UNL     1      -2.593  21.092  54.501  1.00  0.00    -0.000 C 
BRANCH  10  11
ATOM     11  C   UNL     1      -1.131  20.655  54.691  1.00  0.00    -0.003 C 
ATOM     12  C   UNL     1      -0.130  21.711  54.219  1.00  0.00     0.004 C 
ENDBRANCH  10  11
ENDBRANCH   9  10
ENDBRANCH   8   9
ENDBRANCH   7   8
ENDBRANCH   6   7
ENDBRANCH   5   6
ENDBRANCH   4   5
ENDBRANCH   3   4
ENDBRANCH   2   3
ENDBRANCH   1   2
BRANCH   1  13
ATOM     13  C   UNL     1      -5.662  25.662  57.587  1.00  0.00     0.000 C 
BRANCH  13  14
ATOM     14  C   UNL     1      -5.692  26.094  56.105  1.00  0.00     0.000 C 
BRANCH  14  15
ATOM     15  C   UNL     1      -5.461  27.595  55.852  1.00  0.00     0.000 C 
BRANCH  15  16
ATOM     16  C   UNL     1      -4.388  27.863  54.785  1.00  0.00     0.000 C 
BRANCH  16  17
ATOM     17  C   UNL     1      -3.565  29.132  55.070  1.00  0.00     0.000 C 
BRANCH  17  18
ATOM     18  C   UNL     1      -3.591  29.616  56.536  1.00  0.00     0.000 C 
BRANCH  18  19
ATOM     19  C   UNL     1      -3.786  31.134  56.723  1.00  0.00     0.000 C 
BRANCH  19  20
ATOM     20  C   UNL     1      -4.866  31.764  55.825  1.00  0.00     0.006 C 
BRANCH  20  21
ATOM     21  C   UNL     1      -6.291  31.399  56.263  1.00  0.00     0.053 C 
BRANCH  21  22
ATOM     22  C   UNL     1      -7.228  31.468  55.100  1.00  0.00     0.041 C 
ATOM     23  O   UNL     1      -6.777  31.551  53.926  1.00  0.00    -0.550 OA
ATOM     24  O   UNL     1      -8.599  31.391  55.305  1.00  0.00    -0.550 OA
ENDBRANCH  21  22
ENDBRANCH  20  21
ENDBRANCH  19  20
ENDBRANCH  18  19
ENDBRANCH  17  18
ENDBRANCH  16  17
ENDBRANCH  15  16
ENDBRANCH  14  15
ENDBRANCH  13  14
ENDBRANCH   1  13
TORSDOF 20
ENDMDL
MODEL 9
REMARK VINA RESULT:    -3.591      2.810      6.124
REMARK INTER + INTRA:         -12.161
REMARK INTER:                  -8.414
REMARK INTRA:                  -3.747
REMARK UNBOUND:                -4.373
REMARK SMILES CCCCCCCCCCCCCCCCCCCCCC(=O)[O-]
REMARK SMILES IDX 12 1 11 2 10 3 9 4 8 5 7 6 6 7 5 8 4 9 3 10 2 11 1 12 13 13
REMARK SMILES IDX 14 14 15 15 16 16 17 17 18 18 19 19 20 20 21 21 22 22 23 23
REMARK SMILES IDX 24 24
REMARK H PARENT
REMARK Flexibility Score: inf
ROOT
ATOM      1  C   UNL     1      -1.388  31.169  55.374  1.00  0.00     0.000 C 
ENDROOT
BRANCH   1   2
ATOM      2  C   UNL     1      -1.625  30.381  54.077  1.00  0.00     0.000 C 
BRANCH   2   3
ATOM      3  C   UNL     1      -2.620  31.109  53.165  1.00  0.00     0.000 C 
BRANCH   3   4
ATOM      4  C   UNL     1      -3.163  32.376  53.843  1.00  0.00    -0.000 C 
BRANCH   4   5
ATOM      5  C   UNL     1      -4.523  32.812  53.276  1.00  0.00    -0.000 C 
BRANCH   5   6
ATOM      6  C   UNL     1      -5.664  31.861  53.679  1.00  0.00    -0.000 C 
BRANCH   6   7
ATOM      7  C   UNL     1      -6.339  32.272  54.997  1.00  0.00    -0.000 C 
BRANCH   7   8
ATOM      8  C   UNL     1      -6.332  31.144  56.043  1.00  0.00    -0.000 C 
BRANCH   8   9
ATOM      9  C   UNL     1      -4.921  30.885  56.614  1.00  0.00    -0.000 C 
BRANCH   9  10
ATOM     10  C   UNL     1      -4.522  29.396  56.630  1.00  0.00    -0.000 C 
BRANCH  10  11
ATOM     11  C   UNL     1      -4.820  28.637  55.326  1.00  0.00    -0.003 C 
ATOM     12  C   UNL     1      -3.732  27.624  54.968  1.00  0.00     0.004 C 
ENDBRANCH  10  11
ENDBRANCH   9  10
ENDBRANCH   8   9
ENDBRANCH   7   8
ENDBRANCH   6   7
ENDBRANCH   5   6
ENDBRANCH   4   5
ENDBRANCH   3   4
ENDBRANCH   2   3
ENDBRANCH   1   2
BRANCH   1  13
ATOM     13  C   UNL     1      -0.529  30.398  56.392  1.00  0.00     0.000 C 
BRANCH  13  14
ATOM     14  C   UNL     1      -1.184  30.182  57.772  1.00  0.00     0.000 C 
BRANCH  14  15
ATOM     15  C   UNL     1      -1.243  28.720  58.251  1.00  0.00     0.000 C 
BRANCH  15  16
ATOM     16  C   UNL     1      -2.024  28.552  59.565  1.00  0.00     0.000 C 
BRANCH  16  17
ATOM     17  C   UNL     1      -3.200  27.567  59.440  1.00  0.00     0.000 C 
BRANCH  17  18
ATOM     18  C   UNL     1      -2.915  26.309  58.593  1.00  0.00     0.000 C 
BRANCH  18  19
ATOM     19  C   UNL     1      -4.156  25.649  57.959  1.00  0.00     0.000 C 
BRANCH  19  20
ATOM     20  C   UNL     1      -5.504  26.241  58.407  1.00  0.00     0.006 C 
BRANCH  20  21
ATOM     21  C   UNL     1      -6.658  25.873  57.464  1.00  0.00     0.053 C 
BRANCH  21  22
ATOM     22  C   UNL     1      -6.842  24.389  57.419  1.00  0.00     0.041 C 
ATOM     23  O   UNL     1      -7.038  23.808  56.319  1.00  0.00    -0.550 OA
ATOM     24  O   UNL     1      -6.747  23.641  58.585  1.00  0.00    -0.550 OA
ENDBRANCH  21  22
ENDBRANCH  20  21
ENDBRANCH  19  20
ENDBRANCH  18  19
ENDBRANCH  17  18
ENDBRANCH  16  17
ENDBRANCH  15  16
ENDBRANCH  14  15
ENDBRANCH  13  14
ENDBRANCH   1  13
TORSDOF 20
ENDMDL
