MODEL 1
REMARK VINA RESULT:     0.692      0.000      0.000
REMARK INTER + INTRA:           1.426
REMARK INTER:                   0.834
REMARK INTRA:                   0.592
REMARK UNBOUND:                 0.592
REMARK SMILES O=c1c(O)c(-c2ccc(O)cc2O)oc2cc(O)cc(O)c12
REMARK SMILES IDX 5 1 3 2 2 3 1 4 22 5 20 6 19 7 17 8 16 9 15 10 14 11 6 12
REMARK SMILES IDX 8 13 7 14 9 15 11 16 12 17 10 18 13 20 4 22 21 24 18 26
REMARK H PARENT 10 19 13 21 4 23 21 25 18 27
REMARK Flexibility Score: inf
ROOT
ATOM      1  C   UNL     1      29.071  29.679  24.868  1.00  0.00     0.184 A 
ATOM      2  C   UNL     1      29.085  29.717  26.274  1.00  0.00     0.208 A 
ATOM      3  C   UNL     1      29.086  28.507  26.985  1.00  0.00     0.238 A 
ATOM      4  O   UNL     1      29.090  28.529  28.246  1.00  0.00    -0.285 OA
ATOM      5  C   UNL     1      29.089  27.286  26.282  1.00  0.00     0.111 A 
ATOM      6  C   UNL     1      29.094  26.023  26.923  1.00  0.00     0.134 A 
ATOM      7  C   UNL     1      29.106  24.851  26.151  1.00  0.00     0.093 A 
ATOM      8  C   UNL     1      29.112  24.918  24.753  1.00  0.00     0.123 A 
ATOM      9  C   UNL     1      29.106  26.161  24.117  1.00  0.00     0.094 A 
ATOM     10  C   UNL     1      29.094  27.340  24.868  1.00  0.00     0.146 A 
ATOM     11  O   UNL     1      29.085  28.508  24.236  1.00  0.00    -0.451 OA
ENDROOT
BRANCH   1  12
ATOM     12  C   UNL     1      29.050  30.916  24.053  1.00  0.00     0.063 A 
ATOM     13  C   UNL     1      28.927  33.343  23.906  1.00  0.00     0.047 A 
ATOM     14  C   UNL     1      28.973  32.176  24.673  1.00  0.00     0.020 A 
ATOM     15  C   UNL     1      28.944  33.267  22.509  1.00  0.00     0.119 A 
ATOM     16  C   UNL     1      29.006  32.018  21.883  1.00  0.00     0.093 A 
ATOM     17  C   UNL     1      29.056  30.842  22.645  1.00  0.00     0.130 A 
BRANCH  15  18
ATOM     18  O   UNL     1      28.897  34.424  21.734  1.00  0.00    -0.508 OA
ATOM     19  H   UNL     1      29.712  34.760  21.234  1.00  0.00     0.293 HD
ENDBRANCH  15  18
BRANCH  17  20
ATOM     20  O   UNL     1      29.124  29.604  22.008  1.00  0.00    -0.507 OA
ATOM     21  H   UNL     1      28.754  28.763  22.437  1.00  0.00     0.293 HD
ENDBRANCH  17  20
ENDBRANCH   1  12
BRANCH   2  22
ATOM     22  O   UNL     1      29.122  30.942  26.945  1.00  0.00    -0.502 OA
ATOM     23  H   UNL     1      28.344  31.590  26.934  1.00  0.00     0.293 HD
ENDBRANCH   2  22
BRANCH   6  24
ATOM     24  O   UNL     1      29.089  25.924  28.315  1.00  0.00    -0.507 OA
ATOM     25  H   UNL     1      29.939  25.752  28.840  1.00  0.00     0.293 HD
ENDBRANCH   6  24
BRANCH   8  26
ATOM     26  O   UNL     1      29.124  23.755  23.987  1.00  0.00    -0.508 OA
ATOM     27  H   UNL     1      29.643  22.934  24.277  1.00  0.00     0.293 HD
ENDBRANCH   8  26
TORSDOF 6
ENDMDL
MODEL 2
REMARK VINA RESULT:     1.763      4.993      7.622
REMARK INTER + INTRA:           2.716
REMARK INTER:                   2.756
REMARK INTRA:                  -0.040
REMARK UNBOUND:                 0.592
REMARK SMILES O=c1c(O)c(-c2ccc(O)cc2O)oc2cc(O)cc(O)c12
REMARK SMILES IDX 5 1 3 2 2 3 1 4 22 5 20 6 19 7 17 8 16 9 15 10 14 11 6 12
REMARK SMILES IDX 8 13 7 14 9 15 11 16 12 17 10 18 13 20 4 22 21 24 18 26
REMARK H PARENT 10 19 13 21 4 23 21 25 18 27
REMARK Flexibility Score: inf
ROOT
ATOM      1  C   UNL     1      24.740  25.666  27.357  1.00  0.00     0.184 A 
ATOM      2  C   UNL     1      25.283  24.368  27.381  1.00  0.00     0.208 A 
ATOM      3  C   UNL     1      26.533  24.144  26.783  1.00  0.00     0.238 A 
ATOM      4  O   UNL     1      27.025  22.983  26.791  1.00  0.00    -0.285 OA
ATOM      5  C   UNL     1      27.223  25.219  26.188  1.00  0.00     0.111 A 
ATOM      6  C   UNL     1      28.489  25.079  25.568  1.00  0.00     0.134 A 
ATOM      7  C   UNL     1      29.115  26.201  25.005  1.00  0.00     0.093 A 
ATOM      8  C   UNL     1      28.502  27.458  25.050  1.00  0.00     0.123 A 
ATOM      9  C   UNL     1      27.254  27.601  25.660  1.00  0.00     0.094 A 
ATOM     10  C   UNL     1      26.613  26.496  26.226  1.00  0.00     0.146 A 
ATOM     11  O   UNL     1      25.424  26.660  26.796  1.00  0.00    -0.451 OA
ENDROOT
BRANCH   1  12
ATOM     12  C   UNL     1      23.418  25.971  27.952  1.00  0.00     0.063 A 
ATOM     13  C   UNL     1      21.102  25.354  28.373  1.00  0.00     0.047 A 
ATOM     14  C   UNL     1      22.357  25.056  27.836  1.00  0.00     0.020 A 
ATOM     15  C   UNL     1      20.887  26.575  29.023  1.00  0.00     0.119 A 
ATOM     16  C   UNL     1      21.932  27.497  29.131  1.00  0.00     0.093 A 
ATOM     17  C   UNL     1      23.196  27.205  28.597  1.00  0.00     0.130 A 
BRANCH  15  18
ATOM     18  O   UNL     1      19.639  26.882  29.562  1.00  0.00    -0.508 OA
ATOM     19  H   UNL     1      19.097  26.193  30.069  1.00  0.00     0.293 HD
ENDBRANCH  15  18
BRANCH  17  20
ATOM     20  O   UNL     1      24.231  28.131  28.717  1.00  0.00    -0.507 OA
ATOM     21  H   UNL     1      24.976  28.189  28.032  1.00  0.00     0.293 HD
ENDBRANCH  17  20
ENDBRANCH   1  12
BRANCH   2  22
ATOM     22  O   UNL     1      24.594  23.329  28.013  1.00  0.00    -0.502 OA
ATOM     23  H   UNL     1      24.946  22.875  28.847  1.00  0.00     0.293 HD
ENDBRANCH   2  22
BRANCH   6  24
ATOM     24  O   UNL     1      29.125  23.839  25.508  1.00  0.00    -0.507 OA
ATOM     25  H   UNL     1      29.462  23.454  24.633  1.00  0.00     0.293 HD
ENDBRANCH   6  24
BRANCH   8  26
ATOM     26  O   UNL     1      29.125  28.572  24.492  1.00  0.00    -0.508 OA
ATOM     27  H   UNL     1      30.066  28.523  24.121  1.00  0.00     0.293 HD
ENDBRANCH   8  26
TORSDOF 6
ENDMDL
MODEL 3
REMARK VINA RESULT:     2.734      6.060      8.349
REMARK INTER + INTRA:           3.885
REMARK INTER:                   3.785
REMARK INTRA:                   0.100
REMARK UNBOUND:                 0.592
REMARK SMILES O=c1c(O)c(-c2ccc(O)cc2O)oc2cc(O)cc(O)c12
REMARK SMILES IDX 5 1 3 2 2 3 1 4 22 5 20 6 19 7 17 8 16 9 15 10 14 11 6 12
REMARK SMILES IDX 8 13 7 14 9 15 11 16 12 17 10 18 13 20 4 22 21 24 18 26
REMARK H PARENT 10 19 13 21 4 23 21 25 18 27
REMARK Flexibility Score: inf
ROOT
ATOM      1  C   UNL     1      24.791  24.898  26.700  1.00  0.00     0.184 A 
ATOM      2  C   UNL     1      23.621  24.154  26.941  1.00  0.00     0.208 A 
ATOM      3  C   UNL     1      22.599  24.726  27.714  1.00  0.00     0.238 A 
ATOM      4  O   UNL     1      21.550  24.065  27.943  1.00  0.00    -0.285 OA
ATOM      5  C   UNL     1      22.756  26.034  28.217  1.00  0.00     0.111 A 
ATOM      6  C   UNL     1      21.773  26.685  29.001  1.00  0.00     0.134 A 
ATOM      7  C   UNL     1      22.001  27.991  29.458  1.00  0.00     0.093 A 
ATOM      8  C   UNL     1      23.192  28.658  29.148  1.00  0.00     0.123 A 
ATOM      9  C   UNL     1      24.164  28.020  28.375  1.00  0.00     0.094 A 
ATOM     10  C   UNL     1      23.957  26.718  27.911  1.00  0.00     0.146 A 
ATOM     11  O   UNL     1      24.900  26.133  27.182  1.00  0.00    -0.451 OA
ENDROOT
BRANCH   1  12
ATOM     12  C   UNL     1      25.917  24.350  25.909  1.00  0.00     0.063 A 
ATOM     13  C   UNL     1      28.291  23.871  25.670  1.00  0.00     0.047 A 
ATOM     14  C   UNL     1      27.224  24.363  26.426  1.00  0.00     0.020 A 
ATOM     15  C   UNL     1      28.068  23.370  24.382  1.00  0.00     0.119 A 
ATOM     16  C   UNL     1      26.774  23.364  23.854  1.00  0.00     0.093 A 
ATOM     17  C   UNL     1      25.697  23.855  24.607  1.00  0.00     0.130 A 
BRANCH  15  18
ATOM     18  O   UNL     1      29.125  22.877  23.619  1.00  0.00    -0.508 OA
ATOM     19  H   UNL     1      28.994  22.586  22.657  1.00  0.00     0.293 HD
ENDBRANCH  15  18
BRANCH  17  20
ATOM     20  O   UNL     1      24.410  23.838  24.070  1.00  0.00    -0.507 OA
ATOM     21  H   UNL     1      23.611  23.525  24.611  1.00  0.00     0.293 HD
ENDBRANCH  17  20
ENDBRANCH   1  12
BRANCH   2  22
ATOM     22  O   UNL     1      23.476  22.875  26.395  1.00  0.00    -0.502 OA
ATOM     23  H   UNL     1      22.707  22.631  25.783  1.00  0.00     0.293 HD
ENDBRANCH   2  22
BRANCH   6  24
ATOM     24  O   UNL     1      20.576  26.046  29.326  1.00  0.00    -0.507 OA
ATOM     25  H   UNL     1      20.296  25.896  30.289  1.00  0.00     0.293 HD
ENDBRANCH   6  24
BRANCH   8  26
ATOM     26  O   UNL     1      23.418  29.955  29.601  1.00  0.00    -0.508 OA
ATOM     27  H   UNL     1      24.269  30.456  29.373  1.00  0.00     0.293 HD
ENDBRANCH   8  26
TORSDOF 6
ENDMDL
