MODEL 1
REMARK VINA RESULT:    -5.358      0.000      0.000
REMARK INTER + INTRA:          -6.675
REMARK INTER:                  -6.455
REMARK INTRA:                  -0.220
REMARK UNBOUND:                -0.220
REMARK SMILES O=c1c(O)c(-c2ccc(O)c(O)c2)oc2cc(O)cc(O)c12
REMARK SMILES IDX 5 1 3 2 2 3 1 4 22 5 20 6 19 7 17 8 16 9 15 10 14 11 6 12
REMARK SMILES IDX 7 13 8 14 9 15 13 16 11 17 10 18 12 20 4 22 21 24 18 26
REMARK H PARENT 10 19 12 21 4 23 21 25 18 27
REMARK Flexibility Score: inf
ROOT
ATOM      1  C   UNL     1     137.543 129.930 118.965  1.00  0.00     0.180 A 
ATOM      2  C   UNL     1     136.180 130.077 119.290  1.00  0.00     0.208 A 
ATOM      3  C   UNL     1     135.236 129.273 118.633  1.00  0.00     0.238 A 
ATOM      4  O   UNL     1     134.012 129.404 118.908  1.00  0.00    -0.285 OA
ATOM      5  C   UNL     1     135.667 128.327 117.681  1.00  0.00     0.111 A 
ATOM      6  C   UNL     1     134.780 127.477 116.977  1.00  0.00     0.134 A 
ATOM      7  C   UNL     1     135.289 126.554 116.051  1.00  0.00     0.093 A 
ATOM      8  C   UNL     1     136.667 126.465 115.817  1.00  0.00     0.123 A 
ATOM      9  C   UNL     1     137.544 127.302 116.508  1.00  0.00     0.094 A 
ATOM     10  C   UNL     1     137.057 128.229 117.433  1.00  0.00     0.146 A 
ATOM     11  O   UNL     1     137.914 129.016 118.072  1.00  0.00    -0.452 OA
ENDROOT
BRANCH   1  12
ATOM     12  C   UNL     1     138.596 130.753 119.600  1.00  0.00     0.025 A 
ATOM     13  C   UNL     1     138.943 130.517 120.941  1.00  0.00     0.016 A 
ATOM     14  C   UNL     1     139.948 131.268 121.554  1.00  0.00     0.051 A 
ATOM     15  C   UNL     1     140.633 132.255 120.832  1.00  0.00     0.157 A 
ATOM     16  C   UNL     1     139.301 131.730 118.874  1.00  0.00     0.062 A 
ATOM     17  C   UNL     1     140.311 132.483 119.489  1.00  0.00     0.158 A 
BRANCH  15  18
ATOM     18  O   UNL     1     141.635 133.008 121.441  1.00  0.00    -0.504 OA
ATOM     19  H   UNL     1     141.769 132.999 122.445  1.00  0.00     0.293 HD
ENDBRANCH  15  18
BRANCH  17  20
ATOM     20  O   UNL     1     141.002 133.456 118.769  1.00  0.00    -0.504 OA
ATOM     21  H   UNL     1     142.014 133.464 118.723  1.00  0.00     0.293 HD
ENDBRANCH  17  20
ENDBRANCH   1  12
BRANCH   2  22
ATOM     22  O   UNL     1     135.783 130.987 120.273  1.00  0.00    -0.502 OA
ATOM     23  H   UNL     1     135.169 131.768 120.072  1.00  0.00     0.293 HD
ENDBRANCH   2  22
BRANCH   6  24
ATOM     24  O   UNL     1     133.403 127.541 117.190  1.00  0.00    -0.507 OA
ATOM     25  H   UNL     1     132.969 127.122 118.005  1.00  0.00     0.293 HD
ENDBRANCH   6  24
BRANCH   8  26
ATOM     26  O   UNL     1     137.172 125.548 114.898  1.00  0.00    -0.508 OA
ATOM     27  H   UNL     1     138.080 125.675 114.467  1.00  0.00     0.293 HD
ENDBRANCH   8  26
TORSDOF 6
ENDMDL
MODEL 2
REMARK VINA RESULT:    -5.222      2.467      3.082
REMARK INTER + INTRA:          -6.510
REMARK INTER:                  -6.189
REMARK INTRA:                  -0.320
REMARK UNBOUND:                -0.220
REMARK SMILES O=c1c(O)c(-c2ccc(O)c(O)c2)oc2cc(O)cc(O)c12
REMARK SMILES IDX 5 1 3 2 2 3 1 4 22 5 20 6 19 7 17 8 16 9 15 10 14 11 6 12
REMARK SMILES IDX 7 13 8 14 9 15 13 16 11 17 10 18 12 20 4 22 21 24 18 26
REMARK H PARENT 10 19 12 21 4 23 21 25 18 27
REMARK Flexibility Score: inf
ROOT
ATOM      1  C   UNL     1     136.520 130.355 120.123  1.00  0.00     0.180 A 
ATOM      2  C   UNL     1     135.195 130.036 119.770  1.00  0.00     0.208 A 
ATOM      3  C   UNL     1     134.972 129.142 118.710  1.00  0.00     0.238 A 
ATOM      4  O   UNL     1     133.790 128.858 118.377  1.00  0.00    -0.285 OA
ATOM      5  C   UNL     1     136.072 128.570 118.038  1.00  0.00     0.111 A 
ATOM      6  C   UNL     1     135.934 127.659 116.963  1.00  0.00     0.134 A 
ATOM      7  C   UNL     1     137.078 127.126 116.352  1.00  0.00     0.093 A 
ATOM      8  C   UNL     1     138.356 127.486 116.795  1.00  0.00     0.123 A 
ATOM      9  C   UNL     1     138.497 128.384 117.853  1.00  0.00     0.094 A 
ATOM     10  C   UNL     1     137.369 128.927 118.475  1.00  0.00     0.146 A 
ATOM     11  O   UNL     1     137.533 129.785 119.476  1.00  0.00    -0.452 OA
ENDROOT
BRANCH   1  12
ATOM     12  C   UNL     1     136.837 131.303 121.215  1.00  0.00     0.025 A 
ATOM     13  C   UNL     1     137.007 132.665 120.920  1.00  0.00     0.016 A 
ATOM     14  C   UNL     1     137.285 133.580 121.938  1.00  0.00     0.051 A 
ATOM     15  C   UNL     1     137.383 133.149 123.268  1.00  0.00     0.157 A 
ATOM     16  C   UNL     1     136.915 130.878 122.555  1.00  0.00     0.062 A 
ATOM     17  C   UNL     1     137.194 131.797 123.577  1.00  0.00     0.158 A 
BRANCH  15  18
ATOM     18  O   UNL     1     137.663 134.059 124.286  1.00  0.00    -0.504 OA
ATOM     19  H   UNL     1     138.580 134.480 124.383  1.00  0.00     0.293 HD
ENDBRANCH  15  18
BRANCH  17  20
ATOM     20  O   UNL     1     137.278 131.373 124.902  1.00  0.00    -0.504 OA
ATOM     21  H   UNL     1     137.636 130.457 125.145  1.00  0.00     0.293 HD
ENDBRANCH  17  20
ENDBRANCH   1  12
BRANCH   2  22
ATOM     22  O   UNL     1     134.124 130.578 120.483  1.00  0.00    -0.502 OA
ATOM     23  H   UNL     1     133.350 131.048 120.028  1.00  0.00     0.293 HD
ENDBRANCH   2  22
BRANCH   6  24
ATOM     24  O   UNL     1     134.673 127.280 116.501  1.00  0.00    -0.507 OA
ATOM     25  H   UNL     1     133.826 127.726 116.835  1.00  0.00     0.293 HD
ENDBRANCH   6  24
BRANCH   8  26
ATOM     26  O   UNL     1     139.493 126.955 116.188  1.00  0.00    -0.508 OA
ATOM     27  H   UNL     1     139.909 127.388 115.372  1.00  0.00     0.293 HD
ENDBRANCH   8  26
TORSDOF 6
ENDMDL
MODEL 3
REMARK VINA RESULT:    -5.194      2.601      7.189
REMARK INTER + INTRA:          -6.477
REMARK INTER:                  -6.226
REMARK INTRA:                  -0.251
REMARK UNBOUND:                -0.220
REMARK SMILES O=c1c(O)c(-c2ccc(O)c(O)c2)oc2cc(O)cc(O)c12
REMARK SMILES IDX 5 1 3 2 2 3 1 4 22 5 20 6 19 7 17 8 16 9 15 10 14 11 6 12
REMARK SMILES IDX 7 13 8 14 9 15 13 16 11 17 10 18 12 20 4 22 21 24 18 26
REMARK H PARENT 10 19 12 21 4 23 21 25 18 27
REMARK Flexibility Score: inf
ROOT
ATOM      1  C   UNL     1     135.856 128.476 116.974  1.00  0.00     0.180 A 
ATOM      2  C   UNL     1     136.848 127.586 116.517  1.00  0.00     0.208 A 
ATOM      3  C   UNL     1     138.156 128.063 116.340  1.00  0.00     0.238 A 
ATOM      4  O   UNL     1     139.050 127.279 115.920  1.00  0.00    -0.285 OA
ATOM      5  C   UNL     1     138.454 129.409 116.638  1.00  0.00     0.111 A 
ATOM      6  C   UNL     1     139.747 129.967 116.489  1.00  0.00     0.134 A 
ATOM      7  C   UNL     1     139.965 131.313 116.816  1.00  0.00     0.093 A 
ATOM      8  C   UNL     1     138.916 132.111 117.289  1.00  0.00     0.123 A 
ATOM      9  C   UNL     1     137.640 131.565 117.437  1.00  0.00     0.094 A 
ATOM     10  C   UNL     1     137.402 130.226 117.115  1.00  0.00     0.146 A 
ATOM     11  O   UNL     1     136.177 129.734 117.259  1.00  0.00    -0.452 OA
ENDROOT
BRANCH   1  12
ATOM     12  C   UNL     1     134.450 128.054 117.168  1.00  0.00     0.025 A 
ATOM     13  C   UNL     1     133.637 127.823 116.047  1.00  0.00     0.016 A 
ATOM     14  C   UNL     1     132.314 127.404 116.206  1.00  0.00     0.051 A 
ATOM     15  C   UNL     1     131.789 127.195 117.488  1.00  0.00     0.157 A 
ATOM     16  C   UNL     1     133.925 127.823 118.453  1.00  0.00     0.062 A 
ATOM     17  C   UNL     1     132.597 127.401 118.613  1.00  0.00     0.158 A 
BRANCH  15  18
ATOM     18  O   UNL     1     130.468 126.780 117.652  1.00  0.00    -0.504 OA
ATOM     19  H   UNL     1     129.692 127.337 117.314  1.00  0.00     0.293 HD
ENDBRANCH  15  18
BRANCH  17  20
ATOM     20  O   UNL     1     132.077 127.180 119.887  1.00  0.00    -0.504 OA
ATOM     21  H   UNL     1     131.205 126.683 120.026  1.00  0.00     0.293 HD
ENDBRANCH  17  20
ENDBRANCH   1  12
BRANCH   2  22
ATOM     22  O   UNL     1     136.537 126.246 116.276  1.00  0.00    -0.502 OA
ATOM     23  H   UNL     1     137.066 125.675 115.626  1.00  0.00     0.293 HD
ENDBRANCH   2  22
BRANCH   6  24
ATOM     24  O   UNL     1     140.812 129.197 116.021  1.00  0.00    -0.507 OA
ATOM     25  H   UNL     1     140.706 128.557 115.242  1.00  0.00     0.293 HD
ENDBRANCH   6  24
BRANCH   8  26
ATOM     26  O   UNL     1     139.133 133.448 117.616  1.00  0.00    -0.508 OA
ATOM     27  H   UNL     1     138.927 134.194 116.961  1.00  0.00     0.293 HD
ENDBRANCH   8  26
TORSDOF 6
ENDMDL
MODEL 4
REMARK VINA RESULT:    -5.090      1.862      2.530
REMARK INTER + INTRA:          -6.351
REMARK INTER:                  -6.170
REMARK INTRA:                  -0.182
REMARK UNBOUND:                -0.220
REMARK SMILES O=c1c(O)c(-c2ccc(O)c(O)c2)oc2cc(O)cc(O)c12
REMARK SMILES IDX 5 1 3 2 2 3 1 4 22 5 20 6 19 7 17 8 16 9 15 10 14 11 6 12
REMARK SMILES IDX 7 13 8 14 9 15 13 16 11 17 10 18 12 20 4 22 21 24 18 26
REMARK H PARENT 10 19 12 21 4 23 21 25 18 27
REMARK Flexibility Score: inf
ROOT
ATOM      1  C   UNL     1     135.861 129.654 119.270  1.00  0.00     0.180 A 
ATOM      2  C   UNL     1     134.455 129.713 119.222  1.00  0.00     0.208 A 
ATOM      3  C   UNL     1     133.774 128.924 118.283  1.00  0.00     0.238 A 
ATOM      4  O   UNL     1     132.515 128.977 118.223  1.00  0.00    -0.285 OA
ATOM      5  C   UNL     1     134.504 128.077 117.423  1.00  0.00     0.111 A 
ATOM      6  C   UNL     1     133.894 127.248 116.451  1.00  0.00     0.134 A 
ATOM      7  C   UNL     1     134.690 126.427 115.639  1.00  0.00     0.093 A 
ATOM      8  C   UNL     1     136.083 126.418 115.782  1.00  0.00     0.123 A 
ATOM      9  C   UNL     1     136.688 127.235 116.738  1.00  0.00     0.094 A 
ATOM     10  C   UNL     1     135.912 128.062 117.555  1.00  0.00     0.146 A 
ATOM     11  O   UNL     1     136.515 128.833 118.453  1.00  0.00    -0.452 OA
ENDROOT
BRANCH   1  12
ATOM     12  C   UNL     1     136.651 130.469 120.219  1.00  0.00     0.025 A 
ATOM     13  C   UNL     1     137.451 131.516 119.731  1.00  0.00     0.016 A 
ATOM     14  C   UNL     1     138.189 132.311 120.611  1.00  0.00     0.051 A 
ATOM     15  C   UNL     1     138.127 132.082 121.992  1.00  0.00     0.157 A 
ATOM     16  C   UNL     1     136.576 130.256 121.608  1.00  0.00     0.062 A 
ATOM     17  C   UNL     1     137.316 131.055 122.491  1.00  0.00     0.158 A 
BRANCH  15  18
ATOM     18  O   UNL     1     138.864 132.872 122.873  1.00  0.00    -0.504 OA
ATOM     19  H   UNL     1     138.653 132.899 123.863  1.00  0.00     0.293 HD
ENDBRANCH  15  18
BRANCH  17  20
ATOM     20  O   UNL     1     137.246 130.837 123.866  1.00  0.00    -0.504 OA
ATOM     21  H   UNL     1     138.079 130.797 124.441  1.00  0.00     0.293 HD
ENDBRANCH  17  20
ENDBRANCH   1  12
BRANCH   2  22
ATOM     22  O   UNL     1     133.752 130.523 120.118  1.00  0.00    -0.502 OA
ATOM     23  H   UNL     1     132.756 130.420 120.276  1.00  0.00     0.293 HD
ENDBRANCH   2  22
BRANCH   6  24
ATOM     24  O   UNL     1     132.508 127.234 116.287  1.00  0.00    -0.507 OA
ATOM     25  H   UNL     1     131.878 127.399 117.063  1.00  0.00     0.293 HD
ENDBRANCH   6  24
BRANCH   8  26
ATOM     26  O   UNL     1     136.873 125.601 114.976  1.00  0.00    -0.508 OA
ATOM     27  H   UNL     1     137.060 125.833 114.008  1.00  0.00     0.293 HD
ENDBRANCH   8  26
TORSDOF 6
ENDMDL
MODEL 5
REMARK VINA RESULT:    -5.004      1.730      6.561
REMARK INTER + INTRA:          -6.248
REMARK INTER:                  -6.769
REMARK INTRA:                   0.521
REMARK UNBOUND:                -0.220
REMARK SMILES O=c1c(O)c(-c2ccc(O)c(O)c2)oc2cc(O)cc(O)c12
REMARK SMILES IDX 5 1 3 2 2 3 1 4 22 5 20 6 19 7 17 8 16 9 15 10 14 11 6 12
REMARK SMILES IDX 7 13 8 14 9 15 13 16 11 17 10 18 12 20 4 22 21 24 18 26
REMARK H PARENT 10 19 12 21 4 23 21 25 18 27
REMARK Flexibility Score: inf
ROOT
ATOM      1  C   UNL     1     137.198 129.722 119.470  1.00  0.00     0.180 A 
ATOM      2  C   UNL     1     136.021 130.109 120.140  1.00  0.00     0.208 A 
ATOM      3  C   UNL     1     136.113 131.027 121.197  1.00  0.00     0.238 A 
ATOM      4  O   UNL     1     135.067 131.372 121.812  1.00  0.00    -0.285 OA
ATOM      5  C   UNL     1     137.370 131.557 121.553  1.00  0.00     0.111 A 
ATOM      6  C   UNL     1     137.548 132.489 122.604  1.00  0.00     0.134 A 
ATOM      7  C   UNL     1     138.832 132.977 122.891  1.00  0.00     0.093 A 
ATOM      8  C   UNL     1     139.939 132.551 122.148  1.00  0.00     0.123 A 
ATOM      9  C   UNL     1     139.768 131.632 121.112  1.00  0.00     0.094 A 
ATOM     10  C   UNL     1     138.498 131.133 120.811  1.00  0.00     0.146 A 
ATOM     11  O   UNL     1     138.365 130.254 119.824  1.00  0.00    -0.452 OA
ENDROOT
BRANCH   1  12
ATOM     12  C   UNL     1     137.186 128.745 118.358  1.00  0.00     0.025 A 
ATOM     13  C   UNL     1     135.959 128.330 117.816  1.00  0.00     0.016 A 
ATOM     14  C   UNL     1     135.924 127.424 116.753  1.00  0.00     0.051 A 
ATOM     15  C   UNL     1     137.117 126.932 116.207  1.00  0.00     0.157 A 
ATOM     16  C   UNL     1     138.381 128.264 117.792  1.00  0.00     0.062 A 
ATOM     17  C   UNL     1     138.347 127.355 116.724  1.00  0.00     0.158 A 
BRANCH  15  18
ATOM     18  O   UNL     1     137.087 126.026 115.148  1.00  0.00    -0.504 OA
ATOM     19  H   UNL     1     137.062 126.338 114.184  1.00  0.00     0.293 HD
ENDBRANCH  15  18
BRANCH  17  20
ATOM     20  O   UNL     1     139.532 126.874 116.170  1.00  0.00    -0.504 OA
ATOM     21  H   UNL     1     140.300 126.560 116.750  1.00  0.00     0.293 HD
ENDBRANCH  17  20
ENDBRANCH   1  12
BRANCH   2  22
ATOM     22  O   UNL     1     134.782 129.607 119.735  1.00  0.00    -0.502 OA
ATOM     23  H   UNL     1     134.485 129.609 118.767  1.00  0.00     0.293 HD
ENDBRANCH   2  22
BRANCH   6  24
ATOM     24  O   UNL     1     136.464 132.933 123.361  1.00  0.00    -0.507 OA
ATOM     25  H   UNL     1     135.860 132.288 123.856  1.00  0.00     0.293 HD
ENDBRANCH   6  24
BRANCH   8  26
ATOM     26  O   UNL     1     141.214 133.036 122.432  1.00  0.00    -0.508 OA
ATOM     27  H   UNL     1     141.401 134.030 122.494  1.00  0.00     0.293 HD
ENDBRANCH   8  26
TORSDOF 6
ENDMDL
MODEL 6
REMARK VINA RESULT:    -4.960      2.500      3.828
REMARK INTER + INTRA:          -6.195
REMARK INTER:                  -5.864
REMARK INTRA:                  -0.331
REMARK UNBOUND:                -0.220
REMARK SMILES O=c1c(O)c(-c2ccc(O)c(O)c2)oc2cc(O)cc(O)c12
REMARK SMILES IDX 5 1 3 2 2 3 1 4 22 5 20 6 19 7 17 8 16 9 15 10 14 11 6 12
REMARK SMILES IDX 7 13 8 14 9 15 13 16 11 17 10 18 12 20 4 22 21 24 18 26
REMARK H PARENT 10 19 12 21 4 23 21 25 18 27
REMARK Flexibility Score: inf
ROOT
ATOM      1  C   UNL     1     136.329 129.253 118.150  1.00  0.00     0.180 A 
ATOM      2  C   UNL     1     137.470 128.585 117.667  1.00  0.00     0.208 A 
ATOM      3  C   UNL     1     137.303 127.531 116.755  1.00  0.00     0.238 A 
ATOM      4  O   UNL     1     138.317 126.917 116.323  1.00  0.00    -0.285 OA
ATOM      5  C   UNL     1     136.006 127.177 116.328  1.00  0.00     0.111 A 
ATOM      6  C   UNL     1     135.752 126.130 115.409  1.00  0.00     0.134 A 
ATOM      7  C   UNL     1     134.433 125.846 115.026  1.00  0.00     0.093 A 
ATOM      8  C   UNL     1     133.365 126.588 115.544  1.00  0.00     0.123 A 
ATOM      9  C   UNL     1     133.611 127.620 116.450  1.00  0.00     0.094 A 
ATOM     10  C   UNL     1     134.918 127.918 116.845  1.00  0.00     0.146 A 
ATOM     11  O   UNL     1     135.123 128.902 117.714  1.00  0.00    -0.452 OA
ENDROOT
BRANCH   1  12
ATOM     12  C   UNL     1     136.421 130.361 119.128  1.00  0.00     0.025 A 
ATOM     13  C   UNL     1     136.446 131.688 118.668  1.00  0.00     0.016 A 
ATOM     14  C   UNL     1     136.512 132.749 119.574  1.00  0.00     0.051 A 
ATOM     15  C   UNL     1     136.539 132.500 120.953  1.00  0.00     0.157 A 
ATOM     16  C   UNL     1     136.428 130.117 120.514  1.00  0.00     0.062 A 
ATOM     17  C   UNL     1     136.493 131.182 121.423  1.00  0.00     0.158 A 
BRANCH  15  18
ATOM     18  O   UNL     1     136.608 133.557 121.860  1.00  0.00    -0.504 OA
ATOM     19  H   UNL     1     137.408 134.176 121.892  1.00  0.00     0.293 HD
ENDBRANCH  15  18
BRANCH  17  20
ATOM     20  O   UNL     1     136.506 130.938 122.795  1.00  0.00    -0.504 OA
ATOM     21  H   UNL     1     136.154 130.071 123.184  1.00  0.00     0.293 HD
ENDBRANCH  17  20
ENDBRANCH   1  12
BRANCH   2  22
ATOM     22  O   UNL     1     138.747 128.986 118.068  1.00  0.00    -0.502 OA
ATOM     23  H   UNL     1     138.910 129.848 118.575  1.00  0.00     0.293 HD
ENDBRANCH   2  22
BRANCH   6  24
ATOM     24  O   UNL     1     136.796 125.374 114.875  1.00  0.00    -0.507 OA
ATOM     25  H   UNL     1     137.767 125.628 115.021  1.00  0.00     0.293 HD
ENDBRANCH   6  24
BRANCH   8  26
ATOM     26  O   UNL     1     132.055 126.306 115.163  1.00  0.00    -0.508 OA
ATOM     27  H   UNL     1     131.406 127.042 114.911  1.00  0.00     0.293 HD
ENDBRANCH   8  26
TORSDOF 6
ENDMDL
MODEL 7
REMARK VINA RESULT:    -4.915      2.428      4.139
REMARK INTER + INTRA:          -6.140
REMARK INTER:                  -5.943
REMARK INTRA:                  -0.197
REMARK UNBOUND:                -0.220
REMARK SMILES O=c1c(O)c(-c2ccc(O)c(O)c2)oc2cc(O)cc(O)c12
REMARK SMILES IDX 5 1 3 2 2 3 1 4 22 5 20 6 19 7 17 8 16 9 15 10 14 11 6 12
REMARK SMILES IDX 7 13 8 14 9 15 13 16 11 17 10 18 12 20 4 22 21 24 18 26
REMARK H PARENT 10 19 12 21 4 23 21 25 18 27
REMARK Flexibility Score: inf
ROOT
ATOM      1  C   UNL     1     136.831 130.009 119.474  1.00  0.00     0.180 A 
ATOM      2  C   UNL     1     137.985 130.525 118.853  1.00  0.00     0.208 A 
ATOM      3  C   UNL     1     138.462 129.906 117.687  1.00  0.00     0.238 A 
ATOM      4  O   UNL     1     139.501 130.353 117.128  1.00  0.00    -0.285 OA
ATOM      5  C   UNL     1     137.772 128.799 117.152  1.00  0.00     0.111 A 
ATOM      6  C   UNL     1     138.185 128.121 115.980  1.00  0.00     0.134 A 
ATOM      7  C   UNL     1     137.438 127.033 115.507  1.00  0.00     0.093 A 
ATOM      8  C   UNL     1     136.286 126.610 116.182  1.00  0.00     0.123 A 
ATOM      9  C   UNL     1     135.876 127.276 117.338  1.00  0.00     0.094 A 
ATOM     10  C   UNL     1     136.608 128.361 117.827  1.00  0.00     0.146 A 
ATOM     11  O   UNL     1     136.198 128.972 118.933  1.00  0.00    -0.452 OA
ENDROOT
BRANCH   1  12
ATOM     12  C   UNL     1     136.277 130.594 120.716  1.00  0.00     0.025 A 
ATOM     13  C   UNL     1     134.988 131.150 120.702  1.00  0.00     0.016 A 
ATOM     14  C   UNL     1     134.437 131.689 121.867  1.00  0.00     0.051 A 
ATOM     15  C   UNL     1     135.162 131.666 123.066  1.00  0.00     0.157 A 
ATOM     16  C   UNL     1     136.993 130.555 121.927  1.00  0.00     0.062 A 
ATOM     17  C   UNL     1     136.440 131.095 123.097  1.00  0.00     0.158 A 
BRANCH  15  18
ATOM     18  O   UNL     1     134.617 132.206 124.231  1.00  0.00    -0.504 OA
ATOM     19  H   UNL     1     133.676 131.978 124.531  1.00  0.00     0.293 HD
ENDBRANCH  15  18
BRANCH  17  20
ATOM     20  O   UNL     1     137.153 131.062 124.294  1.00  0.00    -0.504 OA
ATOM     21  H   UNL     1     137.900 130.395 124.449  1.00  0.00     0.293 HD
ENDBRANCH  17  20
ENDBRANCH   1  12
BRANCH   2  22
ATOM     22  O   UNL     1     138.623 131.653 119.375  1.00  0.00    -0.502 OA
ATOM     23  H   UNL     1     139.626 131.787 119.314  1.00  0.00     0.293 HD
ENDBRANCH   2  22
BRANCH   6  24
ATOM     24  O   UNL     1     139.327 128.520 115.285  1.00  0.00    -0.507 OA
ATOM     25  H   UNL     1     139.268 129.019 114.405  1.00  0.00     0.293 HD
ENDBRANCH   6  24
BRANCH   8  26
ATOM     26  O   UNL     1     135.543 125.530 115.710  1.00  0.00    -0.508 OA
ATOM     27  H   UNL     1     135.080 125.558 114.809  1.00  0.00     0.293 HD
ENDBRANCH   8  26
TORSDOF 6
ENDMDL
MODEL 8
REMARK VINA RESULT:    -4.910      2.597      6.804
REMARK INTER + INTRA:          -6.135
REMARK INTER:                  -5.810
REMARK INTRA:                  -0.325
REMARK UNBOUND:                -0.220
REMARK SMILES O=c1c(O)c(-c2ccc(O)c(O)c2)oc2cc(O)cc(O)c12
REMARK SMILES IDX 5 1 3 2 2 3 1 4 22 5 20 6 19 7 17 8 16 9 15 10 14 11 6 12
REMARK SMILES IDX 7 13 8 14 9 15 13 16 11 17 10 18 12 20 4 22 21 24 18 26
REMARK H PARENT 10 19 12 21 4 23 21 25 18 27
REMARK Flexibility Score: inf
ROOT
ATOM      1  C   UNL     1     137.371 130.487 119.209  1.00  0.00     0.180 A 
ATOM      2  C   UNL     1     137.486 131.806 118.728  1.00  0.00     0.208 A 
ATOM      3  C   UNL     1     137.524 132.863 119.650  1.00  0.00     0.238 A 
ATOM      4  O   UNL     1     137.615 134.049 119.230  1.00  0.00    -0.285 OA
ATOM      5  C   UNL     1     137.467 132.586 121.031  1.00  0.00     0.111 A 
ATOM      6  C   UNL     1     137.503 133.593 122.025  1.00  0.00     0.134 A 
ATOM      7  C   UNL     1     137.452 133.236 123.381  1.00  0.00     0.093 A 
ATOM      8  C   UNL     1     137.365 131.891 123.760  1.00  0.00     0.123 A 
ATOM      9  C   UNL     1     137.329 130.895 122.783  1.00  0.00     0.094 A 
ATOM     10  C   UNL     1     137.378 131.231 121.428  1.00  0.00     0.146 A 
ATOM     11  O   UNL     1     137.335 130.263 120.519  1.00  0.00    -0.452 OA
ENDROOT
BRANCH   1  12
ATOM     12  C   UNL     1     137.306 129.321 118.300  1.00  0.00     0.025 A 
ATOM     13  C   UNL     1     136.058 128.883 117.826  1.00  0.00     0.016 A 
ATOM     14  C   UNL     1     135.974 127.797 116.951  1.00  0.00     0.051 A 
ATOM     15  C   UNL     1     137.138 127.143 116.525  1.00  0.00     0.157 A 
ATOM     16  C   UNL     1     138.472 128.673 117.852  1.00  0.00     0.062 A 
ATOM     17  C   UNL     1     138.389 127.584 116.973  1.00  0.00     0.158 A 
BRANCH  15  18
ATOM     18  O   UNL     1     137.058 126.058 115.654  1.00  0.00    -0.504 OA
ATOM     19  H   UNL     1     136.886 126.184 114.664  1.00  0.00     0.293 HD
ENDBRANCH  15  18
BRANCH  17  20
ATOM     20  O   UNL     1     139.545 126.940 116.537  1.00  0.00    -0.504 OA
ATOM     21  H   UNL     1     140.448 127.127 116.957  1.00  0.00     0.293 HD
ENDBRANCH  17  20
ENDBRANCH   1  12
BRANCH   2  22
ATOM     22  O   UNL     1     137.589 132.050 117.356  1.00  0.00    -0.502 OA
ATOM     23  H   UNL     1     137.569 132.986 116.969  1.00  0.00     0.293 HD
ENDBRANCH   2  22
BRANCH   6  24
ATOM     24  O   UNL     1     137.590 134.942 121.678  1.00  0.00    -0.507 OA
ATOM     25  H   UNL     1     136.795 135.450 121.308  1.00  0.00     0.293 HD
ENDBRANCH   6  24
BRANCH   8  26
ATOM     26  O   UNL     1     137.316 131.535 125.106  1.00  0.00    -0.508 OA
ATOM     27  H   UNL     1     136.548 131.823 125.702  1.00  0.00     0.293 HD
ENDBRANCH   8  26
TORSDOF 6
ENDMDL
MODEL 9
REMARK VINA RESULT:    -4.783     10.612     14.216
REMARK INTER + INTRA:          -5.982
REMARK INTER:                  -5.826
REMARK INTRA:                  -0.156
REMARK UNBOUND:                -0.220
REMARK SMILES O=c1c(O)c(-c2ccc(O)c(O)c2)oc2cc(O)cc(O)c12
REMARK SMILES IDX 5 1 3 2 2 3 1 4 22 5 20 6 19 7 17 8 16 9 15 10 14 11 6 12
REMARK SMILES IDX 7 13 8 14 9 15 13 16 11 17 10 18 12 20 4 22 21 24 18 26
REMARK H PARENT 10 19 12 21 4 23 21 25 18 27
REMARK Flexibility Score: inf
ROOT
ATOM      1  C   UNL     1     136.537 141.197 122.506  1.00  0.00     0.180 A 
ATOM      2  C   UNL     1     137.850 141.534 122.889  1.00  0.00     0.208 A 
ATOM      3  C   UNL     1     138.092 141.918 124.217  1.00  0.00     0.238 A 
ATOM      4  O   UNL     1     139.261 142.233 124.569  1.00  0.00    -0.285 OA
ATOM      5  C   UNL     1     137.027 141.941 125.141  1.00  0.00     0.111 A 
ATOM      6  C   UNL     1     137.186 142.313 126.498  1.00  0.00     0.134 A 
ATOM      7  C   UNL     1     136.078 142.301 127.357  1.00  0.00     0.093 A 
ATOM      8  C   UNL     1     134.814 141.925 126.886  1.00  0.00     0.123 A 
ATOM      9  C   UNL     1     134.653 141.557 125.549  1.00  0.00     0.094 A 
ATOM     10  C   UNL     1     135.744 141.564 124.677  1.00  0.00     0.146 A 
ATOM     11  O   UNL     1     135.560 141.217 123.408  1.00  0.00    -0.452 OA
ENDROOT
BRANCH   1  12
ATOM     12  C   UNL     1     136.199 140.801 121.121  1.00  0.00     0.025 A 
ATOM     13  C   UNL     1     136.716 139.604 120.599  1.00  0.00     0.016 A 
ATOM     14  C   UNL     1     136.394 139.200 119.301  1.00  0.00     0.051 A 
ATOM     15  C   UNL     1     135.538 139.979 118.512  1.00  0.00     0.157 A 
ATOM     16  C   UNL     1     135.323 141.569 120.331  1.00  0.00     0.062 A 
ATOM     17  C   UNL     1     134.998 141.163 119.029  1.00  0.00     0.158 A 
BRANCH  15  18
ATOM     18  O   UNL     1     135.215 139.580 117.215  1.00  0.00    -0.504 OA
ATOM     19  H   UNL     1     134.259 139.586 116.881  1.00  0.00     0.293 HD
ENDBRANCH  15  18
BRANCH  17  20
ATOM     20  O   UNL     1     134.136 141.929 118.246  1.00  0.00    -0.504 OA
ATOM     21  H   UNL     1     134.236 141.979 117.239  1.00  0.00     0.293 HD
ENDBRANCH  17  20
ENDBRANCH   1  12
BRANCH   2  22
ATOM     22  O   UNL     1     138.897 141.456 121.967  1.00  0.00    -0.502 OA
ATOM     23  H   UNL     1     138.736 141.386 120.969  1.00  0.00     0.293 HD
ENDBRANCH   2  22
BRANCH   6  24
ATOM     24  O   UNL     1     138.433 142.693 126.996  1.00  0.00    -0.507 OA
ATOM     25  H   UNL     1     139.296 142.405 126.549  1.00  0.00     0.293 HD
ENDBRANCH   6  24
BRANCH   8  26
ATOM     26  O   UNL     1     133.714 141.911 127.740  1.00  0.00    -0.508 OA
ATOM     27  H   UNL     1     133.524 141.124 128.349  1.00  0.00     0.293 HD
ENDBRANCH   8  26
TORSDOF 6
ENDMDL
