MODEL 1
REMARK VINA RESULT:    -4.234      0.000      0.000
REMARK INTER + INTRA:         -15.564
REMARK INTER:                 -10.670
REMARK INTRA:                  -4.894
REMARK UNBOUND:                -4.894
REMARK SMILES CCCCCCCCCCCCCCCCCCCCCCCCCCCC(=O)[O-]
REMARK SMILES IDX 15 1 16 2 17 3 18 4 19 5 20 6 21 7 22 8 23 9 24 10 25 11
REMARK SMILES IDX 26 12 27 13 28 14 29 15 30 16 14 17 13 18 12 19 11 20 10 21
REMARK SMILES IDX 9 22 8 23 7 24 6 25 5 26 4 27 3 28 2 29 1 30
REMARK H PARENT
REMARK Flexibility Score: inf
ROOT
ATOM      1  C   UNL     1     -24.115  -8.125  -6.728  1.00  0.00     0.000 C 
ENDROOT
BRANCH   1   2
ATOM      2  C   UNL     1     -22.878  -8.379  -7.609  1.00  0.00     0.000 C 
BRANCH   2   3
ATOM      3  C   UNL     1     -22.595  -9.862  -7.934  1.00  0.00     0.000 C 
BRANCH   3   4
ATOM      4  C   UNL     1     -21.266 -10.419  -7.387  1.00  0.00     0.000 C 
BRANCH   4   5
ATOM      5  C   UNL     1     -21.461 -11.516  -6.328  1.00  0.00     0.000 C 
BRANCH   5   6
ATOM      6  C   UNL     1     -21.295 -10.991  -4.890  1.00  0.00     0.000 C 
BRANCH   6   7
ATOM      7  C   UNL     1     -20.725  -9.566  -4.781  1.00  0.00     0.000 C 
BRANCH   7   8
ATOM      8  C   UNL     1     -19.531  -9.473  -3.818  1.00  0.00     0.000 C 
BRANCH   8   9
ATOM      9  C   UNL     1     -18.237  -9.152  -4.581  1.00  0.00     0.000 C 
BRANCH   9  10
ATOM     10  C   UNL     1     -17.602 -10.391  -5.239  1.00  0.00     0.000 C 
BRANCH  10  11
ATOM     11  C   UNL     1     -17.621 -10.392  -6.779  1.00  0.00     0.000 C 
BRANCH  11  12
ATOM     12  C   UNL     1     -18.068  -9.046  -7.375  1.00  0.00     0.006 C 
BRANCH  12  13
ATOM     13  C   UNL     1     -17.947  -9.021  -8.905  1.00  0.00     0.053 C 
BRANCH  13  14
ATOM     14  C   UNL     1     -18.798  -7.948  -9.513  1.00  0.00     0.041 C 
ATOM     15  O   UNL     1     -20.019  -8.158  -9.735  1.00  0.00    -0.550 OA
ATOM     16  O   UNL     1     -18.238  -6.720  -9.846  1.00  0.00    -0.550 OA
ENDBRANCH  13  14
ENDBRANCH  12  13
ENDBRANCH  11  12
ENDBRANCH  10  11
ENDBRANCH   9  10
ENDBRANCH   8   9
ENDBRANCH   7   8
ENDBRANCH   6   7
ENDBRANCH   5   6
ENDBRANCH   4   5
ENDBRANCH   3   4
ENDBRANCH   2   3
ENDBRANCH   1   2
BRANCH   1  17
ATOM     17  C   UNL     1     -24.502  -9.341  -5.873  1.00  0.00     0.000 C 
BRANCH  17  18
ATOM     18  C   UNL     1     -24.375  -9.021  -4.378  1.00  0.00     0.000 C 
BRANCH  18  19
ATOM     19  C   UNL     1     -24.160  -7.523  -4.099  1.00  0.00     0.000 C 
BRANCH  19  20
ATOM     20  C   UNL     1     -24.978  -6.987  -2.906  1.00  0.00     0.000 C 
BRANCH  20  21
ATOM     21  C   UNL     1     -25.847  -5.775  -3.289  1.00  0.00     0.000 C 
BRANCH  21  22
ATOM     22  C   UNL     1     -26.666  -6.016  -4.567  1.00  0.00    -0.000 C 
BRANCH  22  23
ATOM     23  C   UNL     1     -26.638  -4.813  -5.526  1.00  0.00    -0.000 C 
BRANCH  23  24
ATOM     24  C   UNL     1     -25.561  -4.946  -6.617  1.00  0.00    -0.000 C 
BRANCH  24  25
ATOM     25  C   UNL     1     -24.421  -3.910  -6.539  1.00  0.00    -0.000 C 
BRANCH  25  26
ATOM     26  C   UNL     1     -23.376  -4.167  -5.438  1.00  0.00    -0.000 C 
BRANCH  26  27
ATOM     27  C   UNL     1     -23.027  -2.904  -4.639  1.00  0.00    -0.000 C 
BRANCH  27  28
ATOM     28  C   UNL     1     -24.209  -2.470  -3.759  1.00  0.00    -0.000 C 
BRANCH  28  29
ATOM     29  C   UNL     1     -24.791  -1.112  -4.179  1.00  0.00    -0.003 C 
ATOM     30  C   UNL     1     -26.219  -1.220  -4.713  1.00  0.00     0.004 C 
ENDBRANCH  28  29
ENDBRANCH  27  28
ENDBRANCH  26  27
ENDBRANCH  25  26
ENDBRANCH  24  25
ENDBRANCH  23  24
ENDBRANCH  22  23
ENDBRANCH  21  22
ENDBRANCH  20  21
ENDBRANCH  19  20
ENDBRANCH  18  19
ENDBRANCH  17  18
ENDBRANCH   1  17
TORSDOF 26
ENDMDL
MODEL 2
REMARK VINA RESULT:    -4.169      1.959      3.920
REMARK INTER + INTRA:         -15.399
REMARK INTER:                  -9.846
REMARK INTRA:                  -5.554
REMARK UNBOUND:                -4.894
REMARK SMILES CCCCCCCCCCCCCCCCCCCCCCCCCCCC(=O)[O-]
REMARK SMILES IDX 15 1 16 2 17 3 18 4 19 5 20 6 21 7 22 8 23 9 24 10 25 11
REMARK SMILES IDX 26 12 27 13 28 14 29 15 30 16 14 17 13 18 12 19 11 20 10 21
REMARK SMILES IDX 9 22 8 23 7 24 6 25 5 26 4 27 3 28 2 29 1 30
REMARK H PARENT
REMARK Flexibility Score: inf
ROOT
ATOM      1  C   UNL     1     -23.179  -5.707  -2.885  1.00  0.00     0.000 C 
ENDROOT
BRANCH   1   2
ATOM      2  C   UNL     1     -21.778  -6.096  -3.391  1.00  0.00     0.000 C 
BRANCH   2   3
ATOM      3  C   UNL     1     -21.648  -6.242  -4.923  1.00  0.00     0.000 C 
BRANCH   3   4
ATOM      4  C   UNL     1     -22.762  -5.571  -5.750  1.00  0.00     0.000 C 
BRANCH   4   5
ATOM      5  C   UNL     1     -23.342  -6.488  -6.839  1.00  0.00     0.000 C 
BRANCH   5   6
ATOM      6  C   UNL     1     -23.045  -7.976  -6.584  1.00  0.00     0.000 C 
BRANCH   6   7
ATOM      7  C   UNL     1     -24.284  -8.889  -6.547  1.00  0.00     0.000 C 
BRANCH   7   8
ATOM      8  C   UNL     1     -24.415  -9.663  -5.225  1.00  0.00     0.000 C 
BRANCH   8   9
ATOM      9  C   UNL     1     -23.106  -9.607  -4.426  1.00  0.00     0.000 C 
BRANCH   9  10
ATOM     10  C   UNL     1     -22.441 -10.986  -4.260  1.00  0.00     0.000 C 
BRANCH  10  11
ATOM     11  C   UNL     1     -21.465 -11.379  -5.383  1.00  0.00     0.000 C 
BRANCH  11  12
ATOM     12  C   UNL     1     -20.226 -10.468  -5.448  1.00  0.00     0.006 C 
BRANCH  12  13
ATOM     13  C   UNL     1     -19.953  -9.962  -6.872  1.00  0.00     0.053 C 
BRANCH  13  14
ATOM     14  C   UNL     1     -18.486  -9.842  -7.147  1.00  0.00     0.041 C 
ATOM     15  O   UNL     1     -18.058  -9.878  -8.331  1.00  0.00    -0.550 OA
ATOM     16  O   UNL     1     -17.588  -9.700  -6.094  1.00  0.00    -0.550 OA
ENDBRANCH  13  14
ENDBRANCH  12  13
ENDBRANCH  11  12
ENDBRANCH  10  11
ENDBRANCH   9  10
ENDBRANCH   8   9
ENDBRANCH   7   8
ENDBRANCH   6   7
ENDBRANCH   5   6
ENDBRANCH   4   5
ENDBRANCH   3   4
ENDBRANCH   2   3
ENDBRANCH   1   2
BRANCH   1  17
ATOM     17  C   UNL     1     -23.845  -6.815  -2.056  1.00  0.00     0.000 C 
BRANCH  17  18
ATOM     18  C   UNL     1     -25.236  -7.152  -2.610  1.00  0.00     0.000 C 
BRANCH  18  19
ATOM     19  C   UNL     1     -25.816  -6.037  -3.498  1.00  0.00     0.000 C 
BRANCH  19  20
ATOM     20  C   UNL     1     -26.375  -6.541  -4.844  1.00  0.00     0.000 C 
BRANCH  20  21
ATOM     21  C   UNL     1     -27.059  -5.421  -5.649  1.00  0.00     0.000 C 
BRANCH  21  22
ATOM     22  C   UNL     1     -26.564  -4.021  -5.253  1.00  0.00    -0.000 C 
BRANCH  22  23
ATOM     23  C   UNL     1     -25.550  -3.444  -6.256  1.00  0.00    -0.000 C 
BRANCH  23  24
ATOM     24  C   UNL     1     -24.817  -2.203  -5.714  1.00  0.00    -0.000 C 
BRANCH  24  25
ATOM     25  C   UNL     1     -23.950  -2.452  -4.463  1.00  0.00    -0.000 C 
BRANCH  25  26
ATOM     26  C   UNL     1     -24.213  -1.497  -3.284  1.00  0.00    -0.000 C 
BRANCH  26  27
ATOM     27  C   UNL     1     -25.617  -1.663  -2.684  1.00  0.00    -0.000 C 
BRANCH  27  28
ATOM     28  C   UNL     1     -25.670  -2.882  -1.750  1.00  0.00    -0.000 C 
BRANCH  28  29
ATOM     29  C   UNL     1     -25.114  -2.578  -0.350  1.00  0.00    -0.003 C 
ATOM     30  C   UNL     1     -23.797  -3.302  -0.068  1.00  0.00     0.004 C 
ENDBRANCH  28  29
ENDBRANCH  27  28
ENDBRANCH  26  27
ENDBRANCH  25  26
ENDBRANCH  24  25
ENDBRANCH  23  24
ENDBRANCH  22  23
ENDBRANCH  21  22
ENDBRANCH  20  21
ENDBRANCH  19  20
ENDBRANCH  18  19
ENDBRANCH  17  18
ENDBRANCH   1  17
TORSDOF 26
ENDMDL
MODEL 3
REMARK VINA RESULT:    -4.127      1.420      2.665
REMARK INTER + INTRA:         -15.295
REMARK INTER:                  -9.873
REMARK INTRA:                  -5.422
REMARK UNBOUND:                -4.894
REMARK SMILES CCCCCCCCCCCCCCCCCCCCCCCCCCCC(=O)[O-]
REMARK SMILES IDX 15 1 16 2 17 3 18 4 19 5 20 6 21 7 22 8 23 9 24 10 25 11
REMARK SMILES IDX 26 12 27 13 28 14 29 15 30 16 14 17 13 18 12 19 11 20 10 21
REMARK SMILES IDX 9 22 8 23 7 24 6 25 5 26 4 27 3 28 2 29 1 30
REMARK H PARENT
REMARK Flexibility Score: inf
ROOT
ATOM      1  C   UNL     1     -24.288  -8.957  -6.296  1.00  0.00     0.000 C 
ENDROOT
BRANCH   1   2
ATOM      2  C   UNL     1     -23.094  -9.109  -7.257  1.00  0.00     0.000 C 
BRANCH   2   3
ATOM      3  C   UNL     1     -22.675 -10.563  -7.562  1.00  0.00     0.000 C 
BRANCH   3   4
ATOM      4  C   UNL     1     -21.248 -10.948  -7.126  1.00  0.00     0.000 C 
BRANCH   4   5
ATOM      5  C   UNL     1     -21.213 -11.759  -5.821  1.00  0.00     0.000 C 
BRANCH   5   6
ATOM      6  C   UNL     1     -20.965 -10.881  -4.581  1.00  0.00     0.000 C 
BRANCH   6   7
ATOM      7  C   UNL     1     -19.630 -10.115  -4.584  1.00  0.00     0.000 C 
BRANCH   7   8
ATOM      8  C   UNL     1     -18.437 -10.995  -4.987  1.00  0.00     0.000 C 
BRANCH   8   9
ATOM      9  C   UNL     1     -17.416 -10.192  -5.806  1.00  0.00     0.000 C 
BRANCH   9  10
ATOM     10  C   UNL     1     -17.963  -9.735  -7.171  1.00  0.00     0.000 C 
BRANCH  10  11
ATOM     11  C   UNL     1     -18.151  -8.215  -7.323  1.00  0.00     0.000 C 
BRANCH  11  12
ATOM     12  C   UNL     1     -19.579  -7.825  -7.744  1.00  0.00     0.006 C 
BRANCH  12  13
ATOM     13  C   UNL     1     -19.905  -8.281  -9.173  1.00  0.00     0.053 C 
BRANCH  13  14
ATOM     14  C   UNL     1     -20.752  -7.279  -9.897  1.00  0.00     0.041 C 
ATOM     15  O   UNL     1     -20.304  -6.128 -10.137  1.00  0.00    -0.550 OA
ATOM     16  O   UNL     1     -22.041  -7.615 -10.296  1.00  0.00    -0.550 OA
ENDBRANCH  13  14
ENDBRANCH  12  13
ENDBRANCH  11  12
ENDBRANCH  10  11
ENDBRANCH   9  10
ENDBRANCH   8   9
ENDBRANCH   7   8
ENDBRANCH   6   7
ENDBRANCH   5   6
ENDBRANCH   4   5
ENDBRANCH   3   4
ENDBRANCH   2   3
ENDBRANCH   1   2
BRANCH   1  17
ATOM     17  C   UNL     1     -23.921  -8.226  -4.996  1.00  0.00     0.000 C 
BRANCH  17  18
ATOM     18  C   UNL     1     -22.452  -7.782  -5.014  1.00  0.00     0.000 C 
BRANCH  18  19
ATOM     19  C   UNL     1     -22.255  -6.337  -4.523  1.00  0.00     0.000 C 
BRANCH  19  20
ATOM     20  C   UNL     1     -22.788  -5.270  -5.501  1.00  0.00     0.000 C 
BRANCH  20  21
ATOM     21  C   UNL     1     -22.380  -5.555  -6.958  1.00  0.00     0.000 C 
BRANCH  21  22
ATOM     22  C   UNL     1     -23.232  -4.776  -7.973  1.00  0.00    -0.000 C 
BRANCH  22  23
ATOM     23  C   UNL     1     -24.675  -4.550  -7.489  1.00  0.00    -0.000 C 
BRANCH  23  24
ATOM     24  C   UNL     1     -25.611  -5.720  -7.842  1.00  0.00    -0.000 C 
BRANCH  24  25
ATOM     25  C   UNL     1     -26.557  -6.165  -6.708  1.00  0.00    -0.000 C 
BRANCH  25  26
ATOM     26  C   UNL     1     -26.728  -5.151  -5.562  1.00  0.00    -0.000 C 
BRANCH  26  27
ATOM     27  C   UNL     1     -26.703  -5.808  -4.175  1.00  0.00    -0.000 C 
BRANCH  27  28
ATOM     28  C   UNL     1     -25.622  -5.169  -3.288  1.00  0.00    -0.000 C 
BRANCH  28  29
ATOM     29  C   UNL     1     -25.445  -3.668  -3.562  1.00  0.00    -0.003 C 
ATOM     30  C   UNL     1     -25.488  -2.826  -2.287  1.00  0.00     0.004 C 
ENDBRANCH  28  29
ENDBRANCH  27  28
ENDBRANCH  26  27
ENDBRANCH  25  26
ENDBRANCH  24  25
ENDBRANCH  23  24
ENDBRANCH  22  23
ENDBRANCH  21  22
ENDBRANCH  20  21
ENDBRANCH  19  20
ENDBRANCH  18  19
ENDBRANCH  17  18
ENDBRANCH   1  17
TORSDOF 26
ENDMDL
MODEL 4
REMARK VINA RESULT:    -4.114      2.169      7.035
REMARK INTER + INTRA:         -15.262
REMARK INTER:                  -9.573
REMARK INTRA:                  -5.689
REMARK UNBOUND:                -4.894
REMARK SMILES CCCCCCCCCCCCCCCCCCCCCCCCCCCC(=O)[O-]
REMARK SMILES IDX 15 1 16 2 17 3 18 4 19 5 20 6 21 7 22 8 23 9 24 10 25 11
REMARK SMILES IDX 26 12 27 13 28 14 29 15 30 16 14 17 13 18 12 19 11 20 10 21
REMARK SMILES IDX 9 22 8 23 7 24 6 25 5 26 4 27 3 28 2 29 1 30
REMARK H PARENT
REMARK Flexibility Score: inf
ROOT
ATOM      1  C   UNL     1     -26.370  -6.454  -4.786  1.00  0.00     0.000 C 
ENDROOT
BRANCH   1   2
ATOM      2  C   UNL     1     -26.650  -5.137  -5.532  1.00  0.00     0.000 C 
BRANCH   2   3
ATOM      3  C   UNL     1     -26.191  -3.856  -4.803  1.00  0.00     0.000 C 
BRANCH   3   4
ATOM      4  C   UNL     1     -26.385  -2.542  -5.585  1.00  0.00     0.000 C 
BRANCH   4   5
ATOM      5  C   UNL     1     -25.882  -1.306  -4.822  1.00  0.00     0.000 C 
BRANCH   5   6
ATOM      6  C   UNL     1     -25.658  -1.580  -3.325  1.00  0.00     0.000 C 
BRANCH   6   7
ATOM      7  C   UNL     1     -24.215  -1.362  -2.833  1.00  0.00     0.000 C 
BRANCH   7   8
ATOM      8  C   UNL     1     -23.443  -2.676  -2.646  1.00  0.00     0.000 C 
BRANCH   8   9
ATOM      9  C   UNL     1     -22.689  -3.055  -3.929  1.00  0.00     0.000 C 
BRANCH   9  10
ATOM     10  C   UNL     1     -22.563  -4.577  -4.128  1.00  0.00     0.000 C 
BRANCH  10  11
ATOM     11  C   UNL     1     -22.195  -5.019  -5.556  1.00  0.00     0.000 C 
BRANCH  11  12
ATOM     12  C   UNL     1     -23.137  -4.440  -6.626  1.00  0.00     0.006 C 
BRANCH  12  13
ATOM     13  C   UNL     1     -22.804  -4.959  -8.032  1.00  0.00     0.053 C 
BRANCH  13  14
ATOM     14  C   UNL     1     -23.974  -4.838  -8.960  1.00  0.00     0.041 C 
ATOM     15  O   UNL     1     -25.085  -5.342  -8.649  1.00  0.00    -0.550 OA
ATOM     16  O   UNL     1     -23.834  -4.178 -10.176  1.00  0.00    -0.550 OA
ENDBRANCH  13  14
ENDBRANCH  12  13
ENDBRANCH  11  12
ENDBRANCH  10  11
ENDBRANCH   9  10
ENDBRANCH   8   9
ENDBRANCH   7   8
ENDBRANCH   6   7
ENDBRANCH   5   6
ENDBRANCH   4   5
ENDBRANCH   3   4
ENDBRANCH   2   3
ENDBRANCH   1   2
BRANCH   1  17
ATOM     17  C   UNL     1     -25.638  -6.242  -3.452  1.00  0.00     0.000 C 
BRANCH  17  18
ATOM     18  C   UNL     1     -24.984  -7.545  -2.973  1.00  0.00     0.000 C 
BRANCH  18  19
ATOM     19  C   UNL     1     -23.916  -8.074  -3.946  1.00  0.00     0.000 C 
BRANCH  19  20
ATOM     20  C   UNL     1     -24.228  -9.475  -4.512  1.00  0.00     0.000 C 
BRANCH  20  21
ATOM     21  C   UNL     1     -24.370  -9.468  -6.045  1.00  0.00     0.000 C 
BRANCH  21  22
ATOM     22  C   UNL     1     -23.766  -8.210  -6.689  1.00  0.00    -0.000 C 
BRANCH  22  23
ATOM     23  C   UNL     1     -22.599  -8.531  -7.640  1.00  0.00    -0.000 C 
BRANCH  23  24
ATOM     24  C   UNL     1     -22.421 -10.042  -7.874  1.00  0.00    -0.000 C 
BRANCH  24  25
ATOM     25  C   UNL     1     -21.096 -10.632  -7.352  1.00  0.00    -0.000 C 
BRANCH  25  26
ATOM     26  C   UNL     1     -21.205 -11.426  -6.038  1.00  0.00    -0.000 C 
BRANCH  26  27
ATOM     27  C   UNL     1     -20.788 -10.605  -4.809  1.00  0.00    -0.000 C 
BRANCH  27  28
ATOM     28  C   UNL     1     -19.809  -9.489  -5.205  1.00  0.00    -0.000 C 
BRANCH  28  29
ATOM     29  C   UNL     1     -20.286  -8.098  -4.757  1.00  0.00    -0.003 C 
ATOM     30  C   UNL     1     -20.318  -7.946  -3.236  1.00  0.00     0.004 C 
ENDBRANCH  28  29
ENDBRANCH  27  28
ENDBRANCH  26  27
ENDBRANCH  25  26
ENDBRANCH  24  25
ENDBRANCH  23  24
ENDBRANCH  22  23
ENDBRANCH  21  22
ENDBRANCH  20  21
ENDBRANCH  19  20
ENDBRANCH  18  19
ENDBRANCH  17  18
ENDBRANCH   1  17
TORSDOF 26
ENDMDL
MODEL 5
REMARK VINA RESULT:    -4.107      2.074      5.228
REMARK INTER + INTRA:         -15.244
REMARK INTER:                  -9.751
REMARK INTRA:                  -5.493
REMARK UNBOUND:                -4.894
REMARK SMILES CCCCCCCCCCCCCCCCCCCCCCCCCCCC(=O)[O-]
REMARK SMILES IDX 15 1 16 2 17 3 18 4 19 5 20 6 21 7 22 8 23 9 24 10 25 11
REMARK SMILES IDX 26 12 27 13 28 14 29 15 30 16 14 17 13 18 12 19 11 20 10 21
REMARK SMILES IDX 9 22 8 23 7 24 6 25 5 26 4 27 3 28 2 29 1 30
REMARK H PARENT
REMARK Flexibility Score: inf
ROOT
ATOM      1  C   UNL     1     -22.148  -2.684  -3.287  1.00  0.00     0.000 C 
ENDROOT
BRANCH   1   2
ATOM      2  C   UNL     1     -22.617  -4.123  -3.570  1.00  0.00     0.000 C 
BRANCH   2   3
ATOM      3  C   UNL     1     -22.223  -4.684  -4.954  1.00  0.00     0.000 C 
BRANCH   3   4
ATOM      4  C   UNL     1     -22.344  -6.212  -5.108  1.00  0.00     0.000 C 
BRANCH   4   5
ATOM      5  C   UNL     1     -21.933  -6.713  -6.502  1.00  0.00     0.000 C 
BRANCH   5   6
ATOM      6  C   UNL     1     -23.090  -7.394  -7.255  1.00  0.00     0.000 C 
BRANCH   6   7
ATOM      7  C   UNL     1     -24.188  -7.991  -6.357  1.00  0.00     0.000 C 
BRANCH   7   8
ATOM      8  C   UNL     1     -24.065  -9.514  -6.196  1.00  0.00     0.000 C 
BRANCH   8   9
ATOM      9  C   UNL     1     -23.523  -9.875  -4.805  1.00  0.00     0.000 C 
BRANCH   9  10
ATOM     10  C   UNL     1     -22.098 -10.459  -4.846  1.00  0.00     0.000 C 
BRANCH  10  11
ATOM     11  C   UNL     1     -21.660 -11.014  -6.214  1.00  0.00     0.000 C 
BRANCH  11  12
ATOM     12  C   UNL     1     -20.345 -10.394  -6.720  1.00  0.00     0.006 C 
BRANCH  12  13
ATOM     13  C   UNL     1     -19.636  -9.574  -5.634  1.00  0.00     0.053 C 
BRANCH  13  14
ATOM     14  C   UNL     1     -18.318 -10.177  -5.253  1.00  0.00     0.041 C 
ATOM     15  O   UNL     1     -18.232 -11.409  -5.010  1.00  0.00    -0.550 OA
ATOM     16  O   UNL     1     -17.187  -9.375  -5.157  1.00  0.00    -0.550 OA
ENDBRANCH  13  14
ENDBRANCH  12  13
ENDBRANCH  11  12
ENDBRANCH  10  11
ENDBRANCH   9  10
ENDBRANCH   8   9
ENDBRANCH   7   8
ENDBRANCH   6   7
ENDBRANCH   5   6
ENDBRANCH   4   5
ENDBRANCH   3   4
ENDBRANCH   2   3
ENDBRANCH   1   2
BRANCH   1  17
ATOM     17  C   UNL     1     -23.268  -1.787  -2.740  1.00  0.00     0.000 C 
BRANCH  17  18
ATOM     18  C   UNL     1     -24.574  -2.576  -2.581  1.00  0.00     0.000 C 
BRANCH  18  19
ATOM     19  C   UNL     1     -25.816  -1.779  -3.017  1.00  0.00     0.000 C 
BRANCH  19  20
ATOM     20  C   UNL     1     -25.710  -1.189  -4.438  1.00  0.00     0.000 C 
BRANCH  20  21
ATOM     21  C   UNL     1     -26.339  -2.108  -5.501  1.00  0.00     0.000 C 
BRANCH  21  22
ATOM     22  C   UNL     1     -25.296  -2.973  -6.227  1.00  0.00    -0.000 C 
BRANCH  22  23
ATOM     23  C   UNL     1     -25.601  -4.478  -6.130  1.00  0.00    -0.000 C 
BRANCH  23  24
ATOM     24  C   UNL     1     -26.738  -4.792  -5.141  1.00  0.00    -0.000 C 
BRANCH  24  25
ATOM     25  C   UNL     1     -26.600  -6.132  -4.390  1.00  0.00    -0.000 C 
BRANCH  25  26
ATOM     26  C   UNL     1     -25.581  -6.133  -3.236  1.00  0.00    -0.000 C 
BRANCH  26  27
ATOM     27  C   UNL     1     -25.190  -7.548  -2.786  1.00  0.00    -0.000 C 
BRANCH  27  28
ATOM     28  C   UNL     1     -24.479  -7.511  -1.424  1.00  0.00    -0.000 C 
BRANCH  28  29
ATOM     29  C   UNL     1     -23.339  -6.482  -1.382  1.00  0.00    -0.003 C 
ATOM     30  C   UNL     1     -21.956  -7.128  -1.464  1.00  0.00     0.004 C 
ENDBRANCH  28  29
ENDBRANCH  27  28
ENDBRANCH  26  27
ENDBRANCH  25  26
ENDBRANCH  24  25
ENDBRANCH  23  24
ENDBRANCH  22  23
ENDBRANCH  21  22
ENDBRANCH  20  21
ENDBRANCH  19  20
ENDBRANCH  18  19
ENDBRANCH  17  18
ENDBRANCH   1  17
TORSDOF 26
ENDMDL
MODEL 6
REMARK VINA RESULT:    -4.064      1.022      2.229
REMARK INTER + INTRA:         -15.136
REMARK INTER:                 -10.856
REMARK INTRA:                  -4.280
REMARK UNBOUND:                -4.894
REMARK SMILES CCCCCCCCCCCCCCCCCCCCCCCCCCCC(=O)[O-]
REMARK SMILES IDX 15 1 16 2 17 3 18 4 19 5 20 6 21 7 22 8 23 9 24 10 25 11
REMARK SMILES IDX 26 12 27 13 28 14 29 15 30 16 14 17 13 18 12 19 11 20 10 21
REMARK SMILES IDX 9 22 8 23 7 24 6 25 5 26 4 27 3 28 2 29 1 30
REMARK H PARENT
REMARK Flexibility Score: inf
ROOT
ATOM      1  C   UNL     1     -24.482  -8.779  -6.646  1.00  0.00     0.000 C 
ENDROOT
BRANCH   1   2
ATOM      2  C   UNL     1     -23.065  -8.850  -7.245  1.00  0.00     0.000 C 
BRANCH   2   3
ATOM      3  C   UNL     1     -22.628 -10.246  -7.738  1.00  0.00     0.000 C 
BRANCH   3   4
ATOM      4  C   UNL     1     -21.264 -10.736  -7.215  1.00  0.00     0.000 C 
BRANCH   4   5
ATOM      5  C   UNL     1     -21.384 -11.705  -6.028  1.00  0.00     0.000 C 
BRANCH   5   6
ATOM      6  C   UNL     1     -21.369 -10.984  -4.668  1.00  0.00     0.000 C 
BRANCH   6   7
ATOM      7  C   UNL     1     -20.560  -9.675  -4.635  1.00  0.00     0.000 C 
BRANCH   7   8
ATOM      8  C   UNL     1     -19.127  -9.872  -4.116  1.00  0.00     0.000 C 
BRANCH   8   9
ATOM      9  C   UNL     1     -18.403 -10.967  -4.912  1.00  0.00     0.000 C 
BRANCH   9  10
ATOM     10  C   UNL     1     -17.409 -10.404  -5.945  1.00  0.00     0.000 C 
BRANCH  10  11
ATOM     11  C   UNL     1     -17.916  -9.187  -6.741  1.00  0.00     0.000 C 
BRANCH  11  12
ATOM     12  C   UNL     1     -18.194  -9.511  -8.220  1.00  0.00     0.006 C 
BRANCH  12  13
ATOM     13  C   UNL     1     -18.345  -8.243  -9.072  1.00  0.00     0.053 C 
BRANCH  13  14
ATOM     14  C   UNL     1     -19.753  -7.733  -9.065  1.00  0.00     0.041 C 
ATOM     15  O   UNL     1     -20.628  -8.279  -9.788  1.00  0.00    -0.550 OA
ATOM     16  O   UNL     1     -20.097  -6.646  -8.269  1.00  0.00    -0.550 OA
ENDBRANCH  13  14
ENDBRANCH  12  13
ENDBRANCH  11  12
ENDBRANCH  10  11
ENDBRANCH   9  10
ENDBRANCH   8   9
ENDBRANCH   7   8
ENDBRANCH   6   7
ENDBRANCH   5   6
ENDBRANCH   4   5
ENDBRANCH   3   4
ENDBRANCH   2   3
ENDBRANCH   1   2
BRANCH   1  17
ATOM     17  C   UNL     1     -24.507  -9.051  -5.134  1.00  0.00     0.000 C 
BRANCH  17  18
ATOM     18  C   UNL     1     -23.703  -7.989  -4.373  1.00  0.00     0.000 C 
BRANCH  18  19
ATOM     19  C   UNL     1     -24.504  -7.329  -3.237  1.00  0.00     0.000 C 
BRANCH  19  20
ATOM     20  C   UNL     1     -25.939  -6.927  -3.638  1.00  0.00     0.000 C 
BRANCH  20  21
ATOM     21  C   UNL     1     -26.212  -5.429  -3.411  1.00  0.00     0.000 C 
BRANCH  21  22
ATOM     22  C   UNL     1     -25.039  -4.713  -2.723  1.00  0.00    -0.000 C 
BRANCH  22  23
ATOM     23  C   UNL     1     -25.320  -3.221  -2.469  1.00  0.00    -0.000 C 
BRANCH  23  24
ATOM     24  C   UNL     1     -24.834  -2.320  -3.618  1.00  0.00    -0.000 C 
BRANCH  24  25
ATOM     25  C   UNL     1     -25.872  -2.062  -4.729  1.00  0.00    -0.000 C 
BRANCH  25  26
ATOM     26  C   UNL     1     -25.529  -2.673  -6.099  1.00  0.00    -0.000 C 
BRANCH  26  27
ATOM     27  C   UNL     1     -24.162  -3.371  -6.117  1.00  0.00    -0.000 C 
BRANCH  27  28
ATOM     28  C   UNL     1     -24.322  -4.879  -6.365  1.00  0.00    -0.000 C 
BRANCH  28  29
ATOM     29  C   UNL     1     -25.235  -5.186  -7.563  1.00  0.00    -0.003 C 
ATOM     30  C   UNL     1     -26.454  -6.024  -7.176  1.00  0.00     0.004 C 
ENDBRANCH  28  29
ENDBRANCH  27  28
ENDBRANCH  26  27
ENDBRANCH  25  26
ENDBRANCH  24  25
ENDBRANCH  23  24
ENDBRANCH  22  23
ENDBRANCH  21  22
ENDBRANCH  20  21
ENDBRANCH  19  20
ENDBRANCH  18  19
ENDBRANCH  17  18
ENDBRANCH   1  17
TORSDOF 26
ENDMDL
MODEL 7
REMARK VINA RESULT:    -4.021      2.681      7.703
REMARK INTER + INTRA:         -15.027
REMARK INTER:                  -9.974
REMARK INTRA:                  -5.054
REMARK UNBOUND:                -4.894
REMARK SMILES CCCCCCCCCCCCCCCCCCCCCCCCCCCC(=O)[O-]
REMARK SMILES IDX 15 1 16 2 17 3 18 4 19 5 20 6 21 7 22 8 23 9 24 10 25 11
REMARK SMILES IDX 26 12 27 13 28 14 29 15 30 16 14 17 13 18 12 19 11 20 10 21
REMARK SMILES IDX 9 22 8 23 7 24 6 25 5 26 4 27 3 28 2 29 1 30
REMARK H PARENT
REMARK Flexibility Score: inf
ROOT
ATOM      1  C   UNL     1     -22.920  -6.247  -5.080  1.00  0.00     0.000 C 
ENDROOT
BRANCH   1   2
ATOM      2  C   UNL     1     -22.470  -6.261  -6.553  1.00  0.00     0.000 C 
BRANCH   2   3
ATOM      3  C   UNL     1     -23.601  -6.460  -7.585  1.00  0.00     0.000 C 
BRANCH   3   4
ATOM      4  C   UNL     1     -24.841  -5.568  -7.390  1.00  0.00     0.000 C 
BRANCH   4   5
ATOM      5  C   UNL     1     -26.101  -6.360  -7.004  1.00  0.00     0.000 C 
BRANCH   5   6
ATOM      6  C   UNL     1     -26.874  -5.718  -5.838  1.00  0.00     0.000 C 
BRANCH   6   7
ATOM      7  C   UNL     1     -26.477  -6.221  -4.439  1.00  0.00     0.000 C 
BRANCH   7   8
ATOM      8  C   UNL     1     -26.395  -5.093  -3.399  1.00  0.00     0.000 C 
BRANCH   8   9
ATOM      9  C   UNL     1     -25.063  -5.145  -2.638  1.00  0.00     0.000 C 
BRANCH   9  10
ATOM     10  C   UNL     1     -24.508  -3.750  -2.295  1.00  0.00     0.000 C 
BRANCH  10  11
ATOM     11  C   UNL     1     -25.573  -2.657  -2.094  1.00  0.00     0.000 C 
BRANCH  11  12
ATOM     12  C   UNL     1     -25.545  -1.582  -3.196  1.00  0.00     0.006 C 
BRANCH  12  13
ATOM     13  C   UNL     1     -24.511  -1.897  -4.285  1.00  0.00     0.053 C 
BRANCH  13  14
ATOM     14  C   UNL     1     -25.158  -2.111  -5.620  1.00  0.00     0.041 C 
ATOM     15  O   UNL     1     -26.398  -2.312  -5.698  1.00  0.00    -0.550 OA
ATOM     16  O   UNL     1     -24.387  -2.098  -6.778  1.00  0.00    -0.550 OA
ENDBRANCH  13  14
ENDBRANCH  12  13
ENDBRANCH  11  12
ENDBRANCH  10  11
ENDBRANCH   9  10
ENDBRANCH   8   9
ENDBRANCH   7   8
ENDBRANCH   6   7
ENDBRANCH   5   6
ENDBRANCH   4   5
ENDBRANCH   3   4
ENDBRANCH   2   3
ENDBRANCH   1   2
BRANCH   1  17
ATOM     17  C   UNL     1     -21.890  -6.882  -4.134  1.00  0.00     0.000 C 
BRANCH  17  18
ATOM     18  C   UNL     1     -22.483  -8.103  -3.420  1.00  0.00     0.000 C 
BRANCH  18  19
ATOM     19  C   UNL     1     -23.898  -8.458  -3.910  1.00  0.00     0.000 C 
BRANCH  19  20
ATOM     20  C   UNL     1     -23.960  -9.745  -4.757  1.00  0.00     0.000 C 
BRANCH  20  21
ATOM     21  C   UNL     1     -22.635 -10.528  -4.729  1.00  0.00     0.000 C 
BRANCH  21  22
ATOM     22  C   UNL     1     -22.177 -10.964  -6.130  1.00  0.00    -0.000 C 
BRANCH  22  23
ATOM     23  C   UNL     1     -22.793 -10.108  -7.250  1.00  0.00    -0.000 C 
BRANCH  23  24
ATOM     24  C   UNL     1     -21.742  -9.579  -8.241  1.00  0.00    -0.000 C 
BRANCH  24  25
ATOM     25  C   UNL     1     -20.285  -9.629  -7.737  1.00  0.00    -0.000 C 
BRANCH  25  26
ATOM     26  C   UNL     1     -19.560  -8.272  -7.695  1.00  0.00    -0.000 C 
BRANCH  26  27
ATOM     27  C   UNL     1     -18.965  -7.956  -6.315  1.00  0.00    -0.000 C 
BRANCH  27  28
ATOM     28  C   UNL     1     -19.296  -9.070  -5.310  1.00  0.00    -0.000 C 
BRANCH  28  29
ATOM     29  C   UNL     1     -18.038  -9.718  -4.711  1.00  0.00    -0.003 C 
ATOM     30  C   UNL     1     -17.367 -10.702  -5.670  1.00  0.00     0.004 C 
ENDBRANCH  28  29
ENDBRANCH  27  28
ENDBRANCH  26  27
ENDBRANCH  25  26
ENDBRANCH  24  25
ENDBRANCH  23  24
ENDBRANCH  22  23
ENDBRANCH  21  22
ENDBRANCH  20  21
ENDBRANCH  19  20
ENDBRANCH  18  19
ENDBRANCH  17  18
ENDBRANCH   1  17
TORSDOF 26
ENDMDL
MODEL 8
REMARK VINA RESULT:    -4.017      2.614      7.284
REMARK INTER + INTRA:         -15.017
REMARK INTER:                  -9.176
REMARK INTRA:                  -5.841
REMARK UNBOUND:                -4.894
REMARK SMILES CCCCCCCCCCCCCCCCCCCCCCCCCCCC(=O)[O-]
REMARK SMILES IDX 15 1 16 2 17 3 18 4 19 5 20 6 21 7 22 8 23 9 24 10 25 11
REMARK SMILES IDX 26 12 27 13 28 14 29 15 30 16 14 17 13 18 12 19 11 20 10 21
REMARK SMILES IDX 9 22 8 23 7 24 6 25 5 26 4 27 3 28 2 29 1 30
REMARK H PARENT
REMARK Flexibility Score: inf
ROOT
ATOM      1  C   UNL     1     -23.391  -7.730  -7.257  1.00  0.00     0.000 C 
ENDROOT
BRANCH   1   2
ATOM      2  C   UNL     1     -23.892  -8.082  -5.844  1.00  0.00     0.000 C 
BRANCH   2   3
ATOM      3  C   UNL     1     -25.360  -7.704  -5.552  1.00  0.00     0.000 C 
BRANCH   3   4
ATOM      4  C   UNL     1     -25.963  -6.628  -6.476  1.00  0.00     0.000 C 
BRANCH   4   5
ATOM      5  C   UNL     1     -26.768  -5.561  -5.715  1.00  0.00     0.000 C 
BRANCH   5   6
ATOM      6  C   UNL     1     -26.759  -5.782  -4.192  1.00  0.00     0.000 C 
BRANCH   6   7
ATOM      7  C   UNL     1     -25.849  -4.824  -3.402  1.00  0.00     0.000 C 
BRANCH   7   8
ATOM      8  C   UNL     1     -24.790  -5.560  -2.567  1.00  0.00     0.000 C 
BRANCH   8   9
ATOM      9  C   UNL     1     -23.416  -5.497  -3.248  1.00  0.00     0.000 C 
BRANCH   9  10
ATOM     10  C   UNL     1     -22.820  -4.077  -3.277  1.00  0.00     0.000 C 
BRANCH  10  11
ATOM     11  C   UNL     1     -22.524  -3.523  -4.682  1.00  0.00     0.000 C 
BRANCH  11  12
ATOM     12  C   UNL     1     -23.169  -4.356  -5.805  1.00  0.00     0.006 C 
BRANCH  12  13
ATOM     13  C   UNL     1     -23.731  -3.475  -6.929  1.00  0.00     0.053 C 
BRANCH  13  14
ATOM     14  C   UNL     1     -24.411  -2.253  -6.391  1.00  0.00     0.041 C 
ATOM     15  O   UNL     1     -25.565  -2.337  -5.896  1.00  0.00    -0.550 OA
ATOM     16  O   UNL     1     -23.772  -1.019  -6.446  1.00  0.00    -0.550 OA
ENDBRANCH  13  14
ENDBRANCH  12  13
ENDBRANCH  11  12
ENDBRANCH  10  11
ENDBRANCH   9  10
ENDBRANCH   8   9
ENDBRANCH   7   8
ENDBRANCH   6   7
ENDBRANCH   5   6
ENDBRANCH   4   5
ENDBRANCH   3   4
ENDBRANCH   2   3
ENDBRANCH   1   2
BRANCH   1  17
ATOM     17  C   UNL     1     -22.682  -8.904  -7.950  1.00  0.00     0.000 C 
BRANCH  17  18
ATOM     18  C   UNL     1     -22.818 -10.190  -7.124  1.00  0.00     0.000 C 
BRANCH  18  19
ATOM     19  C   UNL     1     -21.511 -11.000  -7.053  1.00  0.00     0.000 C 
BRANCH  19  20
ATOM     20  C   UNL     1     -21.110 -11.411  -5.621  1.00  0.00     0.000 C 
BRANCH  20  21
ATOM     21  C   UNL     1     -22.196 -11.063  -4.587  1.00  0.00     0.000 C 
BRANCH  21  22
ATOM     22  C   UNL     1     -21.653 -10.226  -3.418  1.00  0.00    -0.000 C 
BRANCH  22  23
ATOM     23  C   UNL     1     -20.443  -9.364  -3.817  1.00  0.00    -0.000 C 
BRANCH  23  24
ATOM     24  C   UNL     1     -20.747  -7.856  -3.776  1.00  0.00    -0.000 C 
BRANCH  24  25
ATOM     25  C   UNL     1     -20.083  -7.024  -4.892  1.00  0.00    -0.000 C 
BRANCH  25  26
ATOM     26  C   UNL     1     -19.900  -7.757  -6.233  1.00  0.00    -0.000 C 
BRANCH  26  27
ATOM     27  C   UNL     1     -18.425  -7.950  -6.612  1.00  0.00    -0.000 C 
BRANCH  27  28
ATOM     28  C   UNL     1     -18.205  -9.321  -7.270  1.00  0.00    -0.000 C 
BRANCH  28  29
ATOM     29  C   UNL     1     -17.623 -10.357  -6.295  1.00  0.00    -0.003 C 
ATOM     30  C   UNL     1     -16.958  -9.713  -5.078  1.00  0.00     0.004 C 
ENDBRANCH  28  29
ENDBRANCH  27  28
ENDBRANCH  26  27
ENDBRANCH  25  26
ENDBRANCH  24  25
ENDBRANCH  23  24
ENDBRANCH  22  23
ENDBRANCH  21  22
ENDBRANCH  20  21
ENDBRANCH  19  20
ENDBRANCH  18  19
ENDBRANCH  17  18
ENDBRANCH   1  17
TORSDOF 26
ENDMDL
MODEL 9
REMARK VINA RESULT:    -3.993      3.009      7.126
REMARK INTER + INTRA:         -14.956
REMARK INTER:                  -9.069
REMARK INTRA:                  -5.887
REMARK UNBOUND:                -4.894
REMARK SMILES CCCCCCCCCCCCCCCCCCCCCCCCCCCC(=O)[O-]
REMARK SMILES IDX 15 1 16 2 17 3 18 4 19 5 20 6 21 7 22 8 23 9 24 10 25 11
REMARK SMILES IDX 26 12 27 13 28 14 29 15 30 16 14 17 13 18 12 19 11 20 10 21
REMARK SMILES IDX 9 22 8 23 7 24 6 25 5 26 4 27 3 28 2 29 1 30
REMARK H PARENT
REMARK Flexibility Score: inf
ROOT
ATOM      1  C   UNL     1     -19.591  -8.750  -8.682  1.00  0.00     0.000 C 
ENDROOT
BRANCH   1   2
ATOM      2  C   UNL     1     -20.756  -8.019  -9.372  1.00  0.00     0.000 C 
BRANCH   2   3
ATOM      3  C   UNL     1     -21.665  -7.194  -8.434  1.00  0.00     0.000 C 
BRANCH   3   4
ATOM      4  C   UNL     1     -21.943  -5.747  -8.884  1.00  0.00     0.000 C 
BRANCH   4   5
ATOM      5  C   UNL     1     -23.011  -5.044  -8.030  1.00  0.00     0.000 C 
BRANCH   5   6
ATOM      6  C   UNL     1     -24.046  -6.022  -7.448  1.00  0.00     0.000 C 
BRANCH   6   7
ATOM      7  C   UNL     1     -25.508  -5.544  -7.528  1.00  0.00     0.000 C 
BRANCH   7   8
ATOM      8  C   UNL     1     -26.448  -6.347  -6.615  1.00  0.00     0.000 C 
BRANCH   8   9
ATOM      9  C   UNL     1     -27.106  -5.435  -5.570  1.00  0.00     0.000 C 
BRANCH   9  10
ATOM     10  C   UNL     1     -26.678  -5.764  -4.128  1.00  0.00     0.000 C 
BRANCH  10  11
ATOM     11  C   UNL     1     -25.823  -4.684  -3.439  1.00  0.00     0.000 C 
BRANCH  11  12
ATOM     12  C   UNL     1     -24.424  -4.536  -4.066  1.00  0.00     0.006 C 
BRANCH  12  13
ATOM     13  C   UNL     1     -24.049  -3.067  -4.303  1.00  0.00     0.053 C 
BRANCH  13  14
ATOM     14  C   UNL     1     -25.190  -2.288  -4.883  1.00  0.00     0.041 C 
ATOM     15  O   UNL     1     -25.446  -2.362  -6.113  1.00  0.00    -0.550 OA
ATOM     16  O   UNL     1     -25.964  -1.472  -4.065  1.00  0.00    -0.550 OA
ENDBRANCH  13  14
ENDBRANCH  12  13
ENDBRANCH  11  12
ENDBRANCH  10  11
ENDBRANCH   9  10
ENDBRANCH   8   9
ENDBRANCH   7   8
ENDBRANCH   6   7
ENDBRANCH   5   6
ENDBRANCH   4   5
ENDBRANCH   3   4
ENDBRANCH   2   3
ENDBRANCH   1   2
BRANCH   1  17
ATOM     17  C   UNL     1     -19.217  -8.135  -7.325  1.00  0.00     0.000 C 
BRANCH  17  18
ATOM     18  C   UNL     1     -18.692  -9.208  -6.363  1.00  0.00     0.000 C 
BRANCH  18  19
ATOM     19  C   UNL     1     -19.776  -9.748  -5.414  1.00  0.00     0.000 C 
BRANCH  19  20
ATOM     20  C   UNL     1     -20.329 -11.129  -5.822  1.00  0.00     0.000 C 
BRANCH  20  21
ATOM     21  C   UNL     1     -21.868 -11.172  -5.805  1.00  0.00     0.000 C 
BRANCH  21  22
ATOM     22  C   UNL     1     -22.494 -10.369  -6.955  1.00  0.00    -0.000 C 
BRANCH  22  23
ATOM     23  C   UNL     1     -23.716  -9.545  -6.508  1.00  0.00    -0.000 C 
BRANCH  23  24
ATOM     24  C   UNL     1     -24.057  -9.747  -5.021  1.00  0.00    -0.000 C 
BRANCH  24  25
ATOM     25  C   UNL     1     -24.651  -8.512  -4.314  1.00  0.00    -0.000 C 
BRANCH  25  26
ATOM     26  C   UNL     1     -23.900  -8.058  -3.049  1.00  0.00    -0.000 C 
BRANCH  26  27
ATOM     27  C   UNL     1     -22.390  -8.326  -3.122  1.00  0.00    -0.000 C 
BRANCH  27  28
ATOM     28  C   UNL     1     -21.614  -7.017  -3.335  1.00  0.00    -0.000 C 
BRANCH  28  29
ATOM     29  C   UNL     1     -21.521  -6.620  -4.816  1.00  0.00    -0.003 C 
ATOM     30  C   UNL     1     -20.488  -5.521  -5.069  1.00  0.00     0.004 C 
ENDBRANCH  28  29
ENDBRANCH  27  28
ENDBRANCH  26  27
ENDBRANCH  25  26
ENDBRANCH  24  25
ENDBRANCH  23  24
ENDBRANCH  22  23
ENDBRANCH  21  22
ENDBRANCH  20  21
ENDBRANCH  19  20
ENDBRANCH  18  19
ENDBRANCH  17  18
ENDBRANCH   1  17
TORSDOF 26
ENDMDL
