MODEL 1
REMARK VINA RESULT:    -2.482      0.000      0.000
REMARK INTER + INTRA:          -9.746
REMARK INTER:                  -5.384
REMARK INTRA:                  -4.362
REMARK UNBOUND:                -4.362
REMARK SMILES CCCCCCCCCCCCCCCCCCCCCC(=O)[O-]
REMARK SMILES IDX 12 1 11 2 10 3 9 4 8 5 7 6 6 7 5 8 4 9 3 10 2 11 1 12 13 13
REMARK SMILES IDX 14 14 15 15 16 16 17 17 18 18 19 19 20 20 21 21 22 22 23 23
REMARK SMILES IDX 24 24
REMARK H PARENT
REMARK Flexibility Score: inf
ROOT
ATOM      1  C   UNL     1      11.376 -14.891  19.843  1.00  0.00     0.000 C 
ENDROOT
BRANCH   1   2
ATOM      2  C   UNL     1      12.879 -14.792  20.158  1.00  0.00     0.000 C 
BRANCH   2   3
ATOM      3  C   UNL     1      13.152 -14.509  21.644  1.00  0.00     0.000 C 
BRANCH   3   4
ATOM      4  C   UNL     1      14.126 -15.525  22.267  1.00  0.00    -0.000 C 
BRANCH   4   5
ATOM      5  C   UNL     1      14.554 -16.620  21.276  1.00  0.00    -0.000 C 
BRANCH   5   6
ATOM      6  C   UNL     1      14.071 -18.019  21.693  1.00  0.00    -0.000 C 
BRANCH   6   7
ATOM      7  C   UNL     1      12.825 -18.432  20.899  1.00  0.00    -0.000 C 
BRANCH   7   8
ATOM      8  C   UNL     1      11.938 -19.380  21.722  1.00  0.00    -0.000 C 
BRANCH   8   9
ATOM      9  C   UNL     1      11.243 -18.674  22.893  1.00  0.00    -0.000 C 
BRANCH   9  10
ATOM     10  C   UNL     1      10.522 -17.387  22.468  1.00  0.00    -0.000 C 
BRANCH  10  11
ATOM     11  C   UNL     1      10.607 -16.322  23.568  1.00  0.00    -0.003 C 
ATOM     12  C   UNL     1      11.615 -16.717  24.644  1.00  0.00     0.004 C 
ENDBRANCH  10  11
ENDBRANCH   9  10
ENDBRANCH   8   9
ENDBRANCH   7   8
ENDBRANCH   6   7
ENDBRANCH   5   6
ENDBRANCH   4   5
ENDBRANCH   3   4
ENDBRANCH   2   3
ENDBRANCH   1   2
BRANCH   1  13
ATOM     13  C   UNL     1      10.582 -13.654  20.307  1.00  0.00     0.000 C 
BRANCH  13  14
ATOM     14  C   UNL     1       9.058 -13.738  20.112  1.00  0.00     0.000 C 
BRANCH  14  15
ATOM     15  C   UNL     1       8.385 -14.759  21.045  1.00  0.00     0.000 C 
BRANCH  15  16
ATOM     16  C   UNL     1       7.820 -15.975  20.289  1.00  0.00     0.000 C 
BRANCH  16  17
ATOM     17  C   UNL     1       7.873 -15.832  18.753  1.00  0.00     0.000 C 
BRANCH  17  18
ATOM     18  C   UNL     1       8.609 -17.010  18.090  1.00  0.00     0.000 C 
BRANCH  18  19
ATOM     19  C   UNL     1       9.486 -17.796  19.077  1.00  0.00     0.000 C 
BRANCH  19  20
ATOM     20  C   UNL     1       9.651 -19.270  18.675  1.00  0.00     0.006 C 
BRANCH  20  21
ATOM     21  C   UNL     1       8.347 -20.044  18.880  1.00  0.00     0.053 C 
BRANCH  21  22
ATOM     22  C   UNL     1       7.867 -19.909  20.292  1.00  0.00     0.041 C 
ATOM     23  O   UNL     1       8.546 -20.376  21.243  1.00  0.00    -0.550 OA
ATOM     24  O   UNL     1       6.649 -19.292  20.554  1.00  0.00    -0.550 OA
ENDBRANCH  21  22
ENDBRANCH  20  21
ENDBRANCH  19  20
ENDBRANCH  18  19
ENDBRANCH  17  18
ENDBRANCH  16  17
ENDBRANCH  15  16
ENDBRANCH  14  15
ENDBRANCH  13  14
ENDBRANCH   1  13
TORSDOF 20
ENDMDL
MODEL 2
REMARK VINA RESULT:    -2.474      1.901      4.692
REMARK INTER + INTRA:          -9.728
REMARK INTER:                  -5.438
REMARK INTRA:                  -4.290
REMARK UNBOUND:                -4.362
REMARK SMILES CCCCCCCCCCCCCCCCCCCCCC(=O)[O-]
REMARK SMILES IDX 12 1 11 2 10 3 9 4 8 5 7 6 6 7 5 8 4 9 3 10 2 11 1 12 13 13
REMARK SMILES IDX 14 14 15 15 16 16 17 17 18 18 19 19 20 20 21 21 22 22 23 23
REMARK SMILES IDX 24 24
REMARK H PARENT
REMARK Flexibility Score: inf
ROOT
ATOM      1  C   UNL     1       7.634 -19.619  22.373  1.00  0.00     0.000 C 
ENDROOT
BRANCH   1   2
ATOM      2  C   UNL     1       9.115 -19.950  22.629  1.00  0.00     0.000 C 
BRANCH   2   3
ATOM      3  C   UNL     1       9.734 -19.068  23.726  1.00  0.00     0.000 C 
BRANCH   3   4
ATOM      4  C   UNL     1      11.246 -18.863  23.533  1.00  0.00    -0.000 C 
BRANCH   4   5
ATOM      5  C   UNL     1      11.821 -19.724  22.396  1.00  0.00    -0.000 C 
BRANCH   5   6
ATOM      6  C   UNL     1      13.077 -19.107  21.760  1.00  0.00    -0.000 C 
BRANCH   6   7
ATOM      7  C   UNL     1      13.173 -17.608  22.070  1.00  0.00    -0.000 C 
BRANCH   7   8
ATOM      8  C   UNL     1      14.281 -16.944  21.236  1.00  0.00    -0.000 C 
BRANCH   8   9
ATOM      9  C   UNL     1      14.093 -15.427  21.104  1.00  0.00    -0.000 C 
BRANCH   9  10
ATOM     10  C   UNL     1      12.929 -14.895  21.952  1.00  0.00    -0.000 C 
BRANCH  10  11
ATOM     11  C   UNL     1      11.911 -14.150  21.079  1.00  0.00    -0.003 C 
ATOM     12  C   UNL     1      12.445 -13.939  19.665  1.00  0.00     0.004 C 
ENDBRANCH  10  11
ENDBRANCH   9  10
ENDBRANCH   8   9
ENDBRANCH   7   8
ENDBRANCH   6   7
ENDBRANCH   5   6
ENDBRANCH   4   5
ENDBRANCH   3   4
ENDBRANCH   2   3
ENDBRANCH   1   2
BRANCH   1  13
ATOM     13  C   UNL     1       7.146 -20.078  20.986  1.00  0.00     0.000 C 
BRANCH  13  14
ATOM     14  C   UNL     1       8.255 -20.365  19.958  1.00  0.00     0.000 C 
BRANCH  14  15
ATOM     15  C   UNL     1       8.028 -19.658  18.611  1.00  0.00     0.000 C 
BRANCH  15  16
ATOM     16  C   UNL     1       9.269 -18.887  18.125  1.00  0.00     0.000 C 
BRANCH  16  17
ATOM     17  C   UNL     1      10.365 -18.733  19.200  1.00  0.00     0.000 C 
BRANCH  17  18
ATOM     18  C   UNL     1      10.540 -17.269  19.640  1.00  0.00     0.000 C 
BRANCH  18  19
ATOM     19  C   UNL     1       9.546 -16.853  20.736  1.00  0.00     0.000 C 
BRANCH  19  20
ATOM     20  C   UNL     1       8.514 -15.829  20.239  1.00  0.00     0.006 C 
BRANCH  20  21
ATOM     21  C   UNL     1       7.144 -16.481  20.042  1.00  0.00     0.053 C 
BRANCH  21  22
ATOM     22  C   UNL     1       6.643 -16.250  18.649  1.00  0.00     0.041 C 
ATOM     23  O   UNL     1       7.243 -15.454  17.881  1.00  0.00    -0.550 OA
ATOM     24  O   UNL     1       5.491 -16.891  18.211  1.00  0.00    -0.550 OA
ENDBRANCH  21  22
ENDBRANCH  20  21
ENDBRANCH  19  20
ENDBRANCH  18  19
ENDBRANCH  17  18
ENDBRANCH  16  17
ENDBRANCH  15  16
ENDBRANCH  14  15
ENDBRANCH  13  14
ENDBRANCH   1  13
TORSDOF 20
ENDMDL
MODEL 3
REMARK VINA RESULT:    -2.464      3.121      6.834
REMARK INTER + INTRA:          -9.707
REMARK INTER:                  -6.067
REMARK INTRA:                  -3.640
REMARK UNBOUND:                -4.362
REMARK SMILES CCCCCCCCCCCCCCCCCCCCCC(=O)[O-]
REMARK SMILES IDX 12 1 11 2 10 3 9 4 8 5 7 6 6 7 5 8 4 9 3 10 2 11 1 12 13 13
REMARK SMILES IDX 14 14 15 15 16 16 17 17 18 18 19 19 20 20 21 21 22 22 23 23
REMARK SMILES IDX 24 24
REMARK H PARENT
REMARK Flexibility Score: inf
ROOT
ATOM      1  C   UNL     1       7.793 -19.241  18.251  1.00  0.00     0.000 C 
ENDROOT
BRANCH   1   2
ATOM      2  C   UNL     1       8.864 -18.200  17.881  1.00  0.00     0.000 C 
BRANCH   2   3
ATOM      3  C   UNL     1       8.367 -16.756  18.059  1.00  0.00     0.000 C 
BRANCH   3   4
ATOM      4  C   UNL     1       9.014 -16.056  19.267  1.00  0.00    -0.000 C 
BRANCH   4   5
ATOM      5  C   UNL     1       8.018 -15.185  20.050  1.00  0.00    -0.000 C 
BRANCH   5   6
ATOM      6  C   UNL     1       6.593 -15.252  19.479  1.00  0.00    -0.000 C 
BRANCH   6   7
ATOM      7  C   UNL     1       5.641 -15.960  20.451  1.00  0.00    -0.000 C 
BRANCH   7   8
ATOM      8  C   UNL     1       4.356 -16.408  19.735  1.00  0.00    -0.000 C 
BRANCH   8   9
ATOM      9  C   UNL     1       4.619 -17.460  18.651  1.00  0.00    -0.000 C 
BRANCH   9  10
ATOM     10  C   UNL     1       4.145 -18.863  19.054  1.00  0.00    -0.000 C 
BRANCH  10  11
ATOM     11  C   UNL     1       2.623 -18.894  19.246  1.00  0.00    -0.003 C 
ATOM     12  C   UNL     1       2.244 -19.585  20.552  1.00  0.00     0.004 C 
ENDBRANCH  10  11
ENDBRANCH   9  10
ENDBRANCH   8   9
ENDBRANCH   7   8
ENDBRANCH   6   7
ENDBRANCH   5   6
ENDBRANCH   4   5
ENDBRANCH   3   4
ENDBRANCH   2   3
ENDBRANCH   1   2
BRANCH   1  13
ATOM     13  C   UNL     1       8.364 -20.441  19.030  1.00  0.00     0.000 C 
BRANCH  13  14
ATOM     14  C   UNL     1       7.937 -20.533  20.506  1.00  0.00     0.000 C 
BRANCH  14  15
ATOM     15  C   UNL     1       7.158 -19.298  20.987  1.00  0.00     0.000 C 
BRANCH  15  16
ATOM     16  C   UNL     1       7.957 -18.440  21.986  1.00  0.00     0.000 C 
BRANCH  16  17
ATOM     17  C   UNL     1       9.321 -19.048  22.374  1.00  0.00     0.000 C 
BRANCH  17  18
ATOM     18  C   UNL     1      10.498 -18.190  21.875  1.00  0.00     0.000 C 
BRANCH  18  19
ATOM     19  C   UNL     1      11.256 -18.841  20.707  1.00  0.00     0.000 C 
BRANCH  19  20
ATOM     20  C   UNL     1      12.779 -18.671  20.826  1.00  0.00     0.006 C 
BRANCH  20  21
ATOM     21  C   UNL     1      13.305 -19.319  22.109  1.00  0.00     0.053 C 
BRANCH  21  22
ATOM     22  C   UNL     1      14.444 -18.525  22.673  1.00  0.00     0.041 C 
ATOM     23  O   UNL     1      14.835 -17.476  22.099  1.00  0.00    -0.550 OA
ATOM     24  O   UNL     1      15.094 -18.965  23.820  1.00  0.00    -0.550 OA
ENDBRANCH  21  22
ENDBRANCH  20  21
ENDBRANCH  19  20
ENDBRANCH  18  19
ENDBRANCH  17  18
ENDBRANCH  16  17
ENDBRANCH  15  16
ENDBRANCH  14  15
ENDBRANCH  13  14
ENDBRANCH   1  13
TORSDOF 20
ENDMDL
MODEL 4
REMARK VINA RESULT:    -2.457      4.064      6.927
REMARK INTER + INTRA:          -9.692
REMARK INTER:                  -6.641
REMARK INTRA:                  -3.051
REMARK UNBOUND:                -4.362
REMARK SMILES CCCCCCCCCCCCCCCCCCCCCC(=O)[O-]
REMARK SMILES IDX 12 1 11 2 10 3 9 4 8 5 7 6 6 7 5 8 4 9 3 10 2 11 1 12 13 13
REMARK SMILES IDX 14 14 15 15 16 16 17 17 18 18 19 19 20 20 21 21 22 22 23 23
REMARK SMILES IDX 24 24
REMARK H PARENT
REMARK Flexibility Score: inf
ROOT
ATOM      1  C   UNL     1       7.589 -15.906  20.270  1.00  0.00     0.000 C 
ENDROOT
BRANCH   1   2
ATOM      2  C   UNL     1       8.016 -15.990  18.794  1.00  0.00     0.000 C 
BRANCH   2   3
ATOM      3  C   UNL     1       6.956 -16.669  17.912  1.00  0.00     0.000 C 
BRANCH   3   4
ATOM      4  C   UNL     1       6.693 -18.127  18.326  1.00  0.00    -0.000 C 
BRANCH   4   5
ATOM      5  C   UNL     1       7.927 -19.027  18.145  1.00  0.00    -0.000 C 
BRANCH   5   6
ATOM      6  C   UNL     1       8.241 -19.864  19.395  1.00  0.00    -0.000 C 
BRANCH   6   7
ATOM      7  C   UNL     1       9.394 -19.248  20.198  1.00  0.00    -0.000 C 
BRANCH   7   8
ATOM      8  C   UNL     1      10.498 -18.727  19.264  1.00  0.00    -0.000 C 
BRANCH   8   9
ATOM      9  C   UNL     1      11.899 -18.860  19.873  1.00  0.00    -0.000 C 
BRANCH   9  10
ATOM     10  C   UNL     1      11.868 -19.201  21.370  1.00  0.00    -0.000 C 
BRANCH  10  11
ATOM     11  C   UNL     1      13.246 -18.987  22.010  1.00  0.00    -0.003 C 
ATOM     12  C   UNL     1      13.951 -17.773  21.413  1.00  0.00     0.004 C 
ENDBRANCH  10  11
ENDBRANCH   9  10
ENDBRANCH   8   9
ENDBRANCH   7   8
ENDBRANCH   6   7
ENDBRANCH   5   6
ENDBRANCH   4   5
ENDBRANCH   3   4
ENDBRANCH   2   3
ENDBRANCH   1   2
BRANCH   1  13
ATOM     13  C   UNL     1       8.585 -15.115  21.140  1.00  0.00     0.000 C 
BRANCH  13  14
ATOM     14  C   UNL     1       9.663 -15.959  21.842  1.00  0.00     0.000 C 
BRANCH  14  15
ATOM     15  C   UNL     1      11.087 -15.425  21.622  1.00  0.00     0.000 C 
BRANCH  15  16
ATOM     16  C   UNL     1      11.417 -15.200  20.135  1.00  0.00     0.000 C 
BRANCH  16  17
ATOM     17  C   UNL     1      12.711 -14.393  19.900  1.00  0.00     0.000 C 
BRANCH  17  18
ATOM     18  C   UNL     1      12.421 -12.982  19.356  1.00  0.00     0.000 C 
BRANCH  18  19
ATOM     19  C   UNL     1      12.215 -11.945  20.472  1.00  0.00     0.000 C 
BRANCH  19  20
ATOM     20  C   UNL     1      13.036 -10.666  20.246  1.00  0.00     0.006 C 
BRANCH  20  21
ATOM     21  C   UNL     1      12.432  -9.816  19.125  1.00  0.00     0.053 C 
BRANCH  21  22
ATOM     22  C   UNL     1      11.734  -8.617  19.689  1.00  0.00     0.041 C 
ATOM     23  O   UNL     1      11.595  -8.487  20.932  1.00  0.00    -0.550 OA
ATOM     24  O   UNL     1      11.206  -7.657  18.833  1.00  0.00    -0.550 OA
ENDBRANCH  21  22
ENDBRANCH  20  21
ENDBRANCH  19  20
ENDBRANCH  18  19
ENDBRANCH  17  18
ENDBRANCH  16  17
ENDBRANCH  15  16
ENDBRANCH  14  15
ENDBRANCH  13  14
ENDBRANCH   1  13
TORSDOF 20
ENDMDL
MODEL 5
REMARK VINA RESULT:    -2.430      4.418      8.084
REMARK INTER + INTRA:          -9.632
REMARK INTER:                  -6.383
REMARK INTRA:                  -3.250
REMARK UNBOUND:                -4.362
REMARK SMILES CCCCCCCCCCCCCCCCCCCCCC(=O)[O-]
REMARK SMILES IDX 12 1 11 2 10 3 9 4 8 5 7 6 6 7 5 8 4 9 3 10 2 11 1 12 13 13
REMARK SMILES IDX 14 14 15 15 16 16 17 17 18 18 19 19 20 20 21 21 22 22 23 23
REMARK SMILES IDX 24 24
REMARK H PARENT
REMARK Flexibility Score: inf
ROOT
ATOM      1  C   UNL     1       6.301 -19.446  22.306  1.00  0.00     0.000 C 
ENDROOT
BRANCH   1   2
ATOM      2  C   UNL     1       5.444 -18.372  21.615  1.00  0.00     0.000 C 
BRANCH   2   3
ATOM      3  C   UNL     1       4.603 -18.942  20.462  1.00  0.00     0.000 C 
BRANCH   3   4
ATOM      4  C   UNL     1       4.089 -17.847  19.511  1.00  0.00    -0.000 C 
BRANCH   4   5
ATOM      5  C   UNL     1       2.753 -18.218  18.846  1.00  0.00    -0.000 C 
BRANCH   5   6
ATOM      6  C   UNL     1       2.402 -19.706  19.010  1.00  0.00    -0.000 C 
BRANCH   6   7
ATOM      7  C   UNL     1       0.882 -19.915  19.025  1.00  0.00    -0.000 C 
BRANCH   7   8
ATOM      8  C   UNL     1       0.456 -20.763  20.234  1.00  0.00    -0.000 C 
BRANCH   8   9
ATOM      9  C   UNL     1       1.497 -20.754  21.360  1.00  0.00    -0.000 C 
BRANCH   9  10
ATOM     10  C   UNL     1       0.939 -20.208  22.682  1.00  0.00    -0.000 C 
BRANCH  10  11
ATOM     11  C   UNL     1       0.461 -18.760  22.519  1.00  0.00    -0.003 C 
ATOM     12  C   UNL     1       1.639 -17.798  22.396  1.00  0.00     0.004 C 
ENDBRANCH  10  11
ENDBRANCH   9  10
ENDBRANCH   8   9
ENDBRANCH   7   8
ENDBRANCH   6   7
ENDBRANCH   5   6
ENDBRANCH   4   5
ENDBRANCH   3   4
ENDBRANCH   2   3
ENDBRANCH   1   2
BRANCH   1  13
ATOM     13  C   UNL     1       7.005 -20.387  21.310  1.00  0.00     0.000 C 
BRANCH  13  14
ATOM     14  C   UNL     1       8.259 -19.809  20.630  1.00  0.00     0.000 C 
BRANCH  14  15
ATOM     15  C   UNL     1       8.343 -20.146  19.132  1.00  0.00     0.000 C 
BRANCH  15  16
ATOM     16  C   UNL     1       7.652 -19.095  18.245  1.00  0.00     0.000 C 
BRANCH  16  17
ATOM     17  C   UNL     1       7.692 -17.667  18.827  1.00  0.00     0.000 C 
BRANCH  17  18
ATOM     18  C   UNL     1       8.943 -16.893  18.371  1.00  0.00     0.000 C 
BRANCH  18  19
ATOM     19  C   UNL     1       9.506 -15.974  19.467  1.00  0.00     0.000 C 
BRANCH  19  20
ATOM     20  C   UNL     1      10.236 -16.753  20.572  1.00  0.00     0.006 C 
BRANCH  20  21
ATOM     21  C   UNL     1      11.665 -17.101  20.147  1.00  0.00     0.053 C 
BRANCH  21  22
ATOM     22  C   UNL     1      11.838 -18.585  20.040  1.00  0.00     0.041 C 
ATOM     23  O   UNL     1      12.148 -19.265  21.053  1.00  0.00    -0.550 OA
ATOM     24  O   UNL     1      11.688 -19.213  18.809  1.00  0.00    -0.550 OA
ENDBRANCH  21  22
ENDBRANCH  20  21
ENDBRANCH  19  20
ENDBRANCH  18  19
ENDBRANCH  17  18
ENDBRANCH  16  17
ENDBRANCH  15  16
ENDBRANCH  14  15
ENDBRANCH  13  14
ENDBRANCH   1  13
TORSDOF 20
ENDMDL
MODEL 6
REMARK VINA RESULT:    -2.413      2.534      5.559
REMARK INTER + INTRA:          -9.597
REMARK INTER:                  -5.397
REMARK INTRA:                  -4.200
REMARK UNBOUND:                -4.362
REMARK SMILES CCCCCCCCCCCCCCCCCCCCCC(=O)[O-]
REMARK SMILES IDX 12 1 11 2 10 3 9 4 8 5 7 6 6 7 5 8 4 9 3 10 2 11 1 12 13 13
REMARK SMILES IDX 14 14 15 15 16 16 17 17 18 18 19 19 20 20 21 21 22 22 23 23
REMARK SMILES IDX 24 24
REMARK H PARENT
REMARK Flexibility Score: inf
ROOT
ATOM      1  C   UNL     1       7.358 -18.908  22.662  1.00  0.00     0.000 C 
ENDROOT
BRANCH   1   2
ATOM      2  C   UNL     1       8.103 -20.250  22.565  1.00  0.00     0.000 C 
BRANCH   2   3
ATOM      3  C   UNL     1       8.007 -20.877  21.164  1.00  0.00     0.000 C 
BRANCH   3   4
ATOM      4  C   UNL     1       7.311 -19.950  20.152  1.00  0.00    -0.000 C 
BRANCH   4   5
ATOM      5  C   UNL     1       7.946 -20.017  18.753  1.00  0.00    -0.000 C 
BRANCH   5   6
ATOM      6  C   UNL     1       8.188 -18.627  18.144  1.00  0.00    -0.000 C 
BRANCH   6   7
ATOM      7  C   UNL     1       9.562 -18.079  18.548  1.00  0.00    -0.000 C 
BRANCH   7   8
ATOM      8  C   UNL     1      10.628 -19.185  18.513  1.00  0.00    -0.000 C 
BRANCH   8   9
ATOM      9  C   UNL     1      11.737 -18.973  19.552  1.00  0.00    -0.000 C 
BRANCH   9  10
ATOM     10  C   UNL     1      11.204 -18.932  20.991  1.00  0.00    -0.000 C 
BRANCH  10  11
ATOM     11  C   UNL     1      12.242 -19.483  21.976  1.00  0.00    -0.003 C 
ATOM     12  C   UNL     1      11.729 -19.422  23.412  1.00  0.00     0.004 C 
ENDBRANCH  10  11
ENDBRANCH   9  10
ENDBRANCH   8   9
ENDBRANCH   7   8
ENDBRANCH   6   7
ENDBRANCH   5   6
ENDBRANCH   4   5
ENDBRANCH   3   4
ENDBRANCH   2   3
ENDBRANCH   1   2
BRANCH   1  13
ATOM     13  C   UNL     1       8.298 -17.715  22.920  1.00  0.00     0.000 C 
BRANCH  13  14
ATOM     14  C   UNL     1       8.330 -16.649  21.811  1.00  0.00     0.000 C 
BRANCH  14  15
ATOM     15  C   UNL     1       6.943 -16.348  21.221  1.00  0.00     0.000 C 
BRANCH  15  16
ATOM     16  C   UNL     1       6.981 -15.262  20.130  1.00  0.00     0.000 C 
BRANCH  16  17
ATOM     17  C   UNL     1       8.402 -14.947  19.617  1.00  0.00     0.000 C 
BRANCH  17  18
ATOM     18  C   UNL     1       8.937 -13.618  20.182  1.00  0.00     0.000 C 
BRANCH  18  19
ATOM     19  C   UNL     1      10.472 -13.580  20.258  1.00  0.00     0.000 C 
BRANCH  19  20
ATOM     20  C   UNL     1      11.104 -14.972  20.107  1.00  0.00     0.006 C 
BRANCH  20  21
ATOM     21  C   UNL     1      11.854 -15.376  21.379  1.00  0.00     0.053 C 
BRANCH  21  22
ATOM     22  C   UNL     1      13.334 -15.358  21.149  1.00  0.00     0.041 C 
ATOM     23  O   UNL     1      13.962 -14.268  21.128  1.00  0.00    -0.550 OA
ATOM     24  O   UNL     1      14.015 -16.549  20.925  1.00  0.00    -0.550 OA
ENDBRANCH  21  22
ENDBRANCH  20  21
ENDBRANCH  19  20
ENDBRANCH  18  19
ENDBRANCH  17  18
ENDBRANCH  16  17
ENDBRANCH  15  16
ENDBRANCH  14  15
ENDBRANCH  13  14
ENDBRANCH   1  13
TORSDOF 20
ENDMDL
MODEL 7
REMARK VINA RESULT:    -2.394      3.651      5.915
REMARK INTER + INTRA:          -9.554
REMARK INTER:                  -5.816
REMARK INTRA:                  -3.738
REMARK UNBOUND:                -4.362
REMARK SMILES CCCCCCCCCCCCCCCCCCCCCC(=O)[O-]
REMARK SMILES IDX 12 1 11 2 10 3 9 4 8 5 7 6 6 7 5 8 4 9 3 10 2 11 1 12 13 13
REMARK SMILES IDX 14 14 15 15 16 16 17 17 18 18 19 19 20 20 21 21 22 22 23 23
REMARK SMILES IDX 24 24
REMARK H PARENT
REMARK Flexibility Score: inf
ROOT
ATOM      1  C   UNL     1       7.246 -19.662  22.196  1.00  0.00     0.000 C 
ENDROOT
BRANCH   1   2
ATOM      2  C   UNL     1       7.666 -20.628  21.074  1.00  0.00     0.000 C 
BRANCH   2   3
ATOM      3  C   UNL     1       8.563 -19.954  20.023  1.00  0.00     0.000 C 
BRANCH   3   4
ATOM      4  C   UNL     1       7.951 -19.999  18.612  1.00  0.00    -0.000 C 
BRANCH   4   5
ATOM      5  C   UNL     1       7.983 -18.632  17.908  1.00  0.00    -0.000 C 
BRANCH   5   6
ATOM      6  C   UNL     1       9.158 -17.755  18.368  1.00  0.00    -0.000 C 
BRANCH   6   7
ATOM      7  C   UNL     1       8.686 -16.335  18.707  1.00  0.00    -0.000 C 
BRANCH   7   8
ATOM      8  C   UNL     1       9.548 -15.720  19.822  1.00  0.00    -0.000 C 
BRANCH   8   9
ATOM      9  C   UNL     1      10.835 -16.514  20.080  1.00  0.00    -0.000 C 
BRANCH   9  10
ATOM     10  C   UNL     1      11.207 -16.576  21.569  1.00  0.00    -0.000 C 
BRANCH  10  11
ATOM     11  C   UNL     1      11.631 -17.995  21.969  1.00  0.00    -0.003 C 
ATOM     12  C   UNL     1      11.979 -18.835  20.743  1.00  0.00     0.004 C 
ENDBRANCH  10  11
ENDBRANCH   9  10
ENDBRANCH   8   9
ENDBRANCH   7   8
ENDBRANCH   6   7
ENDBRANCH   5   6
ENDBRANCH   4   5
ENDBRANCH   3   4
ENDBRANCH   2   3
ENDBRANCH   1   2
BRANCH   1  13
ATOM     13  C   UNL     1       7.909 -18.276  22.077  1.00  0.00     0.000 C 
BRANCH  13  14
ATOM     14  C   UNL     1       6.940 -17.096  21.887  1.00  0.00     0.000 C 
BRANCH  14  15
ATOM     15  C   UNL     1       5.813 -17.395  20.885  1.00  0.00     0.000 C 
BRANCH  15  16
ATOM     16  C   UNL     1       5.102 -16.122  20.389  1.00  0.00     0.000 C 
BRANCH  16  17
ATOM     17  C   UNL     1       4.984 -16.035  18.853  1.00  0.00     0.000 C 
BRANCH  17  18
ATOM     18  C   UNL     1       4.663 -17.401  18.221  1.00  0.00     0.000 C 
BRANCH  18  19
ATOM     19  C   UNL     1       3.156 -17.702  18.188  1.00  0.00     0.000 C 
BRANCH  19  20
ATOM     20  C   UNL     1       2.828 -19.117  18.690  1.00  0.00     0.006 C 
BRANCH  20  21
ATOM     21  C   UNL     1       1.587 -19.108  19.586  1.00  0.00     0.053 C 
BRANCH  21  22
ATOM     22  C   UNL     1       0.446 -19.811  18.916  1.00  0.00     0.041 C 
ATOM     23  O   UNL     1      -0.662 -19.232  18.772  1.00  0.00    -0.550 OA
ATOM     24  O   UNL     1       0.599 -21.122  18.481  1.00  0.00    -0.550 OA
ENDBRANCH  21  22
ENDBRANCH  20  21
ENDBRANCH  19  20
ENDBRANCH  18  19
ENDBRANCH  17  18
ENDBRANCH  16  17
ENDBRANCH  15  16
ENDBRANCH  14  15
ENDBRANCH  13  14
ENDBRANCH   1  13
TORSDOF 20
ENDMDL
MODEL 8
REMARK VINA RESULT:    -2.340      2.355      6.089
REMARK INTER + INTRA:          -9.439
REMARK INTER:                  -5.071
REMARK INTRA:                  -4.368
REMARK UNBOUND:                -4.362
REMARK SMILES CCCCCCCCCCCCCCCCCCCCCC(=O)[O-]
REMARK SMILES IDX 12 1 11 2 10 3 9 4 8 5 7 6 6 7 5 8 4 9 3 10 2 11 1 12 13 13
REMARK SMILES IDX 14 14 15 15 16 16 17 17 18 18 19 19 20 20 21 21 22 22 23 23
REMARK SMILES IDX 24 24
REMARK H PARENT
REMARK Flexibility Score: inf
ROOT
ATOM      1  C   UNL     1       8.942 -18.254  23.447  1.00  0.00     0.000 C 
ENDROOT
BRANCH   1   2
ATOM      2  C   UNL     1       8.563 -18.208  21.956  1.00  0.00     0.000 C 
BRANCH   2   3
ATOM      3  C   UNL     1       7.097 -18.602  21.709  1.00  0.00     0.000 C 
BRANCH   3   4
ATOM      4  C   UNL     1       6.923 -19.454  20.440  1.00  0.00    -0.000 C 
BRANCH   4   5
ATOM      5  C   UNL     1       8.265 -19.825  19.786  1.00  0.00    -0.000 C 
BRANCH   5   6
ATOM      6  C   UNL     1       8.288 -19.539  18.276  1.00  0.00    -0.000 C 
BRANCH   6   7
ATOM      7  C   UNL     1       7.411 -18.329  17.929  1.00  0.00    -0.000 C 
BRANCH   7   8
ATOM      8  C   UNL     1       8.228 -17.028  17.969  1.00  0.00    -0.000 C 
BRANCH   8   9
ATOM      9  C   UNL     1       7.655 -15.999  18.952  1.00  0.00    -0.000 C 
BRANCH   9  10
ATOM     10  C   UNL     1       8.742 -15.141  19.616  1.00  0.00    -0.000 C 
BRANCH  10  11
ATOM     11  C   UNL     1       8.118 -14.049  20.494  1.00  0.00    -0.003 C 
ATOM     12  C   UNL     1       9.146 -12.984  20.865  1.00  0.00     0.004 C 
ENDBRANCH  10  11
ENDBRANCH   9  10
ENDBRANCH   8   9
ENDBRANCH   7   8
ENDBRANCH   6   7
ENDBRANCH   5   6
ENDBRANCH   4   5
ENDBRANCH   3   4
ENDBRANCH   2   3
ENDBRANCH   1   2
BRANCH   1  13
ATOM     13  C   UNL     1      10.126 -19.197  23.737  1.00  0.00     0.000 C 
BRANCH  13  14
ATOM     14  C   UNL     1      10.837 -19.765  22.496  1.00  0.00     0.000 C 
BRANCH  14  15
ATOM     15  C   UNL     1      12.360 -19.555  22.524  1.00  0.00     0.000 C 
BRANCH  15  16
ATOM     16  C   UNL     1      12.900 -18.928  21.226  1.00  0.00     0.000 C 
BRANCH  16  17
ATOM     17  C   UNL     1      11.832 -18.766  20.123  1.00  0.00     0.000 C 
BRANCH  17  18
ATOM     18  C   UNL     1      11.444 -17.293  19.908  1.00  0.00     0.000 C 
BRANCH  18  19
ATOM     19  C   UNL     1      12.604 -16.324  20.188  1.00  0.00     0.000 C 
BRANCH  19  20
ATOM     20  C   UNL     1      12.220 -15.217  21.182  1.00  0.00     0.006 C 
BRANCH  20  21
ATOM     21  C   UNL     1      11.299 -15.757  22.278  1.00  0.00     0.053 C 
BRANCH  21  22
ATOM     22  C   UNL     1      12.055 -15.950  23.557  1.00  0.00     0.041 C 
ATOM     23  O   UNL     1      13.300 -16.133  23.539  1.00  0.00    -0.550 OA
ATOM     24  O   UNL     1      11.375 -15.961  24.769  1.00  0.00    -0.550 OA
ENDBRANCH  21  22
ENDBRANCH  20  21
ENDBRANCH  19  20
ENDBRANCH  18  19
ENDBRANCH  17  18
ENDBRANCH  16  17
ENDBRANCH  15  16
ENDBRANCH  14  15
ENDBRANCH  13  14
ENDBRANCH   1  13
TORSDOF 20
ENDMDL
