MODEL 1
REMARK VINA RESULT:    -3.968      0.000      0.000
REMARK INTER + INTRA:          -4.413
REMARK INTER:                  -4.316
REMARK INTRA:                  -0.097
REMARK UNBOUND:                -0.097
REMARK SMILES C[C@H]1[C@H]2C3=CC[C@H]4[C@@]5(C)CC[C@@H](O)C(C)(C)[C@@H]5CC[C@]4(C)[C@]3(C)CC[C@@]2(C(=O)[O-])CC[C@@H]1C
REMARK SMILES IDX 26 1 30 2 25 3 3 4 31 5 24 6 4 7 2 8 32 9 22 10 5 11 1 12
REMARK SMILES IDX 33 13 23 14 20 15 6 16 7 17 19 18 21 19 8 20 18 21 17 22
REMARK SMILES IDX 10 23 9 24 14 25 11 26 12 27 15 28 16 29 27 30 28 31 29 32
REMARK SMILES IDX 13 33
REMARK H PARENT 13 34
REMARK Flexibility Score: inf
ROOT
ATOM      1  C   UNL     1      25.314  28.886  55.222  1.00  0.00     0.017 C 
ATOM      2  C   UNL     1      23.965  28.845  55.985  1.00  0.00     0.014 C 
ATOM      3  C   UNL     1      25.899  30.322  55.232  1.00  0.00     0.014 C 
ATOM      4  C   UNL     1      25.090  28.354  53.761  1.00  0.00     0.030 C 
ATOM      5  C   UNL     1      22.839  29.680  55.350  1.00  0.00     0.004 C 
ATOM      6  C   UNL     1      27.186  30.456  54.392  1.00  0.00     0.013 C 
ATOM      7  C   UNL     1      26.306  28.653  52.848  1.00  0.00    -0.063 C 
ATOM      8  C   UNL     1      23.647  28.579  53.161  1.00  0.00    -0.003 C 
ATOM      9  C   UNL     1      22.876  29.768  53.803  1.00  0.00    -0.011 C 
ATOM     10  C   UNL     1      27.026  30.038  52.889  1.00  0.00    -0.006 C 
ATOM     11  C   UNL     1      26.876  27.565  52.249  1.00  0.00    -0.027 C 
ATOM     12  C   UNL     1      23.625  28.609  51.620  1.00  0.00     0.008 C 
ATOM     13  C   UNL     1      21.439  29.893  53.265  1.00  0.00     0.008 C 
ATOM     14  C   UNL     1      26.134  31.124  52.212  1.00  0.00     0.017 C 
ATOM     15  C   UNL     1      28.453  29.966  52.123  1.00  0.00    -0.020 C 
ATOM     16  C   UNL     1      28.334  27.461  51.866  1.00  0.00     0.032 C 
ATOM     17  C   UNL     1      29.147  28.606  52.504  1.00  0.00     0.006 C 
ATOM     18  C   UNL     1      29.408  31.125  52.536  1.00  0.00     0.008 C 
ATOM     19  C   UNL     1      28.198  30.065  50.571  1.00  0.00     0.012 C 
ATOM     20  C   UNL     1      30.757  28.535  52.425  1.00  0.00    -0.025 C 
ATOM     21  C   UNL     1      30.779  31.096  51.835  1.00  0.00     0.005 C 
ATOM     22  C   UNL     1      31.330  29.675  51.507  1.00  0.00     0.003 C 
ATOM     23  C   UNL     1      31.239  27.167  51.844  1.00  0.00     0.010 C 
ATOM     24  C   UNL     1      31.303  28.654  53.885  1.00  0.00     0.012 C 
ATOM     25  C   UNL     1      32.884  29.634  51.204  1.00  0.00    -0.006 C 
ATOM     26  C   UNL     1      32.755  27.082  51.593  1.00  0.00     0.033 C 
ATOM     27  C   UNL     1      33.263  28.210  50.674  1.00  0.00     0.120 C 
ATOM     28  C   UNL     1      33.789  30.001  52.422  1.00  0.00     0.014 C 
ATOM     29  C   UNL     1      33.208  30.665  50.084  1.00  0.00     0.014 C 
ENDROOT
BRANCH   1  30
ATOM     30  C   UNL     1      26.296  27.990  55.981  1.00  0.00     0.048 C 
ATOM     31  O   UNL     1      26.833  28.397  57.047  1.00  0.00    -0.550 OA
ATOM     32  O   UNL     1      26.674  26.747  55.484  1.00  0.00    -0.550 OA
ENDBRANCH   1  30
BRANCH  27  33
ATOM     33  O   UNL     1      32.742  28.014  49.380  1.00  0.00    -0.393 OA
ATOM     34  H   UNL     1      33.514  27.965  48.759  1.00  0.00     0.210 HD
ENDBRANCH  27  33
TORSDOF 2
ENDMDL
MODEL 2
REMARK VINA RESULT:    -2.576      3.104      7.141
REMARK INTER + INTRA:          -2.899
REMARK INTER:                  -2.783
REMARK INTRA:                  -0.116
REMARK UNBOUND:                -0.097
REMARK SMILES C[C@H]1[C@H]2C3=CC[C@H]4[C@@]5(C)CC[C@@H](O)C(C)(C)[C@@H]5CC[C@]4(C)[C@]3(C)CC[C@@]2(C(=O)[O-])CC[C@@H]1C
REMARK SMILES IDX 26 1 30 2 25 3 3 4 31 5 24 6 4 7 2 8 32 9 22 10 5 11 1 12
REMARK SMILES IDX 33 13 23 14 20 15 6 16 7 17 19 18 21 19 8 20 18 21 17 22
REMARK SMILES IDX 10 23 9 24 14 25 11 26 12 27 15 28 16 29 27 30 28 31 29 32
REMARK SMILES IDX 13 33
REMARK H PARENT 13 34
REMARK Flexibility Score: inf
ROOT
ATOM      1  C   UNL     1      27.098  29.013  49.492  1.00  0.00     0.017 C 
ATOM      2  C   UNL     1      27.370  28.980  47.965  1.00  0.00     0.014 C 
ATOM      3  C   UNL     1      28.293  28.402  50.268  1.00  0.00     0.014 C 
ATOM      4  C   UNL     1      25.756  28.254  49.788  1.00  0.00     0.030 C 
ATOM      5  C   UNL     1      27.487  27.569  47.362  1.00  0.00     0.004 C 
ATOM      6  C   UNL     1      28.038  28.301  51.786  1.00  0.00     0.013 C 
ATOM      7  C   UNL     1      25.576  27.974  51.301  1.00  0.00    -0.063 C 
ATOM      8  C   UNL     1      25.381  27.100  48.777  1.00  0.00    -0.003 C 
ATOM      9  C   UNL     1      26.606  26.488  48.037  1.00  0.00    -0.011 C 
ATOM     10  C   UNL     1      26.767  27.472  52.177  1.00  0.00    -0.006 C 
ATOM     11  C   UNL     1      24.431  28.468  51.861  1.00  0.00    -0.027 C 
ATOM     12  C   UNL     1      24.452  26.033  49.386  1.00  0.00     0.008 C 
ATOM     13  C   UNL     1      26.193  25.439  46.988  1.00  0.00     0.008 C 
ATOM     14  C   UNL     1      27.082  25.980  51.845  1.00  0.00     0.017 C 
ATOM     15  C   UNL     1      26.415  27.604  53.754  1.00  0.00    -0.020 C 
ATOM     16  C   UNL     1      24.295  28.891  53.305  1.00  0.00     0.032 C 
ATOM     17  C   UNL     1      25.680  28.977  53.980  1.00  0.00     0.006 C 
ATOM     18  C   UNL     1      27.689  27.588  54.650  1.00  0.00     0.008 C 
ATOM     19  C   UNL     1      25.503  26.388  54.171  1.00  0.00     0.012 C 
ATOM     20  C   UNL     1      25.776  29.650  55.443  1.00  0.00    -0.025 C 
ATOM     21  C   UNL     1      27.404  27.715  56.159  1.00  0.00     0.005 C 
ATOM     22  C   UNL     1      26.166  28.586  56.532  1.00  0.00     0.003 C 
ATOM     23  C   UNL     1      24.414  30.288  55.867  1.00  0.00     0.010 C 
ATOM     24  C   UNL     1      26.836  30.795  55.363  1.00  0.00     0.012 C 
ATOM     25  C   UNL     1      26.140  29.066  58.041  1.00  0.00    -0.006 C 
ATOM     26  C   UNL     1      24.381  30.814  57.313  1.00  0.00     0.033 C 
ATOM     27  C   UNL     1      24.753  29.728  58.342  1.00  0.00     0.120 C 
ATOM     28  C   UNL     1      27.289  30.051  58.424  1.00  0.00     0.014 C 
ATOM     29  C   UNL     1      26.290  27.825  58.969  1.00  0.00     0.014 C 
ENDROOT
BRANCH   1  30
ATOM     30  C   UNL     1      26.992  30.484  49.905  1.00  0.00     0.048 C 
ATOM     31  O   UNL     1      28.025  31.125  50.240  1.00  0.00    -0.550 OA
ATOM     32  O   UNL     1      25.760  31.124  49.991  1.00  0.00    -0.550 OA
ENDBRANCH   1  30
BRANCH  27  33
ATOM     33  O   UNL     1      23.738  28.753  58.363  1.00  0.00    -0.393 OA
ATOM     34  H   UNL     1      23.775  28.273  57.495  1.00  0.00     0.210 HD
ENDBRANCH  27  33
TORSDOF 2
ENDMDL
