MODEL 1
REMARK VINA RESULT:    -3.448      0.000      0.000
REMARK INTER + INTRA:          -6.547
REMARK INTER:                  -5.463
REMARK INTRA:                  -1.084
REMARK UNBOUND:                -1.084
REMARK SMILES CCCCCCCCCCCC(=O)[O-]
REMARK SMILES IDX 7 1 8 2 9 3 10 4 11 5 12 6 13 7 14 8 6 9 5 10 4 11 3 12 2 13
REMARK SMILES IDX 1 14
REMARK H PARENT
REMARK Flexibility Score: inf
ROOT
ATOM      1  C   UNL     1      60.833  31.022  59.463  1.00  0.00     0.000 C 
ENDROOT
BRANCH   1   2
ATOM      2  C   UNL     1      60.449  30.764  60.931  1.00  0.00     0.000 C 
BRANCH   2   3
ATOM      3  C   UNL     1      61.675  30.572  61.837  1.00  0.00     0.000 C 
BRANCH   3   4
ATOM      4  C   UNL     1      62.896  30.025  61.077  1.00  0.00     0.006 C 
BRANCH   4   5
ATOM      5  C   UNL     1      64.120  30.940  61.211  1.00  0.00     0.053 C 
BRANCH   5   6
ATOM      6  C   UNL     1      65.080  30.759  60.075  1.00  0.00     0.041 C 
ATOM      7  O   UNL     1      65.234  31.674  59.224  1.00  0.00    -0.550 OA
ATOM      8  O   UNL     1      65.826  29.592  59.972  1.00  0.00    -0.550 OA
ENDBRANCH   5   6
ENDBRANCH   4   5
ENDBRANCH   3   4
ENDBRANCH   2   3
ENDBRANCH   1   2
BRANCH   1   9
ATOM      9  C   UNL     1      60.560  32.472  59.028  1.00  0.00     0.000 C 
BRANCH   9  10
ATOM     10  C   UNL     1      61.730  33.417  59.352  1.00  0.00    -0.000 C 
BRANCH  10  11
ATOM     11  C   UNL     1      61.372  34.450  60.434  1.00  0.00    -0.000 C 
BRANCH  11  12
ATOM     12  C   UNL     1      62.571  35.328  60.833  1.00  0.00    -0.000 C 
BRANCH  12  13
ATOM     13  C   UNL     1      63.872  34.520  60.968  1.00  0.00    -0.003 C 
ATOM     14  C   UNL     1      64.986  35.301  61.668  1.00  0.00     0.004 C 
ENDBRANCH  12  13
ENDBRANCH  11  12
ENDBRANCH  10  11
ENDBRANCH   9  10
ENDBRANCH   1   9
TORSDOF 10
ENDMDL
MODEL 2
REMARK VINA RESULT:    -3.372      2.773      4.095
REMARK INTER + INTRA:          -6.427
REMARK INTER:                  -5.426
REMARK INTRA:                  -1.002
REMARK UNBOUND:                -1.084
REMARK SMILES CCCCCCCCCCCC(=O)[O-]
REMARK SMILES IDX 7 1 8 2 9 3 10 4 11 5 12 6 13 7 14 8 6 9 5 10 4 11 3 12 2 13
REMARK SMILES IDX 1 14
REMARK H PARENT
REMARK Flexibility Score: inf
ROOT
ATOM      1  C   UNL     1      64.372  31.221  60.883  1.00  0.00     0.000 C 
ENDROOT
BRANCH   1   2
ATOM      2  C   UNL     1      63.038  30.549  60.511  1.00  0.00     0.000 C 
BRANCH   2   3
ATOM      3  C   UNL     1      62.137  30.310  61.734  1.00  0.00     0.000 C 
BRANCH   3   4
ATOM      4  C   UNL     1      60.772  31.010  61.611  1.00  0.00     0.006 C 
BRANCH   4   5
ATOM      5  C   UNL     1      60.221  30.958  60.180  1.00  0.00     0.053 C 
BRANCH   5   6
ATOM      6  C   UNL     1      59.418  29.718  59.936  1.00  0.00     0.041 C 
ATOM      7  O   UNL     1      58.836  29.141  60.892  1.00  0.00    -0.550 OA
ATOM      8  O   UNL     1      59.285  29.216  58.647  1.00  0.00    -0.550 OA
ENDBRANCH   5   6
ENDBRANCH   4   5
ENDBRANCH   3   4
ENDBRANCH   2   3
ENDBRANCH   1   2
BRANCH   1   9
ATOM      9  C   UNL     1      64.602  32.538  60.122  1.00  0.00     0.000 C 
BRANCH   9  10
ATOM     10  C   UNL     1      63.352  33.435  60.101  1.00  0.00    -0.000 C 
BRANCH  10  11
ATOM     11  C   UNL     1      63.555  34.750  60.873  1.00  0.00    -0.000 C 
BRANCH  11  12
ATOM     12  C   UNL     1      62.270  35.592  60.954  1.00  0.00    -0.000 C 
BRANCH  12  13
ATOM     13  C   UNL     1      61.054  34.871  60.349  1.00  0.00    -0.003 C 
ATOM     14  C   UNL     1      60.014  35.836  59.780  1.00  0.00     0.004 C 
ENDBRANCH  12  13
ENDBRANCH  11  12
ENDBRANCH  10  11
ENDBRANCH   9  10
ENDBRANCH   1   9
TORSDOF 10
ENDMDL
MODEL 3
REMARK VINA RESULT:    -3.296      2.506      4.593
REMARK INTER + INTRA:          -6.306
REMARK INTER:                  -4.783
REMARK INTRA:                  -1.523
REMARK UNBOUND:                -1.084
REMARK SMILES CCCCCCCCCCCC(=O)[O-]
REMARK SMILES IDX 7 1 8 2 9 3 10 4 11 5 12 6 13 7 14 8 6 9 5 10 4 11 3 12 2 13
REMARK SMILES IDX 1 14
REMARK H PARENT
REMARK Flexibility Score: inf
ROOT
ATOM      1  C   UNL     1      60.370  30.865  60.392  1.00  0.00     0.000 C 
ENDROOT
BRANCH   1   2
ATOM      2  C   UNL     1      60.734  32.089  59.532  1.00  0.00     0.000 C 
BRANCH   2   3
ATOM      3  C   UNL     1      61.333  33.236  60.362  1.00  0.00     0.000 C 
BRANCH   3   4
ATOM      4  C   UNL     1      62.660  33.757  59.783  1.00  0.00     0.006 C 
BRANCH   4   5
ATOM      5  C   UNL     1      63.583  34.325  60.870  1.00  0.00     0.053 C 
BRANCH   5   6
ATOM      6  C   UNL     1      63.478  35.816  60.969  1.00  0.00     0.041 C 
ATOM      7  O   UNL     1      64.479  36.539  60.724  1.00  0.00    -0.550 OA
ATOM      8  O   UNL     1      62.266  36.409  61.304  1.00  0.00    -0.550 OA
ENDBRANCH   5   6
ENDBRANCH   4   5
ENDBRANCH   3   4
ENDBRANCH   2   3
ENDBRANCH   1   2
BRANCH   1   9
ATOM      9  C   UNL     1      61.173  30.805  61.702  1.00  0.00     0.000 C 
BRANCH   9  10
ATOM     10  C   UNL     1      62.375  29.848  61.615  1.00  0.00    -0.000 C 
BRANCH  10  11
ATOM     11  C   UNL     1      63.715  30.592  61.497  1.00  0.00    -0.000 C 
BRANCH  11  12
ATOM     12  C   UNL     1      64.571  30.085  60.323  1.00  0.00    -0.000 C 
BRANCH  12  13
ATOM     13  C   UNL     1      63.816  30.123  58.984  1.00  0.00    -0.003 C 
ATOM     14  C   UNL     1      64.475  31.045  57.957  1.00  0.00     0.004 C 
ENDBRANCH  12  13
ENDBRANCH  11  12
ENDBRANCH  10  11
ENDBRANCH   9  10
ENDBRANCH   1   9
TORSDOF 10
ENDMDL
MODEL 4
REMARK VINA RESULT:    -3.289     11.227     12.684
REMARK INTER + INTRA:          -6.295
REMARK INTER:                  -4.905
REMARK INTRA:                  -1.390
REMARK UNBOUND:                -1.084
REMARK SMILES CCCCCCCCCCCC(=O)[O-]
REMARK SMILES IDX 7 1 8 2 9 3 10 4 11 5 12 6 13 7 14 8 6 9 5 10 4 11 3 12 2 13
REMARK SMILES IDX 1 14
REMARK H PARENT
REMARK Flexibility Score: inf
ROOT
ATOM      1  C   UNL     1      59.320  27.933  49.188  1.00  0.00     0.000 C 
ENDROOT
BRANCH   1   2
ATOM      2  C   UNL     1      60.731  27.599  49.703  1.00  0.00     0.000 C 
BRANCH   2   3
ATOM      3  C   UNL     1      60.781  26.266  50.468  1.00  0.00     0.000 C 
BRANCH   3   4
ATOM      4  C   UNL     1      59.567  25.368  50.174  1.00  0.00     0.006 C 
BRANCH   4   5
ATOM      5  C   UNL     1      59.389  24.271  51.231  1.00  0.00     0.053 C 
BRANCH   5   6
ATOM      6  C   UNL     1      60.353  23.142  51.032  1.00  0.00     0.041 C 
ATOM      7  O   UNL     1      60.659  22.767  49.869  1.00  0.00    -0.550 OA
ATOM      8  O   UNL     1      60.937  22.521  52.130  1.00  0.00    -0.550 OA
ENDBRANCH   5   6
ENDBRANCH   4   5
ENDBRANCH   3   4
ENDBRANCH   2   3
ENDBRANCH   1   2
BRANCH   1   9
ATOM      9  C   UNL     1      58.854  29.336  49.613  1.00  0.00     0.000 C 
BRANCH   9  10
ATOM     10  C   UNL     1      57.567  29.302  50.455  1.00  0.00    -0.000 C 
BRANCH  10  11
ATOM     11  C   UNL     1      57.739  28.515  51.765  1.00  0.00    -0.000 C 
BRANCH  11  12
ATOM     12  C   UNL     1      56.700  27.392  51.921  1.00  0.00    -0.000 C 
BRANCH  12  13
ATOM     13  C   UNL     1      55.796  27.250  50.685  1.00  0.00    -0.003 C 
ATOM     14  C   UNL     1      55.812  25.839  50.096  1.00  0.00     0.004 C 
ENDBRANCH  12  13
ENDBRANCH  11  12
ENDBRANCH  10  11
ENDBRANCH   9  10
ENDBRANCH   1   9
TORSDOF 10
ENDMDL
MODEL 5
REMARK VINA RESULT:    -3.277      2.194      4.289
REMARK INTER + INTRA:          -6.278
REMARK INTER:                  -4.809
REMARK INTRA:                  -1.469
REMARK UNBOUND:                -1.084
REMARK SMILES CCCCCCCCCCCC(=O)[O-]
REMARK SMILES IDX 7 1 8 2 9 3 10 4 11 5 12 6 13 7 14 8 6 9 5 10 4 11 3 12 2 13
REMARK SMILES IDX 1 14
REMARK H PARENT
REMARK Flexibility Score: inf
ROOT
ATOM      1  C   UNL     1      61.365  32.092  58.495  1.00  0.00     0.000 C 
ENDROOT
BRANCH   1   2
ATOM      2  C   UNL     1      61.268  33.388  59.319  1.00  0.00     0.000 C 
BRANCH   2   3
ATOM      3  C   UNL     1      62.610  34.133  59.407  1.00  0.00     0.000 C 
BRANCH   3   4
ATOM      4  C   UNL     1      62.922  34.629  60.829  1.00  0.00     0.006 C 
BRANCH   4   5
ATOM      5  C   UNL     1      64.392  34.411  61.210  1.00  0.00     0.053 C 
BRANCH   5   6
ATOM      6  C   UNL     1      65.157  35.698  61.245  1.00  0.00     0.041 C 
ATOM      7  O   UNL     1      65.020  36.491  62.213  1.00  0.00    -0.550 OA
ATOM      8  O   UNL     1      66.045  36.009  60.222  1.00  0.00    -0.550 OA
ENDBRANCH   5   6
ENDBRANCH   4   5
ENDBRANCH   3   4
ENDBRANCH   2   3
ENDBRANCH   1   2
BRANCH   1   9
ATOM      9  C   UNL     1      60.967  30.846  59.306  1.00  0.00     0.000 C 
BRANCH   9  10
ATOM     10  C   UNL     1      60.528  31.189  60.739  1.00  0.00    -0.000 C 
BRANCH  10  11
ATOM     11  C   UNL     1      61.535  30.706  61.797  1.00  0.00    -0.000 C 
BRANCH  11  12
ATOM     12  C   UNL     1      62.717  29.940  61.181  1.00  0.00    -0.000 C 
BRANCH  12  13
ATOM     13  C   UNL     1      64.038  30.723  61.270  1.00  0.00    -0.003 C 
ATOM     14  C   UNL     1      64.683  30.957  59.903  1.00  0.00     0.004 C 
ENDBRANCH  12  13
ENDBRANCH  11  12
ENDBRANCH  10  11
ENDBRANCH   9  10
ENDBRANCH   1   9
TORSDOF 10
ENDMDL
MODEL 6
REMARK VINA RESULT:    -3.275      2.417      4.273
REMARK INTER + INTRA:          -6.275
REMARK INTER:                  -4.983
REMARK INTRA:                  -1.291
REMARK UNBOUND:                -1.084
REMARK SMILES CCCCCCCCCCCC(=O)[O-]
REMARK SMILES IDX 7 1 8 2 9 3 10 4 11 5 12 6 13 7 14 8 6 9 5 10 4 11 3 12 2 13
REMARK SMILES IDX 1 14
REMARK H PARENT
REMARK Flexibility Score: inf
ROOT
ATOM      1  C   UNL     1      64.489  34.523  61.263  1.00  0.00     0.000 C 
ENDROOT
BRANCH   1   2
ATOM      2  C   UNL     1      64.219  33.092  60.765  1.00  0.00     0.000 C 
BRANCH   2   3
ATOM      3  C   UNL     1      63.476  33.066  59.420  1.00  0.00     0.000 C 
BRANCH   3   4
ATOM      4  C   UNL     1      62.221  32.177  59.451  1.00  0.00     0.006 C 
BRANCH   4   5
ATOM      5  C   UNL     1      61.538  32.187  60.825  1.00  0.00     0.053 C 
BRANCH   5   6
ATOM      6  C   UNL     1      61.291  30.801  61.336  1.00  0.00     0.041 C 
ATOM      7  O   UNL     1      62.234  30.133  61.838  1.00  0.00    -0.550 OA
ATOM      8  O   UNL     1      60.014  30.257  61.287  1.00  0.00    -0.550 OA
ENDBRANCH   5   6
ENDBRANCH   4   5
ENDBRANCH   3   4
ENDBRANCH   2   3
ENDBRANCH   1   2
BRANCH   1   9
ATOM      9  C   UNL     1      63.724  35.584  60.454  1.00  0.00     0.000 C 
BRANCH   9  10
ATOM     10  C   UNL     1      63.028  36.623  61.350  1.00  0.00    -0.000 C 
BRANCH  10  11
ATOM     11  C   UNL     1      61.580  36.903  60.915  1.00  0.00    -0.000 C 
BRANCH  11  12
ATOM     12  C   UNL     1      60.849  35.635  60.440  1.00  0.00    -0.000 C 
BRANCH  12  13
ATOM     13  C   UNL     1      60.547  35.659  58.933  1.00  0.00    -0.003 C 
ATOM     14  C   UNL     1      59.334  34.807  58.557  1.00  0.00     0.004 C 
ENDBRANCH  12  13
ENDBRANCH  11  12
ENDBRANCH  10  11
ENDBRANCH   9  10
ENDBRANCH   1   9
TORSDOF 10
ENDMDL
MODEL 7
REMARK VINA RESULT:    -3.253     11.305     13.334
REMARK INTER + INTRA:          -6.239
REMARK INTER:                  -5.196
REMARK INTRA:                  -1.044
REMARK UNBOUND:                -1.084
REMARK SMILES CCCCCCCCCCCC(=O)[O-]
REMARK SMILES IDX 7 1 8 2 9 3 10 4 11 5 12 6 13 7 14 8 6 9 5 10 4 11 3 12 2 13
REMARK SMILES IDX 1 14
REMARK H PARENT
REMARK Flexibility Score: inf
ROOT
ATOM      1  C   UNL     1      56.414  29.296  50.829  1.00  0.00     0.000 C 
ENDROOT
BRANCH   1   2
ATOM      2  C   UNL     1      57.901  28.924  50.968  1.00  0.00     0.000 C 
BRANCH   2   3
ATOM      3  C   UNL     1      58.685  29.132  49.662  1.00  0.00     0.000 C 
BRANCH   3   4
ATOM      4  C   UNL     1      59.595  27.940  49.319  1.00  0.00     0.006 C 
BRANCH   4   5
ATOM      5  C   UNL     1      59.119  26.640  49.980  1.00  0.00     0.053 C 
BRANCH   5   6
ATOM      6  C   UNL     1      60.169  26.048  50.870  1.00  0.00     0.041 C 
ATOM      7  O   UNL     1      60.911  25.122  50.447  1.00  0.00    -0.550 OA
ATOM      8  O   UNL     1      60.351  26.540  52.157  1.00  0.00    -0.550 OA
ENDBRANCH   5   6
ENDBRANCH   4   5
ENDBRANCH   3   4
ENDBRANCH   2   3
ENDBRANCH   1   2
BRANCH   1   9
ATOM      9  C   UNL     1      55.518  28.067  50.599  1.00  0.00     0.000 C 
BRANCH   9  10
ATOM     10  C   UNL     1      55.760  26.956  51.635  1.00  0.00    -0.000 C 
BRANCH  10  11
ATOM     11  C   UNL     1      55.685  25.548  51.020  1.00  0.00    -0.000 C 
BRANCH  11  12
ATOM     12  C   UNL     1      54.985  25.538  49.649  1.00  0.00    -0.000 C 
BRANCH  12  13
ATOM     13  C   UNL     1      53.574  24.931  49.713  1.00  0.00    -0.003 C 
ATOM     14  C   UNL     1      53.323  24.147  51.002  1.00  0.00     0.004 C 
ENDBRANCH  12  13
ENDBRANCH  11  12
ENDBRANCH  10  11
ENDBRANCH   9  10
ENDBRANCH   1   9
TORSDOF 10
ENDMDL
MODEL 8
REMARK VINA RESULT:    -3.246     11.624     13.608
REMARK INTER + INTRA:          -6.228
REMARK INTER:                  -5.049
REMARK INTRA:                  -1.179
REMARK UNBOUND:                -1.084
REMARK SMILES CCCCCCCCCCCC(=O)[O-]
REMARK SMILES IDX 7 1 8 2 9 3 10 4 11 5 12 6 13 7 14 8 6 9 5 10 4 11 3 12 2 13
REMARK SMILES IDX 1 14
REMARK H PARENT
REMARK Flexibility Score: inf
ROOT
ATOM      1  C   UNL     1      58.548  29.099  51.368  1.00  0.00     0.000 C 
ENDROOT
BRANCH   1   2
ATOM      2  C   UNL     1      57.089  29.158  51.856  1.00  0.00     0.000 C 
BRANCH   2   3
ATOM      3  C   UNL     1      56.082  28.807  50.749  1.00  0.00     0.000 C 
BRANCH   3   4
ATOM      4  C   UNL     1      55.168  27.630  51.129  1.00  0.00     0.006 C 
BRANCH   4   5
ATOM      5  C   UNL     1      54.092  27.366  50.068  1.00  0.00     0.053 C 
BRANCH   5   6
ATOM      6  C   UNL     1      53.988  25.910  49.728  1.00  0.00     0.041 C 
ATOM      7  O   UNL     1      53.175  25.521  48.848  1.00  0.00    -0.550 OA
ATOM      8  O   UNL     1      54.810  24.986  50.361  1.00  0.00    -0.550 OA
ENDBRANCH   5   6
ENDBRANCH   4   5
ENDBRANCH   3   4
ENDBRANCH   2   3
ENDBRANCH   1   2
BRANCH   1   9
ATOM      9  C   UNL     1      58.674  29.337  49.854  1.00  0.00     0.000 C 
BRANCH   9  10
ATOM     10  C   UNL     1      59.218  28.109  49.105  1.00  0.00    -0.000 C 
BRANCH  10  11
ATOM     11  C   UNL     1      60.480  27.527  49.765  1.00  0.00    -0.000 C 
BRANCH  11  12
ATOM     12  C   UNL     1      60.304  26.057  50.184  1.00  0.00    -0.000 C 
BRANCH  12  13
ATOM     13  C   UNL     1      58.858  25.564  50.008  1.00  0.00    -0.003 C 
ATOM     14  C   UNL     1      58.162  25.282  51.340  1.00  0.00     0.004 C 
ENDBRANCH  12  13
ENDBRANCH  11  12
ENDBRANCH  10  11
ENDBRANCH   9  10
ENDBRANCH   1   9
TORSDOF 10
ENDMDL
MODEL 9
REMARK VINA RESULT:    -3.221     11.193     12.979
REMARK INTER + INTRA:          -6.188
REMARK INTER:                  -4.806
REMARK INTRA:                  -1.381
REMARK UNBOUND:                -1.084
REMARK SMILES CCCCCCCCCCCC(=O)[O-]
REMARK SMILES IDX 7 1 8 2 9 3 10 4 11 5 12 6 13 7 14 8 6 9 5 10 4 11 3 12 2 13
REMARK SMILES IDX 1 14
REMARK H PARENT
REMARK Flexibility Score: inf
ROOT
ATOM      1  C   UNL     1      59.155  25.504  50.339  1.00  0.00     0.000 C 
ENDROOT
BRANCH   1   2
ATOM      2  C   UNL     1      58.525  25.376  51.737  1.00  0.00     0.000 C 
BRANCH   2   3
ATOM      3  C   UNL     1      56.989  25.416  51.698  1.00  0.00     0.000 C 
BRANCH   3   4
ATOM      4  C   UNL     1      56.441  25.881  50.338  1.00  0.00     0.006 C 
BRANCH   4   5
ATOM      5  C   UNL     1      55.752  27.249  50.428  1.00  0.00     0.053 C 
BRANCH   5   6
ATOM      6  C   UNL     1      54.313  27.177  50.019  1.00  0.00     0.041 C 
ATOM      7  O   UNL     1      53.605  28.219  50.005  1.00  0.00    -0.550 OA
ATOM      8  O   UNL     1      53.759  25.965  49.625  1.00  0.00    -0.550 OA
ENDBRANCH   5   6
ENDBRANCH   4   5
ENDBRANCH   3   4
ENDBRANCH   2   3
ENDBRANCH   1   2
BRANCH   1   9
ATOM      9  C   UNL     1      60.571  26.104  50.382  1.00  0.00     0.000 C 
BRANCH   9  10
ATOM     10  C   UNL     1      60.650  27.482  49.703  1.00  0.00    -0.000 C 
BRANCH  10  11
ATOM     11  C   UNL     1      59.273  28.000  49.255  1.00  0.00    -0.000 C 
BRANCH  11  12
ATOM     12  C   UNL     1      58.860  29.289  49.987  1.00  0.00    -0.000 C 
BRANCH  12  13
ATOM     13  C   UNL     1      58.819  29.112  51.514  1.00  0.00    -0.003 C 
ATOM     14  C   UNL     1      59.763  30.065  52.248  1.00  0.00     0.004 C 
ENDBRANCH  12  13
ENDBRANCH  11  12
ENDBRANCH  10  11
ENDBRANCH   9  10
ENDBRANCH   1   9
TORSDOF 10
ENDMDL
