MODEL 1
REMARK VINA RESULT:    -5.114      0.000      0.000
REMARK INTER + INTRA:         -10.660
REMARK INTER:                  -8.701
REMARK INTRA:                  -1.959
REMARK UNBOUND:                -1.959
REMARK SMILES CCCCCCCCCCCCCC(=O)[O-]
REMARK SMILES IDX 8 1 9 2 10 3 11 4 12 5 13 6 14 7 15 8 16 9 7 10 6 11 5 12
REMARK SMILES IDX 4 13 3 14 2 15 1 16
REMARK H PARENT
REMARK Flexibility Score: inf
ROOT
ATOM      1  C   UNL     1     -30.072  -1.390  21.147  1.00  0.00     0.000 C 
ENDROOT
BRANCH   1   2
ATOM      2  C   UNL     1     -30.701  -1.853  22.473  1.00  0.00     0.000 C 
BRANCH   2   3
ATOM      3  C   UNL     1     -31.522  -0.749  23.164  1.00  0.00     0.000 C 
BRANCH   3   4
ATOM      4  C   UNL     1     -30.808   0.610  23.287  1.00  0.00     0.000 C 
BRANCH   4   5
ATOM      5  C   UNL     1     -29.897   0.697  24.524  1.00  0.00     0.006 C 
BRANCH   5   6
ATOM      6  C   UNL     1     -30.511  -0.000  25.746  1.00  0.00     0.053 C 
BRANCH   6   7
ATOM      7  C   UNL     1     -29.786   0.351  27.009  1.00  0.00     0.041 C 
ATOM      8  O   UNL     1     -30.189   1.304  27.728  1.00  0.00    -0.550 OA
ATOM      9  O   UNL     1     -28.683  -0.392  27.409  1.00  0.00    -0.550 OA
ENDBRANCH   6   7
ENDBRANCH   5   6
ENDBRANCH   4   5
ENDBRANCH   3   4
ENDBRANCH   2   3
ENDBRANCH   1   2
BRANCH   1  10
ATOM     10  C   UNL     1     -28.848  -2.232  20.752  1.00  0.00     0.000 C 
BRANCH  10  11
ATOM     11  C   UNL     1     -27.530  -1.447  20.874  1.00  0.00    -0.000 C 
BRANCH  11  12
ATOM     12  C   UNL     1     -27.733  -0.036  21.450  1.00  0.00    -0.000 C 
BRANCH  12  13
ATOM     13  C   UNL     1     -26.954   0.187  22.757  1.00  0.00    -0.000 C 
BRANCH  13  14
ATOM     14  C   UNL     1     -26.365  -1.125  23.315  1.00  0.00    -0.000 C 
BRANCH  14  15
ATOM     15  C   UNL     1     -27.006  -1.572  24.640  1.00  0.00    -0.003 C 
ATOM     16  C   UNL     1     -28.106  -2.613  24.451  1.00  0.00     0.004 C 
ENDBRANCH  14  15
ENDBRANCH  13  14
ENDBRANCH  12  13
ENDBRANCH  11  12
ENDBRANCH  10  11
ENDBRANCH   1  10
TORSDOF 12
ENDMDL
MODEL 2
REMARK VINA RESULT:    -5.077      3.015      4.843
REMARK INTER + INTRA:         -10.598
REMARK INTER:                  -8.712
REMARK INTRA:                  -1.886
REMARK UNBOUND:                -1.959
REMARK SMILES CCCCCCCCCCCCCC(=O)[O-]
REMARK SMILES IDX 8 1 9 2 10 3 11 4 12 5 13 6 14 7 15 8 16 9 7 10 6 11 5 12
REMARK SMILES IDX 4 13 3 14 2 15 1 16
REMARK H PARENT
REMARK Flexibility Score: inf
ROOT
ATOM      1  C   UNL     1     -28.817   1.416  22.322  1.00  0.00     0.000 C 
ENDROOT
BRANCH   1   2
ATOM      2  C   UNL     1     -29.875   1.187  23.415  1.00  0.00     0.000 C 
BRANCH   2   3
ATOM      3  C   UNL     1     -31.071   0.351  22.923  1.00  0.00     0.000 C 
BRANCH   3   4
ATOM      4  C   UNL     1     -30.873  -1.174  23.001  1.00  0.00     0.000 C 
BRANCH   4   5
ATOM      5  C   UNL     1     -30.443  -1.790  21.658  1.00  0.00     0.006 C 
BRANCH   5   6
ATOM      6  C   UNL     1     -28.977  -2.244  21.672  1.00  0.00     0.053 C 
BRANCH   6   7
ATOM      7  C   UNL     1     -28.336  -2.096  20.325  1.00  0.00     0.041 C 
ATOM      8  O   UNL     1     -27.194  -1.576  20.220  1.00  0.00    -0.550 OA
ATOM      9  O   UNL     1     -28.988  -2.559  19.189  1.00  0.00    -0.550 OA
ENDBRANCH   6   7
ENDBRANCH   5   6
ENDBRANCH   4   5
ENDBRANCH   3   4
ENDBRANCH   2   3
ENDBRANCH   1   2
BRANCH   1  10
ATOM     10  C   UNL     1     -27.440   0.854  22.710  1.00  0.00     0.000 C 
BRANCH  10  11
ATOM     11  C   UNL     1     -27.313   0.600  24.222  1.00  0.00    -0.000 C 
BRANCH  11  12
ATOM     12  C   UNL     1     -27.095  -0.884  24.556  1.00  0.00    -0.000 C 
BRANCH  12  13
ATOM     13  C   UNL     1     -28.277  -1.498  25.327  1.00  0.00    -0.000 C 
BRANCH  13  14
ATOM     14  C   UNL     1     -28.592  -0.721  26.623  1.00  0.00    -0.000 C 
BRANCH  14  15
ATOM     15  C   UNL     1     -30.006  -0.115  26.647  1.00  0.00    -0.003 C 
ATOM     16  C   UNL     1     -30.114   1.118  27.541  1.00  0.00     0.004 C 
ENDBRANCH  14  15
ENDBRANCH  13  14
ENDBRANCH  12  13
ENDBRANCH  11  12
ENDBRANCH  10  11
ENDBRANCH   1  10
TORSDOF 12
ENDMDL
MODEL 3
REMARK VINA RESULT:    -5.075      0.972      2.937
REMARK INTER + INTRA:         -10.595
REMARK INTER:                  -8.793
REMARK INTRA:                  -1.801
REMARK UNBOUND:                -1.959
REMARK SMILES CCCCCCCCCCCCCC(=O)[O-]
REMARK SMILES IDX 8 1 9 2 10 3 11 4 12 5 13 6 14 7 15 8 16 9 7 10 6 11 5 12
REMARK SMILES IDX 4 13 3 14 2 15 1 16
REMARK H PARENT
REMARK Flexibility Score: inf
ROOT
ATOM      1  C   UNL     1     -27.931  -2.242  24.571  1.00  0.00     0.000 C 
ENDROOT
BRANCH   1   2
ATOM      2  C   UNL     1     -29.056  -2.718  23.637  1.00  0.00     0.000 C 
BRANCH   2   3
ATOM      3  C   UNL     1     -30.447  -2.221  24.073  1.00  0.00     0.000 C 
BRANCH   3   4
ATOM      4  C   UNL     1     -30.796  -0.792  23.619  1.00  0.00     0.000 C 
BRANCH   4   5
ATOM      5  C   UNL     1     -30.556   0.260  24.716  1.00  0.00     0.006 C 
BRANCH   5   6
ATOM      6  C   UNL     1     -30.547  -0.360  26.121  1.00  0.00     0.053 C 
BRANCH   6   7
ATOM      7  C   UNL     1     -29.694   0.426  27.070  1.00  0.00     0.041 C 
ATOM      8  O   UNL     1     -28.489   0.107  27.251  1.00  0.00    -0.550 OA
ATOM      9  O   UNL     1     -30.222   1.527  27.732  1.00  0.00    -0.550 OA
ENDBRANCH   6   7
ENDBRANCH   5   6
ENDBRANCH   4   5
ENDBRANCH   3   4
ENDBRANCH   2   3
ENDBRANCH   1   2
BRANCH   1  10
ATOM     10  C   UNL     1     -26.781  -1.566  23.809  1.00  0.00     0.000 C 
BRANCH  10  11
ATOM     11  C   UNL     1     -26.917  -0.033  23.776  1.00  0.00    -0.000 C 
BRANCH  11  12
ATOM     12  C   UNL     1     -27.459   0.483  22.434  1.00  0.00    -0.000 C 
BRANCH  12  13
ATOM     13  C   UNL     1     -27.533  -0.618  21.362  1.00  0.00    -0.000 C 
BRANCH  13  14
ATOM     14  C   UNL     1     -28.768  -0.462  20.450  1.00  0.00    -0.000 C 
BRANCH  14  15
ATOM     15  C   UNL     1     -29.562  -1.765  20.262  1.00  0.00    -0.003 C 
ATOM     16  C   UNL     1     -29.018  -2.642  19.138  1.00  0.00     0.004 C 
ENDBRANCH  14  15
ENDBRANCH  13  14
ENDBRANCH  12  13
ENDBRANCH  11  12
ENDBRANCH  10  11
ENDBRANCH   1  10
TORSDOF 12
ENDMDL
MODEL 4
REMARK VINA RESULT:    -4.971      2.995      4.991
REMARK INTER + INTRA:         -10.418
REMARK INTER:                  -8.421
REMARK INTRA:                  -1.997
REMARK UNBOUND:                -1.959
REMARK SMILES CCCCCCCCCCCCCC(=O)[O-]
REMARK SMILES IDX 8 1 9 2 10 3 11 4 12 5 13 6 14 7 15 8 16 9 7 10 6 11 5 12
REMARK SMILES IDX 4 13 3 14 2 15 1 16
REMARK H PARENT
REMARK Flexibility Score: inf
ROOT
ATOM      1  C   UNL     1     -30.467   0.584  25.013  1.00  0.00     0.000 C 
ENDROOT
BRANCH   1   2
ATOM      2  C   UNL     1     -31.117  -0.119  23.808  1.00  0.00     0.000 C 
BRANCH   2   3
ATOM      3  C   UNL     1     -31.268  -1.638  24.012  1.00  0.00     0.000 C 
BRANCH   3   4
ATOM      4  C   UNL     1     -30.325  -2.504  23.157  1.00  0.00     0.000 C 
BRANCH   4   5
ATOM      5  C   UNL     1     -29.927  -1.829  21.834  1.00  0.00     0.006 C 
BRANCH   5   6
ATOM      6  C   UNL     1     -28.682  -2.471  21.207  1.00  0.00     0.053 C 
BRANCH   6   7
ATOM      7  C   UNL     1     -27.938  -1.507  20.333  1.00  0.00     0.041 C 
ATOM      8  O   UNL     1     -26.679  -1.524  20.298  1.00  0.00    -0.550 OA
ATOM      9  O   UNL     1     -28.636  -0.609  19.535  1.00  0.00    -0.550 OA
ENDBRANCH   6   7
ENDBRANCH   5   6
ENDBRANCH   4   5
ENDBRANCH   3   4
ENDBRANCH   2   3
ENDBRANCH   1   2
BRANCH   1  10
ATOM     10  C   UNL     1     -30.240  -0.368  26.197  1.00  0.00     0.000 C 
BRANCH  10  11
ATOM     11  C   UNL     1     -28.956  -0.039  26.979  1.00  0.00    -0.000 C 
BRANCH  11  12
ATOM     12  C   UNL     1     -27.725   0.089  26.068  1.00  0.00    -0.000 C 
BRANCH  12  13
ATOM     13  C   UNL     1     -27.519  -1.146  25.174  1.00  0.00    -0.000 C 
BRANCH  13  14
ATOM     14  C   UNL     1     -26.776  -0.801  23.866  1.00  0.00    -0.000 C 
BRANCH  14  15
ATOM     15  C   UNL     1     -26.709   0.708  23.578  1.00  0.00    -0.003 C 
ATOM     16  C   UNL     1     -27.821   1.190  22.650  1.00  0.00     0.004 C 
ENDBRANCH  14  15
ENDBRANCH  13  14
ENDBRANCH  12  13
ENDBRANCH  11  12
ENDBRANCH  10  11
ENDBRANCH   1  10
TORSDOF 12
ENDMDL
MODEL 5
REMARK VINA RESULT:    -4.894      1.141      3.361
REMARK INTER + INTRA:         -10.286
REMARK INTER:                  -8.675
REMARK INTRA:                  -1.611
REMARK UNBOUND:                -1.959
REMARK SMILES CCCCCCCCCCCCCC(=O)[O-]
REMARK SMILES IDX 8 1 9 2 10 3 11 4 12 5 13 6 14 7 15 8 16 9 7 10 6 11 5 12
REMARK SMILES IDX 4 13 3 14 2 15 1 16
REMARK H PARENT
REMARK Flexibility Score: inf
ROOT
ATOM      1  C   UNL     1     -27.070  -1.269  20.865  1.00  0.00     0.000 C 
ENDROOT
BRANCH   1   2
ATOM      2  C   UNL     1     -27.196  -0.331  22.079  1.00  0.00     0.000 C 
BRANCH   2   3
ATOM      3  C   UNL     1     -27.114  -1.077  23.423  1.00  0.00     0.000 C 
BRANCH   3   4
ATOM      4  C   UNL     1     -27.377  -0.207  24.666  1.00  0.00     0.000 C 
BRANCH   4   5
ATOM      5  C   UNL     1     -28.345  -0.865  25.663  1.00  0.00     0.006 C 
BRANCH   5   6
ATOM      6  C   UNL     1     -28.534  -0.020  26.931  1.00  0.00     0.053 C 
BRANCH   6   7
ATOM      7  C   UNL     1     -29.965   0.383  27.124  1.00  0.00     0.041 C 
ATOM      8  O   UNL     1     -30.250   1.404  27.803  1.00  0.00    -0.550 OA
ATOM      9  O   UNL     1     -30.982  -0.354  26.530  1.00  0.00    -0.550 OA
ENDBRANCH   6   7
ENDBRANCH   5   6
ENDBRANCH   4   5
ENDBRANCH   3   4
ENDBRANCH   2   3
ENDBRANCH   1   2
BRANCH   1  10
ATOM     10  C   UNL     1     -28.218  -1.087  19.860  1.00  0.00     0.000 C 
BRANCH  10  11
ATOM     11  C   UNL     1     -29.374  -2.075  20.102  1.00  0.00    -0.000 C 
BRANCH  11  12
ATOM     12  C   UNL     1     -30.500  -1.470  20.955  1.00  0.00    -0.000 C 
BRANCH  12  13
ATOM     13  C   UNL     1     -30.512  -2.017  22.393  1.00  0.00    -0.000 C 
BRANCH  13  14
ATOM     14  C   UNL     1     -31.195  -1.046  23.379  1.00  0.00    -0.000 C 
BRANCH  14  15
ATOM     15  C   UNL     1     -31.365   0.377  22.822  1.00  0.00    -0.003 C 
ATOM     16  C   UNL     1     -30.214   1.308  23.194  1.00  0.00     0.004 C 
ENDBRANCH  14  15
ENDBRANCH  13  14
ENDBRANCH  12  13
ENDBRANCH  11  12
ENDBRANCH  10  11
ENDBRANCH   1  10
TORSDOF 12
ENDMDL
MODEL 6
REMARK VINA RESULT:    -4.890      1.135      3.710
REMARK INTER + INTRA:         -10.280
REMARK INTER:                  -8.579
REMARK INTRA:                  -1.702
REMARK UNBOUND:                -1.959
REMARK SMILES CCCCCCCCCCCCCC(=O)[O-]
REMARK SMILES IDX 8 1 9 2 10 3 11 4 12 5 13 6 14 7 15 8 16 9 7 10 6 11 5 12
REMARK SMILES IDX 4 13 3 14 2 15 1 16
REMARK H PARENT
REMARK Flexibility Score: inf
ROOT
ATOM      1  C   UNL     1     -27.938   1.126  22.389  1.00  0.00     0.000 C 
ENDROOT
BRANCH   1   2
ATOM      2  C   UNL     1     -27.373   0.664  23.744  1.00  0.00     0.000 C 
BRANCH   2   3
ATOM      3  C   UNL     1     -26.743  -0.739  23.684  1.00  0.00     0.000 C 
BRANCH   3   4
ATOM      4  C   UNL     1     -27.163  -1.689  24.820  1.00  0.00     0.000 C 
BRANCH   4   5
ATOM      5  C   UNL     1     -28.594  -1.427  25.321  1.00  0.00     0.006 C 
BRANCH   5   6
ATOM      6  C   UNL     1     -28.613  -0.637  26.636  1.00  0.00     0.053 C 
BRANCH   6   7
ATOM      7  C   UNL     1     -29.919   0.067  26.845  1.00  0.00     0.041 C 
ATOM      8  O   UNL     1     -30.991  -0.449  26.432  1.00  0.00    -0.550 OA
ATOM      9  O   UNL     1     -29.956   1.279  27.522  1.00  0.00    -0.550 OA
ENDBRANCH   6   7
ENDBRANCH   5   6
ENDBRANCH   4   5
ENDBRANCH   3   4
ENDBRANCH   2   3
ENDBRANCH   1   2
BRANCH   1  10
ATOM     10  C   UNL     1     -29.357   1.702  22.510  1.00  0.00     0.000 C 
BRANCH  10  11
ATOM     11  C   UNL     1     -30.276   0.827  23.380  1.00  0.00    -0.000 C 
BRANCH  11  12
ATOM     12  C   UNL     1     -31.151  -0.123  22.547  1.00  0.00    -0.000 C 
BRANCH  12  13
ATOM     13  C   UNL     1     -30.492  -1.496  22.327  1.00  0.00    -0.000 C 
BRANCH  13  14
ATOM     14  C   UNL     1     -29.933  -1.651  20.897  1.00  0.00    -0.000 C 
BRANCH  14  15
ATOM     15  C   UNL     1     -28.562  -2.345  20.846  1.00  0.00    -0.003 C 
ATOM     16  C   UNL     1     -27.511  -1.541  20.085  1.00  0.00     0.004 C 
ENDBRANCH  14  15
ENDBRANCH  13  14
ENDBRANCH  12  13
ENDBRANCH  11  12
ENDBRANCH  10  11
ENDBRANCH   1  10
TORSDOF 12
ENDMDL
MODEL 7
REMARK VINA RESULT:    -4.851      3.435      4.939
REMARK INTER + INTRA:         -10.213
REMARK INTER:                  -8.382
REMARK INTRA:                  -1.832
REMARK UNBOUND:                -1.959
REMARK SMILES CCCCCCCCCCCCCC(=O)[O-]
REMARK SMILES IDX 8 1 9 2 10 3 11 4 12 5 13 6 14 7 15 8 16 9 7 10 6 11 5 12
REMARK SMILES IDX 4 13 3 14 2 15 1 16
REMARK H PARENT
REMARK Flexibility Score: inf
ROOT
ATOM      1  C   UNL     1     -30.951   0.005  24.330  1.00  0.00     0.000 C 
ENDROOT
BRANCH   1   2
ATOM      2  C   UNL     1     -31.043  -1.531  24.372  1.00  0.00     0.000 C 
BRANCH   2   3
ATOM      3  C   UNL     1     -30.583  -2.194  23.061  1.00  0.00     0.000 C 
BRANCH   3   4
ATOM      4  C   UNL     1     -29.112  -2.649  23.046  1.00  0.00     0.000 C 
BRANCH   4   5
ATOM      5  C   UNL     1     -28.402  -2.334  21.718  1.00  0.00     0.006 C 
BRANCH   5   6
ATOM      6  C   UNL     1     -29.388  -2.210  20.548  1.00  0.00     0.053 C 
BRANCH   6   7
ATOM      7  C   UNL     1     -28.680  -2.056  19.237  1.00  0.00     0.041 C 
ATOM      8  O   UNL     1     -27.738  -1.229  19.118  1.00  0.00    -0.550 OA
ATOM      9  O   UNL     1     -29.041  -2.846  18.153  1.00  0.00    -0.550 OA
ENDBRANCH   6   7
ENDBRANCH   5   6
ENDBRANCH   4   5
ENDBRANCH   3   4
ENDBRANCH   2   3
ENDBRANCH   1   2
BRANCH   1  10
ATOM     10  C   UNL     1     -30.467   0.528  22.969  1.00  0.00     0.000 C 
BRANCH  10  11
ATOM     11  C   UNL     1     -29.314   1.538  23.103  1.00  0.00    -0.000 C 
BRANCH  11  12
ATOM     12  C   UNL     1     -27.965   0.960  22.648  1.00  0.00    -0.000 C 
BRANCH  12  13
ATOM     13  C   UNL     1     -26.929   0.908  23.784  1.00  0.00    -0.000 C 
BRANCH  13  14
ATOM     14  C   UNL     1     -27.285  -0.151  24.848  1.00  0.00    -0.000 C 
BRANCH  14  15
ATOM     15  C   UNL     1     -27.717   0.453  26.195  1.00  0.00    -0.003 C 
ATOM     16  C   UNL     1     -28.652  -0.457  26.988  1.00  0.00     0.004 C 
ENDBRANCH  14  15
ENDBRANCH  13  14
ENDBRANCH  12  13
ENDBRANCH  11  12
ENDBRANCH  10  11
ENDBRANCH   1  10
TORSDOF 12
ENDMDL
MODEL 8
REMARK VINA RESULT:    -4.790      3.180      5.353
REMARK INTER + INTRA:         -10.109
REMARK INTER:                  -8.407
REMARK INTRA:                  -1.702
REMARK UNBOUND:                -1.959
REMARK SMILES CCCCCCCCCCCCCC(=O)[O-]
REMARK SMILES IDX 8 1 9 2 10 3 11 4 12 5 13 6 14 7 15 8 16 9 7 10 6 11 5 12
REMARK SMILES IDX 4 13 3 14 2 15 1 16
REMARK H PARENT
REMARK Flexibility Score: inf
ROOT
ATOM      1  C   UNL     1     -27.000  -1.603  24.110  1.00  0.00     0.000 C 
ENDROOT
BRANCH   1   2
ATOM      2  C   UNL     1     -26.968  -0.073  24.274  1.00  0.00     0.000 C 
BRANCH   2   3
ATOM      3  C   UNL     1     -27.151   0.676  22.941  1.00  0.00     0.000 C 
BRANCH   3   4
ATOM      4  C   UNL     1     -28.615   0.922  22.531  1.00  0.00     0.000 C 
BRANCH   4   5
ATOM      5  C   UNL     1     -29.025   0.133  21.276  1.00  0.00     0.006 C 
BRANCH   5   6
ATOM      6  C   UNL     1     -27.876  -0.725  20.729  1.00  0.00     0.053 C 
BRANCH   6   7
ATOM      7  C   UNL     1     -28.347  -1.682  19.677  1.00  0.00     0.041 C 
ATOM      8  O   UNL     1     -29.083  -2.655  19.988  1.00  0.00    -0.550 OA
ATOM      9  O   UNL     1     -27.998  -1.483  18.347  1.00  0.00    -0.550 OA
ENDBRANCH   6   7
ENDBRANCH   5   6
ENDBRANCH   4   5
ENDBRANCH   3   4
ENDBRANCH   2   3
ENDBRANCH   1   2
BRANCH   1  10
ATOM     10  C   UNL     1     -28.270  -2.231  24.702  1.00  0.00     0.000 C 
BRANCH  10  11
ATOM     11  C   UNL     1     -29.299  -2.609  23.622  1.00  0.00    -0.000 C 
BRANCH  11  12
ATOM     12  C   UNL     1     -30.600  -1.799  23.736  1.00  0.00    -0.000 C 
BRANCH  12  13
ATOM     13  C   UNL     1     -30.901  -1.361  25.181  1.00  0.00    -0.000 C 
BRANCH  13  14
ATOM     14  C   UNL     1     -30.483   0.100  25.445  1.00  0.00    -0.000 C 
BRANCH  14  15
ATOM     15  C   UNL     1     -30.232   0.408  26.931  1.00  0.00    -0.003 C 
ATOM     16  C   UNL     1     -28.753   0.375  27.308  1.00  0.00     0.004 C 
ENDBRANCH  14  15
ENDBRANCH  13  14
ENDBRANCH  12  13
ENDBRANCH  11  12
ENDBRANCH  10  11
ENDBRANCH   1  10
TORSDOF 12
ENDMDL
MODEL 9
REMARK VINA RESULT:    -4.758      1.181      2.623
REMARK INTER + INTRA:         -10.055
REMARK INTER:                  -8.250
REMARK INTRA:                  -1.804
REMARK UNBOUND:                -1.959
REMARK SMILES CCCCCCCCCCCCCC(=O)[O-]
REMARK SMILES IDX 8 1 9 2 10 3 11 4 12 5 13 6 14 7 15 8 16 9 7 10 6 11 5 12
REMARK SMILES IDX 4 13 3 14 2 15 1 16
REMARK H PARENT
REMARK Flexibility Score: inf
ROOT
ATOM      1  C   UNL     1     -29.748   0.904  22.198  1.00  0.00     0.000 C 
ENDROOT
BRANCH   1   2
ATOM      2  C   UNL     1     -31.008   0.315  22.856  1.00  0.00     0.000 C 
BRANCH   2   3
ATOM      3  C   UNL     1     -31.015  -1.225  22.866  1.00  0.00     0.000 C 
BRANCH   3   4
ATOM      4  C   UNL     1     -30.989  -1.865  24.266  1.00  0.00     0.000 C 
BRANCH   4   5
ATOM      5  C   UNL     1     -30.010  -1.168  25.226  1.00  0.00     0.006 C 
BRANCH   5   6
ATOM      6  C   UNL     1     -30.732  -0.252  26.225  1.00  0.00     0.053 C 
BRANCH   6   7
ATOM      7  C   UNL     1     -29.768   0.590  27.005  1.00  0.00     0.041 C 
ATOM      8  O   UNL     1     -30.193   1.417  27.854  1.00  0.00    -0.550 OA
ATOM      9  O   UNL     1     -28.401   0.442  26.813  1.00  0.00    -0.550 OA
ENDBRANCH   6   7
ENDBRANCH   5   6
ENDBRANCH   4   5
ENDBRANCH   3   4
ENDBRANCH   2   3
ENDBRANCH   1   2
BRANCH   1  10
ATOM     10  C   UNL     1     -28.746   1.446  23.228  1.00  0.00     0.000 C 
BRANCH  10  11
ATOM     11  C   UNL     1     -27.292   1.070  22.890  1.00  0.00    -0.000 C 
BRANCH  11  12
ATOM     12  C   UNL     1     -26.791  -0.138  23.697  1.00  0.00    -0.000 C 
BRANCH  12  13
ATOM     13  C   UNL     1     -27.108  -1.480  23.014  1.00  0.00    -0.000 C 
BRANCH  13  14
ATOM     14  C   UNL     1     -27.103  -1.365  21.475  1.00  0.00    -0.000 C 
BRANCH  14  15
ATOM     15  C   UNL     1     -28.230  -2.162  20.796  1.00  0.00    -0.003 C 
ATOM     16  C   UNL     1     -28.755  -1.494  19.527  1.00  0.00     0.004 C 
ENDBRANCH  14  15
ENDBRANCH  13  14
ENDBRANCH  12  13
ENDBRANCH  11  12
ENDBRANCH  10  11
ENDBRANCH   1  10
TORSDOF 12
ENDMDL
