MODEL 1
REMARK VINA RESULT:    -4.368      0.000      0.000
REMARK INTER + INTRA:         -16.420
REMARK INTER:                 -11.519
REMARK INTRA:                  -4.901
REMARK UNBOUND:                -4.901
REMARK SMILES CCCCCCCCCCCCCCCCCCCCCCCCCCCCCC(=O)[O-]
REMARK SMILES IDX 16 1 17 2 18 3 19 4 20 5 21 6 22 7 23 8 24 9 25 10 26 11
REMARK SMILES IDX 27 12 28 13 29 14 30 15 31 16 32 17 15 18 14 19 13 20 12 21
REMARK SMILES IDX 11 22 10 23 9 24 8 25 7 26 6 27 5 28 4 29 3 30 2 31 1 32
REMARK H PARENT
REMARK Flexibility Score: inf
ROOT
ATOM      1  C   UNL     1      98.968 317.060 187.179  1.00  0.00     0.000 C 
ENDROOT
BRANCH   1   2
ATOM      2  C   UNL     1      97.667 317.820 187.483  1.00  0.00     0.000 C 
BRANCH   2   3
ATOM      3  C   UNL     1      96.840 317.162 188.599  1.00  0.00     0.000 C 
BRANCH   3   4
ATOM      4  C   UNL     1      97.221 317.735 189.972  1.00  0.00     0.000 C 
BRANCH   4   5
ATOM      5  C   UNL     1      96.071 317.665 190.993  1.00  0.00     0.000 C 
BRANCH   5   6
ATOM      6  C   UNL     1      94.696 317.281 190.407  1.00  0.00     0.000 C 
BRANCH   6   7
ATOM      7  C   UNL     1      93.492 317.544 191.330  1.00  0.00     0.000 C 
BRANCH   7   8
ATOM      8  C   UNL     1      93.454 318.984 191.871  1.00  0.00     0.000 C 
BRANCH   8   9
ATOM      9  C   UNL     1      93.753 319.053 193.377  1.00  0.00     0.000 C 
BRANCH   9  10
ATOM     10  C   UNL     1      93.884 317.664 194.020  1.00  0.00     0.000 C 
BRANCH  10  11
ATOM     11  C   UNL     1      95.046 317.624 195.019  1.00  0.00     0.000 C 
BRANCH  11  12
ATOM     12  C   UNL     1      95.936 318.868 194.875  1.00  0.00     0.000 C 
BRANCH  12  13
ATOM     13  C   UNL     1      97.326 318.545 194.301  1.00  0.00     0.006 C 
BRANCH  13  14
ATOM     14  C   UNL     1      98.477 319.325 194.957  1.00  0.00     0.053 C 
BRANCH  14  15
ATOM     15  C   UNL     1      99.227 318.492 195.951  1.00  0.00     0.041 C 
ATOM     16  O   UNL     1      99.974 319.042 196.803  1.00  0.00    -0.550 OA
ATOM     17  O   UNL     1      99.118 317.107 195.922  1.00  0.00    -0.550 OA
ENDBRANCH  14  15
ENDBRANCH  13  14
ENDBRANCH  12  13
ENDBRANCH  11  12
ENDBRANCH  10  11
ENDBRANCH   9  10
ENDBRANCH   8   9
ENDBRANCH   7   8
ENDBRANCH   6   7
ENDBRANCH   5   6
ENDBRANCH   4   5
ENDBRANCH   3   4
ENDBRANCH   2   3
ENDBRANCH   1   2
BRANCH   1  18
ATOM     18  C   UNL     1     100.149 317.538 188.040  1.00  0.00     0.000 C 
BRANCH  18  19
ATOM     19  C   UNL     1     100.849 316.387 188.788  1.00  0.00     0.000 C 
BRANCH  19  20
ATOM     20  C   UNL     1     100.656 314.990 188.167  1.00  0.00     0.000 C 
BRANCH  20  21
ATOM     21  C   UNL     1     101.777 314.537 187.211  1.00  0.00     0.000 C 
BRANCH  21  22
ATOM     22  C   UNL     1     102.438 313.201 187.612  1.00  0.00     0.000 C 
BRANCH  22  23
ATOM     23  C   UNL     1     103.873 313.382 188.136  1.00  0.00     0.000 C 
BRANCH  23  24
ATOM     24  C   UNL     1     104.021 312.986 189.614  1.00  0.00    -0.000 C 
BRANCH  24  25
ATOM     25  C   UNL     1     103.835 314.178 190.571  1.00  0.00    -0.000 C 
BRANCH  25  26
ATOM     26  C   UNL     1     102.607 314.010 191.480  1.00  0.00    -0.000 C 
BRANCH  26  27
ATOM     27  C   UNL     1     101.993 312.604 191.385  1.00  0.00    -0.000 C 
BRANCH  27  28
ATOM     28  C   UNL     1     100.518 312.679 190.961  1.00  0.00    -0.000 C 
BRANCH  28  29
ATOM     29  C   UNL     1      99.629 313.378 192.006  1.00  0.00    -0.000 C 
BRANCH  29  30
ATOM     30  C   UNL     1      98.991 314.698 191.536  1.00  0.00    -0.000 C 
BRANCH  30  31
ATOM     31  C   UNL     1      98.983 315.779 192.627  1.00  0.00    -0.003 C 
ATOM     32  C   UNL     1     100.017 316.862 192.336  1.00  0.00     0.004 C 
ENDBRANCH  30  31
ENDBRANCH  29  30
ENDBRANCH  28  29
ENDBRANCH  27  28
ENDBRANCH  26  27
ENDBRANCH  25  26
ENDBRANCH  24  25
ENDBRANCH  23  24
ENDBRANCH  22  23
ENDBRANCH  21  22
ENDBRANCH  20  21
ENDBRANCH  19  20
ENDBRANCH  18  19
ENDBRANCH   1  18
TORSDOF 28
ENDMDL
MODEL 2
REMARK VINA RESULT:    -4.288      2.063      3.842
REMARK INTER + INTRA:         -16.208
REMARK INTER:                 -12.412
REMARK INTRA:                  -3.796
REMARK UNBOUND:                -4.901
REMARK SMILES CCCCCCCCCCCCCCCCCCCCCCCCCCCCCC(=O)[O-]
REMARK SMILES IDX 16 1 17 2 18 3 19 4 20 5 21 6 22 7 23 8 24 9 25 10 26 11
REMARK SMILES IDX 27 12 28 13 29 14 30 15 31 16 32 17 15 18 14 19 13 20 12 21
REMARK SMILES IDX 11 22 10 23 9 24 8 25 7 26 6 27 5 28 4 29 3 30 2 31 1 32
REMARK H PARENT
REMARK Flexibility Score: inf
ROOT
ATOM      1  C   UNL     1      99.645 316.174 187.865  1.00  0.00     0.000 C 
ENDROOT
BRANCH   1   2
ATOM      2  C   UNL     1     100.494 317.220 188.606  1.00  0.00     0.000 C 
BRANCH   2   3
ATOM      3  C   UNL     1      99.642 318.246 189.368  1.00  0.00     0.000 C 
BRANCH   3   4
ATOM      4  C   UNL     1      98.255 318.392 188.724  1.00  0.00     0.000 C 
BRANCH   4   5
ATOM      5  C   UNL     1      97.118 317.863 189.616  1.00  0.00     0.000 C 
BRANCH   5   6
ATOM      6  C   UNL     1      96.180 316.838 188.945  1.00  0.00     0.000 C 
BRANCH   6   7
ATOM      7  C   UNL     1      95.351 315.973 189.913  1.00  0.00     0.000 C 
BRANCH   7   8
ATOM      8  C   UNL     1      93.858 316.344 189.917  1.00  0.00     0.000 C 
BRANCH   8   9
ATOM      9  C   UNL     1      93.404 316.935 191.262  1.00  0.00     0.000 C 
BRANCH   9  10
ATOM     10  C   UNL     1      93.228 318.460 191.210  1.00  0.00     0.000 C 
BRANCH  10  11
ATOM     11  C   UNL     1      93.568 319.102 192.560  1.00  0.00     0.000 C 
BRANCH  11  12
ATOM     12  C   UNL     1      94.781 318.414 193.204  1.00  0.00     0.000 C 
BRANCH  12  13
ATOM     13  C   UNL     1      95.057 318.908 194.635  1.00  0.00     0.006 C 
BRANCH  13  14
ATOM     14  C   UNL     1      93.793 319.248 195.441  1.00  0.00     0.053 C 
BRANCH  14  15
ATOM     15  C   UNL     1      93.716 318.473 196.721  1.00  0.00     0.041 C 
ATOM     16  O   UNL     1      94.106 318.993 197.800  1.00  0.00    -0.550 OA
ATOM     17  O   UNL     1      93.233 317.171 196.719  1.00  0.00    -0.550 OA
ENDBRANCH  14  15
ENDBRANCH  13  14
ENDBRANCH  12  13
ENDBRANCH  11  12
ENDBRANCH  10  11
ENDBRANCH   9  10
ENDBRANCH   8   9
ENDBRANCH   7   8
ENDBRANCH   6   7
ENDBRANCH   5   6
ENDBRANCH   4   5
ENDBRANCH   3   4
ENDBRANCH   2   3
ENDBRANCH   1   2
BRANCH   1  18
ATOM     18  C   UNL     1     100.273 314.770 187.897  1.00  0.00     0.000 C 
BRANCH  18  19
ATOM     19  C   UNL     1     101.767 314.774 187.525  1.00  0.00     0.000 C 
BRANCH  19  20
ATOM     20  C   UNL     1     102.599 313.635 188.144  1.00  0.00     0.000 C 
BRANCH  20  21
ATOM     21  C   UNL     1     103.798 314.088 189.001  1.00  0.00     0.000 C 
BRANCH  21  22
ATOM     22  C   UNL     1     103.721 313.631 190.473  1.00  0.00     0.000 C 
BRANCH  22  23
ATOM     23  C   UNL     1     102.315 313.151 190.873  1.00  0.00     0.000 C 
BRANCH  23  24
ATOM     24  C   UNL     1     101.700 313.986 192.007  1.00  0.00    -0.000 C 
BRANCH  24  25
ATOM     25  C   UNL     1     100.336 314.591 191.629  1.00  0.00    -0.000 C 
BRANCH  25  26
ATOM     26  C   UNL     1     100.199 316.051 192.090  1.00  0.00    -0.000 C 
BRANCH  26  27
ATOM     27  C   UNL     1      98.765 316.402 192.516  1.00  0.00    -0.000 C 
BRANCH  27  28
ATOM     28  C   UNL     1      98.733 317.730 193.288  1.00  0.00    -0.000 C 
BRANCH  28  29
ATOM     29  C   UNL     1     100.134 318.327 193.512  1.00  0.00    -0.000 C 
BRANCH  29  30
ATOM     30  C   UNL     1     100.170 319.576 194.412  1.00  0.00    -0.000 C 
BRANCH  30  31
ATOM     31  C   UNL     1     101.479 320.368 194.281  1.00  0.00    -0.003 C 
ATOM     32  C   UNL     1     101.228 321.752 193.688  1.00  0.00     0.004 C 
ENDBRANCH  30  31
ENDBRANCH  29  30
ENDBRANCH  28  29
ENDBRANCH  27  28
ENDBRANCH  26  27
ENDBRANCH  25  26
ENDBRANCH  24  25
ENDBRANCH  23  24
ENDBRANCH  22  23
ENDBRANCH  21  22
ENDBRANCH  20  21
ENDBRANCH  19  20
ENDBRANCH  18  19
ENDBRANCH   1  18
TORSDOF 28
ENDMDL
MODEL 3
REMARK VINA RESULT:    -4.272      3.940      8.285
REMARK INTER + INTRA:         -16.165
REMARK INTER:                 -10.919
REMARK INTRA:                  -5.247
REMARK UNBOUND:                -4.901
REMARK SMILES CCCCCCCCCCCCCCCCCCCCCCCCCCCCCC(=O)[O-]
REMARK SMILES IDX 16 1 17 2 18 3 19 4 20 5 21 6 22 7 23 8 24 9 25 10 26 11
REMARK SMILES IDX 27 12 28 13 29 14 30 15 31 16 32 17 15 18 14 19 13 20 12 21
REMARK SMILES IDX 11 22 10 23 9 24 8 25 7 26 6 27 5 28 4 29 3 30 2 31 1 32
REMARK H PARENT
REMARK Flexibility Score: inf
ROOT
ATOM      1  C   UNL     1      99.310 319.452 196.250  1.00  0.00     0.000 C 
ENDROOT
BRANCH   1   2
ATOM      2  C   UNL     1      99.023 320.465 195.129  1.00  0.00     0.000 C 
BRANCH   2   3
ATOM      3  C   UNL     1      99.007 321.917 195.630  1.00  0.00     0.000 C 
BRANCH   3   4
ATOM      4  C   UNL     1     100.040 322.767 194.875  1.00  0.00     0.000 C 
BRANCH   4   5
ATOM      5  C   UNL     1     100.760 321.989 193.759  1.00  0.00     0.000 C 
BRANCH   5   6
ATOM      6  C   UNL     1     102.280 321.816 193.957  1.00  0.00     0.000 C 
BRANCH   6   7
ATOM      7  C   UNL     1     102.777 321.972 195.407  1.00  0.00     0.000 C 
BRANCH   7   8
ATOM      8  C   UNL     1     103.208 320.636 196.038  1.00  0.00     0.000 C 
BRANCH   8   9
ATOM      9  C   UNL     1     102.672 320.464 197.469  1.00  0.00     0.000 C 
BRANCH   9  10
ATOM     10  C   UNL     1     101.831 321.662 197.936  1.00  0.00     0.000 C 
BRANCH  10  11
ATOM     11  C   UNL     1     100.989 321.301 199.165  1.00  0.00     0.000 C 
BRANCH  11  12
ATOM     12  C   UNL     1      99.747 322.199 199.262  1.00  0.00     0.000 C 
BRANCH  12  13
ATOM     13  C   UNL     1      98.440 321.399 199.398  1.00  0.00     0.006 C 
BRANCH  13  14
ATOM     14  C   UNL     1      97.164 322.234 199.202  1.00  0.00     0.053 C 
BRANCH  14  15
ATOM     15  C   UNL     1      96.157 321.986 200.283  1.00  0.00     0.041 C 
ATOM     16  O   UNL     1      94.990 322.447 200.178  1.00  0.00    -0.550 OA
ATOM     17  O   UNL     1      96.514 321.263 201.414  1.00  0.00    -0.550 OA
ENDBRANCH  14  15
ENDBRANCH  13  14
ENDBRANCH  12  13
ENDBRANCH  11  12
ENDBRANCH  10  11
ENDBRANCH   9  10
ENDBRANCH   8   9
ENDBRANCH   7   8
ENDBRANCH   6   7
ENDBRANCH   5   6
ENDBRANCH   4   5
ENDBRANCH   3   4
ENDBRANCH   2   3
ENDBRANCH   1   2
BRANCH   1  18
ATOM     18  C   UNL     1      99.910 318.138 195.722  1.00  0.00     0.000 C 
BRANCH  18  19
ATOM     19  C   UNL     1     100.216 318.183 194.214  1.00  0.00     0.000 C 
BRANCH  19  20
ATOM     20  C   UNL     1      99.552 317.072 193.377  1.00  0.00     0.000 C 
BRANCH  20  21
ATOM     21  C   UNL     1      98.473 316.252 194.113  1.00  0.00     0.000 C 
BRANCH  21  22
ATOM     22  C   UNL     1      97.028 316.622 193.716  1.00  0.00     0.000 C 
BRANCH  22  23
ATOM     23  C   UNL     1      96.249 317.289 194.863  1.00  0.00     0.000 C 
BRANCH  23  24
ATOM     24  C   UNL     1      95.982 318.781 194.614  1.00  0.00    -0.000 C 
BRANCH  24  25
ATOM     25  C   UNL     1      94.485 319.137 194.676  1.00  0.00    -0.000 C 
BRANCH  25  26
ATOM     26  C   UNL     1      93.658 318.361 193.639  1.00  0.00    -0.000 C 
BRANCH  26  27
ATOM     27  C   UNL     1      93.663 319.035 192.258  1.00  0.00    -0.000 C 
BRANCH  27  28
ATOM     28  C   UNL     1      93.389 318.009 191.148  1.00  0.00    -0.000 C 
BRANCH  28  29
ATOM     29  C   UNL     1      94.480 316.927 191.050  1.00  0.00    -0.000 C 
BRANCH  29  30
ATOM     30  C   UNL     1      95.495 317.130 189.909  1.00  0.00    -0.000 C 
BRANCH  30  31
ATOM     31  C   UNL     1      96.861 317.622 190.406  1.00  0.00    -0.003 C 
ATOM     32  C   UNL     1      97.648 318.290 189.282  1.00  0.00     0.004 C 
ENDBRANCH  30  31
ENDBRANCH  29  30
ENDBRANCH  28  29
ENDBRANCH  27  28
ENDBRANCH  26  27
ENDBRANCH  25  26
ENDBRANCH  24  25
ENDBRANCH  23  24
ENDBRANCH  22  23
ENDBRANCH  21  22
ENDBRANCH  20  21
ENDBRANCH  19  20
ENDBRANCH  18  19
ENDBRANCH   1  18
TORSDOF 28
ENDMDL
MODEL 4
REMARK VINA RESULT:    -4.258      9.679     13.707
REMARK INTER + INTRA:         -16.130
REMARK INTER:                 -12.046
REMARK INTRA:                  -4.084
REMARK UNBOUND:                -4.901
REMARK SMILES CCCCCCCCCCCCCCCCCCCCCCCCCCCCCC(=O)[O-]
REMARK SMILES IDX 16 1 17 2 18 3 19 4 20 5 21 6 22 7 23 8 24 9 25 10 26 11
REMARK SMILES IDX 27 12 28 13 29 14 30 15 31 16 32 17 15 18 14 19 13 20 12 21
REMARK SMILES IDX 11 22 10 23 9 24 8 25 7 26 6 27 5 28 4 29 3 30 2 31 1 32
REMARK H PARENT
REMARK Flexibility Score: inf
ROOT
ATOM      1  C   UNL     1      86.497 310.116 188.982  1.00  0.00     0.000 C 
ENDROOT
BRANCH   1   2
ATOM      2  C   UNL     1      87.541 309.128 188.437  1.00  0.00     0.000 C 
BRANCH   2   3
ATOM      3  C   UNL     1      87.534 307.785 189.184  1.00  0.00     0.000 C 
BRANCH   3   4
ATOM      4  C   UNL     1      88.952 307.201 189.269  1.00  0.00     0.000 C 
BRANCH   4   5
ATOM      5  C   UNL     1      89.960 307.932 188.364  1.00  0.00     0.000 C 
BRANCH   5   6
ATOM      6  C   UNL     1      91.193 308.510 189.090  1.00  0.00     0.000 C 
BRANCH   6   7
ATOM      7  C   UNL     1      91.649 307.728 190.336  1.00  0.00     0.000 C 
BRANCH   7   8
ATOM      8  C   UNL     1      92.966 308.259 190.928  1.00  0.00     0.000 C 
BRANCH   8   9
ATOM      9  C   UNL     1      94.160 307.340 190.620  1.00  0.00     0.000 C 
BRANCH   9  10
ATOM     10  C   UNL     1      94.687 306.616 191.868  1.00  0.00     0.000 C 
BRANCH  10  11
ATOM     11  C   UNL     1      94.395 307.421 193.140  1.00  0.00     0.000 C 
BRANCH  11  12
ATOM     12  C   UNL     1      93.785 306.526 194.228  1.00  0.00     0.000 C 
BRANCH  12  13
ATOM     13  C   UNL     1      94.765 306.226 195.375  1.00  0.00     0.006 C 
BRANCH  13  14
ATOM     14  C   UNL     1      94.764 307.277 196.498  1.00  0.00     0.053 C 
BRANCH  14  15
ATOM     15  C   UNL     1      93.651 307.053 197.476  1.00  0.00     0.041 C 
ATOM     16  O   UNL     1      93.139 308.029 198.085  1.00  0.00    -0.550 OA
ATOM     17  O   UNL     1      93.195 305.766 197.730  1.00  0.00    -0.550 OA
ENDBRANCH  14  15
ENDBRANCH  13  14
ENDBRANCH  12  13
ENDBRANCH  11  12
ENDBRANCH  10  11
ENDBRANCH   9  10
ENDBRANCH   8   9
ENDBRANCH   7   8
ENDBRANCH   6   7
ENDBRANCH   5   6
ENDBRANCH   4   5
ENDBRANCH   3   4
ENDBRANCH   2   3
ENDBRANCH   1   2
BRANCH   1  18
ATOM     18  C   UNL     1      86.094 311.183 187.950  1.00  0.00     0.000 C 
BRANCH  18  19
ATOM     19  C   UNL     1      84.586 311.496 187.971  1.00  0.00     0.000 C 
BRANCH  19  20
ATOM     20  C   UNL     1      83.875 311.203 189.306  1.00  0.00     0.000 C 
BRANCH  20  21
ATOM     21  C   UNL     1      83.895 312.358 190.327  1.00  0.00     0.000 C 
BRANCH  21  22
ATOM     22  C   UNL     1      84.130 311.901 191.783  1.00  0.00     0.000 C 
BRANCH  22  23
ATOM     23  C   UNL     1      85.583 311.462 192.039  1.00  0.00     0.000 C 
BRANCH  23  24
ATOM     24  C   UNL     1      86.600 312.577 191.751  1.00  0.00    -0.000 C 
BRANCH  24  25
ATOM     25  C   UNL     1      87.018 313.346 193.018  1.00  0.00    -0.000 C 
BRANCH  25  26
ATOM     26  C   UNL     1      88.465 313.859 192.939  1.00  0.00    -0.000 C 
BRANCH  26  27
ATOM     27  C   UNL     1      89.472 312.875 193.554  1.00  0.00    -0.000 C 
BRANCH  27  28
ATOM     28  C   UNL     1      90.663 312.651 192.610  1.00  0.00    -0.000 C 
BRANCH  28  29
ATOM     29  C   UNL     1      90.855 311.172 192.228  1.00  0.00    -0.000 C 
BRANCH  29  30
ATOM     30  C   UNL     1      89.554 310.407 191.920  1.00  0.00    -0.000 C 
BRANCH  30  31
ATOM     31  C   UNL     1      89.461 309.065 192.660  1.00  0.00    -0.003 C 
ATOM     32  C   UNL     1      88.021 308.563 192.709  1.00  0.00     0.004 C 
ENDBRANCH  30  31
ENDBRANCH  29  30
ENDBRANCH  28  29
ENDBRANCH  27  28
ENDBRANCH  26  27
ENDBRANCH  25  26
ENDBRANCH  24  25
ENDBRANCH  23  24
ENDBRANCH  22  23
ENDBRANCH  21  22
ENDBRANCH  20  21
ENDBRANCH  19  20
ENDBRANCH  18  19
ENDBRANCH   1  18
TORSDOF 28
ENDMDL
MODEL 5
REMARK VINA RESULT:    -4.245      3.000      8.133
REMARK INTER + INTRA:         -16.095
REMARK INTER:                 -10.778
REMARK INTRA:                  -5.317
REMARK UNBOUND:                -4.901
REMARK SMILES CCCCCCCCCCCCCCCCCCCCCCCCCCCCCC(=O)[O-]
REMARK SMILES IDX 16 1 17 2 18 3 19 4 20 5 21 6 22 7 23 8 24 9 25 10 26 11
REMARK SMILES IDX 27 12 28 13 29 14 30 15 31 16 32 17 15 18 14 19 13 20 12 21
REMARK SMILES IDX 11 22 10 23 9 24 8 25 7 26 6 27 5 28 4 29 3 30 2 31 1 32
REMARK H PARENT
REMARK Flexibility Score: inf
ROOT
ATOM      1  C   UNL     1     100.836 316.803 188.706  1.00  0.00     0.000 C 
ENDROOT
BRANCH   1   2
ATOM      2  C   UNL     1      99.962 316.145 187.626  1.00  0.00     0.000 C 
BRANCH   2   3
ATOM      3  C   UNL     1     100.400 314.708 187.300  1.00  0.00     0.000 C 
BRANCH   3   4
ATOM      4  C   UNL     1     101.927 314.570 187.386  1.00  0.00     0.000 C 
BRANCH   4   5
ATOM      5  C   UNL     1     102.377 313.275 188.085  1.00  0.00     0.000 C 
BRANCH   5   6
ATOM      6  C   UNL     1     103.824 313.287 188.620  1.00  0.00     0.000 C 
BRANCH   6   7
ATOM      7  C   UNL     1     104.005 312.716 190.039  1.00  0.00     0.000 C 
BRANCH   7   8
ATOM      8  C   UNL     1     102.752 312.881 190.916  1.00  0.00     0.000 C 
BRANCH   8   9
ATOM      9  C   UNL     1     102.690 314.258 191.598  1.00  0.00     0.000 C 
BRANCH   9  10
ATOM     10  C   UNL     1     101.256 314.795 191.720  1.00  0.00     0.000 C 
BRANCH  10  11
ATOM     11  C   UNL     1     100.233 313.745 191.272  1.00  0.00     0.000 C 
BRANCH  11  12
ATOM     12  C   UNL     1      98.975 314.416 190.699  1.00  0.00     0.000 C 
BRANCH  12  13
ATOM     13  C   UNL     1      97.838 313.416 190.424  1.00  0.00     0.006 C 
BRANCH  13  14
ATOM     14  C   UNL     1      97.615 313.108 188.934  1.00  0.00     0.053 C 
BRANCH  14  15
ATOM     15  C   UNL     1      98.079 311.731 188.568  1.00  0.00     0.041 C 
ATOM     16  O   UNL     1      99.221 311.561 188.066  1.00  0.00    -0.550 OA
ATOM     17  O   UNL     1      97.241 310.640 188.762  1.00  0.00    -0.550 OA
ENDBRANCH  14  15
ENDBRANCH  13  14
ENDBRANCH  12  13
ENDBRANCH  11  12
ENDBRANCH  10  11
ENDBRANCH   9  10
ENDBRANCH   8   9
ENDBRANCH   7   8
ENDBRANCH   6   7
ENDBRANCH   5   6
ENDBRANCH   4   5
ENDBRANCH   3   4
ENDBRANCH   2   3
ENDBRANCH   1   2
BRANCH   1  18
ATOM     18  C   UNL     1     100.134 317.981 189.402  1.00  0.00     0.000 C 
BRANCH  18  19
ATOM     19  C   UNL     1      98.650 318.108 189.011  1.00  0.00     0.000 C 
BRANCH  19  20
ATOM     20  C   UNL     1      97.646 317.734 190.119  1.00  0.00     0.000 C 
BRANCH  20  21
ATOM     21  C   UNL     1      96.200 317.499 189.642  1.00  0.00     0.000 C 
BRANCH  21  22
ATOM     22  C   UNL     1      96.068 316.403 188.563  1.00  0.00     0.000 C 
BRANCH  22  23
ATOM     23  C   UNL     1      94.808 315.539 188.745  1.00  0.00     0.000 C 
BRANCH  23  24
ATOM     24  C   UNL     1      93.569 316.365 189.125  1.00  0.00    -0.000 C 
BRANCH  24  25
ATOM     25  C   UNL     1      92.897 315.871 190.419  1.00  0.00    -0.000 C 
BRANCH  25  26
ATOM     26  C   UNL     1      93.153 316.813 191.606  1.00  0.00    -0.000 C 
BRANCH  26  27
ATOM     27  C   UNL     1      93.064 318.295 191.211  1.00  0.00    -0.000 C 
BRANCH  27  28
ATOM     28  C   UNL     1      93.824 319.175 192.216  1.00  0.00    -0.000 C 
BRANCH  28  29
ATOM     29  C   UNL     1      93.791 318.614 193.649  1.00  0.00    -0.000 C 
BRANCH  29  30
ATOM     30  C   UNL     1      95.142 318.645 194.389  1.00  0.00    -0.000 C 
BRANCH  30  31
ATOM     31  C   UNL     1      96.281 318.009 193.578  1.00  0.00    -0.003 C 
ATOM     32  C   UNL     1      96.153 316.488 193.549  1.00  0.00     0.004 C 
ENDBRANCH  30  31
ENDBRANCH  29  30
ENDBRANCH  28  29
ENDBRANCH  27  28
ENDBRANCH  26  27
ENDBRANCH  25  26
ENDBRANCH  24  25
ENDBRANCH  23  24
ENDBRANCH  22  23
ENDBRANCH  21  22
ENDBRANCH  20  21
ENDBRANCH  19  20
ENDBRANCH  18  19
ENDBRANCH   1  18
TORSDOF 28
ENDMDL
MODEL 6
REMARK VINA RESULT:    -4.242      2.846      7.425
REMARK INTER + INTRA:         -16.088
REMARK INTER:                 -10.885
REMARK INTRA:                  -5.202
REMARK UNBOUND:                -4.901
REMARK SMILES CCCCCCCCCCCCCCCCCCCCCCCCCCCCCC(=O)[O-]
REMARK SMILES IDX 16 1 17 2 18 3 19 4 20 5 21 6 22 7 23 8 24 9 25 10 26 11
REMARK SMILES IDX 27 12 28 13 29 14 30 15 31 16 32 17 15 18 14 19 13 20 12 21
REMARK SMILES IDX 11 22 10 23 9 24 8 25 7 26 6 27 5 28 4 29 3 30 2 31 1 32
REMARK H PARENT
REMARK Flexibility Score: inf
ROOT
ATOM      1  C   UNL     1      94.520 317.763 194.754  1.00  0.00     0.000 C 
ENDROOT
BRANCH   1   2
ATOM      2  C   UNL     1      95.416 319.011 194.696  1.00  0.00     0.000 C 
BRANCH   2   3
ATOM      3  C   UNL     1      96.914 318.667 194.692  1.00  0.00     0.000 C 
BRANCH   3   4
ATOM      4  C   UNL     1      97.232 317.626 193.608  1.00  0.00     0.000 C 
BRANCH   4   5
ATOM      5  C   UNL     1      98.734 317.537 193.282  1.00  0.00     0.000 C 
BRANCH   5   6
ATOM      6  C   UNL     1      99.074 317.446 191.779  1.00  0.00     0.000 C 
BRANCH   6   7
ATOM      7  C   UNL     1      97.936 317.848 190.822  1.00  0.00     0.000 C 
BRANCH   7   8
ATOM      8  C   UNL     1      98.427 318.123 189.390  1.00  0.00     0.000 C 
BRANCH   8   9
ATOM      9  C   UNL     1      99.958 318.241 189.307  1.00  0.00     0.000 C 
BRANCH   9  10
ATOM     10  C   UNL     1     100.545 317.496 188.099  1.00  0.00     0.000 C 
BRANCH  10  11
ATOM     11  C   UNL     1      99.741 316.228 187.788  1.00  0.00     0.000 C 
BRANCH  11  12
ATOM     12  C   UNL     1     100.669 315.013 187.642  1.00  0.00     0.000 C 
BRANCH  12  13
ATOM     13  C   UNL     1     101.916 315.102 188.538  1.00  0.00     0.006 C 
BRANCH  13  14
ATOM     14  C   UNL     1     103.196 314.540 187.898  1.00  0.00     0.053 C 
BRANCH  14  15
ATOM     15  C   UNL     1     103.302 313.054 188.062  1.00  0.00     0.041 C 
ATOM     16  O   UNL     1     103.909 312.569 189.052  1.00  0.00    -0.550 OA
ATOM     17  O   UNL     1     102.748 312.208 187.110  1.00  0.00    -0.550 OA
ENDBRANCH  14  15
ENDBRANCH  13  14
ENDBRANCH  12  13
ENDBRANCH  11  12
ENDBRANCH  10  11
ENDBRANCH   9  10
ENDBRANCH   8   9
ENDBRANCH   7   8
ENDBRANCH   6   7
ENDBRANCH   5   6
ENDBRANCH   4   5
ENDBRANCH   3   4
ENDBRANCH   2   3
ENDBRANCH   1   2
BRANCH   1  18
ATOM     18  C   UNL     1      93.750 317.525 193.443  1.00  0.00     0.000 C 
BRANCH  18  19
ATOM     19  C   UNL     1      93.545 318.814 192.627  1.00  0.00     0.000 C 
BRANCH  19  20
ATOM     20  C   UNL     1      93.221 318.601 191.136  1.00  0.00     0.000 C 
BRANCH  20  21
ATOM     21  C   UNL     1      93.276 317.137 190.656  1.00  0.00     0.000 C 
BRANCH  21  22
ATOM     22  C   UNL     1      94.461 316.832 189.716  1.00  0.00     0.000 C 
BRANCH  22  23
ATOM     23  C   UNL     1      95.083 315.448 189.975  1.00  0.00     0.000 C 
BRANCH  23  24
ATOM     24  C   UNL     1      95.396 315.205 191.459  1.00  0.00    -0.000 C 
BRANCH  24  25
ATOM     25  C   UNL     1      96.659 314.349 191.670  1.00  0.00    -0.000 C 
BRANCH  25  26
ATOM     26  C   UNL     1      97.505 314.235 190.392  1.00  0.00    -0.000 C 
BRANCH  26  27
ATOM     27  C   UNL     1      98.950 313.799 190.681  1.00  0.00    -0.000 C 
BRANCH  27  28
ATOM     28  C   UNL     1      98.998 312.801 191.848  1.00  0.00    -0.000 C 
BRANCH  28  29
ATOM     29  C   UNL     1     100.373 312.752 192.539  1.00  0.00    -0.000 C 
BRANCH  29  30
ATOM     30  C   UNL     1     101.575 313.000 191.609  1.00  0.00    -0.000 C 
BRANCH  30  31
ATOM     31  C   UNL     1     102.466 314.158 192.081  1.00  0.00    -0.003 C 
ATOM     32  C   UNL     1     101.681 315.139 192.947  1.00  0.00     0.004 C 
ENDBRANCH  30  31
ENDBRANCH  29  30
ENDBRANCH  28  29
ENDBRANCH  27  28
ENDBRANCH  26  27
ENDBRANCH  25  26
ENDBRANCH  24  25
ENDBRANCH  23  24
ENDBRANCH  22  23
ENDBRANCH  21  22
ENDBRANCH  20  21
ENDBRANCH  19  20
ENDBRANCH  18  19
ENDBRANCH   1  18
TORSDOF 28
ENDMDL
MODEL 7
REMARK VINA RESULT:    -4.205      1.958      3.256
REMARK INTER + INTRA:         -15.989
REMARK INTER:                 -10.709
REMARK INTRA:                  -5.280
REMARK UNBOUND:                -4.901
REMARK SMILES CCCCCCCCCCCCCCCCCCCCCCCCCCCCCC(=O)[O-]
REMARK SMILES IDX 16 1 17 2 18 3 19 4 20 5 21 6 22 7 23 8 24 9 25 10 26 11
REMARK SMILES IDX 27 12 28 13 29 14 30 15 31 16 32 17 15 18 14 19 13 20 12 21
REMARK SMILES IDX 11 22 10 23 9 24 8 25 7 26 6 27 5 28 4 29 3 30 2 31 1 32
REMARK H PARENT
REMARK Flexibility Score: inf
ROOT
ATOM      1  C   UNL     1      99.568 317.886 190.142  1.00  0.00     0.000 C 
ENDROOT
BRANCH   1   2
ATOM      2  C   UNL     1      98.031 317.858 190.132  1.00  0.00     0.000 C 
BRANCH   2   3
ATOM      3  C   UNL     1      97.434 317.560 191.517  1.00  0.00     0.000 C 
BRANCH   3   4
ATOM      4  C   UNL     1      98.542 317.394 192.566  1.00  0.00     0.000 C 
BRANCH   4   5
ATOM      5  C   UNL     1      98.112 316.529 193.765  1.00  0.00     0.000 C 
BRANCH   5   6
ATOM      6  C   UNL     1      96.588 316.407 193.971  1.00  0.00     0.000 C 
BRANCH   6   7
ATOM      7  C   UNL     1      95.956 315.104 193.448  1.00  0.00     0.000 C 
BRANCH   7   8
ATOM      8  C   UNL     1      94.477 315.271 193.056  1.00  0.00     0.000 C 
BRANCH   8   9
ATOM      9  C   UNL     1      94.303 315.698 191.590  1.00  0.00     0.000 C 
BRANCH   9  10
ATOM     10  C   UNL     1      93.234 316.787 191.413  1.00  0.00     0.000 C 
BRANCH  10  11
ATOM     11  C   UNL     1      93.867 318.183 191.378  1.00  0.00     0.000 C 
BRANCH  11  12
ATOM     12  C   UNL     1      93.363 319.043 192.546  1.00  0.00     0.000 C 
BRANCH  12  13
ATOM     13  C   UNL     1      94.330 319.052 193.743  1.00  0.00     0.006 C 
BRANCH  13  14
ATOM     14  C   UNL     1      93.640 319.164 195.112  1.00  0.00     0.053 C 
BRANCH  14  15
ATOM     15  C   UNL     1      93.990 318.020 196.014  1.00  0.00     0.041 C 
ATOM     16  O   UNL     1      93.369 316.928 195.922  1.00  0.00    -0.550 OA
ATOM     17  O   UNL     1      94.987 318.166 196.970  1.00  0.00    -0.550 OA
ENDBRANCH  14  15
ENDBRANCH  13  14
ENDBRANCH  12  13
ENDBRANCH  11  12
ENDBRANCH  10  11
ENDBRANCH   9  10
ENDBRANCH   8   9
ENDBRANCH   7   8
ENDBRANCH   6   7
ENDBRANCH   5   6
ENDBRANCH   4   5
ENDBRANCH   3   4
ENDBRANCH   2   3
ENDBRANCH   1   2
BRANCH   1  18
ATOM     18  C   UNL     1     100.166 318.117 188.744  1.00  0.00     0.000 C 
BRANCH  18  19
ATOM     19  C   UNL     1     100.449 316.805 187.989  1.00  0.00     0.000 C 
BRANCH  19  20
ATOM     20  C   UNL     1     101.299 315.777 188.759  1.00  0.00     0.000 C 
BRANCH  20  21
ATOM     21  C   UNL     1     102.008 314.724 187.883  1.00  0.00     0.000 C 
BRANCH  21  22
ATOM     22  C   UNL     1     103.489 314.498 188.255  1.00  0.00     0.000 C 
BRANCH  22  23
ATOM     23  C   UNL     1     103.774 313.054 188.704  1.00  0.00     0.000 C 
BRANCH  23  24
ATOM     24  C   UNL     1     103.999 312.935 190.219  1.00  0.00    -0.000 C 
BRANCH  24  25
ATOM     25  C   UNL     1     102.686 312.983 191.022  1.00  0.00    -0.000 C 
BRANCH  25  26
ATOM     26  C   UNL     1     102.599 314.226 191.923  1.00  0.00    -0.000 C 
BRANCH  26  27
ATOM     27  C   UNL     1     101.152 314.696 192.139  1.00  0.00    -0.000 C 
BRANCH  27  28
ATOM     28  C   UNL     1     100.368 313.679 192.984  1.00  0.00    -0.000 C 
BRANCH  28  29
ATOM     29  C   UNL     1      99.086 313.185 192.290  1.00  0.00    -0.000 C 
BRANCH  29  30
ATOM     30  C   UNL     1      98.639 314.025 191.079  1.00  0.00    -0.000 C 
BRANCH  30  31
ATOM     31  C   UNL     1      98.701 313.248 189.757  1.00  0.00    -0.003 C 
ATOM     32  C   UNL     1      98.082 314.051 188.616  1.00  0.00     0.004 C 
ENDBRANCH  30  31
ENDBRANCH  29  30
ENDBRANCH  28  29
ENDBRANCH  27  28
ENDBRANCH  26  27
ENDBRANCH  25  26
ENDBRANCH  24  25
ENDBRANCH  23  24
ENDBRANCH  22  23
ENDBRANCH  21  22
ENDBRANCH  20  21
ENDBRANCH  19  20
ENDBRANCH  18  19
ENDBRANCH   1  18
TORSDOF 28
ENDMDL
MODEL 8
REMARK VINA RESULT:    -4.192     10.720     16.013
REMARK INTER + INTRA:         -15.954
REMARK INTER:                 -12.284
REMARK INTRA:                  -3.670
REMARK UNBOUND:                -4.901
REMARK SMILES CCCCCCCCCCCCCCCCCCCCCCCCCCCCCC(=O)[O-]
REMARK SMILES IDX 16 1 17 2 18 3 19 4 20 5 21 6 22 7 23 8 24 9 25 10 26 11
REMARK SMILES IDX 27 12 28 13 29 14 30 15 31 16 32 17 15 18 14 19 13 20 12 21
REMARK SMILES IDX 11 22 10 23 9 24 8 25 7 26 6 27 5 28 4 29 3 30 2 31 1 32
REMARK H PARENT
REMARK Flexibility Score: inf
ROOT
ATOM      1  C   UNL     1      85.860 317.551 203.369  1.00  0.00     0.000 C 
ENDROOT
BRANCH   1   2
ATOM      2  C   UNL     1      85.593 318.251 204.711  1.00  0.00     0.000 C 
BRANCH   2   3
ATOM      3  C   UNL     1      84.626 317.463 205.610  1.00  0.00     0.000 C 
BRANCH   3   4
ATOM      4  C   UNL     1      84.996 315.972 205.635  1.00  0.00     0.000 C 
BRANCH   4   5
ATOM      5  C   UNL     1      86.180 315.661 206.568  1.00  0.00     0.000 C 
BRANCH   5   6
ATOM      6  C   UNL     1      87.412 315.040 205.878  1.00  0.00     0.000 C 
BRANCH   6   7
ATOM      7  C   UNL     1      88.489 316.044 205.428  1.00  0.00     0.000 C 
BRANCH   7   8
ATOM      8  C   UNL     1      89.914 315.605 205.808  1.00  0.00     0.000 C 
BRANCH   8   9
ATOM      9  C   UNL     1      90.729 316.743 206.444  1.00  0.00     0.000 C 
BRANCH   9  10
ATOM     10  C   UNL     1      91.938 317.155 205.590  1.00  0.00     0.000 C 
BRANCH  10  11
ATOM     11  C   UNL     1      92.828 318.155 206.338  1.00  0.00     0.000 C 
BRANCH  11  12
ATOM     12  C   UNL     1      93.248 319.310 205.416  1.00  0.00     0.000 C 
BRANCH  12  13
ATOM     13  C   UNL     1      92.963 319.023 203.931  1.00  0.00     0.006 C 
BRANCH  13  14
ATOM     14  C   UNL     1      94.045 319.542 202.969  1.00  0.00     0.053 C 
BRANCH  14  15
ATOM     15  C   UNL     1      94.209 321.029 203.056  1.00  0.00     0.041 C 
ATOM     16  O   UNL     1      93.606 321.780 202.246  1.00  0.00    -0.550 OA
ATOM     17  O   UNL     1      95.045 321.582 204.018  1.00  0.00    -0.550 OA
ENDBRANCH  14  15
ENDBRANCH  13  14
ENDBRANCH  12  13
ENDBRANCH  11  12
ENDBRANCH  10  11
ENDBRANCH   9  10
ENDBRANCH   8   9
ENDBRANCH   7   8
ENDBRANCH   6   7
ENDBRANCH   5   6
ENDBRANCH   4   5
ENDBRANCH   3   4
ENDBRANCH   2   3
ENDBRANCH   1   2
BRANCH   1  18
ATOM     18  C   UNL     1      84.613 317.495 202.470  1.00  0.00     0.000 C 
BRANCH  18  19
ATOM     19  C   UNL     1      84.587 316.252 201.561  1.00  0.00     0.000 C 
BRANCH  19  20
ATOM     20  C   UNL     1      84.568 314.900 202.300  1.00  0.00     0.000 C 
BRANCH  20  21
ATOM     21  C   UNL     1      85.850 314.056 202.159  1.00  0.00     0.000 C 
BRANCH  21  22
ATOM     22  C   UNL     1      87.008 314.793 201.451  1.00  0.00     0.000 C 
BRANCH  22  23
ATOM     23  C   UNL     1      87.284 314.246 200.039  1.00  0.00     0.000 C 
BRANCH  23  24
ATOM     24  C   UNL     1      88.764 314.354 199.639  1.00  0.00    -0.000 C 
BRANCH  24  25
ATOM     25  C   UNL     1      89.022 313.911 198.187  1.00  0.00    -0.000 C 
BRANCH  25  26
ATOM     26  C   UNL     1      90.143 314.724 197.520  1.00  0.00    -0.000 C 
BRANCH  26  27
ATOM     27  C   UNL     1      90.272 316.139 198.105  1.00  0.00    -0.000 C 
BRANCH  27  28
ATOM     28  C   UNL     1      91.635 316.754 197.753  1.00  0.00    -0.000 C 
BRANCH  28  29
ATOM     29  C   UNL     1      92.455 317.145 198.996  1.00  0.00    -0.000 C 
BRANCH  29  30
ATOM     30  C   UNL     1      91.618 317.497 200.241  1.00  0.00    -0.000 C 
BRANCH  30  31
ATOM     31  C   UNL     1      91.868 316.543 201.417  1.00  0.00    -0.003 C 
ATOM     32  C   UNL     1      90.595 316.324 202.230  1.00  0.00     0.004 C 
ENDBRANCH  30  31
ENDBRANCH  29  30
ENDBRANCH  28  29
ENDBRANCH  27  28
ENDBRANCH  26  27
ENDBRANCH  25  26
ENDBRANCH  24  25
ENDBRANCH  23  24
ENDBRANCH  22  23
ENDBRANCH  21  22
ENDBRANCH  20  21
ENDBRANCH  19  20
ENDBRANCH  18  19
ENDBRANCH   1  18
TORSDOF 28
ENDMDL
MODEL 9
REMARK VINA RESULT:    -4.188      1.779      3.743
REMARK INTER + INTRA:         -15.945
REMARK INTER:                 -11.392
REMARK INTRA:                  -4.554
REMARK UNBOUND:                -4.901
REMARK SMILES CCCCCCCCCCCCCCCCCCCCCCCCCCCCCC(=O)[O-]
REMARK SMILES IDX 16 1 17 2 18 3 19 4 20 5 21 6 22 7 23 8 24 9 25 10 26 11
REMARK SMILES IDX 27 12 28 13 29 14 30 15 31 16 32 17 15 18 14 19 13 20 12 21
REMARK SMILES IDX 11 22 10 23 9 24 8 25 7 26 6 27 5 28 4 29 3 30 2 31 1 32
REMARK H PARENT
REMARK Flexibility Score: inf
ROOT
ATOM      1  C   UNL     1     101.112 314.813 187.649  1.00  0.00     0.000 C 
ENDROOT
BRANCH   1   2
ATOM      2  C   UNL     1     101.567 316.115 188.327  1.00  0.00     0.000 C 
BRANCH   2   3
ATOM      3  C   UNL     1     100.423 316.840 189.053  1.00  0.00     0.000 C 
BRANCH   3   4
ATOM      4  C   UNL     1      99.106 316.695 188.276  1.00  0.00     0.000 C 
BRANCH   4   5
ATOM      5  C   UNL     1      98.032 317.705 188.719  1.00  0.00     0.000 C 
BRANCH   5   6
ATOM      6  C   UNL     1      96.582 317.177 188.687  1.00  0.00     0.000 C 
BRANCH   6   7
ATOM      7  C   UNL     1      95.812 317.289 190.016  1.00  0.00     0.000 C 
BRANCH   7   8
ATOM      8  C   UNL     1      94.591 316.355 190.081  1.00  0.00     0.000 C 
BRANCH   8   9
ATOM      9  C   UNL     1      93.503 316.877 191.034  1.00  0.00     0.000 C 
BRANCH   9  10
ATOM     10  C   UNL     1      93.255 318.385 190.882  1.00  0.00     0.000 C 
BRANCH  10  11
ATOM     11  C   UNL     1      93.342 319.099 192.236  1.00  0.00     0.000 C 
BRANCH  11  12
ATOM     12  C   UNL     1      94.037 318.211 193.279  1.00  0.00     0.000 C 
BRANCH  12  13
ATOM     13  C   UNL     1      94.633 319.017 194.447  1.00  0.00     0.006 C 
BRANCH  13  14
ATOM     14  C   UNL     1      93.664 319.241 195.620  1.00  0.00     0.053 C 
BRANCH  14  15
ATOM     15  C   UNL     1      93.725 318.127 196.620  1.00  0.00     0.041 C 
ATOM     16  O   UNL     1      93.106 317.051 196.408  1.00  0.00    -0.550 OA
ATOM     17  O   UNL     1      94.448 318.286 197.796  1.00  0.00    -0.550 OA
ENDBRANCH  14  15
ENDBRANCH  13  14
ENDBRANCH  12  13
ENDBRANCH  11  12
ENDBRANCH  10  11
ENDBRANCH   9  10
ENDBRANCH   8   9
ENDBRANCH   7   8
ENDBRANCH   6   7
ENDBRANCH   5   6
ENDBRANCH   4   5
ENDBRANCH   3   4
ENDBRANCH   2   3
ENDBRANCH   1   2
BRANCH   1  18
ATOM     18  C   UNL     1     102.261 314.082 186.936  1.00  0.00     0.000 C 
BRANCH  18  19
ATOM     19  C   UNL     1     103.557 314.049 187.768  1.00  0.00     0.000 C 
BRANCH  19  20
ATOM     20  C   UNL     1     103.895 312.686 188.400  1.00  0.00     0.000 C 
BRANCH  20  21
ATOM     21  C   UNL     1     103.968 312.676 189.940  1.00  0.00     0.000 C 
BRANCH  21  22
ATOM     22  C   UNL     1     103.745 314.062 190.584  1.00  0.00     0.000 C 
BRANCH  22  23
ATOM     23  C   UNL     1     102.398 314.163 191.322  1.00  0.00     0.000 C 
BRANCH  23  24
ATOM     24  C   UNL     1     101.748 312.793 191.565  1.00  0.00    -0.000 C 
BRANCH  24  25
ATOM     25  C   UNL     1     100.475 312.579 190.726  1.00  0.00    -0.000 C 
BRANCH  25  26
ATOM     26  C   UNL     1      99.546 313.803 190.754  1.00  0.00    -0.000 C 
BRANCH  26  27
ATOM     27  C   UNL     1      98.657 313.838 192.007  1.00  0.00    -0.000 C 
BRANCH  27  28
ATOM     28  C   UNL     1      97.853 315.146 192.071  1.00  0.00    -0.000 C 
BRANCH  28  29
ATOM     29  C   UNL     1      98.746 316.394 192.187  1.00  0.00    -0.000 C 
BRANCH  29  30
ATOM     30  C   UNL     1      98.119 317.572 192.957  1.00  0.00    -0.000 C 
BRANCH  30  31
ATOM     31  C   UNL     1      97.732 317.206 194.397  1.00  0.00    -0.003 C 
ATOM     32  C   UNL     1      98.895 316.539 195.126  1.00  0.00     0.004 C 
ENDBRANCH  30  31
ENDBRANCH  29  30
ENDBRANCH  28  29
ENDBRANCH  27  28
ENDBRANCH  26  27
ENDBRANCH  25  26
ENDBRANCH  24  25
ENDBRANCH  23  24
ENDBRANCH  22  23
ENDBRANCH  21  22
ENDBRANCH  20  21
ENDBRANCH  19  20
ENDBRANCH  18  19
ENDBRANCH   1  18
TORSDOF 28
ENDMDL
