MODEL 1
REMARK VINA RESULT:    -5.448      0.000      0.000
REMARK INTER + INTRA:         -14.658
REMARK INTER:                 -11.817
REMARK INTRA:                  -2.840
REMARK UNBOUND:                -2.840
REMARK SMILES CCCCCCCCCCCCCCCCCCCCCC(=O)[O-]
REMARK SMILES IDX 12 1 11 2 10 3 9 4 8 5 7 6 6 7 5 8 4 9 3 10 2 11 1 12 13 13
REMARK SMILES IDX 14 14 15 15 16 16 17 17 18 18 19 19 20 20 21 21 22 22 23 23
REMARK SMILES IDX 24 24
REMARK H PARENT
REMARK Flexibility Score: inf
ROOT
ATOM      1  C   UNL     1      61.177 151.910   2.016  1.00  0.00     0.000 C 
ENDROOT
BRANCH   1   2
ATOM      2  C   UNL     1      61.935 151.818   3.356  1.00  0.00     0.000 C 
BRANCH   2   3
ATOM      3  C   UNL     1      63.435 151.477   3.241  1.00  0.00     0.000 C 
BRANCH   3   4
ATOM      4  C   UNL     1      64.357 152.211   4.232  1.00  0.00    -0.000 C 
BRANCH   4   5
ATOM      5  C   UNL     1      65.026 151.267   5.245  1.00  0.00    -0.000 C 
BRANCH   5   6
ATOM      6  C   UNL     1      64.879 149.781   4.865  1.00  0.00    -0.000 C 
BRANCH   6   7
ATOM      7  C   UNL     1      64.129 148.910   5.891  1.00  0.00    -0.000 C 
BRANCH   7   8
ATOM      8  C   UNL     1      62.970 148.117   5.268  1.00  0.00    -0.000 C 
BRANCH   8   9
ATOM      9  C   UNL     1      61.594 148.739   5.567  1.00  0.00    -0.000 C 
BRANCH   9  10
ATOM     10  C   UNL     1      61.002 148.311   6.927  1.00  0.00    -0.000 C 
BRANCH  10  11
ATOM     11  C   UNL     1      59.487 148.547   6.995  1.00  0.00    -0.003 C 
ATOM     12  C   UNL     1      58.967 148.389   8.421  1.00  0.00     0.004 C 
ENDBRANCH  10  11
ENDBRANCH   9  10
ENDBRANCH   8   9
ENDBRANCH   7   8
ENDBRANCH   6   7
ENDBRANCH   5   6
ENDBRANCH   4   5
ENDBRANCH   3   4
ENDBRANCH   2   3
ENDBRANCH   1   2
BRANCH   1  13
ATOM     13  C   UNL     1      61.220 153.293   1.343  1.00  0.00     0.000 C 
BRANCH  13  14
ATOM     14  C   UNL     1      59.849 153.745   0.819  1.00  0.00     0.000 C 
BRANCH  14  15
ATOM     15  C   UNL     1      58.766 153.544   1.885  1.00  0.00     0.000 C 
BRANCH  15  16
ATOM     16  C   UNL     1      58.305 154.889   2.468  1.00  0.00     0.000 C 
BRANCH  16  17
ATOM     17  C   UNL     1      58.403 154.931   4.002  1.00  0.00     0.000 C 
BRANCH  17  18
ATOM     18  C   UNL     1      59.100 153.690   4.585  1.00  0.00     0.000 C 
BRANCH  18  19
ATOM     19  C   UNL     1      58.180 152.856   5.495  1.00  0.00     0.000 C 
BRANCH  19  20
ATOM     20  C   UNL     1      58.910 151.871   6.427  1.00  0.00     0.006 C 
BRANCH  20  21
ATOM     21  C   UNL     1      59.637 152.567   7.586  1.00  0.00     0.053 C 
BRANCH  21  22
ATOM     22  C   UNL     1      60.977 151.945   7.817  1.00  0.00     0.041 C 
ATOM     23  O   UNL     1      61.221 151.358   8.904  1.00  0.00    -0.550 OA
ATOM     24  O   UNL     1      61.945 151.983   6.822  1.00  0.00    -0.550 OA
ENDBRANCH  21  22
ENDBRANCH  20  21
ENDBRANCH  19  20
ENDBRANCH  18  19
ENDBRANCH  17  18
ENDBRANCH  16  17
ENDBRANCH  15  16
ENDBRANCH  14  15
ENDBRANCH  13  14
ENDBRANCH   1  13
TORSDOF 20
ENDMDL
MODEL 2
REMARK VINA RESULT:    -5.311      2.214      5.892
REMARK INTER + INTRA:         -14.360
REMARK INTER:                 -11.418
REMARK INTRA:                  -2.942
REMARK UNBOUND:                -2.840
REMARK SMILES CCCCCCCCCCCCCCCCCCCCCC(=O)[O-]
REMARK SMILES IDX 12 1 11 2 10 3 9 4 8 5 7 6 6 7 5 8 4 9 3 10 2 11 1 12 13 13
REMARK SMILES IDX 14 14 15 15 16 16 17 17 18 18 19 19 20 20 21 21 22 22 23 23
REMARK SMILES IDX 24 24
REMARK H PARENT
REMARK Flexibility Score: inf
ROOT
ATOM      1  C   UNL     1      63.766 149.164   6.072  1.00  0.00     0.000 C 
ENDROOT
BRANCH   1   2
ATOM      2  C   UNL     1      62.801 148.143   5.437  1.00  0.00     0.000 C 
BRANCH   2   3
ATOM      3  C   UNL     1      61.305 148.379   5.728  1.00  0.00     0.000 C 
BRANCH   3   4
ATOM      4  C   UNL     1      60.638 147.334   6.642  1.00  0.00    -0.000 C 
BRANCH   4   5
ATOM      5  C   UNL     1      59.792 147.965   7.760  1.00  0.00    -0.000 C 
BRANCH   5   6
ATOM      6  C   UNL     1      59.199 149.331   7.365  1.00  0.00    -0.000 C 
BRANCH   6   7
ATOM      7  C   UNL     1      58.894 150.281   8.538  1.00  0.00    -0.000 C 
BRANCH   7   8
ATOM      8  C   UNL     1      59.849 151.484   8.598  1.00  0.00    -0.000 C 
BRANCH   8   9
ATOM      9  C   UNL     1      61.263 151.147   8.093  1.00  0.00    -0.000 C 
BRANCH   9  10
ATOM     10  C   UNL     1      61.698 151.976   6.865  1.00  0.00    -0.000 C 
BRANCH  10  11
ATOM     11  C   UNL     1      61.026 153.356   6.836  1.00  0.00    -0.003 C 
ATOM     12  C   UNL     1      59.966 153.431   5.740  1.00  0.00     0.004 C 
ENDBRANCH  10  11
ENDBRANCH   9  10
ENDBRANCH   8   9
ENDBRANCH   7   8
ENDBRANCH   6   7
ENDBRANCH   5   6
ENDBRANCH   4   5
ENDBRANCH   3   4
ENDBRANCH   2   3
ENDBRANCH   1   2
BRANCH   1  13
ATOM     13  C   UNL     1      65.098 149.346   5.325  1.00  0.00     0.000 C 
BRANCH  13  14
ATOM     14  C   UNL     1      64.948 150.145   4.022  1.00  0.00     0.000 C 
BRANCH  14  15
ATOM     15  C   UNL     1      64.926 151.651   4.306  1.00  0.00     0.000 C 
BRANCH  15  16
ATOM     16  C   UNL     1      63.645 152.300   3.760  1.00  0.00     0.000 C 
BRANCH  16  17
ATOM     17  C   UNL     1      62.647 151.266   3.214  1.00  0.00     0.000 C 
BRANCH  17  18
ATOM     18  C   UNL     1      61.315 151.900   2.778  1.00  0.00     0.000 C 
BRANCH  18  19
ATOM     19  C   UNL     1      61.456 152.798   1.536  1.00  0.00     0.000 C 
BRANCH  19  20
ATOM     20  C   UNL     1      60.151 153.472   1.072  1.00  0.00     0.006 C 
BRANCH  20  21
ATOM     21  C   UNL     1      59.041 153.422   2.130  1.00  0.00     0.053 C 
BRANCH  21  22
ATOM     22  C   UNL     1      58.338 154.739   2.220  1.00  0.00     0.041 C 
ATOM     23  O   UNL     1      57.921 155.305   1.175  1.00  0.00    -0.550 OA
ATOM     24  O   UNL     1      58.111 155.326   3.458  1.00  0.00    -0.550 OA
ENDBRANCH  21  22
ENDBRANCH  20  21
ENDBRANCH  19  20
ENDBRANCH  18  19
ENDBRANCH  17  18
ENDBRANCH  16  17
ENDBRANCH  15  16
ENDBRANCH  14  15
ENDBRANCH  13  14
ENDBRANCH   1  13
TORSDOF 20
ENDMDL
MODEL 3
REMARK VINA RESULT:    -5.159      2.532      5.524
REMARK INTER + INTRA:         -14.030
REMARK INTER:                 -11.123
REMARK INTRA:                  -2.907
REMARK UNBOUND:                -2.840
REMARK SMILES CCCCCCCCCCCCCCCCCCCCCC(=O)[O-]
REMARK SMILES IDX 12 1 11 2 10 3 9 4 8 5 7 6 6 7 5 8 4 9 3 10 2 11 1 12 13 13
REMARK SMILES IDX 14 14 15 15 16 16 17 17 18 18 19 19 20 20 21 21 22 22 23 23
REMARK SMILES IDX 24 24
REMARK H PARENT
REMARK Flexibility Score: inf
ROOT
ATOM      1  C   UNL     1      61.569 150.412   8.708  1.00  0.00     0.000 C 
ENDROOT
BRANCH   1   2
ATOM      2  C   UNL     1      60.963 149.016   8.955  1.00  0.00     0.000 C 
BRANCH   2   3
ATOM      3  C   UNL     1      59.953 148.538   7.891  1.00  0.00     0.000 C 
BRANCH   3   4
ATOM      4  C   UNL     1      60.544 147.674   6.762  1.00  0.00    -0.000 C 
BRANCH   4   5
ATOM      5  C   UNL     1      61.280 148.501   5.695  1.00  0.00    -0.000 C 
BRANCH   5   6
ATOM      6  C   UNL     1      62.772 148.133   5.575  1.00  0.00    -0.000 C 
BRANCH   6   7
ATOM      7  C   UNL     1      63.755 149.185   6.121  1.00  0.00    -0.000 C 
BRANCH   7   8
ATOM      8  C   UNL     1      65.098 149.194   5.374  1.00  0.00    -0.000 C 
BRANCH   8   9
ATOM      9  C   UNL     1      65.051 150.016   4.074  1.00  0.00    -0.000 C 
BRANCH   9  10
ATOM     10  C   UNL     1      65.158 151.539   4.299  1.00  0.00    -0.000 C 
BRANCH  10  11
ATOM     11  C   UNL     1      63.789 152.230   4.231  1.00  0.00    -0.003 C 
ATOM     12  C   UNL     1      62.905 151.598   3.159  1.00  0.00     0.004 C 
ENDBRANCH  10  11
ENDBRANCH   9  10
ENDBRANCH   8   9
ENDBRANCH   7   8
ENDBRANCH   6   7
ENDBRANCH   5   6
ENDBRANCH   4   5
ENDBRANCH   3   4
ENDBRANCH   2   3
ENDBRANCH   1   2
BRANCH   1  13
ATOM     13  C   UNL     1      60.601 151.438   8.094  1.00  0.00     0.000 C 
BRANCH  13  14
ATOM     14  C   UNL     1      61.096 151.994   6.750  1.00  0.00     0.000 C 
BRANCH  14  15
ATOM     15  C   UNL     1      61.650 153.414   6.920  1.00  0.00     0.000 C 
BRANCH  15  16
ATOM     16  C   UNL     1      60.573 154.370   7.454  1.00  0.00     0.000 C 
BRANCH  16  17
ATOM     17  C   UNL     1      59.890 155.172   6.334  1.00  0.00     0.000 C 
BRANCH  17  18
ATOM     18  C   UNL     1      58.573 154.531   5.864  1.00  0.00     0.000 C 
BRANCH  18  19
ATOM     19  C   UNL     1      58.476 154.412   4.333  1.00  0.00     0.000 C 
BRANCH  19  20
ATOM     20  C   UNL     1      59.538 153.507   3.684  1.00  0.00     0.006 C 
BRANCH  20  21
ATOM     21  C   UNL     1      59.089 152.923   2.338  1.00  0.00     0.053 C 
BRANCH  21  22
ATOM     22  C   UNL     1      59.431 153.853   1.218  1.00  0.00     0.041 C 
ATOM     23  O   UNL     1      58.699 154.849   0.979  1.00  0.00    -0.550 OA
ATOM     24  O   UNL     1      60.575 153.641   0.460  1.00  0.00    -0.550 OA
ENDBRANCH  21  22
ENDBRANCH  20  21
ENDBRANCH  19  20
ENDBRANCH  18  19
ENDBRANCH  17  18
ENDBRANCH  16  17
ENDBRANCH  15  16
ENDBRANCH  14  15
ENDBRANCH  13  14
ENDBRANCH   1  13
TORSDOF 20
ENDMDL
MODEL 4
REMARK VINA RESULT:    -5.137      1.534      2.535
REMARK INTER + INTRA:         -13.984
REMARK INTER:                 -11.352
REMARK INTRA:                  -2.632
REMARK UNBOUND:                -2.840
REMARK SMILES CCCCCCCCCCCCCCCCCCCCCC(=O)[O-]
REMARK SMILES IDX 12 1 11 2 10 3 9 4 8 5 7 6 6 7 5 8 4 9 3 10 2 11 1 12 13 13
REMARK SMILES IDX 14 14 15 15 16 16 17 17 18 18 19 19 20 20 21 21 22 22 23 23
REMARK SMILES IDX 24 24
REMARK H PARENT
REMARK Flexibility Score: inf
ROOT
ATOM      1  C   UNL     1      63.521 151.503   3.203  1.00  0.00     0.000 C 
ENDROOT
BRANCH   1   2
ATOM      2  C   UNL     1      64.440 152.053   4.312  1.00  0.00     0.000 C 
BRANCH   2   3
ATOM      3  C   UNL     1      64.951 151.007   5.324  1.00  0.00     0.000 C 
BRANCH   3   4
ATOM      4  C   UNL     1      65.046 149.565   4.791  1.00  0.00    -0.000 C 
BRANCH   4   5
ATOM      5  C   UNL     1      64.034 148.613   5.449  1.00  0.00    -0.000 C 
BRANCH   5   6
ATOM      6  C   UNL     1      63.000 149.348   6.322  1.00  0.00    -0.000 C 
BRANCH   6   7
ATOM      7  C   UNL     1      61.547 149.288   5.812  1.00  0.00    -0.000 C 
BRANCH   7   8
ATOM      8  C   UNL     1      60.659 150.392   6.408  1.00  0.00    -0.000 C 
BRANCH   8   9
ATOM      9  C   UNL     1      59.760 149.882   7.549  1.00  0.00    -0.000 C 
BRANCH   9  10
ATOM     10  C   UNL     1      59.153 148.488   7.284  1.00  0.00    -0.000 C 
BRANCH  10  11
ATOM     11  C   UNL     1      59.660 147.440   8.285  1.00  0.00    -0.003 C 
ATOM     12  C   UNL     1      59.873 146.088   7.610  1.00  0.00     0.004 C 
ENDBRANCH  10  11
ENDBRANCH   9  10
ENDBRANCH   8   9
ENDBRANCH   7   8
ENDBRANCH   6   7
ENDBRANCH   5   6
ENDBRANCH   4   5
ENDBRANCH   3   4
ENDBRANCH   2   3
ENDBRANCH   1   2
BRANCH   1  13
ATOM     13  C   UNL     1      62.034 151.868   3.355  1.00  0.00     0.000 C 
BRANCH  13  14
ATOM     14  C   UNL     1      61.262 151.789   2.029  1.00  0.00     0.000 C 
BRANCH  14  15
ATOM     15  C   UNL     1      60.670 153.155   1.661  1.00  0.00     0.000 C 
BRANCH  15  16
ATOM     16  C   UNL     1      59.163 153.205   1.957  1.00  0.00     0.000 C 
BRANCH  16  17
ATOM     17  C   UNL     1      58.838 154.013   3.223  1.00  0.00     0.000 C 
BRANCH  17  18
ATOM     18  C   UNL     1      58.859 153.151   4.498  1.00  0.00     0.000 C 
BRANCH  18  19
ATOM     19  C   UNL     1      58.363 153.908   5.743  1.00  0.00     0.000 C 
BRANCH  19  20
ATOM     20  C   UNL     1      59.289 153.817   6.969  1.00  0.00     0.006 C 
BRANCH  20  21
ATOM     21  C   UNL     1      60.086 155.104   7.217  1.00  0.00     0.053 C 
BRANCH  21  22
ATOM     22  C   UNL     1      61.553 154.854   7.066  1.00  0.00     0.041 C 
ATOM     23  O   UNL     1      62.382 155.746   7.385  1.00  0.00    -0.550 OA
ATOM     24  O   UNL     1      62.007 153.624   6.608  1.00  0.00    -0.550 OA
ENDBRANCH  21  22
ENDBRANCH  20  21
ENDBRANCH  19  20
ENDBRANCH  18  19
ENDBRANCH  17  18
ENDBRANCH  16  17
ENDBRANCH  15  16
ENDBRANCH  14  15
ENDBRANCH  13  14
ENDBRANCH   1  13
TORSDOF 20
ENDMDL
MODEL 5
REMARK VINA RESULT:    -5.097      2.128      3.887
REMARK INTER + INTRA:         -13.896
REMARK INTER:                 -11.617
REMARK INTRA:                  -2.279
REMARK UNBOUND:                -2.840
REMARK SMILES CCCCCCCCCCCCCCCCCCCCCC(=O)[O-]
REMARK SMILES IDX 12 1 11 2 10 3 9 4 8 5 7 6 6 7 5 8 4 9 3 10 2 11 1 12 13 13
REMARK SMILES IDX 14 14 15 15 16 16 17 17 18 18 19 19 20 20 21 21 22 22 23 23
REMARK SMILES IDX 24 24
REMARK H PARENT
REMARK Flexibility Score: inf
ROOT
ATOM      1  C   UNL     1      63.627 153.293   6.121  1.00  0.00     0.000 C 
ENDROOT
BRANCH   1   2
ATOM      2  C   UNL     1      64.805 152.599   5.408  1.00  0.00     0.000 C 
BRANCH   2   3
ATOM      3  C   UNL     1      64.548 152.211   3.937  1.00  0.00     0.000 C 
BRANCH   3   4
ATOM      4  C   UNL     1      64.100 150.756   3.708  1.00  0.00    -0.000 C 
BRANCH   4   5
ATOM      5  C   UNL     1      65.198 149.730   4.036  1.00  0.00    -0.000 C 
BRANCH   5   6
ATOM      6  C   UNL     1      65.020 149.085   5.424  1.00  0.00    -0.000 C 
BRANCH   6   7
ATOM      7  C   UNL     1      63.577 149.070   5.962  1.00  0.00    -0.000 C 
BRANCH   7   8
ATOM      8  C   UNL     1      62.739 147.911   5.397  1.00  0.00    -0.000 C 
BRANCH   8   9
ATOM      9  C   UNL     1      61.368 147.778   6.081  1.00  0.00    -0.000 C 
BRANCH   9  10
ATOM     10  C   UNL     1      60.743 149.131   6.487  1.00  0.00    -0.000 C 
BRANCH  10  11
ATOM     11  C   UNL     1      59.313 148.967   7.020  1.00  0.00    -0.003 C 
ATOM     12  C   UNL     1      58.625 150.320   7.181  1.00  0.00     0.004 C 
ENDBRANCH  10  11
ENDBRANCH   9  10
ENDBRANCH   8   9
ENDBRANCH   7   8
ENDBRANCH   6   7
ENDBRANCH   5   6
ENDBRANCH   4   5
ENDBRANCH   3   4
ENDBRANCH   2   3
ENDBRANCH   1   2
BRANCH   1  13
ATOM     13  C   UNL     1      62.305 152.506   6.101  1.00  0.00     0.000 C 
BRANCH  13  14
ATOM     14  C   UNL     1      61.221 153.137   6.988  1.00  0.00     0.000 C 
BRANCH  14  15
ATOM     15  C   UNL     1      60.082 153.706   6.134  1.00  0.00     0.000 C 
BRANCH  15  16
ATOM     16  C   UNL     1      59.980 155.231   6.291  1.00  0.00     0.000 C 
BRANCH  16  17
ATOM     17  C   UNL     1      58.945 155.853   5.340  1.00  0.00     0.000 C 
BRANCH  17  18
ATOM     18  C   UNL     1      58.339 154.826   4.369  1.00  0.00     0.000 C 
BRANCH  18  19
ATOM     19  C   UNL     1      58.181 155.371   2.938  1.00  0.00     0.000 C 
BRANCH  19  20
ATOM     20  C   UNL     1      58.560 154.381   1.821  1.00  0.00     0.006 C 
BRANCH  20  21
ATOM     21  C   UNL     1      59.306 153.146   2.342  1.00  0.00     0.053 C 
BRANCH  21  22
ATOM     22  C   UNL     1      60.609 152.976   1.626  1.00  0.00     0.041 C 
ATOM     23  O   UNL     1      61.382 152.033   1.938  1.00  0.00    -0.550 OA
ATOM     24  O   UNL     1      60.954 153.837   0.593  1.00  0.00    -0.550 OA
ENDBRANCH  21  22
ENDBRANCH  20  21
ENDBRANCH  19  20
ENDBRANCH  18  19
ENDBRANCH  17  18
ENDBRANCH  16  17
ENDBRANCH  15  16
ENDBRANCH  14  15
ENDBRANCH  13  14
ENDBRANCH   1  13
TORSDOF 20
ENDMDL
MODEL 6
REMARK VINA RESULT:    -5.065      1.779      3.676
REMARK INTER + INTRA:         -13.827
REMARK INTER:                 -11.182
REMARK INTRA:                  -2.645
REMARK UNBOUND:                -2.840
REMARK SMILES CCCCCCCCCCCCCCCCCCCCCC(=O)[O-]
REMARK SMILES IDX 12 1 11 2 10 3 9 4 8 5 7 6 6 7 5 8 4 9 3 10 2 11 1 12 13 13
REMARK SMILES IDX 14 14 15 15 16 16 17 17 18 18 19 19 20 20 21 21 22 22 23 23
REMARK SMILES IDX 24 24
REMARK H PARENT
REMARK Flexibility Score: inf
ROOT
ATOM      1  C   UNL     1      60.644 152.040   2.681  1.00  0.00     0.000 C 
ENDROOT
BRANCH   1   2
ATOM      2  C   UNL     1      61.363 152.115   4.043  1.00  0.00     0.000 C 
BRANCH   2   3
ATOM      3  C   UNL     1      60.445 152.329   5.263  1.00  0.00     0.000 C 
BRANCH   3   4
ATOM      4  C   UNL     1      60.842 151.552   6.532  1.00  0.00    -0.000 C 
BRANCH   4   5
ATOM      5  C   UNL     1      60.401 150.080   6.499  1.00  0.00    -0.000 C 
BRANCH   5   6
ATOM      6  C   UNL     1      61.555 149.116   6.164  1.00  0.00    -0.000 C 
BRANCH   6   7
ATOM      7  C   UNL     1      62.968 149.654   6.456  1.00  0.00    -0.000 C 
BRANCH   7   8
ATOM      8  C   UNL     1      64.070 148.867   5.728  1.00  0.00    -0.000 C 
BRANCH   8   9
ATOM      9  C   UNL     1      65.111 149.782   5.059  1.00  0.00    -0.000 C 
BRANCH   9  10
ATOM     10  C   UNL     1      64.503 150.782   4.052  1.00  0.00    -0.000 C 
BRANCH  10  11
ATOM     11  C   UNL     1      65.068 152.197   4.235  1.00  0.00    -0.003 C 
ATOM     12  C   UNL     1      64.980 152.644   5.691  1.00  0.00     0.004 C 
ENDBRANCH  10  11
ENDBRANCH   9  10
ENDBRANCH   8   9
ENDBRANCH   7   8
ENDBRANCH   6   7
ENDBRANCH   5   6
ENDBRANCH   4   5
ENDBRANCH   3   4
ENDBRANCH   2   3
ENDBRANCH   1   2
BRANCH   1  13
ATOM     13  C   UNL     1      61.236 152.944   1.586  1.00  0.00     0.000 C 
BRANCH  13  14
ATOM     14  C   UNL     1      60.171 153.783   0.864  1.00  0.00     0.000 C 
BRANCH  14  15
ATOM     15  C   UNL     1      58.798 153.602   1.520  1.00  0.00     0.000 C 
BRANCH  15  16
ATOM     16  C   UNL     1      58.172 154.958   1.881  1.00  0.00     0.000 C 
BRANCH  16  17
ATOM     17  C   UNL     1      58.184 155.228   3.395  1.00  0.00     0.000 C 
BRANCH  17  18
ATOM     18  C   UNL     1      57.875 156.695   3.737  1.00  0.00     0.000 C 
BRANCH  18  19
ATOM     19  C   UNL     1      58.193 157.050   5.201  1.00  0.00     0.000 C 
BRANCH  19  20
ATOM     20  C   UNL     1      58.718 155.880   6.053  1.00  0.00     0.006 C 
BRANCH  20  21
ATOM     21  C   UNL     1      60.186 156.049   6.466  1.00  0.00     0.053 C 
BRANCH  21  22
ATOM     22  C   UNL     1      60.497 155.208   7.663  1.00  0.00     0.041 C 
ATOM     23  O   UNL     1      59.608 154.982   8.525  1.00  0.00    -0.550 OA
ATOM     24  O   UNL     1      61.758 154.644   7.810  1.00  0.00    -0.550 OA
ENDBRANCH  21  22
ENDBRANCH  20  21
ENDBRANCH  19  20
ENDBRANCH  18  19
ENDBRANCH  17  18
ENDBRANCH  16  17
ENDBRANCH  15  16
ENDBRANCH  14  15
ENDBRANCH  13  14
ENDBRANCH   1  13
TORSDOF 20
ENDMDL
MODEL 7
REMARK VINA RESULT:    -5.064      1.418      5.316
REMARK INTER + INTRA:         -13.824
REMARK INTER:                 -10.721
REMARK INTRA:                  -3.103
REMARK UNBOUND:                -2.840
REMARK SMILES CCCCCCCCCCCCCCCCCCCCCC(=O)[O-]
REMARK SMILES IDX 12 1 11 2 10 3 9 4 8 5 7 6 6 7 5 8 4 9 3 10 2 11 1 12 13 13
REMARK SMILES IDX 14 14 15 15 16 16 17 17 18 18 19 19 20 20 21 21 22 22 23 23
REMARK SMILES IDX 24 24
REMARK H PARENT
REMARK Flexibility Score: inf
ROOT
ATOM      1  C   UNL     1      62.970 148.102   5.205  1.00  0.00     0.000 C 
ENDROOT
BRANCH   1   2
ATOM      2  C   UNL     1      64.165 148.887   5.784  1.00  0.00     0.000 C 
BRANCH   2   3
ATOM      3  C   UNL     1      65.206 149.360   4.749  1.00  0.00     0.000 C 
BRANCH   3   4
ATOM      4  C   UNL     1      64.941 150.745   4.132  1.00  0.00    -0.000 C 
BRANCH   4   5
ATOM      5  C   UNL     1      64.040 151.631   5.009  1.00  0.00    -0.000 C 
BRANCH   5   6
ATOM      6  C   UNL     1      62.645 151.859   4.396  1.00  0.00    -0.000 C 
BRANCH   6   7
ATOM      7  C   UNL     1      62.596 151.874   2.857  1.00  0.00    -0.000 C 
BRANCH   7   8
ATOM      8  C   UNL     1      61.191 151.594   2.300  1.00  0.00    -0.000 C 
BRANCH   8   9
ATOM      9  C   UNL     1      60.437 152.878   1.914  1.00  0.00    -0.000 C 
BRANCH   9  10
ATOM     10  C   UNL     1      59.058 153.016   2.593  1.00  0.00    -0.000 C 
BRANCH  10  11
ATOM     11  C   UNL     1      58.592 154.478   2.659  1.00  0.00    -0.003 C 
ATOM     12  C   UNL     1      58.254 155.013   1.271  1.00  0.00     0.004 C 
ENDBRANCH  10  11
ENDBRANCH   9  10
ENDBRANCH   8   9
ENDBRANCH   7   8
ENDBRANCH   6   7
ENDBRANCH   5   6
ENDBRANCH   4   5
ENDBRANCH   3   4
ENDBRANCH   2   3
ENDBRANCH   1   2
BRANCH   1  13
ATOM     13  C   UNL     1      61.606 148.450   5.827  1.00  0.00     0.000 C 
BRANCH  13  14
ATOM     14  C   UNL     1      61.718 149.442   6.994  1.00  0.00     0.000 C 
BRANCH  14  15
ATOM     15  C   UNL     1      60.649 149.156   8.056  1.00  0.00     0.000 C 
BRANCH  15  16
ATOM     16  C   UNL     1      59.461 148.389   7.455  1.00  0.00     0.000 C 
BRANCH  16  17
ATOM     17  C   UNL     1      58.243 149.293   7.203  1.00  0.00     0.000 C 
BRANCH  17  18
ATOM     18  C   UNL     1      58.374 150.667   7.882  1.00  0.00     0.000 C 
BRANCH  18  19
ATOM     19  C   UNL     1      58.117 151.840   6.919  1.00  0.00     0.000 C 
BRANCH  19  20
ATOM     20  C   UNL     1      59.369 152.375   6.201  1.00  0.00     0.006 C 
BRANCH  20  21
ATOM     21  C   UNL     1      60.421 152.937   7.166  1.00  0.00     0.053 C 
BRANCH  21  22
ATOM     22  C   UNL     1      60.886 154.285   6.713  1.00  0.00     0.041 C 
ATOM     23  O   UNL     1      62.071 154.650   6.931  1.00  0.00    -0.550 OA
ATOM     24  O   UNL     1      60.023 155.124   6.020  1.00  0.00    -0.550 OA
ENDBRANCH  21  22
ENDBRANCH  20  21
ENDBRANCH  19  20
ENDBRANCH  18  19
ENDBRANCH  17  18
ENDBRANCH  16  17
ENDBRANCH  15  16
ENDBRANCH  14  15
ENDBRANCH  13  14
ENDBRANCH   1  13
TORSDOF 20
ENDMDL
MODEL 8
REMARK VINA RESULT:    -4.904      1.747      5.086
REMARK INTER + INTRA:         -13.478
REMARK INTER:                 -11.143
REMARK INTRA:                  -2.335
REMARK UNBOUND:                -2.840
REMARK SMILES CCCCCCCCCCCCCCCCCCCCCC(=O)[O-]
REMARK SMILES IDX 12 1 11 2 10 3 9 4 8 5 7 6 6 7 5 8 4 9 3 10 2 11 1 12 13 13
REMARK SMILES IDX 14 14 15 15 16 16 17 17 18 18 19 19 20 20 21 21 22 22 23 23
REMARK SMILES IDX 24 24
REMARK H PARENT
REMARK Flexibility Score: inf
ROOT
ATOM      1  C   UNL     1      58.602 154.893   4.150  1.00  0.00     0.000 C 
ENDROOT
BRANCH   1   2
ATOM      2  C   UNL     1      57.944 155.471   2.881  1.00  0.00     0.000 C 
BRANCH   2   3
ATOM      3  C   UNL     1      58.421 154.852   1.551  1.00  0.00     0.000 C 
BRANCH   3   4
ATOM      4  C   UNL     1      59.062 153.457   1.665  1.00  0.00    -0.000 C 
BRANCH   4   5
ATOM      5  C   UNL     1      60.563 153.455   1.329  1.00  0.00    -0.000 C 
BRANCH   5   6
ATOM      6  C   UNL     1      61.299 152.221   1.884  1.00  0.00    -0.000 C 
BRANCH   6   7
ATOM      7  C   UNL     1      60.999 151.883   3.357  1.00  0.00    -0.000 C 
BRANCH   7   8
ATOM      8  C   UNL     1      62.270 151.749   4.210  1.00  0.00    -0.000 C 
BRANCH   8   9
ATOM      9  C   UNL     1      63.554 151.697   3.363  1.00  0.00    -0.000 C 
BRANCH   9  10
ATOM     10  C   UNL     1      64.623 150.731   3.917  1.00  0.00    -0.000 C 
BRANCH  10  11
ATOM     11  C   UNL     1      64.967 151.032   5.383  1.00  0.00    -0.003 C 
ATOM     12  C   UNL     1      65.496 152.454   5.545  1.00  0.00     0.004 C 
ENDBRANCH  10  11
ENDBRANCH   9  10
ENDBRANCH   8   9
ENDBRANCH   7   8
ENDBRANCH   6   7
ENDBRANCH   5   6
ENDBRANCH   4   5
ENDBRANCH   3   4
ENDBRANCH   2   3
ENDBRANCH   1   2
BRANCH   1  13
ATOM     13  C   UNL     1      58.387 155.725   5.426  1.00  0.00     0.000 C 
BRANCH  13  14
ATOM     14  C   UNL     1      59.701 156.247   6.027  1.00  0.00     0.000 C 
BRANCH  14  15
ATOM     15  C   UNL     1      60.387 155.161   6.864  1.00  0.00     0.000 C 
BRANCH  15  16
ATOM     16  C   UNL     1      59.659 154.948   8.200  1.00  0.00     0.000 C 
BRANCH  16  17
ATOM     17  C   UNL     1      59.340 153.468   8.468  1.00  0.00     0.000 C 
BRANCH  17  18
ATOM     18  C   UNL     1      59.394 152.610   7.193  1.00  0.00     0.000 C 
BRANCH  18  19
ATOM     19  C   UNL     1      59.871 151.170   7.458  1.00  0.00     0.000 C 
BRANCH  19  20
ATOM     20  C   UNL     1      61.375 150.934   7.234  1.00  0.00     0.006 C 
BRANCH  20  21
ATOM     21  C   UNL     1      61.841 149.548   7.698  1.00  0.00     0.053 C 
BRANCH  21  22
ATOM     22  C   UNL     1      61.538 148.514   6.660  1.00  0.00     0.041 C 
ATOM     23  O   UNL     1      60.714 147.595   6.906  1.00  0.00    -0.550 OA
ATOM     24  O   UNL     1      62.137 148.585   5.409  1.00  0.00    -0.550 OA
ENDBRANCH  21  22
ENDBRANCH  20  21
ENDBRANCH  19  20
ENDBRANCH  18  19
ENDBRANCH  17  18
ENDBRANCH  16  17
ENDBRANCH  15  16
ENDBRANCH  14  15
ENDBRANCH  13  14
ENDBRANCH   1  13
TORSDOF 20
ENDMDL
MODEL 9
REMARK VINA RESULT:    -4.877      1.934      4.888
REMARK INTER + INTRA:         -13.420
REMARK INTER:                 -10.401
REMARK INTRA:                  -3.019
REMARK UNBOUND:                -2.840
REMARK SMILES CCCCCCCCCCCCCCCCCCCCCC(=O)[O-]
REMARK SMILES IDX 12 1 11 2 10 3 9 4 8 5 7 6 6 7 5 8 4 9 3 10 2 11 1 12 13 13
REMARK SMILES IDX 14 14 15 15 16 16 17 17 18 18 19 19 20 20 21 21 22 22 23 23
REMARK SMILES IDX 24 24
REMARK H PARENT
REMARK Flexibility Score: inf
ROOT
ATOM      1  C   UNL     1      58.954 153.812   3.783  1.00  0.00     0.000 C 
ENDROOT
BRANCH   1   2
ATOM      2  C   UNL     1      58.286 155.197   3.668  1.00  0.00     0.000 C 
BRANCH   2   3
ATOM      3  C   UNL     1      58.106 155.955   4.999  1.00  0.00     0.000 C 
BRANCH   3   4
ATOM      4  C   UNL     1      59.404 156.231   5.781  1.00  0.00    -0.000 C 
BRANCH   4   5
ATOM      5  C   UNL     1      59.504 155.422   7.086  1.00  0.00    -0.000 C 
BRANCH   5   6
ATOM      6  C   UNL     1      60.503 154.254   6.991  1.00  0.00    -0.000 C 
BRANCH   6   7
ATOM      7  C   UNL     1      59.979 152.897   7.497  1.00  0.00    -0.000 C 
BRANCH   7   8
ATOM      8  C   UNL     1      58.523 152.628   7.086  1.00  0.00    -0.000 C 
BRANCH   8   9
ATOM      9  C   UNL     1      58.245 151.138   6.820  1.00  0.00    -0.000 C 
BRANCH   9  10
ATOM     10  C   UNL     1      59.362 150.199   7.324  1.00  0.00    -0.000 C 
BRANCH  10  11
ATOM     11  C   UNL     1      58.973 148.720   7.192  1.00  0.00    -0.003 C 
ATOM     12  C   UNL     1      60.187 147.811   7.364  1.00  0.00     0.004 C 
ENDBRANCH  10  11
ENDBRANCH   9  10
ENDBRANCH   8   9
ENDBRANCH   7   8
ENDBRANCH   6   7
ENDBRANCH   5   6
ENDBRANCH   4   5
ENDBRANCH   3   4
ENDBRANCH   2   3
ENDBRANCH   1   2
BRANCH   1  13
ATOM     13  C   UNL     1      59.037 153.024   2.464  1.00  0.00     0.000 C 
BRANCH  13  14
ATOM     14  C   UNL     1      59.886 153.731   1.398  1.00  0.00     0.000 C 
BRANCH  14  15
ATOM     15  C   UNL     1      61.275 153.092   1.295  1.00  0.00     0.000 C 
BRANCH  15  16
ATOM     16  C   UNL     1      61.339 151.775   2.086  1.00  0.00     0.000 C 
BRANCH  16  17
ATOM     17  C   UNL     1      62.410 151.802   3.189  1.00  0.00     0.000 C 
BRANCH  17  18
ATOM     18  C   UNL     1      61.832 151.506   4.583  1.00  0.00     0.000 C 
BRANCH  18  19
ATOM     19  C   UNL     1      62.918 151.318   5.656  1.00  0.00     0.000 C 
BRANCH  19  20
ATOM     20  C   UNL     1      62.896 149.953   6.370  1.00  0.00     0.006 C 
BRANCH  20  21
ATOM     21  C   UNL     1      63.486 148.821   5.519  1.00  0.00     0.053 C 
BRANCH  21  22
ATOM     22  C   UNL     1      64.893 149.138   5.121  1.00  0.00     0.041 C 
ATOM     23  O   UNL     1      65.786 149.258   6.001  1.00  0.00    -0.550 OA
ATOM     24  O   UNL     1      65.227 149.265   3.779  1.00  0.00    -0.550 OA
ENDBRANCH  21  22
ENDBRANCH  20  21
ENDBRANCH  19  20
ENDBRANCH  18  19
ENDBRANCH  17  18
ENDBRANCH  16  17
ENDBRANCH  15  16
ENDBRANCH  14  15
ENDBRANCH  13  14
ENDBRANCH   1  13
TORSDOF 20
ENDMDL
