MODEL 1
REMARK VINA RESULT:    -4.541      0.000      0.000
REMARK INTER + INTRA:         -13.296
REMARK INTER:                  -9.850
REMARK INTRA:                  -3.446
REMARK UNBOUND:                -3.446
REMARK SMILES CCCCCCCCCCCCCCCCCCCCCC(=O)[O-]
REMARK SMILES IDX 12 1 11 2 10 3 9 4 8 5 7 6 6 7 5 8 4 9 3 10 2 11 1 12 13 13
REMARK SMILES IDX 14 14 15 15 16 16 17 17 18 18 19 19 20 20 21 21 22 22 23 23
REMARK SMILES IDX 24 24
REMARK H PARENT
REMARK Flexibility Score: inf
ROOT
ATOM      1  C   UNL     1       9.418  16.893  14.224  1.00  0.00     0.000 C 
ENDROOT
BRANCH   1   2
ATOM      2  C   UNL     1       7.941  17.170  14.556  1.00  0.00     0.000 C 
BRANCH   2   3
ATOM      3  C   UNL     1       7.209  17.931  13.437  1.00  0.00     0.000 C 
BRANCH   3   4
ATOM      4  C   UNL     1       8.010  17.939  12.117  1.00  0.00    -0.000 C 
BRANCH   4   5
ATOM      5  C   UNL     1       7.353  17.122  10.993  1.00  0.00    -0.000 C 
BRANCH   5   6
ATOM      6  C   UNL     1       7.973  15.724  10.833  1.00  0.00    -0.000 C 
BRANCH   6   7
ATOM      7  C   UNL     1       8.673  15.541   9.477  1.00  0.00    -0.000 C 
BRANCH   7   8
ATOM      8  C   UNL     1       9.762  14.454   9.515  1.00  0.00    -0.000 C 
BRANCH   8   9
ATOM      9  C   UNL     1      10.504  14.412  10.861  1.00  0.00    -0.000 C 
BRANCH   9  10
ATOM     10  C   UNL     1      12.017  14.644  10.708  1.00  0.00    -0.000 C 
BRANCH  10  11
ATOM     11  C   UNL     1      12.359  16.112  10.411  1.00  0.00    -0.003 C 
ATOM     12  C   UNL     1      11.571  17.091  11.283  1.00  0.00     0.004 C 
ENDBRANCH  10  11
ENDBRANCH   9  10
ENDBRANCH   8   9
ENDBRANCH   7   8
ENDBRANCH   6   7
ENDBRANCH   5   6
ENDBRANCH   4   5
ENDBRANCH   3   4
ENDBRANCH   2   3
ENDBRANCH   1   2
BRANCH   1  13
ATOM     13  C   UNL     1       9.779  15.402  14.066  1.00  0.00     0.000 C 
BRANCH  13  14
ATOM     14  C   UNL     1       9.467  14.524  15.293  1.00  0.00     0.000 C 
BRANCH  14  15
ATOM     15  C   UNL     1      10.265  13.206  15.378  1.00  0.00     0.000 C 
BRANCH  15  16
ATOM     16  C   UNL     1      11.284  13.131  16.530  1.00  0.00     0.000 C 
BRANCH  16  17
ATOM     17  C   UNL     1      12.463  14.101  16.346  1.00  0.00     0.000 C 
BRANCH  17  18
ATOM     18  C   UNL     1      13.231  13.873  15.030  1.00  0.00     0.000 C 
BRANCH  18  19
ATOM     19  C   UNL     1      13.462  15.133  14.176  1.00  0.00     0.000 C 
BRANCH  19  20
ATOM     20  C   UNL     1      13.118  16.436  14.917  1.00  0.00     0.006 C 
BRANCH  20  21
ATOM     21  C   UNL     1      13.646  17.676  14.184  1.00  0.00     0.053 C 
BRANCH  21  22
ATOM     22  C   UNL     1      14.554  18.491  15.055  1.00  0.00     0.041 C 
ATOM     23  O   UNL     1      14.072  19.322  15.870  1.00  0.00    -0.550 OA
ATOM     24  O   UNL     1      15.931  18.353  14.943  1.00  0.00    -0.550 OA
ENDBRANCH  21  22
ENDBRANCH  20  21
ENDBRANCH  19  20
ENDBRANCH  18  19
ENDBRANCH  17  18
ENDBRANCH  16  17
ENDBRANCH  15  16
ENDBRANCH  14  15
ENDBRANCH  13  14
ENDBRANCH   1  13
TORSDOF 20
ENDMDL
MODEL 2
REMARK VINA RESULT:    -4.409      1.504      3.696
REMARK INTER + INTRA:         -13.009
REMARK INTER:                 -10.060
REMARK INTRA:                  -2.949
REMARK UNBOUND:                -3.446
REMARK SMILES CCCCCCCCCCCCCCCCCCCCCC(=O)[O-]
REMARK SMILES IDX 12 1 11 2 10 3 9 4 8 5 7 6 6 7 5 8 4 9 3 10 2 11 1 12 13 13
REMARK SMILES IDX 14 14 15 15 16 16 17 17 18 18 19 19 20 20 21 21 22 22 23 23
REMARK SMILES IDX 24 24
REMARK H PARENT
REMARK Flexibility Score: inf
ROOT
ATOM      1  C   UNL     1      10.253  13.385  15.335  1.00  0.00     0.000 C 
ENDROOT
BRANCH   1   2
ATOM      2  C   UNL     1       9.441  14.691  15.276  1.00  0.00     0.000 C 
BRANCH   2   3
ATOM      3  C   UNL     1       9.720  15.511  14.004  1.00  0.00     0.000 C 
BRANCH   3   4
ATOM      4  C   UNL     1      10.346  14.654  12.883  1.00  0.00    -0.000 C 
BRANCH   4   5
ATOM      5  C   UNL     1      11.150  15.472  11.859  1.00  0.00    -0.000 C 
BRANCH   5   6
ATOM      6  C   UNL     1      11.103  14.869  10.446  1.00  0.00    -0.000 C 
BRANCH   6   7
ATOM      7  C   UNL     1       9.878  13.966  10.230  1.00  0.00    -0.000 C 
BRANCH   7   8
ATOM      8  C   UNL     1       8.873  14.562   9.228  1.00  0.00    -0.000 C 
BRANCH   8   9
ATOM      9  C   UNL     1       8.462  15.998   9.589  1.00  0.00    -0.000 C 
BRANCH   9  10
ATOM     10  C   UNL     1       7.566  16.059  10.838  1.00  0.00    -0.000 C 
BRANCH  10  11
ATOM     11  C   UNL     1       7.688  17.396  11.584  1.00  0.00    -0.003 C 
ATOM     12  C   UNL     1       6.361  18.152  11.663  1.00  0.00     0.004 C 
ENDBRANCH  10  11
ENDBRANCH   9  10
ENDBRANCH   8   9
ENDBRANCH   7   8
ENDBRANCH   6   7
ENDBRANCH   5   6
ENDBRANCH   4   5
ENDBRANCH   3   4
ENDBRANCH   2   3
ENDBRANCH   1   2
BRANCH   1  13
ATOM     13  C   UNL     1      11.219  13.276  16.531  1.00  0.00     0.000 C 
BRANCH  13  14
ATOM     14  C   UNL     1      12.513  14.101  16.399  1.00  0.00     0.000 C 
BRANCH  14  15
ATOM     15  C   UNL     1      13.210  14.015  15.026  1.00  0.00     0.000 C 
BRANCH  15  16
ATOM     16  C   UNL     1      13.727  15.354  14.469  1.00  0.00     0.000 C 
BRANCH  16  17
ATOM     17  C   UNL     1      12.893  16.557  14.940  1.00  0.00     0.000 C 
BRANCH  17  18
ATOM     18  C   UNL     1      13.404  17.899  14.382  1.00  0.00     0.000 C 
BRANCH  18  19
ATOM     19  C   UNL     1      14.382  18.661  15.295  1.00  0.00     0.000 C 
BRANCH  19  20
ATOM     20  C   UNL     1      15.858  18.355  14.987  1.00  0.00     0.006 C 
BRANCH  20  21
ATOM     21  C   UNL     1      16.340  19.052  13.709  1.00  0.00     0.053 C 
BRANCH  21  22
ATOM     22  C   UNL     1      16.935  18.079  12.737  1.00  0.00     0.041 C 
ATOM     23  O   UNL     1      18.032  18.337  12.172  1.00  0.00    -0.550 OA
ATOM     24  O   UNL     1      16.264  16.902  12.433  1.00  0.00    -0.550 OA
ENDBRANCH  21  22
ENDBRANCH  20  21
ENDBRANCH  19  20
ENDBRANCH  18  19
ENDBRANCH  17  18
ENDBRANCH  16  17
ENDBRANCH  15  16
ENDBRANCH  14  15
ENDBRANCH  13  14
ENDBRANCH   1  13
TORSDOF 20
ENDMDL
MODEL 3
REMARK VINA RESULT:    -4.402      2.267      6.219
REMARK INTER + INTRA:         -12.995
REMARK INTER:                  -9.306
REMARK INTRA:                  -3.689
REMARK UNBOUND:                -3.446
REMARK SMILES CCCCCCCCCCCCCCCCCCCCCC(=O)[O-]
REMARK SMILES IDX 12 1 11 2 10 3 9 4 8 5 7 6 6 7 5 8 4 9 3 10 2 11 1 12 13 13
REMARK SMILES IDX 14 14 15 15 16 16 17 17 18 18 19 19 20 20 21 21 22 22 23 23
REMARK SMILES IDX 24 24
REMARK H PARENT
REMARK Flexibility Score: inf
ROOT
ATOM      1  C   UNL     1      12.187  18.653  13.568  1.00  0.00     0.000 C 
ENDROOT
BRANCH   1   2
ATOM      2  C   UNL     1      12.637  18.070  14.920  1.00  0.00     0.000 C 
BRANCH   2   3
ATOM      3  C   UNL     1      14.148  18.233  15.168  1.00  0.00     0.000 C 
BRANCH   3   4
ATOM      4  C   UNL     1      14.959  18.211  13.855  1.00  0.00    -0.000 C 
BRANCH   4   5
ATOM      5  C   UNL     1      15.485  16.816  13.479  1.00  0.00    -0.000 C 
BRANCH   5   6
ATOM      6  C   UNL     1      14.685  16.165  12.339  1.00  0.00    -0.000 C 
BRANCH   6   7
ATOM      7  C   UNL     1      14.139  14.779  12.718  1.00  0.00    -0.000 C 
BRANCH   7   8
ATOM      8  C   UNL     1      14.000  14.593  14.240  1.00  0.00    -0.000 C 
BRANCH   8   9
ATOM      9  C   UNL     1      12.754  13.778  14.621  1.00  0.00    -0.000 C 
BRANCH   9  10
ATOM     10  C   UNL     1      12.306  14.030  16.071  1.00  0.00    -0.000 C 
BRANCH  10  11
ATOM     11  C   UNL     1      11.136  13.127  16.490  1.00  0.00    -0.003 C 
ATOM     12  C   UNL     1      10.572  12.312  15.325  1.00  0.00     0.004 C 
ENDBRANCH  10  11
ENDBRANCH   9  10
ENDBRANCH   8   9
ENDBRANCH   7   8
ENDBRANCH   6   7
ENDBRANCH   5   6
ENDBRANCH   4   5
ENDBRANCH   3   4
ENDBRANCH   2   3
ENDBRANCH   1   2
BRANCH   1  13
ATOM     13  C   UNL     1      11.278  17.729  12.735  1.00  0.00     0.000 C 
BRANCH  13  14
ATOM     14  C   UNL     1      10.629  16.573  13.520  1.00  0.00     0.000 C 
BRANCH  14  15
ATOM     15  C   UNL     1      10.358  15.293  12.702  1.00  0.00     0.000 C 
BRANCH  15  16
ATOM     16  C   UNL     1      10.561  15.432  11.182  1.00  0.00     0.000 C 
BRANCH  16  17
ATOM     17  C   UNL     1       9.236  15.422  10.401  1.00  0.00     0.000 C 
BRANCH  17  18
ATOM     18  C   UNL     1       8.042  15.923  11.234  1.00  0.00     0.000 C 
BRANCH  18  19
ATOM     19  C   UNL     1       7.503  17.311  10.843  1.00  0.00     0.000 C 
BRANCH  19  20
ATOM     20  C   UNL     1       6.710  17.991  11.973  1.00  0.00     0.006 C 
BRANCH  20  21
ATOM     21  C   UNL     1       7.559  19.011  12.743  1.00  0.00     0.053 C 
BRANCH  21  22
ATOM     22  C   UNL     1       7.837  18.556  14.144  1.00  0.00     0.041 C 
ATOM     23  O   UNL     1       8.551  19.258  14.908  1.00  0.00    -0.550 OA
ATOM     24  O   UNL     1       7.334  17.343  14.593  1.00  0.00    -0.550 OA
ENDBRANCH  21  22
ENDBRANCH  20  21
ENDBRANCH  19  20
ENDBRANCH  18  19
ENDBRANCH  17  18
ENDBRANCH  16  17
ENDBRANCH  15  16
ENDBRANCH  14  15
ENDBRANCH  13  14
ENDBRANCH   1  13
TORSDOF 20
ENDMDL
MODEL 4
REMARK VINA RESULT:    -4.371      1.063      2.665
REMARK INTER + INTRA:         -12.927
REMARK INTER:                  -9.456
REMARK INTRA:                  -3.470
REMARK UNBOUND:                -3.446
REMARK SMILES CCCCCCCCCCCCCCCCCCCCCC(=O)[O-]
REMARK SMILES IDX 12 1 11 2 10 3 9 4 8 5 7 6 6 7 5 8 4 9 3 10 2 11 1 12 13 13
REMARK SMILES IDX 14 14 15 15 16 16 17 17 18 18 19 19 20 20 21 21 22 22 23 23
REMARK SMILES IDX 24 24
REMARK H PARENT
REMARK Flexibility Score: inf
ROOT
ATOM      1  C   UNL     1       9.372  14.583  15.399  1.00  0.00     0.000 C 
ENDROOT
BRANCH   1   2
ATOM      2  C   UNL     1       9.412  15.384  14.086  1.00  0.00     0.000 C 
BRANCH   2   3
ATOM      3  C   UNL     1      10.062  16.770  14.251  1.00  0.00     0.000 C 
BRANCH   3   4
ATOM      4  C   UNL     1       9.012  17.898  14.342  1.00  0.00    -0.000 C 
BRANCH   4   5
ATOM      5  C   UNL     1       7.579  17.433  14.034  1.00  0.00    -0.000 C 
BRANCH   5   6
ATOM      6  C   UNL     1       7.030  18.022  12.725  1.00  0.00    -0.000 C 
BRANCH   6   7
ATOM      7  C   UNL     1       7.367  17.157  11.500  1.00  0.00    -0.000 C 
BRANCH   7   8
ATOM      8  C   UNL     1       8.561  17.706  10.698  1.00  0.00    -0.000 C 
BRANCH   8   9
ATOM      9  C   UNL     1       9.664  16.656  10.492  1.00  0.00    -0.000 C 
BRANCH   9  10
ATOM     10  C   UNL     1       9.114  15.220  10.465  1.00  0.00    -0.000 C 
BRANCH  10  11
ATOM     11  C   UNL     1      10.229  14.163  10.466  1.00  0.00    -0.003 C 
ATOM     12  C   UNL     1      11.523  14.668   9.826  1.00  0.00     0.004 C 
ENDBRANCH  10  11
ENDBRANCH   9  10
ENDBRANCH   8   9
ENDBRANCH   7   8
ENDBRANCH   6   7
ENDBRANCH   5   6
ENDBRANCH   4   5
ENDBRANCH   3   4
ENDBRANCH   2   3
ENDBRANCH   1   2
BRANCH   1  13
ATOM     13  C   UNL     1      10.220  13.295  15.399  1.00  0.00     0.000 C 
BRANCH  13  14
ATOM     14  C   UNL     1      11.462  13.335  16.311  1.00  0.00     0.000 C 
BRANCH  14  15
ATOM     15  C   UNL     1      12.578  14.300  15.860  1.00  0.00     0.000 C 
BRANCH  15  16
ATOM     16  C   UNL     1      13.413  13.820  14.658  1.00  0.00     0.000 C 
BRANCH  16  17
ATOM     17  C   UNL     1      12.876  14.339  13.314  1.00  0.00     0.000 C 
BRANCH  17  18
ATOM     18  C   UNL     1      13.354  15.766  12.986  1.00  0.00     0.000 C 
BRANCH  18  19
ATOM     19  C   UNL     1      14.808  16.080  13.383  1.00  0.00     0.000 C 
BRANCH  19  20
ATOM     20  C   UNL     1      14.927  17.279  14.340  1.00  0.00     0.006 C 
BRANCH  20  21
ATOM     21  C   UNL     1      13.558  17.755  14.843  1.00  0.00     0.053 C 
BRANCH  21  22
ATOM     22  C   UNL     1      13.689  18.888  15.816  1.00  0.00     0.041 C 
ATOM     23  O   UNL     1      14.800  19.136  16.355  1.00  0.00    -0.550 OA
ATOM     24  O   UNL     1      12.576  19.648  16.150  1.00  0.00    -0.550 OA
ENDBRANCH  21  22
ENDBRANCH  20  21
ENDBRANCH  19  20
ENDBRANCH  18  19
ENDBRANCH  17  18
ENDBRANCH  16  17
ENDBRANCH  15  16
ENDBRANCH  14  15
ENDBRANCH  13  14
ENDBRANCH   1  13
TORSDOF 20
ENDMDL
MODEL 5
REMARK VINA RESULT:    -4.358      1.144      2.294
REMARK INTER + INTRA:         -12.900
REMARK INTER:                  -9.495
REMARK INTRA:                  -3.405
REMARK UNBOUND:                -3.446
REMARK SMILES CCCCCCCCCCCCCCCCCCCCCC(=O)[O-]
REMARK SMILES IDX 12 1 11 2 10 3 9 4 8 5 7 6 6 7 5 8 4 9 3 10 2 11 1 12 13 13
REMARK SMILES IDX 14 14 15 15 16 16 17 17 18 18 19 19 20 20 21 21 22 22 23 23
REMARK SMILES IDX 24 24
REMARK H PARENT
REMARK Flexibility Score: inf
ROOT
ATOM      1  C   UNL     1       8.861  17.761  14.288  1.00  0.00     0.000 C 
ENDROOT
BRANCH   1   2
ATOM      2  C   UNL     1       7.556  17.214  13.684  1.00  0.00     0.000 C 
BRANCH   2   3
ATOM      3  C   UNL     1       7.228  17.831  12.313  1.00  0.00     0.000 C 
BRANCH   3   4
ATOM      4  C   UNL     1       7.607  16.894  11.146  1.00  0.00    -0.000 C 
BRANCH   4   5
ATOM      5  C   UNL     1       8.480  17.567  10.074  1.00  0.00    -0.000 C 
BRANCH   5   6
ATOM      6  C   UNL     1       9.572  18.467  10.675  1.00  0.00    -0.000 C 
BRANCH   6   7
ATOM      7  C   UNL     1      10.853  17.691  11.021  1.00  0.00    -0.000 C 
BRANCH   7   8
ATOM      8  C   UNL     1      11.176  16.594   9.991  1.00  0.00    -0.000 C 
BRANCH   8   9
ATOM      9  C   UNL     1      11.057  15.180  10.581  1.00  0.00    -0.000 C 
BRANCH   9  10
ATOM     10  C   UNL     1      10.511  14.161   9.567  1.00  0.00    -0.000 C 
BRANCH  10  11
ATOM     11  C   UNL     1       9.034  13.818   9.814  1.00  0.00    -0.003 C 
ATOM     12  C   UNL     1       8.484  12.810   8.804  1.00  0.00     0.004 C 
ENDBRANCH  10  11
ENDBRANCH   9  10
ENDBRANCH   8   9
ENDBRANCH   7   8
ENDBRANCH   6   7
ENDBRANCH   5   6
ENDBRANCH   4   5
ENDBRANCH   3   4
ENDBRANCH   2   3
ENDBRANCH   1   2
BRANCH   1  13
ATOM     13  C   UNL     1      10.047  16.776  14.270  1.00  0.00     0.000 C 
BRANCH  13  14
ATOM     14  C   UNL     1       9.665  15.302  14.034  1.00  0.00     0.000 C 
BRANCH  14  15
ATOM     15  C   UNL     1       9.451  14.465  15.312  1.00  0.00     0.000 C 
BRANCH  15  16
ATOM     16  C   UNL     1      10.349  13.221  15.438  1.00  0.00     0.000 C 
BRANCH  16  17
ATOM     17  C   UNL     1      11.464  13.394  16.483  1.00  0.00     0.000 C 
BRANCH  17  18
ATOM     18  C   UNL     1      12.670  14.189  15.949  1.00  0.00     0.000 C 
BRANCH  18  19
ATOM     19  C   UNL     1      13.188  13.750  14.567  1.00  0.00     0.000 C 
BRANCH  19  20
ATOM     20  C   UNL     1      13.423  14.930  13.609  1.00  0.00     0.006 C 
BRANCH  20  21
ATOM     21  C   UNL     1      13.520  16.269  14.352  1.00  0.00     0.053 C 
BRANCH  21  22
ATOM     22  C   UNL     1      14.844  16.934  14.126  1.00  0.00     0.041 C 
ATOM     23  O   UNL     1      15.252  17.822  14.922  1.00  0.00    -0.550 OA
ATOM     24  O   UNL     1      15.612  16.594  13.021  1.00  0.00    -0.550 OA
ENDBRANCH  21  22
ENDBRANCH  20  21
ENDBRANCH  19  20
ENDBRANCH  18  19
ENDBRANCH  17  18
ENDBRANCH  16  17
ENDBRANCH  15  16
ENDBRANCH  14  15
ENDBRANCH  13  14
ENDBRANCH   1  13
TORSDOF 20
ENDMDL
MODEL 6
REMARK VINA RESULT:    -4.341      1.558      4.310
REMARK INTER + INTRA:         -12.863
REMARK INTER:                  -9.627
REMARK INTRA:                  -3.236
REMARK UNBOUND:                -3.446
REMARK SMILES CCCCCCCCCCCCCCCCCCCCCC(=O)[O-]
REMARK SMILES IDX 12 1 11 2 10 3 9 4 8 5 7 6 6 7 5 8 4 9 3 10 2 11 1 12 13 13
REMARK SMILES IDX 14 14 15 15 16 16 17 17 18 18 19 19 20 20 21 21 22 22 23 23
REMARK SMILES IDX 24 24
REMARK H PARENT
REMARK Flexibility Score: inf
ROOT
ATOM      1  C   UNL     1      12.483  14.129  16.273  1.00  0.00     0.000 C 
ENDROOT
BRANCH   1   2
ATOM      2  C   UNL     1      11.198  13.317  16.512  1.00  0.00     0.000 C 
BRANCH   2   3
ATOM      3  C   UNL     1      10.316  13.212  15.256  1.00  0.00     0.000 C 
BRANCH   3   4
ATOM      4  C   UNL     1       9.967  14.597  14.670  1.00  0.00    -0.000 C 
BRANCH   4   5
ATOM      5  C   UNL     1       8.684  15.208  15.258  1.00  0.00    -0.000 C 
BRANCH   5   6
ATOM      6  C   UNL     1       8.599  16.729  15.048  1.00  0.00    -0.000 C 
BRANCH   6   7
ATOM      7  C   UNL     1       7.927  17.104  13.718  1.00  0.00    -0.000 C 
BRANCH   7   8
ATOM      8  C   UNL     1       8.862  17.893  12.784  1.00  0.00    -0.000 C 
BRANCH   8   9
ATOM      9  C   UNL     1       8.837  17.363  11.342  1.00  0.00    -0.000 C 
BRANCH   9  10
ATOM     10  C   UNL     1       8.185  15.974  11.234  1.00  0.00    -0.000 C 
BRANCH  10  11
ATOM     11  C   UNL     1       8.952  15.035  10.290  1.00  0.00    -0.003 C 
ATOM     12  C   UNL     1      10.250  14.510  10.904  1.00  0.00     0.004 C 
ENDBRANCH  10  11
ENDBRANCH   9  10
ENDBRANCH   8   9
ENDBRANCH   7   8
ENDBRANCH   6   7
ENDBRANCH   5   6
ENDBRANCH   4   5
ENDBRANCH   3   4
ENDBRANCH   2   3
ENDBRANCH   1   2
BRANCH   1  13
ATOM     13  C   UNL     1      13.207  13.823  14.947  1.00  0.00     0.000 C 
BRANCH  13  14
ATOM     14  C   UNL     1      13.801  15.052  14.231  1.00  0.00     0.000 C 
BRANCH  14  15
ATOM     15  C   UNL     1      13.055  15.493  12.955  1.00  0.00     0.000 C 
BRANCH  15  16
ATOM     16  C   UNL     1      12.477  16.920  12.995  1.00  0.00     0.000 C 
BRANCH  16  17
ATOM     17  C   UNL     1      12.160  17.395  14.422  1.00  0.00     0.000 C 
BRANCH  17  18
ATOM     18  C   UNL     1      12.875  18.707  14.793  1.00  0.00     0.000 C 
BRANCH  18  19
ATOM     19  C   UNL     1      14.224  18.540  15.516  1.00  0.00     0.000 C 
BRANCH  19  20
ATOM     20  C   UNL     1      15.415  19.076  14.704  1.00  0.00     0.006 C 
BRANCH  20  21
ATOM     21  C   UNL     1      15.998  18.013  13.762  1.00  0.00     0.053 C 
BRANCH  21  22
ATOM     22  C   UNL     1      17.148  18.549  12.966  1.00  0.00     0.041 C 
ATOM     23  O   UNL     1      17.801  17.788  12.202  1.00  0.00    -0.550 OA
ATOM     24  O   UNL     1      17.519  19.882  13.091  1.00  0.00    -0.550 OA
ENDBRANCH  21  22
ENDBRANCH  20  21
ENDBRANCH  19  20
ENDBRANCH  18  19
ENDBRANCH  17  18
ENDBRANCH  16  17
ENDBRANCH  15  16
ENDBRANCH  14  15
ENDBRANCH  13  14
ENDBRANCH   1  13
TORSDOF 20
ENDMDL
MODEL 7
REMARK VINA RESULT:    -4.341      2.193      6.364
REMARK INTER + INTRA:         -12.863
REMARK INTER:                 -10.013
REMARK INTRA:                  -2.850
REMARK UNBOUND:                -3.446
REMARK SMILES CCCCCCCCCCCCCCCCCCCCCC(=O)[O-]
REMARK SMILES IDX 12 1 11 2 10 3 9 4 8 5 7 6 6 7 5 8 4 9 3 10 2 11 1 12 13 13
REMARK SMILES IDX 14 14 15 15 16 16 17 17 18 18 19 19 20 20 21 21 22 22 23 23
REMARK SMILES IDX 24 24
REMARK H PARENT
REMARK Flexibility Score: inf
ROOT
ATOM      1  C   UNL     1       9.306  14.802  15.595  1.00  0.00     0.000 C 
ENDROOT
BRANCH   1   2
ATOM      2  C   UNL     1      10.146  13.601  15.126  1.00  0.00     0.000 C 
BRANCH   2   3
ATOM      3  C   UNL     1      11.201  13.170  16.159  1.00  0.00     0.000 C 
BRANCH   3   4
ATOM      4  C   UNL     1      12.488  14.017  16.066  1.00  0.00    -0.000 C 
BRANCH   4   5
ATOM      5  C   UNL     1      13.134  14.005  14.671  1.00  0.00    -0.000 C 
BRANCH   5   6
ATOM      6  C   UNL     1      13.622  15.394  14.229  1.00  0.00    -0.000 C 
BRANCH   6   7
ATOM      7  C   UNL     1      12.844  16.536  14.904  1.00  0.00    -0.000 C 
BRANCH   7   8
ATOM      8  C   UNL     1      13.616  17.867  14.889  1.00  0.00    -0.000 C 
BRANCH   8   9
ATOM      9  C   UNL     1      12.709  19.076  15.166  1.00  0.00    -0.000 C 
BRANCH   9  10
ATOM     10  C   UNL     1      13.186  19.909  16.369  1.00  0.00    -0.000 C 
BRANCH  10  11
ATOM     11  C   UNL     1      14.435  19.314  17.037  1.00  0.00    -0.003 C 
ATOM     12  C   UNL     1      14.681  19.877  18.438  1.00  0.00     0.004 C 
ENDBRANCH  10  11
ENDBRANCH   9  10
ENDBRANCH   8   9
ENDBRANCH   7   8
ENDBRANCH   6   7
ENDBRANCH   5   6
ENDBRANCH   4   5
ENDBRANCH   3   4
ENDBRANCH   2   3
ENDBRANCH   1   2
BRANCH   1  13
ATOM     13  C   UNL     1       8.994  15.842  14.501  1.00  0.00     0.000 C 
BRANCH  13  14
ATOM     14  C   UNL     1       9.880  15.749  13.243  1.00  0.00     0.000 C 
BRANCH  14  15
ATOM     15  C   UNL     1       9.858  16.993  12.331  1.00  0.00     0.000 C 
BRANCH  15  16
ATOM     16  C   UNL     1       8.512  17.275  11.640  1.00  0.00     0.000 C 
BRANCH  16  17
ATOM     17  C   UNL     1       7.912  16.027  10.972  1.00  0.00     0.000 C 
BRANCH  17  18
ATOM     18  C   UNL     1       8.676  15.595   9.707  1.00  0.00     0.000 C 
BRANCH  18  19
ATOM     19  C   UNL     1       9.347  14.211   9.783  1.00  0.00     0.000 C 
BRANCH  19  20
ATOM     20  C   UNL     1      10.800  14.217   9.280  1.00  0.00     0.006 C 
BRANCH  20  21
ATOM     21  C   UNL     1      11.801  14.521  10.403  1.00  0.00     0.053 C 
BRANCH  21  22
ATOM     22  C   UNL     1      12.533  15.806  10.160  1.00  0.00     0.041 C 
ATOM     23  O   UNL     1      13.650  16.012  10.706  1.00  0.00    -0.550 OA
ATOM     24  O   UNL     1      11.967  16.786   9.355  1.00  0.00    -0.550 OA
ENDBRANCH  21  22
ENDBRANCH  20  21
ENDBRANCH  19  20
ENDBRANCH  18  19
ENDBRANCH  17  18
ENDBRANCH  16  17
ENDBRANCH  15  16
ENDBRANCH  14  15
ENDBRANCH  13  14
ENDBRANCH   1  13
TORSDOF 20
ENDMDL
MODEL 8
REMARK VINA RESULT:    -4.332      2.575      6.883
REMARK INTER + INTRA:         -12.843
REMARK INTER:                 -10.265
REMARK INTRA:                  -2.577
REMARK UNBOUND:                -3.446
REMARK SMILES CCCCCCCCCCCCCCCCCCCCCC(=O)[O-]
REMARK SMILES IDX 12 1 11 2 10 3 9 4 8 5 7 6 6 7 5 8 4 9 3 10 2 11 1 12 13 13
REMARK SMILES IDX 14 14 15 15 16 16 17 17 18 18 19 19 20 20 21 21 22 22 23 23
REMARK SMILES IDX 24 24
REMARK H PARENT
REMARK Flexibility Score: inf
ROOT
ATOM      1  C   UNL     1       9.318  14.494  15.428  1.00  0.00     0.000 C 
ENDROOT
BRANCH   1   2
ATOM      2  C   UNL     1      10.224  13.272  15.195  1.00  0.00     0.000 C 
BRANCH   2   3
ATOM      3  C   UNL     1      11.266  13.078  16.311  1.00  0.00     0.000 C 
BRANCH   3   4
ATOM      4  C   UNL     1      12.446  14.065  16.185  1.00  0.00    -0.000 C 
BRANCH   4   5
ATOM      5  C   UNL     1      13.194  13.963  14.845  1.00  0.00    -0.000 C 
BRANCH   5   6
ATOM      6  C   UNL     1      13.798  15.303  14.396  1.00  0.00    -0.000 C 
BRANCH   6   7
ATOM      7  C   UNL     1      12.831  16.482  14.594  1.00  0.00    -0.000 C 
BRANCH   7   8
ATOM      8  C   UNL     1      13.563  17.826  14.758  1.00  0.00    -0.000 C 
BRANCH   8   9
ATOM      9  C   UNL     1      12.618  18.964  15.174  1.00  0.00    -0.000 C 
BRANCH   9  10
ATOM     10  C   UNL     1      13.123  19.729  16.410  1.00  0.00    -0.000 C 
BRANCH  10  11
ATOM     11  C   UNL     1      14.505  19.247  16.875  1.00  0.00    -0.003 C 
ATOM     12  C   UNL     1      14.833  19.684  18.304  1.00  0.00     0.004 C 
ENDBRANCH  10  11
ENDBRANCH   9  10
ENDBRANCH   8   9
ENDBRANCH   7   8
ENDBRANCH   6   7
ENDBRANCH   5   6
ENDBRANCH   4   5
ENDBRANCH   3   4
ENDBRANCH   2   3
ENDBRANCH   1   2
BRANCH   1  13
ATOM     13  C   UNL     1       9.397  15.577  14.334  1.00  0.00     0.000 C 
BRANCH  13  14
ATOM     14  C   UNL     1       8.577  16.850  14.619  1.00  0.00     0.000 C 
BRANCH  14  15
ATOM     15  C   UNL     1       9.253  18.174  14.205  1.00  0.00     0.000 C 
BRANCH  15  16
ATOM     16  C   UNL     1       8.429  19.445  14.484  1.00  0.00     0.000 C 
BRANCH  16  17
ATOM     17  C   UNL     1       7.036  19.406  13.835  1.00  0.00     0.000 C 
BRANCH  17  18
ATOM     18  C   UNL     1       7.089  19.360  12.297  1.00  0.00     0.000 C 
BRANCH  18  19
ATOM     19  C   UNL     1       6.191  18.296  11.638  1.00  0.00     0.000 C 
BRANCH  19  20
ATOM     20  C   UNL     1       6.906  17.506  10.529  1.00  0.00     0.006 C 
BRANCH  20  21
ATOM     21  C   UNL     1       7.546  16.216  11.058  1.00  0.00     0.053 C 
BRANCH  21  22
ATOM     22  C   UNL     1       9.018  16.172  10.780  1.00  0.00     0.041 C 
ATOM     23  O   UNL     1       9.601  15.067  10.616  1.00  0.00    -0.550 OA
ATOM     24  O   UNL     1       9.751  17.351  10.733  1.00  0.00    -0.550 OA
ENDBRANCH  21  22
ENDBRANCH  20  21
ENDBRANCH  19  20
ENDBRANCH  18  19
ENDBRANCH  17  18
ENDBRANCH  16  17
ENDBRANCH  15  16
ENDBRANCH  14  15
ENDBRANCH  13  14
ENDBRANCH   1  13
TORSDOF 20
ENDMDL
MODEL 9
REMARK VINA RESULT:    -4.326      2.394      6.180
REMARK INTER + INTRA:         -12.829
REMARK INTER:                  -9.827
REMARK INTRA:                  -3.003
REMARK UNBOUND:                -3.446
REMARK SMILES CCCCCCCCCCCCCCCCCCCCCC(=O)[O-]
REMARK SMILES IDX 12 1 11 2 10 3 9 4 8 5 7 6 6 7 5 8 4 9 3 10 2 11 1 12 13 13
REMARK SMILES IDX 14 14 15 15 16 16 17 17 18 18 19 19 20 20 21 21 22 22 23 23
REMARK SMILES IDX 24 24
REMARK H PARENT
REMARK Flexibility Score: inf
ROOT
ATOM      1  C   UNL     1       9.586  15.370  14.064  1.00  0.00     0.000 C 
ENDROOT
BRANCH   1   2
ATOM      2  C   UNL     1       9.447  14.604  15.391  1.00  0.00     0.000 C 
BRANCH   2   3
ATOM      3  C   UNL     1      10.224  13.275  15.398  1.00  0.00     0.000 C 
BRANCH   3   4
ATOM      4  C   UNL     1      11.344  13.261  16.460  1.00  0.00    -0.000 C 
BRANCH   4   5
ATOM      5  C   UNL     1      12.568  14.108  16.075  1.00  0.00    -0.000 C 
BRANCH   5   6
ATOM      6  C   UNL     1      13.123  13.755  14.686  1.00  0.00    -0.000 C 
BRANCH   6   7
ATOM      7  C   UNL     1      13.399  15.000  13.827  1.00  0.00    -0.000 C 
BRANCH   7   8
ATOM      8  C   UNL     1      13.448  16.294  14.659  1.00  0.00    -0.000 C 
BRANCH   8   9
ATOM      9  C   UNL     1      14.645  17.185  14.291  1.00  0.00    -0.000 C 
BRANCH   9  10
ATOM     10  C   UNL     1      14.398  18.668  14.615  1.00  0.00    -0.000 C 
BRANCH  10  11
ATOM     11  C   UNL     1      13.620  18.862  15.926  1.00  0.00    -0.003 C 
ATOM     12  C   UNL     1      12.321  19.646  15.731  1.00  0.00     0.004 C 
ENDBRANCH  10  11
ENDBRANCH   9  10
ENDBRANCH   8   9
ENDBRANCH   7   8
ENDBRANCH   6   7
ENDBRANCH   5   6
ENDBRANCH   4   5
ENDBRANCH   3   4
ENDBRANCH   2   3
ENDBRANCH   1   2
BRANCH   1  13
ATOM     13  C   UNL     1      10.129  16.807  14.198  1.00  0.00     0.000 C 
BRANCH  13  14
ATOM     14  C   UNL     1       9.051  17.899  14.338  1.00  0.00     0.000 C 
BRANCH  14  15
ATOM     15  C   UNL     1       7.610  17.444  14.031  1.00  0.00     0.000 C 
BRANCH  15  16
ATOM     16  C   UNL     1       7.064  17.878  12.658  1.00  0.00     0.000 C 
BRANCH  16  17
ATOM     17  C   UNL     1       8.022  17.541  11.503  1.00  0.00     0.000 C 
BRANCH  17  18
ATOM     18  C   UNL     1       7.524  16.376  10.628  1.00  0.00     0.000 C 
BRANCH  18  19
ATOM     19  C   UNL     1       8.508  15.201  10.473  1.00  0.00     0.000 C 
BRANCH  19  20
ATOM     20  C   UNL     1       9.960  15.657  10.245  1.00  0.00     0.006 C 
BRANCH  20  21
ATOM     21  C   UNL     1      10.973  14.715  10.908  1.00  0.00     0.053 C 
BRANCH  21  22
ATOM     22  C   UNL     1      12.053  14.302   9.954  1.00  0.00     0.041 C 
ATOM     23  O   UNL     1      11.830  14.282   8.714  1.00  0.00    -0.550 OA
ATOM     24  O   UNL     1      13.294  13.910  10.437  1.00  0.00    -0.550 OA
ENDBRANCH  21  22
ENDBRANCH  20  21
ENDBRANCH  19  20
ENDBRANCH  18  19
ENDBRANCH  17  18
ENDBRANCH  16  17
ENDBRANCH  15  16
ENDBRANCH  14  15
ENDBRANCH  13  14
ENDBRANCH   1  13
TORSDOF 20
ENDMDL
