MODEL 1
REMARK VINA RESULT:    -3.788      0.000      0.000
REMARK INTER + INTRA:          -9.041
REMARK INTER:                  -6.888
REMARK INTRA:                  -2.153
REMARK UNBOUND:                -2.153
REMARK SMILES CCCCCCCCCCCCCCCC(=O)[O-]
REMARK SMILES IDX 9 1 10 2 11 3 12 4 13 5 14 6 15 7 16 8 17 9 18 10 8 11 7 12
REMARK SMILES IDX 6 13 5 14 4 15 3 16 2 17 1 18
REMARK H PARENT
REMARK Flexibility Score: inf
ROOT
ATOM      1  C   UNL     1     185.952 179.975 199.452  1.00  0.00     0.000 C 
ENDROOT
BRANCH   1   2
ATOM      2  C   UNL     1     186.697 181.245 199.011  1.00  0.00     0.000 C 
BRANCH   2   3
ATOM      3  C   UNL     1     186.977 182.206 200.176  1.00  0.00     0.000 C 
BRANCH   3   4
ATOM      4  C   UNL     1     186.117 183.474 200.060  1.00  0.00     0.000 C 
BRANCH   4   5
ATOM      5  C   UNL     1     185.107 183.409 198.900  1.00  0.00     0.000 C 
BRANCH   5   6
ATOM      6  C   UNL     1     183.948 184.420 198.991  1.00  0.00     0.006 C 
BRANCH   6   7
ATOM      7  C   UNL     1     184.189 185.512 200.041  1.00  0.00     0.053 C 
BRANCH   7   8
ATOM      8  C   UNL     1     183.494 186.778 199.647  1.00  0.00     0.041 C 
ATOM      9  O   UNL     1     182.935 187.492 200.520  1.00  0.00    -0.550 OA
ATOM     10  O   UNL     1     183.420 187.142 198.308  1.00  0.00    -0.550 OA
ENDBRANCH   7   8
ENDBRANCH   6   7
ENDBRANCH   5   6
ENDBRANCH   4   5
ENDBRANCH   3   4
ENDBRANCH   2   3
ENDBRANCH   1   2
BRANCH   1  11
ATOM     11  C   UNL     1     185.655 179.958 200.962  1.00  0.00     0.000 C 
BRANCH  11  12
ATOM     12  C   UNL     1     184.151 180.047 201.266  1.00  0.00    -0.000 C 
BRANCH  12  13
ATOM     13  C   UNL     1     183.771 181.341 202.008  1.00  0.00    -0.000 C 
BRANCH  13  14
ATOM     14  C   UNL     1     182.408 181.897 201.564  1.00  0.00    -0.000 C 
BRANCH  14  15
ATOM     15  C   UNL     1     182.143 183.311 202.100  1.00  0.00    -0.000 C 
BRANCH  15  16
ATOM     16  C   UNL     1     181.043 184.008 201.286  1.00  0.00    -0.000 C 
BRANCH  16  17
ATOM     17  C   UNL     1     180.635 183.210 200.038  1.00  0.00    -0.003 C 
ATOM     18  C   UNL     1     179.998 184.084 198.959  1.00  0.00     0.004 C 
ENDBRANCH  16  17
ENDBRANCH  15  16
ENDBRANCH  14  15
ENDBRANCH  13  14
ENDBRANCH  12  13
ENDBRANCH  11  12
ENDBRANCH   1  11
TORSDOF 14
ENDMDL
MODEL 2
REMARK VINA RESULT:    -3.715      1.907      2.678
REMARK INTER + INTRA:          -8.909
REMARK INTER:                  -7.097
REMARK INTRA:                  -1.812
REMARK UNBOUND:                -2.153
REMARK SMILES CCCCCCCCCCCCCCCC(=O)[O-]
REMARK SMILES IDX 9 1 10 2 11 3 12 4 13 5 14 6 15 7 16 8 17 9 18 10 8 11 7 12
REMARK SMILES IDX 6 13 5 14 4 15 3 16 2 17 1 18
REMARK H PARENT
REMARK Flexibility Score: inf
ROOT
ATOM      1  C   UNL     1     186.522 182.030 198.652  1.00  0.00     0.000 C 
ENDROOT
BRANCH   1   2
ATOM      2  C   UNL     1     185.313 182.958 198.858  1.00  0.00     0.000 C 
BRANCH   2   3
ATOM      3  C   UNL     1     185.393 183.758 200.167  1.00  0.00     0.000 C 
BRANCH   3   4
ATOM      4  C   UNL     1     185.320 185.268 199.892  1.00  0.00     0.000 C 
BRANCH   4   5
ATOM      5  C   UNL     1     186.707 185.928 199.789  1.00  0.00     0.000 C 
BRANCH   5   6
ATOM      6  C   UNL     1     186.969 186.689 198.476  1.00  0.00     0.006 C 
BRANCH   6   7
ATOM      7  C   UNL     1     186.013 186.280 197.347  1.00  0.00     0.053 C 
BRANCH   7   8
ATOM      8  C   UNL     1     185.330 187.485 196.780  1.00  0.00     0.041 C 
ATOM      9  O   UNL     1     185.195 188.524 197.478  1.00  0.00    -0.550 OA
ATOM     10  O   UNL     1     184.798 187.443 195.497  1.00  0.00    -0.550 OA
ENDBRANCH   7   8
ENDBRANCH   6   7
ENDBRANCH   5   6
ENDBRANCH   4   5
ENDBRANCH   3   4
ENDBRANCH   2   3
ENDBRANCH   1   2
BRANCH   1  11
ATOM     11  C   UNL     1     186.770 181.107 199.858  1.00  0.00     0.000 C 
BRANCH  11  12
ATOM     12  C   UNL     1     185.648 180.073 200.048  1.00  0.00    -0.000 C 
BRANCH  12  13
ATOM     13  C   UNL     1     185.368 179.766 201.530  1.00  0.00    -0.000 C 
BRANCH  13  14
ATOM     14  C   UNL     1     184.277 180.672 202.125  1.00  0.00    -0.000 C 
BRANCH  14  15
ATOM     15  C   UNL     1     183.123 180.928 201.145  1.00  0.00    -0.000 C 
BRANCH  15  16
ATOM     16  C   UNL     1     182.109 181.916 201.740  1.00  0.00    -0.000 C 
BRANCH  16  17
ATOM     17  C   UNL     1     181.259 182.611 200.664  1.00  0.00    -0.003 C 
ATOM     18  C   UNL     1     181.739 184.028 200.354  1.00  0.00     0.004 C 
ENDBRANCH  16  17
ENDBRANCH  15  16
ENDBRANCH  14  15
ENDBRANCH  13  14
ENDBRANCH  12  13
ENDBRANCH  11  12
ENDBRANCH   1  11
TORSDOF 14
ENDMDL
MODEL 3
REMARK VINA RESULT:    -3.675      2.042      4.425
REMARK INTER + INTRA:          -8.837
REMARK INTER:                  -6.879
REMARK INTRA:                  -1.957
REMARK UNBOUND:                -2.153
REMARK SMILES CCCCCCCCCCCCCCCC(=O)[O-]
REMARK SMILES IDX 9 1 10 2 11 3 12 4 13 5 14 6 15 7 16 8 17 9 18 10 8 11 7 12
REMARK SMILES IDX 6 13 5 14 4 15 3 16 2 17 1 18
REMARK H PARENT
REMARK Flexibility Score: inf
ROOT
ATOM      1  C   UNL     1     182.331 183.361 200.091  1.00  0.00     0.000 C 
ENDROOT
BRANCH   1   2
ATOM      2  C   UNL     1     183.140 184.606 199.690  1.00  0.00     0.000 C 
BRANCH   2   3
ATOM      3  C   UNL     1     184.351 184.849 200.603  1.00  0.00     0.000 C 
BRANCH   3   4
ATOM      4  C   UNL     1     185.643 184.965 199.780  1.00  0.00     0.000 C 
BRANCH   4   5
ATOM      5  C   UNL     1     185.480 184.469 198.332  1.00  0.00     0.000 C 
BRANCH   5   6
ATOM      6  C   UNL     1     186.243 185.287 197.274  1.00  0.00     0.006 C 
BRANCH   6   7
ATOM      7  C   UNL     1     185.572 186.631 196.960  1.00  0.00     0.053 C 
BRANCH   7   8
ATOM      8  C   UNL     1     184.813 186.547 195.673  1.00  0.00     0.041 C 
ATOM      9  O   UNL     1     183.628 186.120 195.663  1.00  0.00    -0.550 OA
ATOM     10  O   UNL     1     185.430 186.892 194.478  1.00  0.00    -0.550 OA
ENDBRANCH   7   8
ENDBRANCH   6   7
ENDBRANCH   5   6
ENDBRANCH   4   5
ENDBRANCH   3   4
ENDBRANCH   2   3
ENDBRANCH   1   2
BRANCH   1  11
ATOM     11  C   UNL     1     182.205 183.206 201.617  1.00  0.00     0.000 C 
BRANCH  11  12
ATOM     12  C   UNL     1     182.623 181.809 202.103  1.00  0.00    -0.000 C 
BRANCH  12  13
ATOM     13  C   UNL     1     184.147 181.600 202.069  1.00  0.00    -0.000 C 
BRANCH  13  14
ATOM     14  C   UNL     1     184.538 180.114 202.022  1.00  0.00    -0.000 C 
BRANCH  14  15
ATOM     15  C   UNL     1     185.350 179.755 200.769  1.00  0.00    -0.000 C 
BRANCH  15  16
ATOM     16  C   UNL     1     185.437 180.954 199.811  1.00  0.00    -0.000 C 
BRANCH  16  17
ATOM     17  C   UNL     1     186.885 181.315 199.446  1.00  0.00    -0.003 C 
ATOM     18  C   UNL     1     187.632 181.996 200.592  1.00  0.00     0.004 C 
ENDBRANCH  16  17
ENDBRANCH  15  16
ENDBRANCH  14  15
ENDBRANCH  13  14
ENDBRANCH  12  13
ENDBRANCH  11  12
ENDBRANCH   1  11
TORSDOF 14
ENDMDL
MODEL 4
REMARK VINA RESULT:    -3.641     14.072     16.264
REMARK INTER + INTRA:          -8.774
REMARK INTER:                  -6.711
REMARK INTRA:                  -2.062
REMARK UNBOUND:                -2.153
REMARK SMILES CCCCCCCCCCCCCCCC(=O)[O-]
REMARK SMILES IDX 9 1 10 2 11 3 12 4 13 5 14 6 15 7 16 8 17 9 18 10 8 11 7 12
REMARK SMILES IDX 6 13 5 14 4 15 3 16 2 17 1 18
REMARK H PARENT
REMARK Flexibility Score: inf
ROOT
ATOM      1  C   UNL     1     197.579 194.836 201.739  1.00  0.00     0.000 C 
ENDROOT
BRANCH   1   2
ATOM      2  C   UNL     1     197.618 196.317 201.331  1.00  0.00     0.000 C 
BRANCH   2   3
ATOM      3  C   UNL     1     196.461 197.131 201.931  1.00  0.00     0.000 C 
BRANCH   3   4
ATOM      4  C   UNL     1     195.161 196.312 201.938  1.00  0.00     0.000 C 
BRANCH   4   5
ATOM      5  C   UNL     1     194.135 196.806 200.902  1.00  0.00     0.000 C 
BRANCH   5   6
ATOM      6  C   UNL     1     192.723 197.066 201.458  1.00  0.00     0.006 C 
BRANCH   6   7
ATOM      7  C   UNL     1     191.619 196.837 200.417  1.00  0.00     0.053 C 
BRANCH   7   8
ATOM      8  C   UNL     1     191.976 197.501 199.124  1.00  0.00     0.041 C 
ATOM      9  O   UNL     1     192.023 198.757 199.049  1.00  0.00    -0.550 OA
ATOM     10  O   UNL     1     192.205 196.734 197.989  1.00  0.00    -0.550 OA
ENDBRANCH   7   8
ENDBRANCH   6   7
ENDBRANCH   5   6
ENDBRANCH   4   5
ENDBRANCH   3   4
ENDBRANCH   2   3
ENDBRANCH   1   2
BRANCH   1  11
ATOM     11  C   UNL     1     197.674 193.888 200.530  1.00  0.00     0.000 C 
BRANCH  11  12
ATOM     12  C   UNL     1     197.253 194.567 199.216  1.00  0.00    -0.000 C 
BRANCH  12  13
ATOM     13  C   UNL     1     195.829 194.181 198.778  1.00  0.00    -0.000 C 
BRANCH  13  14
ATOM     14  C   UNL     1     195.331 192.895 199.458  1.00  0.00    -0.000 C 
BRANCH  14  15
ATOM     15  C   UNL     1     194.058 193.121 200.286  1.00  0.00    -0.000 C 
BRANCH  15  16
ATOM     16  C   UNL     1     192.877 193.504 199.382  1.00  0.00    -0.000 C 
BRANCH  16  17
ATOM     17  C   UNL     1     191.629 192.646 199.644  1.00  0.00    -0.003 C 
ATOM     18  C   UNL     1     191.922 191.424 200.513  1.00  0.00     0.004 C 
ENDBRANCH  16  17
ENDBRANCH  15  16
ENDBRANCH  14  15
ENDBRANCH  13  14
ENDBRANCH  12  13
ENDBRANCH  11  12
ENDBRANCH   1  11
TORSDOF 14
ENDMDL
MODEL 5
REMARK VINA RESULT:    -3.640      1.952      4.692
REMARK INTER + INTRA:          -8.772
REMARK INTER:                  -6.923
REMARK INTRA:                  -1.849
REMARK UNBOUND:                -2.153
REMARK SMILES CCCCCCCCCCCCCCCC(=O)[O-]
REMARK SMILES IDX 9 1 10 2 11 3 12 4 13 5 14 6 15 7 16 8 17 9 18 10 8 11 7 12
REMARK SMILES IDX 6 13 5 14 4 15 3 16 2 17 1 18
REMARK H PARENT
REMARK Flexibility Score: inf
ROOT
ATOM      1  C   UNL     1     182.793 182.204 201.245  1.00  0.00     0.000 C 
ENDROOT
BRANCH   1   2
ATOM      2  C   UNL     1     183.042 183.581 201.883  1.00  0.00     0.000 C 
BRANCH   2   3
ATOM      3  C   UNL     1     183.104 184.714 200.847  1.00  0.00     0.000 C 
BRANCH   3   4
ATOM      4  C   UNL     1     184.524 184.859 200.279  1.00  0.00     0.000 C 
BRANCH   4   5
ATOM      5  C   UNL     1     184.609 184.515 198.781  1.00  0.00     0.000 C 
BRANCH   5   6
ATOM      6  C   UNL     1     185.924 184.927 198.092  1.00  0.00     0.006 C 
BRANCH   6   7
ATOM      7  C   UNL     1     186.712 185.976 198.888  1.00  0.00     0.053 C 
BRANCH   7   8
ATOM      8  C   UNL     1     186.648 187.306 198.204  1.00  0.00     0.041 C 
ATOM      9  O   UNL     1     187.643 188.077 198.225  1.00  0.00    -0.550 OA
ATOM     10  O   UNL     1     185.473 187.715 197.587  1.00  0.00    -0.550 OA
ENDBRANCH   7   8
ENDBRANCH   6   7
ENDBRANCH   5   6
ENDBRANCH   4   5
ENDBRANCH   3   4
ENDBRANCH   2   3
ENDBRANCH   1   2
BRANCH   1  11
ATOM     11  C   UNL     1     183.582 181.080 201.941  1.00  0.00     0.000 C 
BRANCH  11  12
ATOM     12  C   UNL     1     184.095 180.022 200.950  1.00  0.00    -0.000 C 
BRANCH  12  13
ATOM     13  C   UNL     1     185.626 180.051 200.791  1.00  0.00    -0.000 C 
BRANCH  13  14
ATOM     14  C   UNL     1     186.071 180.738 199.490  1.00  0.00    -0.000 C 
BRANCH  14  15
ATOM     15  C   UNL     1     187.144 181.811 199.726  1.00  0.00    -0.000 C 
BRANCH  15  16
ATOM     16  C   UNL     1     187.040 182.386 201.146  1.00  0.00    -0.000 C 
BRANCH  16  17
ATOM     17  C   UNL     1     188.303 182.128 201.983  1.00  0.00    -0.003 C 
ATOM     18  C   UNL     1     189.466 183.040 201.595  1.00  0.00     0.004 C 
ENDBRANCH  16  17
ENDBRANCH  15  16
ENDBRANCH  14  15
ENDBRANCH  13  14
ENDBRANCH  12  13
ENDBRANCH  11  12
ENDBRANCH   1  11
TORSDOF 14
ENDMDL
MODEL 6
REMARK VINA RESULT:    -3.586     14.225     16.563
REMARK INTER + INTRA:          -8.674
REMARK INTER:                  -6.539
REMARK INTRA:                  -2.135
REMARK UNBOUND:                -2.153
REMARK SMILES CCCCCCCCCCCCCCCC(=O)[O-]
REMARK SMILES IDX 9 1 10 2 11 3 12 4 13 5 14 6 15 7 16 8 17 9 18 10 8 11 7 12
REMARK SMILES IDX 6 13 5 14 4 15 3 16 2 17 1 18
REMARK H PARENT
REMARK Flexibility Score: inf
ROOT
ATOM      1  C   UNL     1     196.480 193.894 198.820  1.00  0.00     0.000 C 
ENDROOT
BRANCH   1   2
ATOM      2  C   UNL     1     195.253 194.772 199.117  1.00  0.00     0.000 C 
BRANCH   2   3
ATOM      3  C   UNL     1     194.413 194.244 200.289  1.00  0.00     0.000 C 
BRANCH   3   4
ATOM      4  C   UNL     1     194.092 192.753 200.106  1.00  0.00     0.000 C 
BRANCH   4   5
ATOM      5  C   UNL     1     192.592 192.484 199.886  1.00  0.00     0.000 C 
BRANCH   5   6
ATOM      6  C   UNL     1     192.136 192.508 198.416  1.00  0.00     0.006 C 
BRANCH   6   7
ATOM      7  C   UNL     1     193.224 192.034 197.444  1.00  0.00     0.053 C 
BRANCH   7   8
ATOM      8  C   UNL     1     193.445 193.053 196.370  1.00  0.00     0.041 C 
ATOM      9  O   UNL     1     194.456 192.978 195.623  1.00  0.00    -0.550 OA
ATOM     10  O   UNL     1     192.560 194.114 196.227  1.00  0.00    -0.550 OA
ENDBRANCH   7   8
ENDBRANCH   6   7
ENDBRANCH   5   6
ENDBRANCH   4   5
ENDBRANCH   3   4
ENDBRANCH   2   3
ENDBRANCH   1   2
BRANCH   1  11
ATOM     11  C   UNL     1     197.806 194.597 199.160  1.00  0.00     0.000 C 
BRANCH  11  12
ATOM     12  C   UNL     1     198.410 194.104 200.485  1.00  0.00    -0.000 C 
BRANCH  12  13
ATOM     13  C   UNL     1     197.851 194.853 201.708  1.00  0.00    -0.000 C 
BRANCH  13  14
ATOM     14  C   UNL     1     197.637 196.351 201.434  1.00  0.00    -0.000 C 
BRANCH  14  15
ATOM     15  C   UNL     1     196.361 196.894 202.094  1.00  0.00    -0.000 C 
BRANCH  15  16
ATOM     16  C   UNL     1     195.654 197.900 201.172  1.00  0.00    -0.000 C 
BRANCH  16  17
ATOM     17  C   UNL     1     194.125 197.866 201.323  1.00  0.00    -0.003 C 
ATOM     18  C   UNL     1     193.397 197.900 199.980  1.00  0.00     0.004 C 
ENDBRANCH  16  17
ENDBRANCH  15  16
ENDBRANCH  14  15
ENDBRANCH  13  14
ENDBRANCH  12  13
ENDBRANCH  11  12
ENDBRANCH   1  11
TORSDOF 14
ENDMDL
MODEL 7
REMARK VINA RESULT:    -3.585      2.373      4.182
REMARK INTER + INTRA:          -8.673
REMARK INTER:                  -6.778
REMARK INTRA:                  -1.894
REMARK UNBOUND:                -2.153
REMARK SMILES CCCCCCCCCCCCCCCC(=O)[O-]
REMARK SMILES IDX 9 1 10 2 11 3 12 4 13 5 14 6 15 7 16 8 17 9 18 10 8 11 7 12
REMARK SMILES IDX 6 13 5 14 4 15 3 16 2 17 1 18
REMARK H PARENT
REMARK Flexibility Score: inf
ROOT
ATOM      1  C   UNL     1     185.403 183.535 198.779  1.00  0.00     0.000 C 
ENDROOT
BRANCH   1   2
ATOM      2  C   UNL     1     184.029 184.108 199.164  1.00  0.00     0.000 C 
BRANCH   2   3
ATOM      3  C   UNL     1     184.082 184.989 200.420  1.00  0.00     0.000 C 
BRANCH   3   4
ATOM      4  C   UNL     1     184.052 186.479 200.046  1.00  0.00     0.000 C 
BRANCH   4   5
ATOM      5  C   UNL     1     185.406 187.180 200.260  1.00  0.00     0.000 C 
BRANCH   5   6
ATOM      6  C   UNL     1     186.244 187.381 198.984  1.00  0.00     0.006 C 
BRANCH   6   7
ATOM      7  C   UNL     1     187.487 188.249 199.215  1.00  0.00     0.053 C 
BRANCH   7   8
ATOM      8  C   UNL     1     187.089 189.635 199.615  1.00  0.00     0.041 C 
ATOM      9  O   UNL     1     187.416 190.088 200.743  1.00  0.00    -0.550 OA
ATOM     10  O   UNL     1     186.314 190.409 198.760  1.00  0.00    -0.550 OA
ENDBRANCH   7   8
ENDBRANCH   6   7
ENDBRANCH   5   6
ENDBRANCH   4   5
ENDBRANCH   3   4
ENDBRANCH   2   3
ENDBRANCH   1   2
BRANCH   1  11
ATOM     11  C   UNL     1     186.412 183.592 199.940  1.00  0.00     0.000 C 
BRANCH  11  12
ATOM     12  C   UNL     1     186.921 182.200 200.346  1.00  0.00    -0.000 C 
BRANCH  12  13
ATOM     13  C   UNL     1     186.506 181.102 199.350  1.00  0.00    -0.000 C 
BRANCH  13  14
ATOM     14  C   UNL     1     185.665 179.996 200.008  1.00  0.00    -0.000 C 
BRANCH  14  15
ATOM     15  C   UNL     1     185.681 180.075 201.541  1.00  0.00    -0.000 C 
BRANCH  15  16
ATOM     16  C   UNL     1     184.257 180.226 202.097  1.00  0.00    -0.000 C 
BRANCH  16  17
ATOM     17  C   UNL     1     183.671 181.625 201.849  1.00  0.00    -0.003 C 
ATOM     18  C   UNL     1     182.195 181.587 201.457  1.00  0.00     0.004 C 
ENDBRANCH  16  17
ENDBRANCH  15  16
ENDBRANCH  14  15
ENDBRANCH  13  14
ENDBRANCH  12  13
ENDBRANCH  11  12
ENDBRANCH   1  11
TORSDOF 14
ENDMDL
MODEL 8
REMARK VINA RESULT:    -3.581      2.114      2.838
REMARK INTER + INTRA:          -8.665
REMARK INTER:                  -6.986
REMARK INTRA:                  -1.679
REMARK UNBOUND:                -2.153
REMARK SMILES CCCCCCCCCCCCCCCC(=O)[O-]
REMARK SMILES IDX 9 1 10 2 11 3 12 4 13 5 14 6 15 7 16 8 17 9 18 10 8 11 7 12
REMARK SMILES IDX 6 13 5 14 4 15 3 16 2 17 1 18
REMARK H PARENT
REMARK Flexibility Score: inf
ROOT
ATOM      1  C   UNL     1     186.501 182.109 198.622  1.00  0.00     0.000 C 
ENDROOT
BRANCH   1   2
ATOM      2  C   UNL     1     185.298 183.022 198.909  1.00  0.00     0.000 C 
BRANCH   2   3
ATOM      3  C   UNL     1     185.498 183.896 200.156  1.00  0.00     0.000 C 
BRANCH   3   4
ATOM      4  C   UNL     1     185.340 185.385 199.813  1.00  0.00     0.000 C 
BRANCH   4   5
ATOM      5  C   UNL     1     186.319 185.857 198.723  1.00  0.00     0.000 C 
BRANCH   5   6
ATOM      6  C   UNL     1     186.518 187.382 198.644  1.00  0.00     0.006 C 
BRANCH   6   7
ATOM      7  C   UNL     1     185.532 188.160 199.525  1.00  0.00     0.053 C 
BRANCH   7   8
ATOM      8  C   UNL     1     186.261 188.873 200.620  1.00  0.00     0.041 C 
ATOM      9  O   UNL     1     185.996 188.623 201.826  1.00  0.00    -0.550 OA
ATOM     10  O   UNL     1     187.198 189.850 200.310  1.00  0.00    -0.550 OA
ENDBRANCH   7   8
ENDBRANCH   6   7
ENDBRANCH   5   6
ENDBRANCH   4   5
ENDBRANCH   3   4
ENDBRANCH   2   3
ENDBRANCH   1   2
BRANCH   1  11
ATOM     11  C   UNL     1     186.792 181.135 199.777  1.00  0.00     0.000 C 
BRANCH  11  12
ATOM     12  C   UNL     1     185.654 180.124 199.995  1.00  0.00    -0.000 C 
BRANCH  12  13
ATOM     13  C   UNL     1     185.420 179.805 201.482  1.00  0.00    -0.000 C 
BRANCH  13  14
ATOM     14  C   UNL     1     184.366 180.723 202.123  1.00  0.00    -0.000 C 
BRANCH  14  15
ATOM     15  C   UNL     1     183.213 181.057 201.165  1.00  0.00    -0.000 C 
BRANCH  15  16
ATOM     16  C   UNL     1     182.104 181.833 201.893  1.00  0.00    -0.000 C 
BRANCH  16  17
ATOM     17  C   UNL     1     182.167 183.345 201.625  1.00  0.00    -0.003 C 
ATOM     18  C   UNL     1     181.795 183.708 200.189  1.00  0.00     0.004 C 
ENDBRANCH  16  17
ENDBRANCH  15  16
ENDBRANCH  14  15
ENDBRANCH  13  14
ENDBRANCH  12  13
ENDBRANCH  11  12
ENDBRANCH   1  11
TORSDOF 14
ENDMDL
MODEL 9
REMARK VINA RESULT:    -3.565      3.804      5.476
REMARK INTER + INTRA:          -8.637
REMARK INTER:                  -6.666
REMARK INTRA:                  -1.971
REMARK UNBOUND:                -2.153
REMARK SMILES CCCCCCCCCCCCCCCC(=O)[O-]
REMARK SMILES IDX 9 1 10 2 11 3 12 4 13 5 14 6 15 7 16 8 17 9 18 10 8 11 7 12
REMARK SMILES IDX 6 13 5 14 4 15 3 16 2 17 1 18
REMARK H PARENT
REMARK Flexibility Score: inf
ROOT
ATOM      1  C   UNL     1     183.847 183.474 199.824  1.00  0.00     0.000 C 
ENDROOT
BRANCH   1   2
ATOM      2  C   UNL     1     184.572 184.572 199.030  1.00  0.00     0.000 C 
BRANCH   2   3
ATOM      3  C   UNL     1     185.338 185.552 199.931  1.00  0.00     0.000 C 
BRANCH   3   4
ATOM      4  C   UNL     1     186.747 185.816 199.379  1.00  0.00     0.000 C 
BRANCH   4   5
ATOM      5  C   UNL     1     187.559 186.794 200.248  1.00  0.00     0.000 C 
BRANCH   5   6
ATOM      6  C   UNL     1     188.972 186.310 200.625  1.00  0.00     0.006 C 
BRANCH   6   7
ATOM      7  C   UNL     1     189.724 187.303 201.520  1.00  0.00     0.053 C 
BRANCH   7   8
ATOM      8  C   UNL     1     190.911 187.861 200.799  1.00  0.00     0.041 C 
ATOM      9  O   UNL     1     192.017 187.971 201.391  1.00  0.00    -0.550 OA
ATOM     10  O   UNL     1     190.783 188.305 199.490  1.00  0.00    -0.550 OA
ENDBRANCH   7   8
ENDBRANCH   6   7
ENDBRANCH   5   6
ENDBRANCH   4   5
ENDBRANCH   3   4
ENDBRANCH   2   3
ENDBRANCH   1   2
BRANCH   1  11
ATOM     11  C   UNL     1     183.987 183.656 201.346  1.00  0.00     0.000 C 
BRANCH  11  12
ATOM     12  C   UNL     1     183.977 182.318 202.102  1.00  0.00    -0.000 C 
BRANCH  12  13
ATOM     13  C   UNL     1     183.268 181.199 201.320  1.00  0.00    -0.000 C 
BRANCH  13  14
ATOM     14  C   UNL     1     184.197 180.012 201.015  1.00  0.00    -0.000 C 
BRANCH  14  15
ATOM     15  C   UNL     1     185.683 180.385 201.113  1.00  0.00    -0.000 C 
BRANCH  15  16
ATOM     16  C   UNL     1     186.290 180.587 199.716  1.00  0.00    -0.000 C 
BRANCH  16  17
ATOM     17  C   UNL     1     187.123 181.874 199.614  1.00  0.00    -0.003 C 
ATOM     18  C   UNL     1     187.564 182.403 200.977  1.00  0.00     0.004 C 
ENDBRANCH  16  17
ENDBRANCH  15  16
ENDBRANCH  14  15
ENDBRANCH  13  14
ENDBRANCH  12  13
ENDBRANCH  11  12
ENDBRANCH   1  11
TORSDOF 14
ENDMDL
