MODEL 1
REMARK VINA RESULT:     4.302      0.000      0.000
REMARK INTER + INTRA:           7.380
REMARK INTER:                   7.321
REMARK INTRA:                   0.060
REMARK UNBOUND:                 0.060
REMARK SMILES CCCCCCCCCCCCCC(=O)[O-]
REMARK SMILES IDX 8 1 9 2 10 3 11 4 12 5 13 6 14 7 15 8 16 9 7 10 6 11 5 12
REMARK SMILES IDX 4 13 3 14 2 15 1 16
REMARK H PARENT
REMARK Flexibility Score: inf
ROOT
ATOM      1  C   UNL     1      -5.153 -16.815   7.268  1.00  0.00     0.000 C 
ENDROOT
BRANCH   1   2
ATOM      2  C   UNL     1      -6.114 -15.962   6.420  1.00  0.00     0.000 C 
BRANCH   2   3
ATOM      3  C   UNL     1      -6.702 -14.733   7.139  1.00  0.00     0.000 C 
BRANCH   3   4
ATOM      4  C   UNL     1      -6.956 -13.550   6.189  1.00  0.00     0.000 C 
BRANCH   4   5
ATOM      5  C   UNL     1      -5.974 -12.391   6.414  1.00  0.00     0.006 C 
BRANCH   5   6
ATOM      6  C   UNL     1      -4.526 -12.870   6.584  1.00  0.00     0.053 C 
BRANCH   6   7
ATOM      7  C   UNL     1      -3.882 -12.185   7.748  1.00  0.00     0.041 C 
ATOM      8  O   UNL     1      -3.741 -10.934   7.748  1.00  0.00    -0.550 OA
ATOM      9  O   UNL     1      -3.391 -12.933   8.810  1.00  0.00    -0.550 OA
ENDBRANCH   6   7
ENDBRANCH   5   6
ENDBRANCH   4   5
ENDBRANCH   3   4
ENDBRANCH   2   3
ENDBRANCH   1   2
BRANCH   1  10
ATOM     10  C   UNL     1      -3.736 -16.891   6.674  1.00  0.00     0.000 C 
BRANCH  10  11
ATOM     11  C   UNL     1      -2.814 -15.781   7.204  1.00  0.00    -0.000 C 
BRANCH  11  12
ATOM     12  C   UNL     1      -2.347 -14.819   6.101  1.00  0.00    -0.000 C 
BRANCH  12  13
ATOM     13  C   UNL     1      -1.146 -13.987   6.574  1.00  0.00    -0.000 C 
BRANCH  13  14
ATOM     14  C   UNL     1      -0.767 -14.271   8.037  1.00  0.00    -0.000 C 
BRANCH  14  15
ATOM     15  C   UNL     1       0.649 -13.792   8.385  1.00  0.00    -0.003 C 
ATOM     16  C   UNL     1       1.425 -14.869   9.139  1.00  0.00     0.004 C 
ENDBRANCH  14  15
ENDBRANCH  13  14
ENDBRANCH  12  13
ENDBRANCH  11  12
ENDBRANCH  10  11
ENDBRANCH   1  10
TORSDOF 12
ENDMDL
MODEL 2
REMARK VINA RESULT:     4.466      2.274      5.211
REMARK INTER + INTRA:           7.659
REMARK INTER:                   8.683
REMARK INTRA:                  -1.024
REMARK UNBOUND:                 0.060
REMARK SMILES CCCCCCCCCCCCCC(=O)[O-]
REMARK SMILES IDX 8 1 9 2 10 3 11 4 12 5 13 6 14 7 15 8 16 9 7 10 6 11 5 12
REMARK SMILES IDX 4 13 3 14 2 15 1 16
REMARK H PARENT
REMARK Flexibility Score: inf
ROOT
ATOM      1  C   UNL     1      -5.007 -12.687   7.245  1.00  0.00     0.000 C 
ENDROOT
BRANCH   1   2
ATOM      2  C   UNL     1      -3.485 -12.915   7.289  1.00  0.00     0.000 C 
BRANCH   2   3
ATOM      3  C   UNL     1      -2.929 -13.821   6.174  1.00  0.00     0.000 C 
BRANCH   3   4
ATOM      4  C   UNL     1      -1.488 -14.286   6.446  1.00  0.00     0.000 C 
BRANCH   4   5
ATOM      5  C   UNL     1      -1.176 -14.395   7.946  1.00  0.00     0.006 C 
BRANCH   5   6
ATOM      6  C   UNL     1       0.125 -13.679   8.331  1.00  0.00     0.053 C 
BRANCH   6   7
ATOM      7  C   UNL     1       1.096 -14.646   8.931  1.00  0.00     0.041 C 
ATOM      8  O   UNL     1       1.637 -15.529   8.214  1.00  0.00    -0.550 OA
ATOM      9  O   UNL     1       1.366 -14.606  10.293  1.00  0.00    -0.550 OA
ENDBRANCH   6   7
ENDBRANCH   5   6
ENDBRANCH   4   5
ENDBRANCH   3   4
ENDBRANCH   2   3
ENDBRANCH   1   2
BRANCH   1  10
ATOM     10  C   UNL     1      -5.624 -13.026   5.876  1.00  0.00     0.000 C 
BRANCH  10  11
ATOM     11  C   UNL     1      -6.808 -13.999   5.989  1.00  0.00    -0.000 C 
BRANCH  11  12
ATOM     12  C   UNL     1      -6.859 -14.721   7.344  1.00  0.00    -0.000 C 
BRANCH  12  13
ATOM     13  C   UNL     1      -6.538 -16.214   7.180  1.00  0.00    -0.000 C 
BRANCH  13  14
ATOM     14  C   UNL     1      -5.271 -16.460   6.344  1.00  0.00    -0.000 C 
BRANCH  14  15
ATOM     15  C   UNL     1      -4.004 -16.556   7.205  1.00  0.00    -0.003 C 
ATOM     16  C   UNL     1      -3.123 -17.719   6.758  1.00  0.00     0.004 C 
ENDBRANCH  14  15
ENDBRANCH  13  14
ENDBRANCH  12  13
ENDBRANCH  11  12
ENDBRANCH  10  11
ENDBRANCH   1  10
TORSDOF 12
ENDMDL
MODEL 3
REMARK VINA RESULT:     4.938      2.236      4.989
REMARK INTER + INTRA:           8.463
REMARK INTER:                   9.315
REMARK INTRA:                  -0.852
REMARK UNBOUND:                 0.060
REMARK SMILES CCCCCCCCCCCCCC(=O)[O-]
REMARK SMILES IDX 8 1 9 2 10 3 11 4 12 5 13 6 14 7 15 8 16 9 7 10 6 11 5 12
REMARK SMILES IDX 4 13 3 14 2 15 1 16
REMARK H PARENT
REMARK Flexibility Score: inf
ROOT
ATOM      1  C   UNL     1      -3.894 -16.748   6.682  1.00  0.00     0.000 C 
ENDROOT
BRANCH   1   2
ATOM      2  C   UNL     1      -3.099 -15.531   7.190  1.00  0.00     0.000 C 
BRANCH   2   3
ATOM      3  C   UNL     1      -2.463 -14.661   6.089  1.00  0.00     0.000 C 
BRANCH   3   4
ATOM      4  C   UNL     1      -1.202 -13.920   6.566  1.00  0.00     0.000 C 
BRANCH   4   5
ATOM      5  C   UNL     1      -0.900 -14.167   8.052  1.00  0.00     0.006 C 
BRANCH   5   6
ATOM      6  C   UNL     1       0.470 -13.619   8.473  1.00  0.00     0.053 C 
BRANCH   6   7
ATOM      7  C   UNL     1       1.302 -14.702   9.081  1.00  0.00     0.041 C 
ATOM      8  O   UNL     1       1.948 -15.495   8.346  1.00  0.00    -0.550 OA
ATOM      9  O   UNL     1       1.325 -14.871  10.460  1.00  0.00    -0.550 OA
ENDBRANCH   6   7
ENDBRANCH   5   6
ENDBRANCH   4   5
ENDBRANCH   3   4
ENDBRANCH   2   3
ENDBRANCH   1   2
BRANCH   1  10
ATOM     10  C   UNL     1      -5.376 -16.708   7.093  1.00  0.00     0.000 C 
BRANCH  10  11
ATOM     11  C   UNL     1      -6.185 -15.682   6.284  1.00  0.00    -0.000 C 
BRANCH  11  12
ATOM     12  C   UNL     1      -6.647 -14.487   7.131  1.00  0.00    -0.000 C 
BRANCH  12  13
ATOM     13  C   UNL     1      -6.590 -13.186   6.317  1.00  0.00    -0.000 C 
BRANCH  13  14
ATOM     14  C   UNL     1      -5.181 -12.572   6.278  1.00  0.00    -0.000 C 
BRANCH  14  15
ATOM     15  C   UNL     1      -4.451 -12.680   7.624  1.00  0.00    -0.003 C 
ATOM     16  C   UNL     1      -3.532 -11.482   7.849  1.00  0.00     0.004 C 
ENDBRANCH  14  15
ENDBRANCH  13  14
ENDBRANCH  12  13
ENDBRANCH  11  12
ENDBRANCH  10  11
ENDBRANCH   1  10
TORSDOF 12
ENDMDL
MODEL 4
REMARK VINA RESULT:     5.235      2.206      5.374
REMARK INTER + INTRA:           8.967
REMARK INTER:                   9.309
REMARK INTRA:                  -0.342
REMARK UNBOUND:                 0.060
REMARK SMILES CCCCCCCCCCCCCC(=O)[O-]
REMARK SMILES IDX 8 1 9 2 10 3 11 4 12 5 13 6 14 7 15 8 16 9 7 10 6 11 5 12
REMARK SMILES IDX 4 13 3 14 2 15 1 16
REMARK H PARENT
REMARK Flexibility Score: inf
ROOT
ATOM      1  C   UNL     1      -2.393 -15.825   6.279  1.00  0.00     0.000 C 
ENDROOT
BRANCH   1   2
ATOM      2  C   UNL     1      -2.352 -14.315   5.983  1.00  0.00     0.000 C 
BRANCH   2   3
ATOM      3  C   UNL     1      -3.231 -13.446   6.902  1.00  0.00     0.000 C 
BRANCH   3   4
ATOM      4  C   UNL     1      -2.519 -13.044   8.205  1.00  0.00     0.000 C 
BRANCH   4   5
ATOM      5  C   UNL     1      -1.448 -14.060   8.630  1.00  0.00     0.006 C 
BRANCH   5   6
ATOM      6  C   UNL     1      -0.053 -13.703   8.098  1.00  0.00     0.053 C 
BRANCH   6   7
ATOM      7  C   UNL     1       1.000 -14.454   8.848  1.00  0.00     0.041 C 
ATOM      8  O   UNL     1       2.062 -14.804   8.269  1.00  0.00    -0.550 OA
ATOM      9  O   UNL     1       0.789 -14.812  10.173  1.00  0.00    -0.550 OA
ENDBRANCH   6   7
ENDBRANCH   5   6
ENDBRANCH   4   5
ENDBRANCH   3   4
ENDBRANCH   2   3
ENDBRANCH   1   2
BRANCH   1  10
ATOM     10  C   UNL     1      -3.541 -16.219   7.225  1.00  0.00     0.000 C 
BRANCH  10  11
ATOM     11  C   UNL     1      -4.680 -16.951   6.497  1.00  0.00    -0.000 C 
BRANCH  11  12
ATOM     12  C   UNL     1      -5.820 -16.009   6.079  1.00  0.00    -0.000 C 
BRANCH  12  13
ATOM     13  C   UNL     1      -6.634 -15.560   7.302  1.00  0.00    -0.000 C 
BRANCH  13  14
ATOM     14  C   UNL     1      -6.884 -14.043   7.323  1.00  0.00    -0.000 C 
BRANCH  14  15
ATOM     15  C   UNL     1      -6.933 -13.432   5.915  1.00  0.00    -0.003 C 
ATOM     16  C   UNL     1      -7.028 -11.910   5.980  1.00  0.00     0.004 C 
ENDBRANCH  14  15
ENDBRANCH  13  14
ENDBRANCH  12  13
ENDBRANCH  11  12
ENDBRANCH  10  11
ENDBRANCH   1  10
TORSDOF 12
ENDMDL
MODEL 5
REMARK VINA RESULT:     5.447      1.488      4.124
REMARK INTER + INTRA:           9.328
REMARK INTER:                   8.846
REMARK INTRA:                   0.482
REMARK UNBOUND:                 0.060
REMARK SMILES CCCCCCCCCCCCCC(=O)[O-]
REMARK SMILES IDX 8 1 9 2 10 3 11 4 12 5 13 6 14 7 15 8 16 9 7 10 6 11 5 12
REMARK SMILES IDX 4 13 3 14 2 15 1 16
REMARK H PARENT
REMARK Flexibility Score: inf
ROOT
ATOM      1  C   UNL     1      -6.507 -16.174   7.149  1.00  0.00     0.000 C 
ENDROOT
BRANCH   1   2
ATOM      2  C   UNL     1      -5.274 -16.217   6.227  1.00  0.00     0.000 C 
BRANCH   2   3
ATOM      3  C   UNL     1      -4.045 -16.937   6.814  1.00  0.00     0.000 C 
BRANCH   3   4
ATOM      4  C   UNL     1      -2.967 -15.963   7.320  1.00  0.00     0.000 C 
BRANCH   4   5
ATOM      5  C   UNL     1      -2.074 -15.431   6.188  1.00  0.00     0.006 C 
BRANCH   5   6
ATOM      6  C   UNL     1      -1.375 -14.117   6.557  1.00  0.00     0.053 C 
BRANCH   6   7
ATOM      7  C   UNL     1      -0.804 -14.197   7.937  1.00  0.00     0.041 C 
ATOM      8  O   UNL     1      -1.566 -14.304   8.933  1.00  0.00    -0.550 OA
ATOM      9  O   UNL     1       0.569 -14.102   8.129  1.00  0.00    -0.550 OA
ENDBRANCH   6   7
ENDBRANCH   5   6
ENDBRANCH   4   5
ENDBRANCH   3   4
ENDBRANCH   2   3
ENDBRANCH   1   2
BRANCH   1  10
ATOM     10  C   UNL     1      -6.972 -14.741   7.460  1.00  0.00     0.000 C 
BRANCH  10  11
ATOM     11  C   UNL     1      -6.929 -13.826   6.226  1.00  0.00    -0.000 C 
BRANCH  11  12
ATOM     12  C   UNL     1      -5.994 -12.621   6.412  1.00  0.00    -0.000 C 
BRANCH  12  13
ATOM     13  C   UNL     1      -4.533 -13.077   6.546  1.00  0.00    -0.000 C 
BRANCH  13  14
ATOM     14  C   UNL     1      -3.852 -12.520   7.807  1.00  0.00    -0.000 C 
BRANCH  14  15
ATOM     15  C   UNL     1      -3.745 -10.989   7.793  1.00  0.00    -0.003 C 
ATOM     16  C   UNL     1      -3.256 -10.460   9.139  1.00  0.00     0.004 C 
ENDBRANCH  14  15
ENDBRANCH  13  14
ENDBRANCH  12  13
ENDBRANCH  11  12
ENDBRANCH  10  11
ENDBRANCH   1  10
TORSDOF 12
ENDMDL
MODEL 6
REMARK VINA RESULT:     5.449      1.320      2.712
REMARK INTER + INTRA:           9.332
REMARK INTER:                  10.144
REMARK INTRA:                  -0.812
REMARK UNBOUND:                 0.060
REMARK SMILES CCCCCCCCCCCCCC(=O)[O-]
REMARK SMILES IDX 8 1 9 2 10 3 11 4 12 5 13 6 14 7 15 8 16 9 7 10 6 11 5 12
REMARK SMILES IDX 4 13 3 14 2 15 1 16
REMARK H PARENT
REMARK Flexibility Score: inf
ROOT
ATOM      1  C   UNL     1      -2.874 -15.919   7.243  1.00  0.00     0.000 C 
ENDROOT
BRANCH   1   2
ATOM      2  C   UNL     1      -3.839 -16.963   6.652  1.00  0.00     0.000 C 
BRANCH   2   3
ATOM      3  C   UNL     1      -5.247 -16.977   7.277  1.00  0.00     0.000 C 
BRANCH   3   4
ATOM      4  C   UNL     1      -6.299 -16.280   6.397  1.00  0.00     0.000 C 
BRANCH   4   5
ATOM      5  C   UNL     1      -6.774 -14.946   6.991  1.00  0.00     0.006 C 
BRANCH   5   6
ATOM      6  C   UNL     1      -7.096 -13.902   5.913  1.00  0.00     0.053 C 
BRANCH   6   7
ATOM      7  C   UNL     1      -6.382 -12.619   6.197  1.00  0.00     0.041 C 
ATOM      8  O   UNL     1      -5.167 -12.630   6.530  1.00  0.00    -0.550 OA
ATOM      9  O   UNL     1      -7.070 -11.414   6.144  1.00  0.00    -0.550 OA
ENDBRANCH   6   7
ENDBRANCH   5   6
ENDBRANCH   4   5
ENDBRANCH   3   4
ENDBRANCH   2   3
ENDBRANCH   1   2
BRANCH   1  10
ATOM     10  C   UNL     1      -2.563 -14.771   6.266  1.00  0.00     0.000 C 
BRANCH  10  11
ATOM     11  C   UNL     1      -1.845 -13.595   6.948  1.00  0.00    -0.000 C 
BRANCH  11  12
ATOM     12  C   UNL     1      -1.188 -13.991   8.279  1.00  0.00    -0.000 C 
BRANCH  12  13
ATOM     13  C   UNL     1       0.307 -13.639   8.277  1.00  0.00    -0.000 C 
BRANCH  13  14
ATOM     14  C   UNL     1       1.207 -14.873   8.460  1.00  0.00    -0.000 C 
BRANCH  14  15
ATOM     15  C   UNL     1       2.016 -14.827   9.764  1.00  0.00    -0.003 C 
ATOM     16  C   UNL     1       1.122 -15.081  10.974  1.00  0.00     0.004 C 
ENDBRANCH  14  15
ENDBRANCH  13  14
ENDBRANCH  12  13
ENDBRANCH  11  12
ENDBRANCH  10  11
ENDBRANCH   1  10
TORSDOF 12
ENDMDL
MODEL 7
REMARK VINA RESULT:     5.625      2.539      5.763
REMARK INTER + INTRA:           9.630
REMARK INTER:                   9.679
REMARK INTRA:                  -0.049
REMARK UNBOUND:                 0.060
REMARK SMILES CCCCCCCCCCCCCC(=O)[O-]
REMARK SMILES IDX 8 1 9 2 10 3 11 4 12 5 13 6 14 7 15 8 16 9 7 10 6 11 5 12
REMARK SMILES IDX 4 13 3 14 2 15 1 16
REMARK H PARENT
REMARK Flexibility Score: inf
ROOT
ATOM      1  C   UNL     1      -2.695 -14.235   5.893  1.00  0.00     0.000 C 
ENDROOT
BRANCH   1   2
ATOM      2  C   UNL     1      -3.009 -15.388   6.864  1.00  0.00     0.000 C 
BRANCH   2   3
ATOM      3  C   UNL     1      -2.261 -15.329   8.210  1.00  0.00     0.000 C 
BRANCH   3   4
ATOM      4  C   UNL     1      -1.536 -13.991   8.432  1.00  0.00     0.000 C 
BRANCH   4   5
ATOM      5  C   UNL     1      -0.118 -13.982   7.840  1.00  0.00     0.006 C 
BRANCH   5   6
ATOM      6  C   UNL     1       0.950 -13.600   8.873  1.00  0.00     0.053 C 
BRANCH   6   7
ATOM      7  C   UNL     1       1.630 -14.823   9.399  1.00  0.00     0.041 C 
ATOM      8  O   UNL     1       2.056 -15.703   8.606  1.00  0.00    -0.550 OA
ATOM      9  O   UNL     1       1.748 -15.018  10.770  1.00  0.00    -0.550 OA
ENDBRANCH   6   7
ENDBRANCH   5   6
ENDBRANCH   4   5
ENDBRANCH   3   4
ENDBRANCH   2   3
ENDBRANCH   1   2
BRANCH   1  10
ATOM     10  C   UNL     1      -3.341 -12.904   6.315  1.00  0.00     0.000 C 
BRANCH  10  11
ATOM     11  C   UNL     1      -4.714 -13.099   6.978  1.00  0.00    -0.000 C 
BRANCH  11  12
ATOM     12  C   UNL     1      -5.842 -12.368   6.235  1.00  0.00    -0.000 C 
BRANCH  12  13
ATOM     13  C   UNL     1      -7.050 -13.295   6.028  1.00  0.00    -0.000 C 
BRANCH  13  14
ATOM     14  C   UNL     1      -6.646 -14.771   5.880  1.00  0.00    -0.000 C 
BRANCH  14  15
ATOM     15  C   UNL     1      -6.803 -15.561   7.186  1.00  0.00    -0.003 C 
ATOM     16  C   UNL     1      -6.049 -16.887   7.120  1.00  0.00     0.004 C 
ENDBRANCH  14  15
ENDBRANCH  13  14
ENDBRANCH  12  13
ENDBRANCH  11  12
ENDBRANCH  10  11
ENDBRANCH   1  10
TORSDOF 12
ENDMDL
MODEL 8
REMARK VINA RESULT:     6.027     15.444     16.965
REMARK INTER + INTRA:          10.316
REMARK INTER:                  10.838
REMARK INTRA:                  -0.522
REMARK UNBOUND:                 0.060
REMARK SMILES CCCCCCCCCCCCCC(=O)[O-]
REMARK SMILES IDX 8 1 9 2 10 3 11 4 12 5 13 6 14 7 15 8 16 9 7 10 6 11 5 12
REMARK SMILES IDX 4 13 3 14 2 15 1 16
REMARK H PARENT
REMARK Flexibility Score: inf
ROOT
ATOM      1  C   UNL     1      -1.016  -8.342  20.640  1.00  0.00     0.000 C 
ENDROOT
BRANCH   1   2
ATOM      2  C   UNL     1      -0.753  -7.645  21.988  1.00  0.00     0.000 C 
BRANCH   2   3
ATOM      3  C   UNL     1      -1.823  -6.623  22.414  1.00  0.00     0.000 C 
BRANCH   3   4
ATOM      4  C   UNL     1      -1.595  -6.075  23.833  1.00  0.00     0.000 C 
BRANCH   4   5
ATOM      5  C   UNL     1      -2.268  -4.712  24.055  1.00  0.00     0.006 C 
BRANCH   5   6
ATOM      6  C   UNL     1      -3.061  -4.653  25.367  1.00  0.00     0.053 C 
BRANCH   6   7
ATOM      7  C   UNL     1      -4.428  -5.231  25.179  1.00  0.00     0.041 C 
ATOM      8  O   UNL     1      -4.698  -5.896  24.144  1.00  0.00    -0.550 OA
ATOM      9  O   UNL     1      -5.420  -4.993  26.121  1.00  0.00    -0.550 OA
ENDBRANCH   6   7
ENDBRANCH   5   6
ENDBRANCH   4   5
ENDBRANCH   3   4
ENDBRANCH   2   3
ENDBRANCH   1   2
BRANCH   1  10
ATOM     10  C   UNL     1      -2.229  -7.760  19.893  1.00  0.00     0.000 C 
BRANCH  10  11
ATOM     11  C   UNL     1      -3.114  -8.850  19.268  1.00  0.00    -0.000 C 
BRANCH  11  12
ATOM     12  C   UNL     1      -3.259 -10.087  20.167  1.00  0.00    -0.000 C 
BRANCH  12  13
ATOM     13  C   UNL     1      -3.671 -11.317  19.344  1.00  0.00    -0.000 C 
BRANCH  13  14
ATOM     14  C   UNL     1      -4.691 -12.205  20.074  1.00  0.00    -0.000 C 
BRANCH  14  15
ATOM     15  C   UNL     1      -4.740 -11.932  21.584  1.00  0.00    -0.003 C 
ATOM     16  C   UNL     1      -6.177 -11.744  22.062  1.00  0.00     0.004 C 
ENDBRANCH  14  15
ENDBRANCH  13  14
ENDBRANCH  12  13
ENDBRANCH  11  12
ENDBRANCH  10  11
ENDBRANCH   1  10
TORSDOF 12
ENDMDL
MODEL 9
REMARK VINA RESULT:     6.045      2.019      3.455
REMARK INTER + INTRA:          10.346
REMARK INTER:                  10.688
REMARK INTRA:                  -0.342
REMARK UNBOUND:                 0.060
REMARK SMILES CCCCCCCCCCCCCC(=O)[O-]
REMARK SMILES IDX 8 1 9 2 10 3 11 4 12 5 13 6 14 7 15 8 16 9 7 10 6 11 5 12
REMARK SMILES IDX 4 13 3 14 2 15 1 16
REMARK H PARENT
REMARK Flexibility Score: inf
ROOT
ATOM      1  C   UNL     1      -3.030 -12.377   8.251  1.00  0.00     0.000 C 
ENDROOT
BRANCH   1   2
ATOM      2  C   UNL     1      -4.002 -11.847   7.182  1.00  0.00     0.000 C 
BRANCH   2   3
ATOM      3  C   UNL     1      -5.407 -12.478   7.208  1.00  0.00     0.000 C 
BRANCH   3   4
ATOM      4  C   UNL     1      -5.785 -13.149   5.876  1.00  0.00     0.000 C 
BRANCH   4   5
ATOM      5  C   UNL     1      -6.946 -14.144   6.026  1.00  0.00     0.006 C 
BRANCH   5   6
ATOM      6  C   UNL     1      -6.888 -14.923   7.346  1.00  0.00     0.053 C 
BRANCH   6   7
ATOM      7  C   UNL     1      -6.175 -16.224   7.156  1.00  0.00     0.041 C 
ATOM      8  O   UNL     1      -6.727 -17.305   7.491  1.00  0.00    -0.550 OA
ATOM      9  O   UNL     1      -4.879 -16.239   6.655  1.00  0.00    -0.550 OA
ENDBRANCH   6   7
ENDBRANCH   5   6
ENDBRANCH   4   5
ENDBRANCH   3   4
ENDBRANCH   2   3
ENDBRANCH   1   2
BRANCH   1  10
ATOM     10  C   UNL     1      -2.966 -13.913   8.294  1.00  0.00     0.000 C 
BRANCH  10  11
ATOM     11  C   UNL     1      -2.306 -14.511   7.041  1.00  0.00    -0.000 C 
BRANCH  11  12
ATOM     12  C   UNL     1      -0.777 -14.600   7.159  1.00  0.00    -0.000 C 
BRANCH  12  13
ATOM     13  C   UNL     1      -0.247 -13.586   8.184  1.00  0.00    -0.000 C 
BRANCH  13  14
ATOM     14  C   UNL     1       1.221 -13.839   8.565  1.00  0.00    -0.000 C 
BRANCH  14  15
ATOM     15  C   UNL     1       1.429 -15.198   9.247  1.00  0.00    -0.003 C 
ATOM     16  C   UNL     1       1.725 -15.028  10.735  1.00  0.00     0.004 C 
ENDBRANCH  14  15
ENDBRANCH  13  14
ENDBRANCH  12  13
ENDBRANCH  11  12
ENDBRANCH  10  11
ENDBRANCH   1  10
TORSDOF 12
ENDMDL
