MODEL 1
REMARK VINA RESULT:    84.759      0.000      0.000
REMARK INTER + INTRA:         113.058
REMARK INTER:                 112.012
REMARK INTRA:                   1.046
REMARK UNBOUND:                 1.046
REMARK SMILES CC[C@H](C=C[C@@H](C)[C@@H]1CC[C@H]2[C@@H]3CC=C4C[C@@H](O)CC[C@]4(C)[C@@H]3CC[C@]21C)C(C)C
REMARK SMILES IDX 6 1 7 2 5 3 4 4 3 5 2 6 1 7 28 8 29 9 30 10 8 11 9 12 26 13
REMARK SMILES IDX 10 14 11 15 25 16 27 17 12 18 24 19 23 20 13 21 21 22 14 23
REMARK SMILES IDX 15 24 20 25 22 26 16 27 19 28 17 29 18 30
REMARK H PARENT 18 31
REMARK Flexibility Score: inf
ROOT
ATOM      1  C   UNL     1      17.443  22.744  12.473  1.00  0.00     0.012 C 
ATOM      2  C   UNL     1      16.689  22.051  13.625  1.00  0.00     0.012 C 
ENDROOT
BRANCH   1   3
ATOM      3  C   UNL     1      18.878  22.252  12.489  1.00  0.00    -0.028 C 
ATOM      4  C   UNL     1      19.428  21.424  11.577  1.00  0.00    -0.027 C 
BRANCH   4   5
ATOM      5  C   UNL     1      18.724  20.873  10.344  1.00  0.00     0.014 C 
BRANCH   5   6
ATOM      6  C   UNL     1      18.033  22.013   9.550  1.00  0.00     0.004 C 
ATOM      7  C   UNL     1      17.863  21.769   8.051  1.00  0.00     0.004 C 
ENDBRANCH   5   6
BRANCH   5   8
ATOM      8  C   UNL     1      19.633  19.893   9.528  1.00  0.00    -0.011 C 
ATOM      9  C   UNL     1      21.048  19.781  10.116  1.00  0.00     0.008 C 
ATOM     10  C   UNL     1      19.045  18.492   9.272  1.00  0.00     0.008 C 
ENDBRANCH   5   8
ENDBRANCH   4   5
ENDBRANCH   1   3
BRANCH   1  11
ATOM     11  C   UNL     1      17.395  24.302  12.616  1.00  0.00     0.002 C 
ATOM     12  C   UNL     1      18.794  24.931  12.651  1.00  0.00     0.005 C 
ATOM     13  C   UNL     1      16.617  24.921  13.858  1.00  0.00    -0.026 C 
ATOM     14  C   UNL     1      18.618  26.252  13.360  1.00  0.00     0.005 C 
ATOM     15  C   UNL     1      17.635  25.939  14.477  1.00  0.00    -0.001 C 
ATOM     16  C   UNL     1      15.321  25.619  13.344  1.00  0.00     0.007 C 
ATOM     17  C   UNL     1      16.230  23.865  14.930  1.00  0.00     0.012 C 
ATOM     18  C   UNL     1      17.082  27.232  15.159  1.00  0.00     0.000 C 
ATOM     19  C   UNL     1      14.778  26.712  14.268  1.00  0.00     0.005 C 
ATOM     20  C   UNL     1      15.835  27.825  14.456  1.00  0.00     0.003 C 
ATOM     21  C   UNL     1      16.824  27.005  16.661  1.00  0.00     0.031 C 
ATOM     22  C   UNL     1      15.342  29.158  15.168  1.00  0.00    -0.008 C 
ATOM     23  C   UNL     1      16.200  28.188  17.336  1.00  0.00    -0.027 C 
ATOM     24  C   UNL     1      15.423  29.085  16.698  1.00  0.00    -0.065 C 
ATOM     25  C   UNL     1      13.870  29.511  14.779  1.00  0.00     0.014 C 
ATOM     26  C   UNL     1      16.270  30.314  14.696  1.00  0.00     0.016 C 
ATOM     27  C   UNL     1      14.792  30.203  17.513  1.00  0.00     0.063 C 
ATOM     28  C   UNL     1      13.302  30.724  15.533  1.00  0.00     0.033 C 
ATOM     29  C   UNL     1      13.359  30.493  17.051  1.00  0.00     0.118 C 
BRANCH  29  30
ATOM     30  O   UNL     1      12.882  31.628  17.724  1.00  0.00    -0.393 OA
ATOM     31  H   UNL     1      11.907  31.676  17.548  1.00  0.00     0.210 HD
ENDBRANCH  29  30
ENDBRANCH   1  11
TORSDOF 6
ENDMDL
MODEL 2
REMARK VINA RESULT:    84.933      3.085      9.035
REMARK INTER + INTRA:         113.287
REMARK INTER:                 112.567
REMARK INTRA:                   0.720
REMARK UNBOUND:                 1.046
REMARK SMILES CC[C@H](C=C[C@@H](C)[C@@H]1CC[C@H]2[C@@H]3CC=C4C[C@@H](O)CC[C@]4(C)[C@@H]3CC[C@]21C)C(C)C
REMARK SMILES IDX 6 1 7 2 5 3 4 4 3 5 2 6 1 7 28 8 29 9 30 10 8 11 9 12 26 13
REMARK SMILES IDX 10 14 11 15 25 16 27 17 12 18 24 19 23 20 13 21 21 22 14 23
REMARK SMILES IDX 15 24 20 25 22 26 16 27 19 28 17 29 18 30
REMARK H PARENT 18 31
REMARK Flexibility Score: inf
ROOT
ATOM      1  C   UNL     1      14.326  30.252  15.942  1.00  0.00     0.012 C 
ATOM      2  C   UNL     1      13.914  30.875  17.291  1.00  0.00     0.012 C 
ENDROOT
BRANCH   1   3
ATOM      3  C   UNL     1      13.136  30.339  15.004  1.00  0.00    -0.028 C 
ATOM      4  C   UNL     1      12.969  31.270  14.043  1.00  0.00    -0.027 C 
BRANCH   4   5
ATOM      5  C   UNL     1      13.962  32.370  13.693  1.00  0.00     0.014 C 
BRANCH   5   6
ATOM      6  C   UNL     1      15.404  31.956  14.091  1.00  0.00     0.004 C 
ATOM      7  C   UNL     1      16.441  33.079  14.090  1.00  0.00     0.004 C 
ENDBRANCH   5   6
BRANCH   5   8
ATOM      8  C   UNL     1      13.758  32.916  12.239  1.00  0.00    -0.011 C 
ATOM      9  C   UNL     1      14.850  33.919  11.834  1.00  0.00     0.008 C 
ATOM     10  C   UNL     1      13.574  31.849  11.144  1.00  0.00     0.008 C 
ENDBRANCH   5   8
ENDBRANCH   4   5
ENDBRANCH   1   3
BRANCH   1  11
ATOM     11  C   UNL     1      14.781  28.765  16.116  1.00  0.00     0.002 C 
ATOM     12  C   UNL     1      15.736  28.578  17.302  1.00  0.00     0.005 C 
ATOM     13  C   UNL     1      15.484  28.044  14.884  1.00  0.00    -0.026 C 
ATOM     14  C   UNL     1      16.515  27.322  16.991  1.00  0.00     0.005 C 
ATOM     15  C   UNL     1      16.784  27.420  15.498  1.00  0.00    -0.001 C 
ATOM     16  C   UNL     1      14.518  26.960  14.317  1.00  0.00     0.007 C 
ATOM     17  C   UNL     1      15.873  29.020  13.740  1.00  0.00     0.012 C 
ATOM     18  C   UNL     1      17.325  26.078  14.905  1.00  0.00     0.000 C 
ATOM     19  C   UNL     1      15.210  25.830  13.548  1.00  0.00     0.005 C 
ATOM     20  C   UNL     1      16.211  25.094  14.470  1.00  0.00     0.003 C 
ATOM     21  C   UNL     1      18.324  26.336  13.761  1.00  0.00     0.031 C 
ATOM     22  C   UNL     1      16.818  23.734  13.912  1.00  0.00    -0.008 C 
ATOM     23  C   UNL     1      18.794  25.078  13.096  1.00  0.00    -0.027 C 
ATOM     24  C   UNL     1      18.065  23.946  13.045  1.00  0.00    -0.065 C 
ATOM     25  C   UNL     1      15.772  22.937  13.068  1.00  0.00     0.014 C 
ATOM     26  C   UNL     1      17.231  22.868  15.137  1.00  0.00     0.016 C 
ATOM     27  C   UNL     1      18.626  22.760  12.279  1.00  0.00     0.063 C 
ATOM     28  C   UNL     1      16.343  21.673  12.405  1.00  0.00     0.033 C 
ATOM     29  C   UNL     1      17.530  22.028  11.496  1.00  0.00     0.118 C 
BRANCH  29  30
ATOM     30  O   UNL     1      18.068  20.858  10.937  1.00  0.00    -0.393 OA
ATOM     31  H   UNL     1      18.903  20.661  11.435  1.00  0.00     0.210 HD
ENDBRANCH  29  30
ENDBRANCH   1  11
TORSDOF 6
ENDMDL
MODEL 3
REMARK VINA RESULT:    85.994      1.427      2.950
REMARK INTER + INTRA:         114.689
REMARK INTER:                 113.667
REMARK INTRA:                   1.022
REMARK UNBOUND:                 1.046
REMARK SMILES CC[C@H](C=C[C@@H](C)[C@@H]1CC[C@H]2[C@@H]3CC=C4C[C@@H](O)CC[C@]4(C)[C@@H]3CC[C@]21C)C(C)C
REMARK SMILES IDX 6 1 7 2 5 3 4 4 3 5 2 6 1 7 28 8 29 9 30 10 8 11 9 12 26 13
REMARK SMILES IDX 10 14 11 15 25 16 27 17 12 18 24 19 23 20 13 21 21 22 14 23
REMARK SMILES IDX 15 24 20 25 22 26 16 27 19 28 17 29 18 30
REMARK H PARENT 18 31
REMARK Flexibility Score: inf
ROOT
ATOM      1  C   UNL     1      18.449  22.927  13.204  1.00  0.00     0.012 C 
ATOM      2  C   UNL     1      18.848  23.700  11.932  1.00  0.00     0.012 C 
ENDROOT
BRANCH   1   3
ATOM      3  C   UNL     1      17.665  21.698  12.779  1.00  0.00    -0.028 C 
ATOM      4  C   UNL     1      17.833  21.031  11.619  1.00  0.00    -0.027 C 
BRANCH   4   5
ATOM      5  C   UNL     1      18.868  21.358  10.551  1.00  0.00     0.014 C 
BRANCH   5   6
ATOM      6  C   UNL     1      19.987  20.284  10.522  1.00  0.00     0.004 C 
ATOM      7  C   UNL     1      21.341  20.721  11.080  1.00  0.00     0.004 C 
ENDBRANCH   5   6
BRANCH   5   8
ATOM      8  C   UNL     1      18.210  21.732   9.180  1.00  0.00    -0.011 C 
ATOM      9  C   UNL     1      18.465  20.670   8.100  1.00  0.00     0.008 C 
ATOM     10  C   UNL     1      16.714  22.097   9.233  1.00  0.00     0.008 C 
ENDBRANCH   5   8
ENDBRANCH   4   5
ENDBRANCH   1   3
BRANCH   1  11
ATOM     11  C   UNL     1      17.594  23.816  14.168  1.00  0.00     0.002 C 
ATOM     12  C   UNL     1      16.465  23.029  14.846  1.00  0.00     0.005 C 
ATOM     13  C   UNL     1      16.908  25.123  13.575  1.00  0.00    -0.026 C 
ATOM     14  C   UNL     1      15.433  24.063  15.226  1.00  0.00     0.005 C 
ATOM     15  C   UNL     1      15.415  25.014  14.039  1.00  0.00    -0.001 C 
ATOM     16  C   UNL     1      17.620  26.378  14.164  1.00  0.00     0.007 C 
ATOM     17  C   UNL     1      16.959  25.196  12.024  1.00  0.00     0.012 C 
ATOM     18  C   UNL     1      14.627  26.329  14.346  1.00  0.00     0.000 C 
ATOM     19  C   UNL     1      16.769  27.651  14.166  1.00  0.00     0.005 C 
ATOM     20  C   UNL     1      15.488  27.435  15.005  1.00  0.00     0.003 C 
ATOM     21  C   UNL     1      13.905  26.853  13.090  1.00  0.00     0.031 C 
ATOM     22  C   UNL     1      14.627  28.731  15.329  1.00  0.00    -0.008 C 
ATOM     23  C   UNL     1      13.217  28.166  13.312  1.00  0.00    -0.027 C 
ATOM     24  C   UNL     1      13.618  29.072  14.225  1.00  0.00    -0.065 C 
ATOM     25  C   UNL     1      15.532  29.984  15.560  1.00  0.00     0.014 C 
ATOM     26  C   UNL     1      13.828  28.449  16.635  1.00  0.00     0.016 C 
ATOM     27  C   UNL     1      12.876  30.395  14.303  1.00  0.00     0.063 C 
ATOM     28  C   UNL     1      14.745  31.290  15.758  1.00  0.00     0.033 C 
ATOM     29  C   UNL     1      13.837  31.564  14.549  1.00  0.00     0.118 C 
BRANCH  29  30
ATOM     30  O   UNL     1      13.092  32.733  14.768  1.00  0.00    -0.393 OA
ATOM     31  H   UNL     1      13.673  33.351  15.283  1.00  0.00     0.210 HD
ENDBRANCH  29  30
ENDBRANCH   1  11
TORSDOF 6
ENDMDL
MODEL 4
REMARK VINA RESULT:    86.977      1.426      2.957
REMARK INTER + INTRA:         115.989
REMARK INTER:                 114.876
REMARK INTRA:                   1.113
REMARK UNBOUND:                 1.046
REMARK SMILES CC[C@H](C=C[C@@H](C)[C@@H]1CC[C@H]2[C@@H]3CC=C4C[C@@H](O)CC[C@]4(C)[C@@H]3CC[C@]21C)C(C)C
REMARK SMILES IDX 6 1 7 2 5 3 4 4 3 5 2 6 1 7 28 8 29 9 30 10 8 11 9 12 26 13
REMARK SMILES IDX 10 14 11 15 25 16 27 17 12 18 24 19 23 20 13 21 21 22 14 23
REMARK SMILES IDX 15 24 20 25 22 26 16 27 19 28 17 29 18 30
REMARK H PARENT 18 31
REMARK Flexibility Score: inf
ROOT
ATOM      1  C   UNL     1      18.771  23.252  13.936  1.00  0.00     0.012 C 
ATOM      2  C   UNL     1      20.146  23.524  14.578  1.00  0.00     0.012 C 
ENDROOT
BRANCH   1   3
ATOM      3  C   UNL     1      18.844  23.666  12.478  1.00  0.00    -0.028 C 
ATOM      4  C   UNL     1      18.707  22.835  11.425  1.00  0.00    -0.027 C 
BRANCH   4   5
ATOM      5  C   UNL     1      18.407  21.344  11.506  1.00  0.00     0.014 C 
BRANCH   5   6
ATOM      6  C   UNL     1      17.113  21.089  12.324  1.00  0.00     0.004 C 
ATOM      7  C   UNL     1      15.925  21.989  11.985  1.00  0.00     0.004 C 
ENDBRANCH   5   6
BRANCH   5   8
ATOM      8  C   UNL     1      18.515  20.638  10.113  1.00  0.00    -0.011 C 
ATOM      9  C   UNL     1      17.763  21.400   9.011  1.00  0.00     0.008 C 
ATOM     10  C   UNL     1      19.943  20.289   9.649  1.00  0.00     0.008 C 
ENDBRANCH   5   8
ENDBRANCH   4   5
ENDBRANCH   1   3
BRANCH   1  11
ATOM     11  C   UNL     1      17.632  24.035  14.672  1.00  0.00     0.002 C 
ATOM     12  C   UNL     1      16.372  23.184  14.877  1.00  0.00     0.005 C 
ATOM     13  C   UNL     1      17.126  25.402  14.035  1.00  0.00    -0.026 C 
ATOM     14  C   UNL     1      15.242  24.175  15.021  1.00  0.00     0.005 C 
ATOM     15  C   UNL     1      15.567  25.250  13.995  1.00  0.00    -0.001 C 
ATOM     16  C   UNL     1      17.582  26.582  14.947  1.00  0.00     0.007 C 
ATOM     17  C   UNL     1      17.656  25.644  12.595  1.00  0.00     0.012 C 
ATOM     18  C   UNL     1      14.683  26.527  14.177  1.00  0.00     0.000 C 
ATOM     19  C   UNL     1      16.735  27.851  14.817  1.00  0.00     0.005 C 
ATOM     20  C   UNL     1      15.264  27.550  15.185  1.00  0.00     0.003 C 
ATOM     21  C   UNL     1      14.374  27.189  12.822  1.00  0.00     0.031 C 
ATOM     22  C   UNL     1      14.306  28.807  15.359  1.00  0.00    -0.008 C 
ATOM     23  C   UNL     1      13.612  28.472  12.954  1.00  0.00    -0.027 C 
ATOM     24  C   UNL     1      13.681  29.271  14.037  1.00  0.00    -0.065 C 
ATOM     25  C   UNL     1      15.056  30.023  15.992  1.00  0.00     0.014 C 
ATOM     26  C   UNL     1      13.149  28.387  16.311  1.00  0.00     0.016 C 
ATOM     27  C   UNL     1      12.912  30.582  14.018  1.00  0.00     0.063 C 
ATOM     28  C   UNL     1      14.208  31.303  16.071  1.00  0.00     0.033 C 
ATOM     29  C   UNL     1      13.714  31.712  14.674  1.00  0.00     0.118 C 
BRANCH  29  30
ATOM     30  O   UNL     1      12.904  32.853  14.771  1.00  0.00    -0.393 OA
ATOM     31  H   UNL     1      12.000  32.591  14.456  1.00  0.00     0.210 HD
ENDBRANCH  29  30
ENDBRANCH   1  11
TORSDOF 6
ENDMDL
