MODEL 1
REMARK VINA RESULT:    -7.050      0.000      0.000
REMARK INTER + INTRA:         -10.463
REMARK INTER:                  -9.317
REMARK INTRA:                  -1.145
REMARK UNBOUND:                -1.145
REMARK SMILES CC[C@H](C=C[C@H](C)[C@H]1CC[C@H]2C3=CC[C@@H]4C[C@H](O)CC[C@@]4(C)[C@H]3CC[C@]12C)C(C)C
REMARK SMILES IDX 6 1 7 2 5 3 4 4 3 5 2 6 1 7 28 8 29 9 30 10 8 11 9 12 26 13
REMARK SMILES IDX 10 14 11 15 25 16 27 17 12 18 24 19 23 20 13 21 21 22 14 23
REMARK SMILES IDX 15 24 20 25 22 26 16 27 19 28 17 29 18 30
REMARK H PARENT 18 31
REMARK Flexibility Score: inf
ROOT
ATOM      1  C   UNL     1     138.153 132.401 148.030  1.00  0.00     0.012 C 
ATOM      2  C   UNL     1     137.144 131.492 148.757  1.00  0.00     0.012 C 
ENDROOT
BRANCH   1   3
ATOM      3  C   UNL     1     137.420 133.276 147.033  1.00  0.00    -0.028 C 
ATOM      4  C   UNL     1     137.586 133.152 145.706  1.00  0.00    -0.027 C 
BRANCH   4   5
ATOM      5  C   UNL     1     136.824 134.019 144.725  1.00  0.00     0.014 C 
BRANCH   5   6
ATOM      6  C   UNL     1     137.531 135.390 144.586  1.00  0.00     0.004 C 
ATOM      7  C   UNL     1     136.643 136.589 144.940  1.00  0.00     0.004 C 
ENDBRANCH   5   6
BRANCH   5   8
ATOM      8  C   UNL     1     136.601 133.269 143.373  1.00  0.00    -0.011 C 
ATOM      9  C   UNL     1     136.003 131.866 143.579  1.00  0.00     0.008 C 
ATOM     10  C   UNL     1     137.923 133.135 142.594  1.00  0.00     0.008 C 
ENDBRANCH   5   8
ENDBRANCH   4   5
ENDBRANCH   1   3
BRANCH   1  11
ATOM     11  C   UNL     1     139.100 133.260 148.942  1.00  0.00     0.002 C 
ATOM     12  C   UNL     1     139.273 132.810 150.419  1.00  0.00     0.005 C 
ATOM     13  C   UNL     1     140.548 133.481 148.431  1.00  0.00    -0.023 C 
ATOM     14  C   UNL     1     140.689 133.244 150.847  1.00  0.00     0.009 C 
ATOM     15  C   UNL     1     141.185 134.099 149.681  1.00  0.00     0.021 C 
ATOM     16  C   UNL     1     140.676 134.504 147.271  1.00  0.00     0.008 C 
ATOM     17  C   UNL     1     141.227 132.135 148.031  1.00  0.00     0.012 C 
ATOM     18  C   UNL     1     142.649 134.382 149.435  1.00  0.00    -0.067 C 
ATOM     19  C   UNL     1     142.150 134.930 147.023  1.00  0.00     0.009 C 
ATOM     20  C   UNL     1     142.886 135.406 148.318  1.00  0.00     0.021 C 
ATOM     21  C   UNL     1     143.635 133.610 149.947  1.00  0.00    -0.027 C 
ATOM     22  C   UNL     1     144.409 135.783 148.144  1.00  0.00    -0.023 C 
ATOM     23  C   UNL     1     145.084 133.771 149.577  1.00  0.00     0.031 C 
ATOM     24  C   UNL     1     145.264 134.478 148.223  1.00  0.00     0.002 C 
ATOM     25  C   UNL     1     144.681 136.480 146.773  1.00  0.00     0.010 C 
ATOM     26  C   UNL     1     144.772 136.779 149.287  1.00  0.00     0.012 C 
ATOM     27  C   UNL     1     146.765 134.718 147.939  1.00  0.00     0.036 C 
ATOM     28  C   UNL     1     146.174 136.740 146.518  1.00  0.00     0.032 C 
ATOM     29  C   UNL     1     146.974 135.429 146.591  1.00  0.00     0.114 C 
BRANCH  29  30
ATOM     30  O   UNL     1     148.341 135.668 146.364  1.00  0.00    -0.393 OA
ATOM     31  H   UNL     1     148.605 135.163 145.550  1.00  0.00     0.210 HD
ENDBRANCH  29  30
ENDBRANCH   1  11
TORSDOF 6
ENDMDL
MODEL 2
REMARK VINA RESULT:    -7.026      2.138      4.973
REMARK INTER + INTRA:         -10.431
REMARK INTER:                  -9.540
REMARK INTRA:                  -0.890
REMARK UNBOUND:                -1.145
REMARK SMILES CC[C@H](C=C[C@H](C)[C@H]1CC[C@H]2C3=CC[C@@H]4C[C@H](O)CC[C@@]4(C)[C@H]3CC[C@]12C)C(C)C
REMARK SMILES IDX 6 1 7 2 5 3 4 4 3 5 2 6 1 7 28 8 29 9 30 10 8 11 9 12 26 13
REMARK SMILES IDX 10 14 11 15 25 16 27 17 12 18 24 19 23 20 13 21 21 22 14 23
REMARK SMILES IDX 15 24 20 25 22 26 16 27 19 28 17 29 18 30
REMARK H PARENT 18 31
REMARK Flexibility Score: inf
ROOT
ATOM      1  C   UNL     1     142.276 133.451 148.043  1.00  0.00     0.012 C 
ATOM      2  C   UNL     1     142.314 131.911 148.038  1.00  0.00     0.012 C 
ENDROOT
BRANCH   1   3
ATOM      3  C   UNL     1     140.930 133.924 148.552  1.00  0.00    -0.028 C 
ATOM      4  C   UNL     1     139.935 133.073 148.856  1.00  0.00    -0.027 C 
BRANCH   4   5
ATOM      5  C   UNL     1     138.605 133.565 149.388  1.00  0.00     0.014 C 
BRANCH   5   6
ATOM      6  C   UNL     1     137.476 133.179 148.400  1.00  0.00     0.004 C 
ATOM      7  C   UNL     1     137.857 133.342 146.923  1.00  0.00     0.004 C 
ENDBRANCH   5   6
BRANCH   5   8
ATOM      8  C   UNL     1     138.374 133.074 150.853  1.00  0.00    -0.011 C 
ATOM      9  C   UNL     1     139.553 133.427 151.776  1.00  0.00     0.008 C 
ATOM     10  C   UNL     1     138.151 131.550 150.894  1.00  0.00     0.008 C 
ENDBRANCH   5   8
ENDBRANCH   4   5
ENDBRANCH   1   3
BRANCH   1  11
ATOM     11  C   UNL     1     143.448 134.173 148.800  1.00  0.00     0.002 C 
ATOM     12  C   UNL     1     144.236 133.349 149.855  1.00  0.00     0.005 C 
ATOM     13  C   UNL     1     144.546 134.829 147.921  1.00  0.00    -0.023 C 
ATOM     14  C   UNL     1     145.670 133.917 149.875  1.00  0.00     0.009 C 
ATOM     15  C   UNL     1     145.588 135.164 148.994  1.00  0.00     0.021 C 
ATOM     16  C   UNL     1     144.119 136.156 147.238  1.00  0.00     0.008 C 
ATOM     17  C   UNL     1     145.099 133.834 146.855  1.00  0.00     0.012 C 
ATOM     18  C   UNL     1     146.803 135.802 148.361  1.00  0.00    -0.067 C 
ATOM     19  C   UNL     1     145.332 136.930 146.650  1.00  0.00     0.009 C 
ATOM     20  C   UNL     1     146.493 137.138 147.675  1.00  0.00     0.021 C 
ATOM     21  C   UNL     1     147.964 135.132 148.178  1.00  0.00    -0.027 C 
ATOM     22  C   UNL     1     147.784 137.855 147.117  1.00  0.00    -0.023 C 
ATOM     23  C   UNL     1     149.123 135.690 147.399  1.00  0.00     0.031 C 
ATOM     24  C   UNL     1     148.689 136.791 146.417  1.00  0.00     0.002 C 
ATOM     25  C   UNL     1     147.428 138.970 146.083  1.00  0.00     0.010 C 
ATOM     26  C   UNL     1     148.508 138.516 148.329  1.00  0.00     0.012 C 
ATOM     27  C   UNL     1     149.925 137.408 145.722  1.00  0.00     0.036 C 
ATOM     28  C   UNL     1     148.666 139.595 145.424  1.00  0.00     0.032 C 
ATOM     29  C   UNL     1     149.519 138.517 144.735  1.00  0.00     0.114 C 
BRANCH  29  30
ATOM     30  O   UNL     1     150.656 139.087 144.138  1.00  0.00    -0.393 OA
ATOM     31  H   UNL     1     151.207 138.348 143.769  1.00  0.00     0.210 HD
ENDBRANCH  29  30
ENDBRANCH   1  11
TORSDOF 6
ENDMDL
MODEL 3
REMARK VINA RESULT:    -6.682      3.455      8.574
REMARK INTER + INTRA:          -9.976
REMARK INTER:                  -8.913
REMARK INTRA:                  -1.063
REMARK UNBOUND:                -1.145
REMARK SMILES CC[C@H](C=C[C@H](C)[C@H]1CC[C@H]2C3=CC[C@@H]4C[C@H](O)CC[C@@]4(C)[C@H]3CC[C@]12C)C(C)C
REMARK SMILES IDX 6 1 7 2 5 3 4 4 3 5 2 6 1 7 28 8 29 9 30 10 8 11 9 12 26 13
REMARK SMILES IDX 10 14 11 15 25 16 27 17 12 18 24 19 23 20 13 21 21 22 14 23
REMARK SMILES IDX 15 24 20 25 22 26 16 27 19 28 17 29 18 30
REMARK H PARENT 18 31
REMARK Flexibility Score: inf
ROOT
ATOM      1  C   UNL     1     145.012 135.496 149.363  1.00  0.00     0.012 C 
ATOM      2  C   UNL     1     146.280 134.665 149.631  1.00  0.00     0.012 C 
ENDROOT
BRANCH   1   3
ATOM      3  C   UNL     1     145.401 136.923 149.035  1.00  0.00    -0.028 C 
ATOM      4  C   UNL     1     146.337 137.223 148.120  1.00  0.00    -0.027 C 
BRANCH   4   5
ATOM      5  C   UNL     1     146.692 138.658 147.788  1.00  0.00     0.014 C 
BRANCH   5   6
ATOM      6  C   UNL     1     148.083 138.998 148.382  1.00  0.00     0.004 C 
ATOM      7  C   UNL     1     148.888 137.772 148.828  1.00  0.00     0.004 C 
ENDBRANCH   5   6
BRANCH   5   8
ATOM      8  C   UNL     1     146.565 138.924 146.254  1.00  0.00    -0.011 C 
ATOM      9  C   UNL     1     145.880 137.759 145.518  1.00  0.00     0.008 C 
ATOM     10  C   UNL     1     147.948 139.165 145.621  1.00  0.00     0.008 C 
ENDBRANCH   5   8
ENDBRANCH   4   5
ENDBRANCH   1   3
BRANCH   1  11
ATOM     11  C   UNL     1     144.017 134.924 148.290  1.00  0.00     0.002 C 
ATOM     12  C   UNL     1     144.613 134.039 147.161  1.00  0.00     0.005 C 
ATOM     13  C   UNL     1     142.808 134.112 148.823  1.00  0.00    -0.023 C 
ATOM     14  C   UNL     1     143.508 133.044 146.754  1.00  0.00     0.009 C 
ATOM     15  C   UNL     1     142.271 133.531 147.510  1.00  0.00     0.021 C 
ATOM     16  C   UNL     1     141.683 134.971 149.462  1.00  0.00     0.008 C 
ATOM     17  C   UNL     1     143.258 132.998 149.818  1.00  0.00     0.012 C 
ATOM     18  C   UNL     1     141.074 132.649 147.780  1.00  0.00    -0.067 C 
ATOM     19  C   UNL     1     140.375 134.160 149.676  1.00  0.00     0.009 C 
ATOM     20  C   UNL     1     139.891 133.410 148.392  1.00  0.00     0.021 C 
ATOM     21  C   UNL     1     141.144 131.298 147.748  1.00  0.00    -0.027 C 
ATOM     22  C   UNL     1     138.607 132.509 148.565  1.00  0.00    -0.023 C 
ATOM     23  C   UNL     1     140.014 130.405 148.178  1.00  0.00     0.031 C 
ATOM     24  C   UNL     1     139.037 131.118 149.129  1.00  0.00     0.002 C 
ATOM     25  C   UNL     1     137.575 133.152 149.545  1.00  0.00     0.010 C 
ATOM     26  C   UNL     1     137.941 132.379 147.161  1.00  0.00     0.012 C 
ATOM     27  C   UNL     1     137.839 130.198 149.455  1.00  0.00     0.036 C 
ATOM     28  C   UNL     1     136.374 132.239 149.836  1.00  0.00     0.032 C 
ATOM     29  C   UNL     1     136.842 130.888 150.403  1.00  0.00     0.114 C 
BRANCH  29  30
ATOM     30  O   UNL     1     135.744 130.050 150.662  1.00  0.00    -0.393 OA
ATOM     31  H   UNL     1     134.942 130.468 150.252  1.00  0.00     0.210 HD
ENDBRANCH  29  30
ENDBRANCH   1  11
TORSDOF 6
ENDMDL
MODEL 4
REMARK VINA RESULT:    -6.654      3.937      6.239
REMARK INTER + INTRA:          -9.939
REMARK INTER:                  -8.453
REMARK INTRA:                  -1.486
REMARK UNBOUND:                -1.145
REMARK SMILES CC[C@H](C=C[C@H](C)[C@H]1CC[C@H]2C3=CC[C@@H]4C[C@H](O)CC[C@@]4(C)[C@H]3CC[C@]12C)C(C)C
REMARK SMILES IDX 6 1 7 2 5 3 4 4 3 5 2 6 1 7 28 8 29 9 30 10 8 11 9 12 26 13
REMARK SMILES IDX 10 14 11 15 25 16 27 17 12 18 24 19 23 20 13 21 21 22 14 23
REMARK SMILES IDX 15 24 20 25 22 26 16 27 19 28 17 29 18 30
REMARK H PARENT 18 31
REMARK Flexibility Score: inf
ROOT
ATOM      1  C   UNL     1     143.644 132.248 147.097  1.00  0.00     0.012 C 
ATOM      2  C   UNL     1     142.379 131.982 147.935  1.00  0.00     0.012 C 
ENDROOT
BRANCH   1   3
ATOM      3  C   UNL     1     143.743 131.222 145.988  1.00  0.00    -0.028 C 
ATOM      4  C   UNL     1     144.296 131.500 144.795  1.00  0.00    -0.027 C 
BRANCH   4   5
ATOM      5  C   UNL     1     144.409 130.451 143.708  1.00  0.00     0.014 C 
BRANCH   5   6
ATOM      6  C   UNL     1     143.700 130.955 142.425  1.00  0.00     0.004 C 
ATOM      7  C   UNL     1     143.375 132.453 142.440  1.00  0.00     0.004 C 
ENDBRANCH   5   6
BRANCH   5   8
ATOM      8  C   UNL     1     145.897 130.025 143.496  1.00  0.00    -0.011 C 
ATOM      9  C   UNL     1     146.870 130.879 144.328  1.00  0.00     0.008 C 
ATOM     10  C   UNL     1     146.293 130.128 142.011  1.00  0.00     0.008 C 
ENDBRANCH   5   8
ENDBRANCH   4   5
ENDBRANCH   1   3
BRANCH   1  11
ATOM     11  C   UNL     1     143.813 133.704 146.533  1.00  0.00     0.002 C 
ATOM     12  C   UNL     1     142.600 134.667 146.663  1.00  0.00     0.005 C 
ATOM     13  C   UNL     1     145.018 134.523 147.064  1.00  0.00    -0.023 C 
ATOM     14  C   UNL     1     143.182 136.091 146.779  1.00  0.00     0.009 C 
ATOM     15  C   UNL     1     144.674 135.908 146.503  1.00  0.00     0.021 C 
ATOM     16  C   UNL     1     146.394 134.099 146.484  1.00  0.00     0.008 C 
ATOM     17  C   UNL     1     145.073 134.519 148.623  1.00  0.00     0.012 C 
ATOM     18  C   UNL     1     145.717 136.917 146.927  1.00  0.00    -0.067 C 
ATOM     19  C   UNL     1     147.506 135.143 146.787  1.00  0.00     0.009 C 
ATOM     20  C   UNL     1     147.116 136.601 146.382  1.00  0.00     0.021 C 
ATOM     21  C   UNL     1     145.494 137.827 147.902  1.00  0.00    -0.027 C 
ATOM     22  C   UNL     1     148.175 137.719 146.731  1.00  0.00    -0.023 C 
ATOM     23  C   UNL     1     146.568 138.723 148.454  1.00  0.00     0.031 C 
ATOM     24  C   UNL     1     147.978 138.154 148.218  1.00  0.00     0.002 C 
ATOM     25  C   UNL     1     149.639 137.207 146.547  1.00  0.00     0.010 C 
ATOM     26  C   UNL     1     147.937 138.905 145.748  1.00  0.00     0.012 C 
ATOM     27  C   UNL     1     149.049 139.158 148.703  1.00  0.00     0.036 C 
ATOM     28  C   UNL     1     150.693 138.227 147.004  1.00  0.00     0.032 C 
ATOM     29  C   UNL     1     150.471 138.617 148.475  1.00  0.00     0.114 C 
BRANCH  29  30
ATOM     30  O   UNL     1     151.431 139.555 148.892  1.00  0.00    -0.393 OA
ATOM     31  H   UNL     1     152.085 139.082 149.469  1.00  0.00     0.210 HD
ENDBRANCH  29  30
ENDBRANCH   1  11
TORSDOF 6
ENDMDL
MODEL 5
REMARK VINA RESULT:    -6.583      2.232      4.724
REMARK INTER + INTRA:          -9.846
REMARK INTER:                  -8.970
REMARK INTRA:                  -0.876
REMARK UNBOUND:                -1.145
REMARK SMILES CC[C@H](C=C[C@H](C)[C@H]1CC[C@H]2C3=CC[C@@H]4C[C@H](O)CC[C@@]4(C)[C@H]3CC[C@]12C)C(C)C
REMARK SMILES IDX 6 1 7 2 5 3 4 4 3 5 2 6 1 7 28 8 29 9 30 10 8 11 9 12 26 13
REMARK SMILES IDX 10 14 11 15 25 16 27 17 12 18 24 19 23 20 13 21 21 22 14 23
REMARK SMILES IDX 15 24 20 25 22 26 16 27 19 28 17 29 18 30
REMARK H PARENT 18 31
REMARK Flexibility Score: inf
ROOT
ATOM      1  C   UNL     1     141.568 134.092 149.358  1.00  0.00     0.012 C 
ATOM      2  C   UNL     1     140.759 135.318 149.824  1.00  0.00     0.012 C 
ENDROOT
BRANCH   1   3
ATOM      3  C   UNL     1     140.619 132.990 148.933  1.00  0.00    -0.028 C 
ATOM      4  C   UNL     1     139.341 133.229 148.598  1.00  0.00    -0.027 C 
BRANCH   4   5
ATOM      5  C   UNL     1     138.416 132.116 148.151  1.00  0.00     0.014 C 
BRANCH   5   6
ATOM      6  C   UNL     1     137.225 132.004 149.136  1.00  0.00     0.004 C 
ATOM      7  C   UNL     1     137.093 133.194 150.093  1.00  0.00     0.004 C 
ENDBRANCH   5   6
BRANCH   5   8
ATOM      8  C   UNL     1     137.999 132.303 146.657  1.00  0.00    -0.011 C 
ATOM      9  C   UNL     1     139.140 131.948 145.687  1.00  0.00     0.008 C 
ATOM     10  C   UNL     1     137.552 133.752 146.387  1.00  0.00     0.008 C 
ENDBRANCH   5   8
ENDBRANCH   4   5
ENDBRANCH   1   3
BRANCH   1  11
ATOM     11  C   UNL     1     142.656 134.354 148.255  1.00  0.00     0.002 C 
ATOM     12  C   UNL     1     142.262 135.271 147.064  1.00  0.00     0.005 C 
ATOM     13  C   UNL     1     144.020 134.910 148.739  1.00  0.00    -0.023 C 
ATOM     14  C   UNL     1     143.558 135.964 146.597  1.00  0.00     0.009 C 
ATOM     15  C   UNL     1     144.661 135.267 147.393  1.00  0.00     0.021 C 
ATOM     16  C   UNL     1     144.930 133.869 149.442  1.00  0.00     0.008 C 
ATOM     17  C   UNL     1     143.838 136.162 149.652  1.00  0.00     0.012 C 
ATOM     18  C   UNL     1     146.027 135.876 147.610  1.00  0.00    -0.067 C 
ATOM     19  C   UNL     1     146.389 134.380 149.609  1.00  0.00     0.009 C 
ATOM     20  C   UNL     1     147.016 134.914 148.280  1.00  0.00     0.021 C 
ATOM     21  C   UNL     1     146.260 137.203 147.484  1.00  0.00    -0.027 C 
ATOM     22  C   UNL     1     148.470 135.516 148.399  1.00  0.00    -0.023 C 
ATOM     23  C   UNL     1     147.564 137.849 147.860  1.00  0.00     0.031 C 
ATOM     24  C   UNL     1     148.365 137.003 148.864  1.00  0.00     0.002 C 
ATOM     25  C   UNL     1     149.342 134.727 149.428  1.00  0.00     0.010 C 
ATOM     26  C   UNL     1     149.136 135.398 146.994  1.00  0.00     0.012 C 
ATOM     27  C   UNL     1     149.742 137.653 149.134  1.00  0.00     0.036 C 
ATOM     28  C   UNL     1     150.718 135.368 149.664  1.00  0.00     0.032 C 
ATOM     29  C   UNL     1     150.568 136.824 150.134  1.00  0.00     0.114 C 
BRANCH  29  30
ATOM     30  O   UNL     1     151.827 137.412 150.342  1.00  0.00    -0.393 OA
ATOM     31  H   UNL     1     152.382 136.765 150.853  1.00  0.00     0.210 HD
ENDBRANCH  29  30
ENDBRANCH   1  11
TORSDOF 6
ENDMDL
MODEL 6
REMARK VINA RESULT:    -6.523      3.666      9.408
REMARK INTER + INTRA:          -9.766
REMARK INTER:                  -8.511
REMARK INTRA:                  -1.255
REMARK UNBOUND:                -1.145
REMARK SMILES CC[C@H](C=C[C@H](C)[C@H]1CC[C@H]2C3=CC[C@@H]4C[C@H](O)CC[C@@]4(C)[C@H]3CC[C@]12C)C(C)C
REMARK SMILES IDX 6 1 7 2 5 3 4 4 3 5 2 6 1 7 28 8 29 9 30 10 8 11 9 12 26 13
REMARK SMILES IDX 10 14 11 15 25 16 27 17 12 18 24 19 23 20 13 21 21 22 14 23
REMARK SMILES IDX 15 24 20 25 22 26 16 27 19 28 17 29 18 30
REMARK H PARENT 18 31
REMARK Flexibility Score: inf
ROOT
ATOM      1  C   UNL     1     148.666 139.024 147.402  1.00  0.00     0.012 C 
ATOM      2  C   UNL     1     149.515 139.426 148.622  1.00  0.00     0.012 C 
ENDROOT
BRANCH   1   3
ATOM      3  C   UNL     1     149.288 139.591 146.142  1.00  0.00    -0.028 C 
ATOM      4  C   UNL     1     149.015 139.102 144.921  1.00  0.00    -0.027 C 
BRANCH   4   5
ATOM      5  C   UNL     1     149.627 139.701 143.671  1.00  0.00     0.014 C 
BRANCH   5   6
ATOM      6  C   UNL     1     151.114 139.279 143.568  1.00  0.00     0.004 C 
ATOM      7  C   UNL     1     151.333 137.761 143.566  1.00  0.00     0.004 C 
ENDBRANCH   5   6
BRANCH   5   8
ATOM      8  C   UNL     1     148.771 139.357 142.411  1.00  0.00    -0.011 C 
ATOM      9  C   UNL     1     149.060 140.308 141.235  1.00  0.00     0.008 C 
ATOM     10  C   UNL     1     147.266 139.411 142.734  1.00  0.00     0.008 C 
ENDBRANCH   5   8
ENDBRANCH   4   5
ENDBRANCH   1   3
BRANCH   1  11
ATOM     11  C   UNL     1     148.363 137.491 147.239  1.00  0.00     0.002 C 
ATOM     12  C   UNL     1     149.320 136.492 147.946  1.00  0.00     0.005 C 
ATOM     13  C   UNL     1     146.942 137.015 147.637  1.00  0.00    -0.023 C 
ATOM     14  C   UNL     1     148.478 135.248 148.293  1.00  0.00     0.009 C 
ATOM     15  C   UNL     1     147.142 135.496 147.593  1.00  0.00     0.021 C 
ATOM     16  C   UNL     1     145.828 137.381 146.620  1.00  0.00     0.008 C 
ATOM     17  C   UNL     1     146.547 137.513 149.061  1.00  0.00     0.012 C 
ATOM     18  C   UNL     1     145.866 134.789 147.987  1.00  0.00    -0.067 C 
ATOM     19  C   UNL     1     144.506 136.611 146.893  1.00  0.00     0.009 C 
ATOM     20  C   UNL     1     144.702 135.066 147.026  1.00  0.00     0.021 C 
ATOM     21  C   UNL     1     145.698 134.211 149.199  1.00  0.00    -0.027 C 
ATOM     22  C   UNL     1     143.407 134.235 147.377  1.00  0.00    -0.023 C 
ATOM     23  C   UNL     1     144.384 133.655 149.672  1.00  0.00     0.031 C 
ATOM     24  C   UNL     1     143.189 134.269 148.924  1.00  0.00     0.002 C 
ATOM     25  C   UNL     1     142.137 134.818 146.678  1.00  0.00     0.010 C 
ATOM     26  C   UNL     1     143.634 132.782 146.860  1.00  0.00     0.012 C 
ATOM     27  C   UNL     1     141.873 133.589 149.366  1.00  0.00     0.036 C 
ATOM     28  C   UNL     1     140.841 134.112 147.103  1.00  0.00     0.032 C 
ATOM     29  C   UNL     1     140.659 134.182 148.629  1.00  0.00     0.114 C 
BRANCH  29  30
ATOM     30  O   UNL     1     139.476 133.531 149.019  1.00  0.00    -0.393 OA
ATOM     31  H   UNL     1     138.850 134.221 149.361  1.00  0.00     0.210 HD
ENDBRANCH  29  30
ENDBRANCH   1  11
TORSDOF 6
ENDMDL
MODEL 7
REMARK VINA RESULT:    -6.500      3.749      7.527
REMARK INTER + INTRA:          -9.736
REMARK INTER:                  -8.506
REMARK INTRA:                  -1.230
REMARK UNBOUND:                -1.145
REMARK SMILES CC[C@H](C=C[C@H](C)[C@H]1CC[C@H]2C3=CC[C@@H]4C[C@H](O)CC[C@@]4(C)[C@H]3CC[C@]12C)C(C)C
REMARK SMILES IDX 6 1 7 2 5 3 4 4 3 5 2 6 1 7 28 8 29 9 30 10 8 11 9 12 26 13
REMARK SMILES IDX 10 14 11 15 25 16 27 17 12 18 24 19 23 20 13 21 21 22 14 23
REMARK SMILES IDX 15 24 20 25 22 26 16 27 19 28 17 29 18 30
REMARK H PARENT 18 31
REMARK Flexibility Score: inf
ROOT
ATOM      1  C   UNL     1     144.392 136.084 147.067  1.00  0.00     0.012 C 
ATOM      2  C   UNL     1     143.744 136.767 145.848  1.00  0.00     0.012 C 
ENDROOT
BRANCH   1   3
ATOM      3  C   UNL     1     143.633 134.815 147.400  1.00  0.00    -0.028 C 
ATOM      4  C   UNL     1     142.896 134.688 148.516  1.00  0.00    -0.027 C 
BRANCH   4   5
ATOM      5  C   UNL     1     142.124 133.420 148.817  1.00  0.00     0.014 C 
BRANCH   5   6
ATOM      6  C   UNL     1     143.095 132.332 149.341  1.00  0.00     0.004 C 
ATOM      7  C   UNL     1     143.211 132.284 150.869  1.00  0.00     0.004 C 
ENDBRANCH   5   6
BRANCH   5   8
ATOM      8  C   UNL     1     140.916 133.714 149.762  1.00  0.00    -0.011 C 
ATOM      9  C   UNL     1     139.616 133.058 149.264  1.00  0.00     0.008 C 
ATOM     10  C   UNL     1     140.683 135.230 149.904  1.00  0.00     0.008 C 
ENDBRANCH   5   8
ENDBRANCH   4   5
ENDBRANCH   1   3
BRANCH   1  11
ATOM     11  C   UNL     1     145.935 135.807 146.972  1.00  0.00     0.002 C 
ATOM     12  C   UNL     1     146.776 136.746 146.064  1.00  0.00     0.005 C 
ATOM     13  C   UNL     1     146.718 135.757 148.310  1.00  0.00    -0.023 C 
ATOM     14  C   UNL     1     148.189 136.803 146.680  1.00  0.00     0.009 C 
ATOM     15  C   UNL     1     148.157 135.743 147.781  1.00  0.00     0.021 C 
ATOM     16  C   UNL     1     146.500 134.463 149.139  1.00  0.00     0.008 C 
ATOM     17  C   UNL     1     146.429 137.010 149.192  1.00  0.00     0.012 C 
ATOM     18  C   UNL     1     149.136 135.728 148.933  1.00  0.00    -0.067 C 
ATOM     19  C   UNL     1     147.540 134.317 150.285  1.00  0.00     0.009 C 
ATOM     20  C   UNL     1     149.020 134.471 149.805  1.00  0.00     0.021 C 
ATOM     21  C   UNL     1     149.834 136.824 149.310  1.00  0.00    -0.027 C 
ATOM     22  C   UNL     1     150.119 134.406 150.936  1.00  0.00    -0.023 C 
ATOM     23  C   UNL     1     150.680 136.875 150.552  1.00  0.00     0.031 C 
ATOM     24  C   UNL     1     150.258 135.819 151.587  1.00  0.00     0.002 C 
ATOM     25  C   UNL     1     149.748 133.374 152.047  1.00  0.00     0.010 C 
ATOM     26  C   UNL     1     151.450 133.950 150.261  1.00  0.00     0.012 C 
ATOM     27  C   UNL     1     151.223 135.837 152.795  1.00  0.00     0.036 C 
ATOM     28  C   UNL     1     150.732 133.382 153.227  1.00  0.00     0.032 C 
ATOM     29  C   UNL     1     150.827 134.786 153.847  1.00  0.00     0.114 C 
BRANCH  29  30
ATOM     30  O   UNL     1     151.733 134.795 154.922  1.00  0.00    -0.393 OA
ATOM     31  H   UNL     1     151.663 133.918 155.383  1.00  0.00     0.210 HD
ENDBRANCH  29  30
ENDBRANCH   1  11
TORSDOF 6
ENDMDL
MODEL 8
REMARK VINA RESULT:    -6.452      3.676      7.074
REMARK INTER + INTRA:          -9.672
REMARK INTER:                  -8.301
REMARK INTRA:                  -1.371
REMARK UNBOUND:                -1.145
REMARK SMILES CC[C@H](C=C[C@H](C)[C@H]1CC[C@H]2C3=CC[C@@H]4C[C@H](O)CC[C@@]4(C)[C@H]3CC[C@]12C)C(C)C
REMARK SMILES IDX 6 1 7 2 5 3 4 4 3 5 2 6 1 7 28 8 29 9 30 10 8 11 9 12 26 13
REMARK SMILES IDX 10 14 11 15 25 16 27 17 12 18 24 19 23 20 13 21 21 22 14 23
REMARK SMILES IDX 15 24 20 25 22 26 16 27 19 28 17 29 18 30
REMARK H PARENT 18 31
REMARK Flexibility Score: inf
ROOT
ATOM      1  C   UNL     1     142.201 133.420 149.866  1.00  0.00     0.012 C 
ATOM      2  C   UNL     1     140.712 133.661 149.557  1.00  0.00     0.012 C 
ENDROOT
BRANCH   1   3
ATOM      3  C   UNL     1     142.360 132.107 150.605  1.00  0.00    -0.028 C 
ATOM      4  C   UNL     1     143.387 131.866 151.436  1.00  0.00    -0.027 C 
BRANCH   4   5
ATOM      5  C   UNL     1     143.513 130.556 152.186  1.00  0.00     0.014 C 
BRANCH   5   6
ATOM      6  C   UNL     1     143.108 129.385 151.255  1.00  0.00     0.004 C 
ATOM      7  C   UNL     1     144.244 128.883 150.355  1.00  0.00     0.004 C 
ENDBRANCH   5   6
BRANCH   5   8
ATOM      8  C   UNL     1     144.931 130.411 152.823  1.00  0.00    -0.011 C 
ATOM      9  C   UNL     1     144.876 130.371 154.360  1.00  0.00     0.008 C 
ATOM     10  C   UNL     1     145.850 131.570 152.391  1.00  0.00     0.008 C 
ENDBRANCH   5   8
ENDBRANCH   4   5
ENDBRANCH   1   3
BRANCH   1  11
ATOM     11  C   UNL     1     143.188 133.502 148.646  1.00  0.00     0.002 C 
ATOM     12  C   UNL     1     142.571 133.754 147.242  1.00  0.00     0.005 C 
ATOM     13  C   UNL     1     144.345 134.529 148.753  1.00  0.00    -0.023 C 
ATOM     14  C   UNL     1     143.635 134.517 146.427  1.00  0.00     0.009 C 
ATOM     15  C   UNL     1     144.878 134.486 147.316  1.00  0.00     0.021 C 
ATOM     16  C   UNL     1     145.497 134.108 149.704  1.00  0.00     0.008 C 
ATOM     17  C   UNL     1     143.822 135.945 149.143  1.00  0.00     0.012 C 
ATOM     18  C   UNL     1     146.025 135.457 147.156  1.00  0.00    -0.067 C 
ATOM     19  C   UNL     1     146.760 134.996 149.525  1.00  0.00     0.009 C 
ATOM     20  C   UNL     1     147.232 135.115 148.040  1.00  0.00     0.021 C 
ATOM     21  C   UNL     1     145.890 136.644 146.521  1.00  0.00    -0.027 C 
ATOM     22  C   UNL     1     148.467 136.064 147.784  1.00  0.00    -0.023 C 
ATOM     23  C   UNL     1     146.967 137.694 146.500  1.00  0.00     0.031 C 
ATOM     24  C   UNL     1     147.958 137.536 147.665  1.00  0.00     0.002 C 
ATOM     25  C   UNL     1     149.509 135.984 148.944  1.00  0.00     0.010 C 
ATOM     26  C   UNL     1     149.154 135.585 146.468  1.00  0.00     0.012 C 
ATOM     27  C   UNL     1     149.103 138.566 147.539  1.00  0.00     0.036 C 
ATOM     28  C   UNL     1     150.658 136.992 148.789  1.00  0.00     0.032 C 
ATOM     29  C   UNL     1     150.114 138.427 148.691  1.00  0.00     0.114 C 
BRANCH  29  30
ATOM     30  O   UNL     1     151.164 139.349 148.542  1.00  0.00    -0.393 OA
ATOM     31  H   UNL     1     150.837 140.088 147.965  1.00  0.00     0.210 HD
ENDBRANCH  29  30
ENDBRANCH   1  11
TORSDOF 6
ENDMDL
MODEL 9
REMARK VINA RESULT:    -6.439      2.694      5.550
REMARK INTER + INTRA:          -9.655
REMARK INTER:                  -8.608
REMARK INTRA:                  -1.046
REMARK UNBOUND:                -1.145
REMARK SMILES CC[C@H](C=C[C@H](C)[C@H]1CC[C@H]2C3=CC[C@@H]4C[C@H](O)CC[C@@]4(C)[C@H]3CC[C@]12C)C(C)C
REMARK SMILES IDX 6 1 7 2 5 3 4 4 3 5 2 6 1 7 28 8 29 9 30 10 8 11 9 12 26 13
REMARK SMILES IDX 10 14 11 15 25 16 27 17 12 18 24 19 23 20 13 21 21 22 14 23
REMARK SMILES IDX 15 24 20 25 22 26 16 27 19 28 17 29 18 30
REMARK H PARENT 18 31
REMARK Flexibility Score: inf
ROOT
ATOM      1  C   UNL     1     141.783 135.261 148.193  1.00  0.00     0.012 C 
ATOM      2  C   UNL     1     141.078 134.890 146.875  1.00  0.00     0.012 C 
ENDROOT
BRANCH   1   3
ATOM      3  C   UNL     1     140.892 134.901 149.364  1.00  0.00    -0.028 C 
ATOM      4  C   UNL     1     140.019 133.881 149.318  1.00  0.00    -0.027 C 
BRANCH   4   5
ATOM      5  C   UNL     1     139.156 133.519 150.510  1.00  0.00     0.014 C 
BRANCH   5   6
ATOM      6  C   UNL     1     137.683 133.363 150.055  1.00  0.00     0.004 C 
ATOM      7  C   UNL     1     137.505 133.287 148.534  1.00  0.00     0.004 C 
ENDBRANCH   5   6
BRANCH   5   8
ATOM      8  C   UNL     1     139.733 132.278 151.261  1.00  0.00    -0.011 C 
ATOM      9  C   UNL     1     140.974 132.631 152.099  1.00  0.00     0.008 C 
ATOM     10  C   UNL     1     140.106 131.159 150.271  1.00  0.00     0.008 C 
ENDBRANCH   5   8
ENDBRANCH   4   5
ENDBRANCH   1   3
BRANCH   1  11
ATOM     11  C   UNL     1     143.232 134.690 148.393  1.00  0.00     0.002 C 
ATOM     12  C   UNL     1     143.575 133.346 147.693  1.00  0.00     0.005 C 
ATOM     13  C   UNL     1     144.409 135.631 148.025  1.00  0.00    -0.023 C 
ATOM     14  C   UNL     1     145.085 133.385 147.384  1.00  0.00     0.009 C 
ATOM     15  C   UNL     1     145.579 134.643 148.099  1.00  0.00     0.021 C 
ATOM     16  C   UNL     1     144.675 136.765 149.051  1.00  0.00     0.008 C 
ATOM     17  C   UNL     1     144.238 136.233 146.597  1.00  0.00     0.012 C 
ATOM     18  C   UNL     1     146.872 135.337 147.738  1.00  0.00    -0.067 C 
ATOM     19  C   UNL     1     146.043 137.464 148.813  1.00  0.00     0.009 C 
ATOM     20  C   UNL     1     147.241 136.466 148.709  1.00  0.00     0.021 C 
ATOM     21  C   UNL     1     147.480 135.168 146.541  1.00  0.00    -0.027 C 
ATOM     22  C   UNL     1     148.648 137.109 148.395  1.00  0.00    -0.023 C 
ATOM     23  C   UNL     1     148.668 135.976 146.099  1.00  0.00     0.031 C 
ATOM     24  C   UNL     1     148.776 137.313 146.851  1.00  0.00     0.002 C 
ATOM     25  C   UNL     1     148.824 138.492 149.101  1.00  0.00     0.010 C 
ATOM     26  C   UNL     1     149.736 136.134 148.939  1.00  0.00     0.012 C 
ATOM     27  C   UNL     1     150.069 138.055 146.443  1.00  0.00     0.036 C 
ATOM     28  C   UNL     1     150.127 139.204 148.709  1.00  0.00     0.032 C 
ATOM     29  C   UNL     1     150.206 139.396 147.185  1.00  0.00     0.114 C 
BRANCH  29  30
ATOM     30  O   UNL     1     151.401 140.041 146.826  1.00  0.00    -0.393 OA
ATOM     31  H   UNL     1     152.094 139.787 147.491  1.00  0.00     0.210 HD
ENDBRANCH  29  30
ENDBRANCH   1  11
TORSDOF 6
ENDMDL
