MODEL 1
REMARK VINA RESULT:    41.818      0.000      0.000
REMARK INTER + INTRA:          50.052
REMARK INTER:                  50.375
REMARK INTRA:                  -0.322
REMARK UNBOUND:                -0.322
REMARK SMILES O=c1c(O)c(-c2ccc(O)c(O)c2)oc2cc(O)cc(O)c12
REMARK SMILES IDX 5 1 3 2 2 3 1 4 22 5 20 6 19 7 17 8 16 9 15 10 14 11 6 12
REMARK SMILES IDX 7 13 8 14 9 15 13 16 11 17 10 18 12 20 4 22 21 24 18 26
REMARK H PARENT 10 19 12 21 4 23 21 25 18 27
REMARK Flexibility Score: inf
ROOT
ATOM      1  C   UNL     1      10.270  13.353   4.541  1.00  0.00     0.180 A 
ATOM      2  C   UNL     1      10.094  14.375   3.587  1.00  0.00     0.208 A 
ATOM      3  C   UNL     1      10.564  14.173   2.281  1.00  0.00     0.238 A 
ATOM      4  O   UNL     1      10.401  15.076   1.417  1.00  0.00    -0.285 OA
ATOM      5  C   UNL     1      11.218  12.967   1.954  1.00  0.00     0.111 A 
ATOM      6  C   UNL     1      11.725  12.687   0.662  1.00  0.00     0.134 A 
ATOM      7  C   UNL     1      12.372  11.466   0.419  1.00  0.00     0.093 A 
ATOM      8  C   UNL     1      12.524  10.523   1.442  1.00  0.00     0.123 A 
ATOM      9  C   UNL     1      12.025  10.795   2.716  1.00  0.00     0.094 A 
ATOM     10  C   UNL     1      11.375  12.005   2.979  1.00  0.00     0.146 A 
ATOM     11  O   UNL     1      10.906  12.235   4.200  1.00  0.00    -0.452 OA
ENDROOT
BRANCH   1  12
ATOM     12  C   UNL     1       9.786  13.483   5.933  1.00  0.00     0.025 A 
ATOM     13  C   UNL     1      10.570  14.095   6.928  1.00  0.00     0.016 A 
ATOM     14  C   UNL     1      10.080  14.227   8.229  1.00  0.00     0.051 A 
ATOM     15  C   UNL     1       8.798  13.765   8.555  1.00  0.00     0.157 A 
ATOM     16  C   UNL     1       8.493  13.040   6.259  1.00  0.00     0.062 A 
ATOM     17  C   UNL     1       8.001  13.171   7.562  1.00  0.00     0.158 A 
BRANCH  15  18
ATOM     18  O   UNL     1       8.314  13.898   9.855  1.00  0.00    -0.504 OA
ATOM     19  H   UNL     1       7.977  13.098  10.381  1.00  0.00     0.293 HD
ENDBRANCH  15  18
BRANCH  17  20
ATOM     20  O   UNL     1       6.718  12.708   7.852  1.00  0.00    -0.504 OA
ATOM     21  H   UNL     1       6.361  11.838   7.477  1.00  0.00     0.293 HD
ENDBRANCH  17  20
ENDBRANCH   1  12
BRANCH   2  22
ATOM     22  O   UNL     1       9.486  15.580   3.950  1.00  0.00    -0.502 OA
ATOM     23  H   UNL     1       9.777  16.471   3.566  1.00  0.00     0.293 HD
ENDBRANCH   2  22
BRANCH   6  24
ATOM     24  O   UNL     1      11.591  13.608  -0.377  1.00  0.00    -0.507 OA
ATOM     25  H   UNL     1      10.902  14.351  -0.347  1.00  0.00     0.293 HD
ENDBRANCH   6  24
BRANCH   8  26
ATOM     26  O   UNL     1      13.167   9.312   1.201  1.00  0.00    -0.508 OA
ATOM     27  H   UNL     1      12.953   8.750   0.384  1.00  0.00     0.293 HD
ENDBRANCH   8  26
TORSDOF 6
ENDMDL
MODEL 2
REMARK VINA RESULT:    43.172      2.850      4.295
REMARK INTER + INTRA:          51.683
REMARK INTER:                  51.453
REMARK INTRA:                   0.230
REMARK UNBOUND:                -0.322
REMARK SMILES O=c1c(O)c(-c2ccc(O)c(O)c2)oc2cc(O)cc(O)c12
REMARK SMILES IDX 5 1 3 2 2 3 1 4 22 5 20 6 19 7 17 8 16 9 15 10 14 11 6 12
REMARK SMILES IDX 7 13 8 14 9 15 13 16 11 17 10 18 12 20 4 22 21 24 18 26
REMARK H PARENT 10 19 12 21 4 23 21 25 18 27
REMARK Flexibility Score: inf
ROOT
ATOM      1  C   UNL     1      11.922  13.034   4.586  1.00  0.00     0.180 A 
ATOM      2  C   UNL     1      11.693  11.753   4.046  1.00  0.00     0.208 A 
ATOM      3  C   UNL     1      11.208  11.647   2.734  1.00  0.00     0.238 A 
ATOM      4  O   UNL     1      11.010  10.505   2.237  1.00  0.00    -0.285 OA
ATOM      5  C   UNL     1      10.943  12.816   1.991  1.00  0.00     0.111 A 
ATOM      6  C   UNL     1      10.449  12.795   0.664  1.00  0.00     0.134 A 
ATOM      7  C   UNL     1      10.202  14.003  -0.004  1.00  0.00     0.093 A 
ATOM      8  C   UNL     1      10.436  15.230   0.629  1.00  0.00     0.123 A 
ATOM      9  C   UNL     1      10.923  15.255   1.936  1.00  0.00     0.094 A 
ATOM     10  C   UNL     1      11.178  14.062   2.619  1.00  0.00     0.146 A 
ATOM     11  O   UNL     1      11.646  14.115   3.862  1.00  0.00    -0.452 OA
ENDROOT
BRANCH   1  12
ATOM     12  C   UNL     1      12.450  13.228   5.955  1.00  0.00     0.025 A 
ATOM     13  C   UNL     1      11.987  14.271   6.777  1.00  0.00     0.016 A 
ATOM     14  C   UNL     1      12.483  14.419   8.075  1.00  0.00     0.051 A 
ATOM     15  C   UNL     1      13.436  13.522   8.575  1.00  0.00     0.157 A 
ATOM     16  C   UNL     1      13.389  12.319   6.468  1.00  0.00     0.062 A 
ATOM     17  C   UNL     1      13.888  12.465   7.768  1.00  0.00     0.158 A 
BRANCH  15  18
ATOM     18  O   UNL     1      13.930  13.674   9.870  1.00  0.00    -0.504 OA
ATOM     19  H   UNL     1      13.538  14.355  10.512  1.00  0.00     0.293 HD
ENDBRANCH  15  18
BRANCH  17  20
ATOM     20  O   UNL     1      14.830  11.552   8.239  1.00  0.00    -0.504 OA
ATOM     21  H   UNL     1      14.782  11.161   9.172  1.00  0.00     0.293 HD
ENDBRANCH  17  20
ENDBRANCH   1  12
BRANCH   2  22
ATOM     22  O   UNL     1      11.917  10.611   4.820  1.00  0.00    -0.502 OA
ATOM     23  H   UNL     1      11.200  10.205   5.408  1.00  0.00     0.293 HD
ENDBRANCH   2  22
BRANCH   6  24
ATOM     24  O   UNL     1      10.204  11.589   0.008  1.00  0.00    -0.507 OA
ATOM     25  H   UNL     1       9.659  10.849   0.436  1.00  0.00     0.293 HD
ENDBRANCH   6  24
BRANCH   8  26
ATOM     26  O   UNL     1      10.189  16.429  -0.034  1.00  0.00    -0.508 OA
ATOM     27  H   UNL     1       9.246  16.732  -0.251  1.00  0.00     0.293 HD
ENDBRANCH   8  26
TORSDOF 6
ENDMDL
MODEL 3
REMARK VINA RESULT:    44.319      1.356      3.110
REMARK INTER + INTRA:          53.065
REMARK INTER:                  53.321
REMARK INTRA:                  -0.255
REMARK UNBOUND:                -0.322
REMARK SMILES O=c1c(O)c(-c2ccc(O)c(O)c2)oc2cc(O)cc(O)c12
REMARK SMILES IDX 5 1 3 2 2 3 1 4 22 5 20 6 19 7 17 8 16 9 15 10 14 11 6 12
REMARK SMILES IDX 7 13 8 14 9 15 13 16 11 17 10 18 12 20 4 22 21 24 18 26
REMARK H PARENT 10 19 12 21 4 23 21 25 18 27
REMARK Flexibility Score: inf
ROOT
ATOM      1  C   UNL     1      10.260  13.446   4.292  1.00  0.00     0.180 A 
ATOM      2  C   UNL     1      10.649  12.238   3.681  1.00  0.00     0.208 A 
ATOM      3  C   UNL     1      10.981  12.243   2.318  1.00  0.00     0.238 A 
ATOM      4  O   UNL     1      11.341  11.169   1.763  1.00  0.00    -0.285 OA
ATOM      5  C   UNL     1      10.900  13.445   1.585  1.00  0.00     0.111 A 
ATOM      6  C   UNL     1      11.214  13.534   0.207  1.00  0.00     0.134 A 
ATOM      7  C   UNL     1      11.100  14.766  -0.453  1.00  0.00     0.093 A 
ATOM      8  C   UNL     1      10.676  15.909   0.236  1.00  0.00     0.123 A 
ATOM      9  C   UNL     1      10.367  15.825   1.594  1.00  0.00     0.094 A 
ATOM     10  C   UNL     1      10.476  14.607   2.271  1.00  0.00     0.146 A 
ATOM     11  O   UNL     1      10.180  14.557   3.565  1.00  0.00    -0.452 OA
ENDROOT
BRANCH   1  12
ATOM     12  C   UNL     1       9.913  13.526   5.728  1.00  0.00     0.025 A 
ATOM     13  C   UNL     1      10.773  14.137   6.657  1.00  0.00     0.016 A 
ATOM     14  C   UNL     1      10.413  14.221   8.004  1.00  0.00     0.051 A 
ATOM     15  C   UNL     1       9.183  13.710   8.441  1.00  0.00     0.157 A 
ATOM     16  C   UNL     1       8.672  13.034   6.167  1.00  0.00     0.062 A 
ATOM     17  C   UNL     1       8.309  13.116   7.516  1.00  0.00     0.158 A 
BRANCH  15  18
ATOM     18  O   UNL     1       8.828  13.794   9.786  1.00  0.00    -0.504 OA
ATOM     19  H   UNL     1       9.094  14.588  10.358  1.00  0.00     0.293 HD
ENDBRANCH  15  18
BRANCH  17  20
ATOM     20  O   UNL     1       7.075  12.605   7.918  1.00  0.00    -0.504 OA
ATOM     21  H   UNL     1       6.655  11.798   7.472  1.00  0.00     0.293 HD
ENDBRANCH  17  20
ENDBRANCH   1  12
BRANCH   2  22
ATOM     22  O   UNL     1      10.673  11.050   4.418  1.00  0.00    -0.502 OA
ATOM     23  H   UNL     1      10.976  10.170   4.019  1.00  0.00     0.293 HD
ENDBRANCH   2  22
BRANCH   6  24
ATOM     24  O   UNL     1      11.636  12.413  -0.508  1.00  0.00    -0.507 OA
ATOM     25  H   UNL     1      12.483  12.422  -1.064  1.00  0.00     0.293 HD
ENDBRANCH   6  24
BRANCH   8  26
ATOM     26  O   UNL     1      10.562  17.132  -0.420  1.00  0.00    -0.508 OA
ATOM     27  H   UNL     1      11.114  17.346  -1.243  1.00  0.00     0.293 HD
ENDBRANCH   8  26
TORSDOF 6
ENDMDL
MODEL 4
REMARK VINA RESULT:    44.354      2.989      6.447
REMARK INTER + INTRA:          53.107
REMARK INTER:                  52.992
REMARK INTRA:                   0.115
REMARK UNBOUND:                -0.322
REMARK SMILES O=c1c(O)c(-c2ccc(O)c(O)c2)oc2cc(O)cc(O)c12
REMARK SMILES IDX 5 1 3 2 2 3 1 4 22 5 20 6 19 7 17 8 16 9 15 10 14 11 6 12
REMARK SMILES IDX 7 13 8 14 9 15 13 16 11 17 10 18 12 20 4 22 21 24 18 26
REMARK H PARENT 10 19 12 21 4 23 21 25 18 27
REMARK Flexibility Score: inf
ROOT
ATOM      1  C   UNL     1      11.797  13.262   4.769  1.00  0.00     0.180 A 
ATOM      2  C   UNL     1      11.142  14.137   5.657  1.00  0.00     0.208 A 
ATOM      3  C   UNL     1      11.645  14.284   6.959  1.00  0.00     0.238 A 
ATOM      4  O   UNL     1      11.074  15.073   7.759  1.00  0.00    -0.285 OA
ATOM      5  C   UNL     1      12.777  13.542   7.357  1.00  0.00     0.111 A 
ATOM      6  C   UNL     1      13.343  13.630   8.652  1.00  0.00     0.134 A 
ATOM      7  C   UNL     1      14.465  12.852   8.973  1.00  0.00     0.093 A 
ATOM      8  C   UNL     1      15.029  11.987   8.027  1.00  0.00     0.123 A 
ATOM      9  C   UNL     1      14.474  11.899   6.750  1.00  0.00     0.094 A 
ATOM     10  C   UNL     1      13.357  12.668   6.409  1.00  0.00     0.146 A 
ATOM     11  O   UNL     1      12.852  12.567   5.184  1.00  0.00    -0.452 OA
ENDROOT
BRANCH   1  12
ATOM     12  C   UNL     1      11.338  13.067   3.375  1.00  0.00     0.025 A 
ATOM     13  C   UNL     1      11.218  11.783   2.816  1.00  0.00     0.016 A 
ATOM     14  C   UNL     1      10.760  11.623   1.506  1.00  0.00     0.051 A 
ATOM     15  C   UNL     1      10.402  12.741   0.740  1.00  0.00     0.157 A 
ATOM     16  C   UNL     1      10.958  14.183   2.611  1.00  0.00     0.062 A 
ATOM     17  C   UNL     1      10.500  14.027   1.298  1.00  0.00     0.158 A 
BRANCH  15  18
ATOM     18  O   UNL     1       9.947  12.578  -0.567  1.00  0.00    -0.504 OA
ATOM     19  H   UNL     1      10.537  12.177  -1.289  1.00  0.00     0.293 HD
ENDBRANCH  15  18
BRANCH  17  20
ATOM     20  O   UNL     1      10.144  15.158   0.565  1.00  0.00    -0.504 OA
ATOM     21  H   UNL     1      10.780  15.934   0.428  1.00  0.00     0.293 HD
ENDBRANCH  17  20
ENDBRANCH   1  12
BRANCH   2  22
ATOM     22  O   UNL     1       9.993  14.823   5.254  1.00  0.00    -0.502 OA
ATOM     23  H   UNL     1      10.035  15.695   4.740  1.00  0.00     0.293 HD
ENDBRANCH   2  22
BRANCH   6  24
ATOM     24  O   UNL     1      12.803  14.480   9.617  1.00  0.00    -0.507 OA
ATOM     25  H   UNL     1      12.099  15.172   9.384  1.00  0.00     0.293 HD
ENDBRANCH   6  24
BRANCH   8  26
ATOM     26  O   UNL     1      16.142  11.214   8.347  1.00  0.00    -0.508 OA
ATOM     27  H   UNL     1      16.472  10.479   7.731  1.00  0.00     0.293 HD
ENDBRANCH   8  26
TORSDOF 6
ENDMDL
