MODEL 1
REMARK VINA RESULT:    18.803      0.000      0.000
REMARK INTER + INTRA:          42.043
REMARK INTER:                  42.985
REMARK INTRA:                  -0.941
REMARK UNBOUND:                -0.941
REMARK SMILES CCCCCCCCCCCCCCCCCCCCCCCC(=O)[O-]
REMARK SMILES IDX 13 1 14 2 15 3 16 4 17 5 18 6 19 7 20 8 21 9 22 10 23 11
REMARK SMILES IDX 24 12 25 13 26 14 12 15 11 16 10 17 9 18 8 19 7 20 6 21 5 22
REMARK SMILES IDX 4 23 3 24 2 25 1 26
REMARK H PARENT
REMARK Flexibility Score: inf
ROOT
ATOM      1  C   UNL     1      17.143  17.471  19.295  1.00  0.00     0.000 C 
ENDROOT
BRANCH   1   2
ATOM      2  C   UNL     1      15.854  16.643  19.428  1.00  0.00     0.000 C 
BRANCH   2   3
ATOM      3  C   UNL     1      16.064  15.352  20.233  1.00  0.00     0.000 C 
BRANCH   3   4
ATOM      4  C   UNL     1      14.721  14.688  20.560  1.00  0.00     0.000 C 
BRANCH   4   5
ATOM      5  C   UNL     1      14.887  13.172  20.752  1.00  0.00     0.000 C 
BRANCH   5   6
ATOM      6  C   UNL     1      14.098  12.355  19.716  1.00  0.00     0.000 C 
BRANCH   6   7
ATOM      7  C   UNL     1      14.921  11.210  19.108  1.00  0.00     0.000 C 
BRANCH   7   8
ATOM      8  C   UNL     1      15.566  10.354  20.208  1.00  0.00     0.000 C 
BRANCH   8   9
ATOM      9  C   UNL     1      16.217   9.069  19.663  1.00  0.00     0.000 C 
BRANCH   9  10
ATOM     10  C   UNL     1      17.752   9.126  19.518  1.00  0.00     0.006 C 
BRANCH  10  11
ATOM     11  C   UNL     1      18.486   9.711  20.735  1.00  0.00     0.053 C 
BRANCH  11  12
ATOM     12  C   UNL     1      19.719  10.465  20.337  1.00  0.00     0.041 C 
ATOM     13  O   UNL     1      20.379  10.112  19.323  1.00  0.00    -0.550 OA
ATOM     14  O   UNL     1      20.158  11.534  21.107  1.00  0.00    -0.550 OA
ENDBRANCH  11  12
ENDBRANCH  10  11
ENDBRANCH   9  10
ENDBRANCH   8   9
ENDBRANCH   7   8
ENDBRANCH   6   7
ENDBRANCH   5   6
ENDBRANCH   4   5
ENDBRANCH   3   4
ENDBRANCH   2   3
ENDBRANCH   1   2
BRANCH   1  15
ATOM     15  C   UNL     1      18.028  17.380  20.552  1.00  0.00     0.000 C 
BRANCH  15  16
ATOM     16  C   UNL     1      19.449  17.924  20.315  1.00  0.00     0.000 C 
BRANCH  16  17
ATOM     17  C   UNL     1      19.847  19.069  21.275  1.00  0.00     0.000 C 
BRANCH  17  18
ATOM     18  C   UNL     1      19.983  18.631  22.747  1.00  0.00    -0.000 C 
BRANCH  18  19
ATOM     19  C   UNL     1      21.258  19.123  23.456  1.00  0.00    -0.000 C 
BRANCH  19  20
ATOM     20  C   UNL     1      21.058  20.325  24.401  1.00  0.00    -0.000 C 
BRANCH  20  21
ATOM     21  C   UNL     1      22.282  21.264  24.490  1.00  0.00    -0.000 C 
BRANCH  21  22
ATOM     22  C   UNL     1      23.574  20.505  24.835  1.00  0.00    -0.000 C 
BRANCH  22  23
ATOM     23  C   UNL     1      24.201  19.885  23.580  1.00  0.00    -0.000 C 
BRANCH  23  24
ATOM     24  C   UNL     1      25.007  18.612  23.893  1.00  0.00    -0.000 C 
BRANCH  24  25
ATOM     25  C   UNL     1      25.157  17.692  22.673  1.00  0.00    -0.003 C 
ATOM     26  C   UNL     1      24.361  18.224  21.483  1.00  0.00     0.004 C 
ENDBRANCH  24  25
ENDBRANCH  23  24
ENDBRANCH  22  23
ENDBRANCH  21  22
ENDBRANCH  20  21
ENDBRANCH  19  20
ENDBRANCH  18  19
ENDBRANCH  17  18
ENDBRANCH  16  17
ENDBRANCH  15  16
ENDBRANCH   1  15
TORSDOF 22
ENDMDL
MODEL 2
REMARK VINA RESULT:    18.836      0.886      2.275
REMARK INTER + INTRA:          42.121
REMARK INTER:                  43.451
REMARK INTRA:                  -1.330
REMARK UNBOUND:                -0.941
REMARK SMILES CCCCCCCCCCCCCCCCCCCCCCCC(=O)[O-]
REMARK SMILES IDX 13 1 14 2 15 3 16 4 17 5 18 6 19 7 20 8 21 9 22 10 23 11
REMARK SMILES IDX 24 12 25 13 26 14 12 15 11 16 10 17 9 18 8 19 7 20 6 21 5 22
REMARK SMILES IDX 4 23 3 24 2 25 1 26
REMARK H PARENT
REMARK Flexibility Score: inf
ROOT
ATOM      1  C   UNL     1      17.175  17.541  19.076  1.00  0.00     0.000 C 
ENDROOT
BRANCH   1   2
ATOM      2  C   UNL     1      15.796  16.921  19.358  1.00  0.00     0.000 C 
BRANCH   2   3
ATOM      3  C   UNL     1      15.884  15.663  20.233  1.00  0.00     0.000 C 
BRANCH   3   4
ATOM      4  C   UNL     1      14.674  14.749  20.000  1.00  0.00     0.000 C 
BRANCH   4   5
ATOM      5  C   UNL     1      14.898  13.365  20.628  1.00  0.00     0.000 C 
BRANCH   5   6
ATOM      6  C   UNL     1      13.992  12.284  20.016  1.00  0.00     0.000 C 
BRANCH   6   7
ATOM      7  C   UNL     1      14.778  11.216  19.242  1.00  0.00     0.000 C 
BRANCH   7   8
ATOM      8  C   UNL     1      15.587  10.329  20.199  1.00  0.00     0.000 C 
BRANCH   8   9
ATOM      9  C   UNL     1      16.448   9.284  19.465  1.00  0.00     0.000 C 
BRANCH   9  10
ATOM     10  C   UNL     1      17.830   9.017  20.097  1.00  0.00     0.006 C 
BRANCH  10  11
ATOM     11  C   UNL     1      19.023   9.366  19.193  1.00  0.00     0.053 C 
BRANCH  11  12
ATOM     12  C   UNL     1      19.950  10.349  19.842  1.00  0.00     0.041 C 
ATOM     13  O   UNL     1      20.992  10.730  19.245  1.00  0.00    -0.550 OA
ATOM     14  O   UNL     1      19.680  10.817  21.123  1.00  0.00    -0.550 OA
ENDBRANCH  11  12
ENDBRANCH  10  11
ENDBRANCH   9  10
ENDBRANCH   8   9
ENDBRANCH   7   8
ENDBRANCH   6   7
ENDBRANCH   5   6
ENDBRANCH   4   5
ENDBRANCH   3   4
ENDBRANCH   2   3
ENDBRANCH   1   2
BRANCH   1  15
ATOM     15  C   UNL     1      18.231  17.108  20.109  1.00  0.00     0.000 C 
BRANCH  15  16
ATOM     16  C   UNL     1      18.642  18.256  21.051  1.00  0.00     0.000 C 
BRANCH  16  17
ATOM     17  C   UNL     1      20.168  18.365  21.273  1.00  0.00     0.000 C 
BRANCH  17  18
ATOM     18  C   UNL     1      21.003  18.134  19.997  1.00  0.00    -0.000 C 
BRANCH  18  19
ATOM     19  C   UNL     1      22.375  17.476  20.230  1.00  0.00    -0.000 C 
BRANCH  19  20
ATOM     20  C   UNL     1      23.358  18.298  21.088  1.00  0.00    -0.000 C 
BRANCH  20  21
ATOM     21  C   UNL     1      24.517  17.469  21.683  1.00  0.00    -0.000 C 
BRANCH  21  22
ATOM     22  C   UNL     1      25.075  18.090  22.974  1.00  0.00    -0.000 C 
BRANCH  22  23
ATOM     23  C   UNL     1      24.739  19.585  23.057  1.00  0.00    -0.000 C 
BRANCH  23  24
ATOM     24  C   UNL     1      24.112  19.972  24.408  1.00  0.00    -0.000 C 
BRANCH  24  25
ATOM     25  C   UNL     1      23.128  21.145  24.287  1.00  0.00    -0.003 C 
ATOM     26  C   UNL     1      21.685  20.669  24.440  1.00  0.00     0.004 C 
ENDBRANCH  24  25
ENDBRANCH  23  24
ENDBRANCH  22  23
ENDBRANCH  21  22
ENDBRANCH  20  21
ENDBRANCH  19  20
ENDBRANCH  18  19
ENDBRANCH  17  18
ENDBRANCH  16  17
ENDBRANCH  15  16
ENDBRANCH   1  15
TORSDOF 22
ENDMDL
MODEL 3
REMARK VINA RESULT:    18.867      2.388      9.875
REMARK INTER + INTRA:          42.191
REMARK INTER:                  43.267
REMARK INTRA:                  -1.075
REMARK UNBOUND:                -0.941
REMARK SMILES CCCCCCCCCCCCCCCCCCCCCCCC(=O)[O-]
REMARK SMILES IDX 13 1 14 2 15 3 16 4 17 5 18 6 19 7 20 8 21 9 22 10 23 11
REMARK SMILES IDX 24 12 25 13 26 14 12 15 11 16 10 17 9 18 8 19 7 20 6 21 5 22
REMARK SMILES IDX 4 23 3 24 2 25 1 26
REMARK H PARENT
REMARK Flexibility Score: inf
ROOT
ATOM      1  C   UNL     1      16.945  17.600  19.135  1.00  0.00     0.000 C 
ENDROOT
BRANCH   1   2
ATOM      2  C   UNL     1      18.005  17.345  20.220  1.00  0.00     0.000 C 
BRANCH   2   3
ATOM      3  C   UNL     1      19.369  17.956  19.866  1.00  0.00     0.000 C 
BRANCH   3   4
ATOM      4  C   UNL     1      20.295  17.969  21.088  1.00  0.00     0.000 C 
BRANCH   4   5
ATOM      5  C   UNL     1      19.815  18.985  22.135  1.00  0.00     0.000 C 
BRANCH   5   6
ATOM      6  C   UNL     1      20.777  19.103  23.329  1.00  0.00     0.000 C 
BRANCH   6   7
ATOM      7  C   UNL     1      21.217  20.550  23.597  1.00  0.00     0.000 C 
BRANCH   7   8
ATOM      8  C   UNL     1      21.999  20.650  24.915  1.00  0.00     0.000 C 
BRANCH   8   9
ATOM      9  C   UNL     1      23.523  20.716  24.705  1.00  0.00     0.000 C 
BRANCH   9  10
ATOM     10  C   UNL     1      24.036  20.022  23.426  1.00  0.00     0.006 C 
BRANCH  10  11
ATOM     11  C   UNL     1      25.047  18.892  23.676  1.00  0.00     0.053 C 
BRANCH  11  12
ATOM     12  C   UNL     1      24.954  17.816  22.636  1.00  0.00     0.041 C 
ATOM     13  O   UNL     1      24.251  17.988  21.605  1.00  0.00    -0.550 OA
ATOM     14  O   UNL     1      25.617  16.609  22.824  1.00  0.00    -0.550 OA
ENDBRANCH  11  12
ENDBRANCH  10  11
ENDBRANCH   9  10
ENDBRANCH   8   9
ENDBRANCH   7   8
ENDBRANCH   6   7
ENDBRANCH   5   6
ENDBRANCH   4   5
ENDBRANCH   3   4
ENDBRANCH   2   3
ENDBRANCH   1   2
BRANCH   1  15
ATOM     15  C   UNL     1      15.742  16.646  19.259  1.00  0.00     0.000 C 
BRANCH  15  16
ATOM     16  C   UNL     1      16.013  15.475  20.221  1.00  0.00     0.000 C 
BRANCH  16  17
ATOM     17  C   UNL     1      14.748  14.672  20.601  1.00  0.00     0.000 C 
BRANCH  17  18
ATOM     18  C   UNL     1      15.000  13.163  20.795  1.00  0.00    -0.000 C 
BRANCH  18  19
ATOM     19  C   UNL     1      14.194  12.245  19.859  1.00  0.00    -0.000 C 
BRANCH  19  20
ATOM     20  C   UNL     1      15.002  11.106  19.204  1.00  0.00    -0.000 C 
BRANCH  20  21
ATOM     21  C   UNL     1      15.677  10.154  20.216  1.00  0.00    -0.000 C 
BRANCH  21  22
ATOM     22  C   UNL     1      16.689   9.212  19.543  1.00  0.00    -0.000 C 
BRANCH  22  23
ATOM     23  C   UNL     1      18.053   9.276  20.243  1.00  0.00    -0.000 C 
BRANCH  23  24
ATOM     24  C   UNL     1      19.225   9.281  19.246  1.00  0.00    -0.000 C 
BRANCH  24  25
ATOM     25  C   UNL     1      20.275  10.353  19.573  1.00  0.00    -0.003 C 
ATOM     26  C   UNL     1      19.910  11.106  20.851  1.00  0.00     0.004 C 
ENDBRANCH  24  25
ENDBRANCH  23  24
ENDBRANCH  22  23
ENDBRANCH  21  22
ENDBRANCH  20  21
ENDBRANCH  19  20
ENDBRANCH  18  19
ENDBRANCH  17  18
ENDBRANCH  16  17
ENDBRANCH  15  16
ENDBRANCH   1  15
TORSDOF 22
ENDMDL
MODEL 4
REMARK VINA RESULT:    19.469      2.941     10.204
REMARK INTER + INTRA:          43.566
REMARK INTER:                  44.769
REMARK INTRA:                  -1.202
REMARK UNBOUND:                -0.941
REMARK SMILES CCCCCCCCCCCCCCCCCCCCCCCC(=O)[O-]
REMARK SMILES IDX 13 1 14 2 15 3 16 4 17 5 18 6 19 7 20 8 21 9 22 10 23 11
REMARK SMILES IDX 24 12 25 13 26 14 12 15 11 16 10 17 9 18 8 19 7 20 6 21 5 22
REMARK SMILES IDX 4 23 3 24 2 25 1 26
REMARK H PARENT
REMARK Flexibility Score: inf
ROOT
ATOM      1  C   UNL     1      17.213  17.424  19.165  1.00  0.00     0.000 C 
ENDROOT
BRANCH   1   2
ATOM      2  C   UNL     1      18.178  16.968  20.272  1.00  0.00     0.000 C 
BRANCH   2   3
ATOM      3  C   UNL     1      19.121  18.090  20.730  1.00  0.00     0.000 C 
BRANCH   3   4
ATOM      4  C   UNL     1      20.447  18.037  19.960  1.00  0.00     0.000 C 
BRANCH   4   5
ATOM      5  C   UNL     1      21.641  18.262  20.901  1.00  0.00     0.000 C 
BRANCH   5   6
ATOM      6  C   UNL     1      22.977  17.831  20.274  1.00  0.00     0.000 C 
BRANCH   6   7
ATOM      7  C   UNL     1      24.074  17.583  21.320  1.00  0.00     0.000 C 
BRANCH   7   8
ATOM      8  C   UNL     1      24.791  18.892  21.684  1.00  0.00     0.000 C 
BRANCH   8   9
ATOM      9  C   UNL     1      24.781  19.180  23.197  1.00  0.00     0.000 C 
BRANCH   9  10
ATOM     10  C   UNL     1      24.252  20.575  23.592  1.00  0.00     0.006 C 
BRANCH  10  11
ATOM     11  C   UNL     1      23.348  20.586  24.835  1.00  0.00     0.053 C 
BRANCH  11  12
ATOM     12  C   UNL     1      21.911  20.823  24.481  1.00  0.00     0.041 C 
ATOM     13  O   UNL     1      21.111  19.853  24.390  1.00  0.00    -0.550 OA
ATOM     14  O   UNL     1      21.464  22.112  24.218  1.00  0.00    -0.550 OA
ENDBRANCH  11  12
ENDBRANCH  10  11
ENDBRANCH   9  10
ENDBRANCH   8   9
ENDBRANCH   7   8
ENDBRANCH   6   7
ENDBRANCH   5   6
ENDBRANCH   4   5
ENDBRANCH   3   4
ENDBRANCH   2   3
ENDBRANCH   1   2
BRANCH   1  15
ATOM     15  C   UNL     1      15.801  16.835  19.342  1.00  0.00     0.000 C 
BRANCH  15  16
ATOM     16  C   UNL     1      15.791  15.585  20.242  1.00  0.00     0.000 C 
BRANCH  16  17
ATOM     17  C   UNL     1      14.618  14.620  19.957  1.00  0.00     0.000 C 
BRANCH  17  18
ATOM     18  C   UNL     1      14.703  13.288  20.729  1.00  0.00    -0.000 C 
BRANCH  18  19
ATOM     19  C   UNL     1      14.636  12.024  19.852  1.00  0.00    -0.000 C 
BRANCH  19  20
ATOM     20  C   UNL     1      15.800  11.031  20.046  1.00  0.00    -0.000 C 
BRANCH  20  21
ATOM     21  C   UNL     1      15.470   9.585  19.614  1.00  0.00    -0.000 C 
BRANCH  21  22
ATOM     22  C   UNL     1      16.725   8.700  19.535  1.00  0.00    -0.000 C 
BRANCH  22  23
ATOM     23  C   UNL     1      17.939   9.407  20.153  1.00  0.00    -0.000 C 
BRANCH  23  24
ATOM     24  C   UNL     1      19.218   9.213  19.321  1.00  0.00    -0.000 C 
BRANCH  24  25
ATOM     25  C   UNL     1      20.243  10.336  19.542  1.00  0.00    -0.003 C 
ATOM     26  C   UNL     1      20.092  10.950  20.932  1.00  0.00     0.004 C 
ENDBRANCH  24  25
ENDBRANCH  23  24
ENDBRANCH  22  23
ENDBRANCH  21  22
ENDBRANCH  20  21
ENDBRANCH  19  20
ENDBRANCH  18  19
ENDBRANCH  17  18
ENDBRANCH  16  17
ENDBRANCH  15  16
ENDBRANCH   1  15
TORSDOF 22
ENDMDL
MODEL 5
REMARK VINA RESULT:    19.679      2.831      9.301
REMARK INTER + INTRA:          44.047
REMARK INTER:                  45.465
REMARK INTRA:                  -1.418
REMARK UNBOUND:                -0.941
REMARK SMILES CCCCCCCCCCCCCCCCCCCCCCCC(=O)[O-]
REMARK SMILES IDX 13 1 14 2 15 3 16 4 17 5 18 6 19 7 20 8 21 9 22 10 23 11
REMARK SMILES IDX 24 12 25 13 26 14 12 15 11 16 10 17 9 18 8 19 7 20 6 21 5 22
REMARK SMILES IDX 4 23 3 24 2 25 1 26
REMARK H PARENT
REMARK Flexibility Score: inf
ROOT
ATOM      1  C   UNL     1      15.965  15.568  20.246  1.00  0.00     0.000 C 
ENDROOT
BRANCH   1   2
ATOM      2  C   UNL     1      15.727  16.693  19.225  1.00  0.00     0.000 C 
BRANCH   2   3
ATOM      3  C   UNL     1      16.950  17.605  19.057  1.00  0.00     0.000 C 
BRANCH   3   4
ATOM      4  C   UNL     1      18.114  17.125  19.933  1.00  0.00     0.000 C 
BRANCH   4   5
ATOM      5  C   UNL     1      18.501  18.190  20.971  1.00  0.00     0.000 C 
BRANCH   5   6
ATOM      6  C   UNL     1      20.017  18.443  21.021  1.00  0.00     0.000 C 
BRANCH   6   7
ATOM      7  C   UNL     1      20.776  17.741  19.884  1.00  0.00     0.000 C 
BRANCH   7   8
ATOM      8  C   UNL     1      22.243  18.194  19.842  1.00  0.00     0.000 C 
BRANCH   8   9
ATOM      9  C   UNL     1      23.055  17.711  21.058  1.00  0.00     0.000 C 
BRANCH   9  10
ATOM     10  C   UNL     1      24.525  18.178  21.088  1.00  0.00     0.006 C 
BRANCH  10  11
ATOM     11  C   UNL     1      24.982  18.759  22.436  1.00  0.00     0.053 C 
BRANCH  11  12
ATOM     12  C   UNL     1      25.392  17.686  23.399  1.00  0.00     0.041 C 
ATOM     13  O   UNL     1      25.693  16.536  22.979  1.00  0.00    -0.550 OA
ATOM     14  O   UNL     1      25.406  17.946  24.764  1.00  0.00    -0.550 OA
ENDBRANCH  11  12
ENDBRANCH  10  11
ENDBRANCH   9  10
ENDBRANCH   8   9
ENDBRANCH   7   8
ENDBRANCH   6   7
ENDBRANCH   5   6
ENDBRANCH   4   5
ENDBRANCH   3   4
ENDBRANCH   2   3
ENDBRANCH   1   2
BRANCH   1  15
ATOM     15  C   UNL     1      14.658  14.865  20.656  1.00  0.00     0.000 C 
BRANCH  15  16
ATOM     16  C   UNL     1      14.800  13.332  20.699  1.00  0.00     0.000 C 
BRANCH  16  17
ATOM     17  C   UNL     1      14.030  12.602  19.575  1.00  0.00     0.000 C 
BRANCH  17  18
ATOM     18  C   UNL     1      14.564  11.188  19.269  1.00  0.00    -0.000 C 
BRANCH  18  19
ATOM     19  C   UNL     1      15.567  10.637  20.299  1.00  0.00    -0.000 C 
BRANCH  19  20
ATOM     20  C   UNL     1      16.134   9.239  19.975  1.00  0.00    -0.000 C 
BRANCH  20  21
ATOM     21  C   UNL     1      17.228   9.243  18.884  1.00  0.00    -0.000 C 
BRANCH  21  22
ATOM     22  C   UNL     1      18.532   8.586  19.364  1.00  0.00    -0.000 C 
BRANCH  22  23
ATOM     23  C   UNL     1      19.671   9.612  19.443  1.00  0.00    -0.000 C 
BRANCH  23  24
ATOM     24  C   UNL     1      19.705  10.349  20.793  1.00  0.00    -0.000 C 
BRANCH  24  25
ATOM     25  C   UNL     1      20.236  11.785  20.669  1.00  0.00    -0.003 C 
ATOM     26  C   UNL     1      20.970  11.986  19.345  1.00  0.00     0.004 C 
ENDBRANCH  24  25
ENDBRANCH  23  24
ENDBRANCH  22  23
ENDBRANCH  21  22
ENDBRANCH  20  21
ENDBRANCH  19  20
ENDBRANCH  18  19
ENDBRANCH  17  18
ENDBRANCH  16  17
ENDBRANCH  15  16
ENDBRANCH   1  15
TORSDOF 22
ENDMDL
MODEL 6
REMARK VINA RESULT:    20.390      0.935      2.290
REMARK INTER + INTRA:          45.672
REMARK INTER:                  46.955
REMARK INTRA:                  -1.283
REMARK UNBOUND:                -0.941
REMARK SMILES CCCCCCCCCCCCCCCCCCCCCCCC(=O)[O-]
REMARK SMILES IDX 13 1 14 2 15 3 16 4 17 5 18 6 19 7 20 8 21 9 22 10 23 11
REMARK SMILES IDX 24 12 25 13 26 14 12 15 11 16 10 17 9 18 8 19 7 20 6 21 5 22
REMARK SMILES IDX 4 23 3 24 2 25 1 26
REMARK H PARENT
REMARK Flexibility Score: inf
ROOT
ATOM      1  C   UNL     1      16.050  15.343  20.112  1.00  0.00     0.000 C 
ENDROOT
BRANCH   1   2
ATOM      2  C   UNL     1      14.800  14.851  20.861  1.00  0.00     0.000 C 
BRANCH   2   3
ATOM      3  C   UNL     1      14.668  13.322  20.844  1.00  0.00     0.000 C 
BRANCH   3   4
ATOM      4  C   UNL     1      13.944  12.850  19.577  1.00  0.00     0.000 C 
BRANCH   4   5
ATOM      5  C   UNL     1      14.315  11.398  19.236  1.00  0.00     0.000 C 
BRANCH   5   6
ATOM      6  C   UNL     1      15.614  10.944  19.920  1.00  0.00     0.000 C 
BRANCH   6   7
ATOM      7  C   UNL     1      15.772   9.416  19.946  1.00  0.00     0.000 C 
BRANCH   7   8
ATOM      8  C   UNL     1      17.244   9.018  20.120  1.00  0.00     0.000 C 
BRANCH   8   9
ATOM      9  C   UNL     1      18.138   9.505  18.965  1.00  0.00     0.000 C 
BRANCH   9  10
ATOM     10  C   UNL     1      19.623   9.101  19.074  1.00  0.00     0.006 C 
BRANCH  10  11
ATOM     11  C   UNL     1      20.584  10.269  19.349  1.00  0.00     0.053 C 
BRANCH  11  12
ATOM     12  C   UNL     1      20.176  11.057  20.557  1.00  0.00     0.041 C 
ATOM     13  O   UNL     1      20.099  12.314  20.499  1.00  0.00    -0.550 OA
ATOM     14  O   UNL     1      19.918  10.405  21.756  1.00  0.00    -0.550 OA
ENDBRANCH  11  12
ENDBRANCH  10  11
ENDBRANCH   9  10
ENDBRANCH   8   9
ENDBRANCH   7   8
ENDBRANCH   6   7
ENDBRANCH   5   6
ENDBRANCH   4   5
ENDBRANCH   3   4
ENDBRANCH   2   3
ENDBRANCH   1   2
BRANCH   1  15
ATOM     15  C   UNL     1      15.744  16.536  19.187  1.00  0.00     0.000 C 
BRANCH  15  16
ATOM     16  C   UNL     1      16.942  17.493  19.041  1.00  0.00     0.000 C 
BRANCH  16  17
ATOM     17  C   UNL     1      18.093  17.208  20.034  1.00  0.00     0.000 C 
BRANCH  17  18
ATOM     18  C   UNL     1      18.458  18.410  20.928  1.00  0.00    -0.000 C 
BRANCH  18  19
ATOM     19  C   UNL     1      19.877  18.369  21.523  1.00  0.00    -0.000 C 
BRANCH  19  20
ATOM     20  C   UNL     1      20.291  19.627  22.314  1.00  0.00    -0.000 C 
BRANCH  20  21
ATOM     21  C   UNL     1      21.078  19.323  23.609  1.00  0.00    -0.000 C 
BRANCH  21  22
ATOM     22  C   UNL     1      21.298  20.580  24.465  1.00  0.00    -0.000 C 
BRANCH  22  23
ATOM     23  C   UNL     1      22.714  21.139  24.272  1.00  0.00    -0.000 C 
BRANCH  23  24
ATOM     24  C   UNL     1      23.799  20.063  24.451  1.00  0.00    -0.000 C 
BRANCH  24  25
ATOM     25  C   UNL     1      24.620  19.834  23.173  1.00  0.00    -0.003 C 
ATOM     26  C   UNL     1      25.241  18.439  23.162  1.00  0.00     0.004 C 
ENDBRANCH  24  25
ENDBRANCH  23  24
ENDBRANCH  22  23
ENDBRANCH  21  22
ENDBRANCH  20  21
ENDBRANCH  19  20
ENDBRANCH  18  19
ENDBRANCH  17  18
ENDBRANCH  16  17
ENDBRANCH  15  16
ENDBRANCH   1  15
TORSDOF 22
ENDMDL
