MODEL 1
REMARK VINA RESULT:    -4.551      0.000      0.000
REMARK INTER + INTRA:          -9.903
REMARK INTER:                  -8.275
REMARK INTRA:                  -1.628
REMARK UNBOUND:                -1.628
REMARK SMILES CCCCCCCCCCCCCCCC(=O)[O-]
REMARK SMILES IDX 9 1 10 2 11 3 12 4 13 5 14 6 15 7 16 8 17 9 18 10 8 11 7 12
REMARK SMILES IDX 6 13 5 14 4 15 3 16 2 17 1 18
REMARK H PARENT
REMARK Flexibility Score: inf
ROOT
ATOM      1  C   UNL     1      -8.612  63.663 -10.428  1.00  0.00     0.000 C 
ENDROOT
BRANCH   1   2
ATOM      2  C   UNL     1      -8.237  64.216  -9.043  1.00  0.00     0.000 C 
BRANCH   2   3
ATOM      3  C   UNL     1      -7.764  63.115  -8.076  1.00  0.00     0.000 C 
BRANCH   3   4
ATOM      4  C   UNL     1      -6.916  63.671  -6.922  1.00  0.00     0.000 C 
BRANCH   4   5
ATOM      5  C   UNL     1      -5.579  62.925  -6.756  1.00  0.00     0.000 C 
BRANCH   5   6
ATOM      6  C   UNL     1      -5.149  62.194  -8.038  1.00  0.00     0.006 C 
BRANCH   6   7
ATOM      7  C   UNL     1      -5.044  60.676  -7.844  1.00  0.00     0.053 C 
BRANCH   7   8
ATOM      8  C   UNL     1      -4.744  60.003  -9.145  1.00  0.00     0.041 C 
ATOM      9  O   UNL     1      -5.658  59.827  -9.994  1.00  0.00    -0.550 OA
ATOM     10  O   UNL     1      -3.464  59.527  -9.403  1.00  0.00    -0.550 OA
ENDBRANCH   7   8
ENDBRANCH   6   7
ENDBRANCH   5   6
ENDBRANCH   4   5
ENDBRANCH   3   4
ENDBRANCH   2   3
ENDBRANCH   1   2
BRANCH   1  11
ATOM     11  C   UNL     1      -7.588  62.643 -10.955  1.00  0.00     0.000 C 
BRANCH  11  12
ATOM     12  C   UNL     1      -7.049  63.012 -12.347  1.00  0.00    -0.000 C 
BRANCH  12  13
ATOM     13  C   UNL     1      -6.725  64.508 -12.479  1.00  0.00    -0.000 C 
BRANCH  13  14
ATOM     14  C   UNL     1      -7.426  65.113 -13.705  1.00  0.00    -0.000 C 
BRANCH  14  15
ATOM     15  C   UNL     1      -8.118  66.453 -13.398  1.00  0.00    -0.000 C 
BRANCH  15  16
ATOM     16  C   UNL     1      -7.942  66.964 -11.953  1.00  0.00    -0.000 C 
BRANCH  16  17
ATOM     17  C   UNL     1      -9.254  67.249 -11.200  1.00  0.00    -0.003 C 
ATOM     18  C   UNL     1      -9.029  67.656  -9.744  1.00  0.00     0.004 C 
ENDBRANCH  16  17
ENDBRANCH  15  16
ENDBRANCH  14  15
ENDBRANCH  13  14
ENDBRANCH  12  13
ENDBRANCH  11  12
ENDBRANCH   1  11
TORSDOF 14
ENDMDL
MODEL 2
REMARK VINA RESULT:    -4.224      0.901      2.694
REMARK INTER + INTRA:          -9.310
REMARK INTER:                  -7.977
REMARK INTRA:                  -1.333
REMARK UNBOUND:                -1.628
REMARK SMILES CCCCCCCCCCCCCCCC(=O)[O-]
REMARK SMILES IDX 9 1 10 2 11 3 12 4 13 5 14 6 15 7 16 8 17 9 18 10 8 11 7 12
REMARK SMILES IDX 6 13 5 14 4 15 3 16 2 17 1 18
REMARK H PARENT
REMARK Flexibility Score: inf
ROOT
ATOM      1  C   UNL     1      -8.053  63.969  -9.339  1.00  0.00     0.000 C 
ENDROOT
BRANCH   1   2
ATOM      2  C   UNL     1      -8.229  64.291  -7.846  1.00  0.00     0.000 C 
BRANCH   2   3
ATOM      3  C   UNL     1      -7.530  63.266  -6.934  1.00  0.00     0.000 C 
BRANCH   3   4
ATOM      4  C   UNL     1      -6.180  63.775  -6.404  1.00  0.00     0.000 C 
BRANCH   4   5
ATOM      5  C   UNL     1      -5.029  62.787  -6.670  1.00  0.00     0.000 C 
BRANCH   5   6
ATOM      6  C   UNL     1      -5.176  62.059  -8.016  1.00  0.00     0.006 C 
BRANCH   6   7
ATOM      7  C   UNL     1      -3.861  61.427  -8.491  1.00  0.00     0.053 C 
BRANCH   7   8
ATOM      8  C   UNL     1      -4.112  60.068  -9.062  1.00  0.00     0.041 C 
ATOM      9  O   UNL     1      -3.152  59.277  -9.260  1.00  0.00    -0.550 OA
ATOM     10  O   UNL     1      -5.400  59.691  -9.421  1.00  0.00    -0.550 OA
ENDBRANCH   7   8
ENDBRANCH   6   7
ENDBRANCH   5   6
ENDBRANCH   4   5
ENDBRANCH   3   4
ENDBRANCH   2   3
ENDBRANCH   1   2
BRANCH   1  11
ATOM     11  C   UNL     1      -9.004  64.782 -10.235  1.00  0.00     0.000 C 
BRANCH  11  12
ATOM     12  C   UNL     1      -9.117  66.251  -9.795  1.00  0.00    -0.000 C 
BRANCH  12  13
ATOM     13  C   UNL     1      -9.032  67.232 -10.974  1.00  0.00    -0.000 C 
BRANCH  13  14
ATOM     14  C   UNL     1      -9.117  66.485 -12.314  1.00  0.00    -0.000 C 
BRANCH  14  15
ATOM     15  C   UNL     1      -7.816  66.573 -13.131  1.00  0.00    -0.000 C 
BRANCH  15  16
ATOM     16  C   UNL     1      -7.382  65.260 -13.814  1.00  0.00    -0.000 C 
BRANCH  16  17
ATOM     17  C   UNL     1      -6.474  64.354 -12.964  1.00  0.00    -0.003 C 
ATOM     18  C   UNL     1      -7.045  62.949 -12.772  1.00  0.00     0.004 C 
ENDBRANCH  16  17
ENDBRANCH  15  16
ENDBRANCH  14  15
ENDBRANCH  13  14
ENDBRANCH  12  13
ENDBRANCH  11  12
ENDBRANCH   1  11
TORSDOF 14
ENDMDL
MODEL 3
REMARK VINA RESULT:    -4.113      2.175      6.524
REMARK INTER + INTRA:          -9.107
REMARK INTER:                  -7.605
REMARK INTRA:                  -1.502
REMARK UNBOUND:                -1.628
REMARK SMILES CCCCCCCCCCCCCCCC(=O)[O-]
REMARK SMILES IDX 9 1 10 2 11 3 12 4 13 5 14 6 15 7 16 8 17 9 18 10 8 11 7 12
REMARK SMILES IDX 6 13 5 14 4 15 3 16 2 17 1 18
REMARK H PARENT
REMARK Flexibility Score: inf
ROOT
ATOM      1  C   UNL     1      -8.291  63.323 -10.050  1.00  0.00     0.000 C 
ENDROOT
BRANCH   1   2
ATOM      2  C   UNL     1      -8.632  64.792  -9.751  1.00  0.00     0.000 C 
BRANCH   2   3
ATOM      3  C   UNL     1      -9.244  65.516 -10.964  1.00  0.00     0.000 C 
BRANCH   3   4
ATOM      4  C   UNL     1      -9.010  67.034 -10.923  1.00  0.00     0.000 C 
BRANCH   4   5
ATOM      5  C   UNL     1      -8.185  67.539 -12.121  1.00  0.00     0.000 C 
BRANCH   5   6
ATOM      6  C   UNL     1      -8.183  66.547 -13.295  1.00  0.00     0.006 C 
BRANCH   6   7
ATOM      7  C   UNL     1      -6.767  66.116 -13.699  1.00  0.00     0.053 C 
BRANCH   7   8
ATOM      8  C   UNL     1      -6.288  65.008 -12.816  1.00  0.00     0.041 C 
ATOM      9  O   UNL     1      -5.579  65.263 -11.807  1.00  0.00    -0.550 OA
ATOM     10  O   UNL     1      -6.583  63.688 -13.134  1.00  0.00    -0.550 OA
ENDBRANCH   7   8
ENDBRANCH   6   7
ENDBRANCH   5   6
ENDBRANCH   4   5
ENDBRANCH   3   4
ENDBRANCH   2   3
ENDBRANCH   1   2
BRANCH   1  11
ATOM     11  C   UNL     1      -7.496  62.657  -8.912  1.00  0.00     0.000 C 
BRANCH  11  12
ATOM     12  C   UNL     1      -7.244  63.610  -7.733  1.00  0.00    -0.000 C 
BRANCH  12  13
ATOM     13  C   UNL     1      -6.609  62.904  -6.525  1.00  0.00    -0.000 C 
BRANCH  13  14
ATOM     14  C   UNL     1      -5.257  63.539  -6.169  1.00  0.00    -0.000 C 
BRANCH  14  15
ATOM     15  C   UNL     1      -4.059  62.739  -6.712  1.00  0.00    -0.000 C 
BRANCH  15  16
ATOM     16  C   UNL     1      -4.351  61.258  -7.028  1.00  0.00    -0.000 C 
BRANCH  16  17
ATOM     17  C   UNL     1      -4.209  60.870  -8.511  1.00  0.00    -0.003 C 
ATOM     18  C   UNL     1      -5.220  59.810  -8.948  1.00  0.00     0.004 C 
ENDBRANCH  16  17
ENDBRANCH  15  16
ENDBRANCH  14  15
ENDBRANCH  13  14
ENDBRANCH  12  13
ENDBRANCH  11  12
ENDBRANCH   1  11
TORSDOF 14
ENDMDL
MODEL 4
REMARK VINA RESULT:    -4.052      2.863      3.266
REMARK INTER + INTRA:          -8.997
REMARK INTER:                  -7.671
REMARK INTRA:                  -1.325
REMARK UNBOUND:                -1.628
REMARK SMILES CCCCCCCCCCCCCCCC(=O)[O-]
REMARK SMILES IDX 9 1 10 2 11 3 12 4 13 5 14 6 15 7 16 8 17 9 18 10 8 11 7 12
REMARK SMILES IDX 6 13 5 14 4 15 3 16 2 17 1 18
REMARK H PARENT
REMARK Flexibility Score: inf
ROOT
ATOM      1  C   UNL     1      -8.254  62.951  -9.623  1.00  0.00     0.000 C 
ENDROOT
BRANCH   1   2
ATOM      2  C   UNL     1      -7.210  63.628  -8.720  1.00  0.00     0.000 C 
BRANCH   2   3
ATOM      3  C   UNL     1      -7.719  63.838  -7.282  1.00  0.00     0.000 C 
BRANCH   3   4
ATOM      4  C   UNL     1      -6.817  63.167  -6.234  1.00  0.00     0.000 C 
BRANCH   4   5
ATOM      5  C   UNL     1      -5.519  62.604  -6.843  1.00  0.00     0.000 C 
BRANCH   5   6
ATOM      6  C   UNL     1      -4.319  63.545  -6.646  1.00  0.00     0.006 C 
BRANCH   6   7
ATOM      7  C   UNL     1      -3.435  63.130  -5.463  1.00  0.00     0.053 C 
BRANCH   7   8
ATOM      8  C   UNL     1      -3.343  64.241  -4.466  1.00  0.00     0.041 C 
ATOM      9  O   UNL     1      -4.047  65.276  -4.603  1.00  0.00    -0.550 OA
ATOM     10  O   UNL     1      -2.446  64.154  -3.408  1.00  0.00    -0.550 OA
ENDBRANCH   7   8
ENDBRANCH   6   7
ENDBRANCH   5   6
ENDBRANCH   4   5
ENDBRANCH   3   4
ENDBRANCH   2   3
ENDBRANCH   1   2
BRANCH   1  11
ATOM     11  C   UNL     1      -7.782  62.829 -11.083  1.00  0.00     0.000 C 
BRANCH  11  12
ATOM     12  C   UNL     1      -7.003  64.067 -11.556  1.00  0.00    -0.000 C 
BRANCH  12  13
ATOM     13  C   UNL     1      -7.050  64.250 -13.081  1.00  0.00    -0.000 C 
BRANCH  13  14
ATOM     14  C   UNL     1      -7.614  65.630 -13.448  1.00  0.00    -0.000 C 
BRANCH  14  15
ATOM     15  C   UNL     1      -8.610  66.167 -12.405  1.00  0.00    -0.000 C 
BRANCH  15  16
ATOM     16  C   UNL     1      -8.279  67.565 -11.842  1.00  0.00    -0.000 C 
BRANCH  16  17
ATOM     17  C   UNL     1      -8.819  67.839 -10.427  1.00  0.00    -0.003 C 
ATOM     18  C   UNL     1      -9.337  66.580  -9.733  1.00  0.00     0.004 C 
ENDBRANCH  16  17
ENDBRANCH  15  16
ENDBRANCH  14  15
ENDBRANCH  13  14
ENDBRANCH  12  13
ENDBRANCH  11  12
ENDBRANCH   1  11
TORSDOF 14
ENDMDL
MODEL 5
REMARK VINA RESULT:    -4.030      2.501      3.827
REMARK INTER + INTRA:          -8.955
REMARK INTER:                  -7.327
REMARK INTRA:                  -1.628
REMARK UNBOUND:                -1.628
REMARK SMILES CCCCCCCCCCCCCCCC(=O)[O-]
REMARK SMILES IDX 9 1 10 2 11 3 12 4 13 5 14 6 15 7 16 8 17 9 18 10 8 11 7 12
REMARK SMILES IDX 6 13 5 14 4 15 3 16 2 17 1 18
REMARK H PARENT
REMARK Flexibility Score: inf
ROOT
ATOM      1  C   UNL     1      -7.261  62.548 -10.406  1.00  0.00     0.000 C 
ENDROOT
BRANCH   1   2
ATOM      2  C   UNL     1      -7.102  61.460  -9.331  1.00  0.00     0.000 C 
BRANCH   2   3
ATOM      3  C   UNL     1      -5.632  61.069  -9.099  1.00  0.00     0.000 C 
BRANCH   3   4
ATOM      4  C   UNL     1      -5.192  61.270  -7.641  1.00  0.00     0.000 C 
BRANCH   4   5
ATOM      5  C   UNL     1      -6.206  62.093  -6.824  1.00  0.00     0.000 C 
BRANCH   5   6
ATOM      6  C   UNL     1      -5.720  63.526  -6.553  1.00  0.00     0.006 C 
BRANCH   6   7
ATOM      7  C   UNL     1      -4.202  63.675  -6.722  1.00  0.00     0.053 C 
BRANCH   7   8
ATOM      8  C   UNL     1      -3.551  63.913  -5.397  1.00  0.00     0.041 C 
ATOM      9  O   UNL     1      -2.906  62.990  -4.832  1.00  0.00    -0.550 OA
ATOM     10  O   UNL     1      -3.695  65.141  -4.762  1.00  0.00    -0.550 OA
ENDBRANCH   7   8
ENDBRANCH   6   7
ENDBRANCH   5   6
ENDBRANCH   4   5
ENDBRANCH   3   4
ENDBRANCH   2   3
ENDBRANCH   1   2
BRANCH   1  11
ATOM     11  C   UNL     1      -7.564  63.932  -9.806  1.00  0.00     0.000 C 
BRANCH  11  12
ATOM     12  C   UNL     1      -8.821  64.577 -10.414  1.00  0.00    -0.000 C 
BRANCH  12  13
ATOM     13  C   UNL     1      -9.052  66.011  -9.914  1.00  0.00    -0.000 C 
BRANCH  13  14
ATOM     14  C   UNL     1      -9.119  66.996 -11.091  1.00  0.00    -0.000 C 
BRANCH  14  15
ATOM     15  C   UNL     1      -9.006  66.301 -12.459  1.00  0.00    -0.000 C 
BRANCH  15  16
ATOM     16  C   UNL     1      -7.790  66.724 -13.310  1.00  0.00    -0.000 C 
BRANCH  16  17
ATOM     17  C   UNL     1      -6.682  65.663 -13.431  1.00  0.00    -0.003 C 
ATOM     18  C   UNL     1      -7.225  64.266 -13.732  1.00  0.00     0.004 C 
ENDBRANCH  16  17
ENDBRANCH  15  16
ENDBRANCH  14  15
ENDBRANCH  13  14
ENDBRANCH  12  13
ENDBRANCH  11  12
ENDBRANCH   1  11
TORSDOF 14
ENDMDL
MODEL 6
REMARK VINA RESULT:    -4.025      1.459      2.291
REMARK INTER + INTRA:          -8.948
REMARK INTER:                  -7.461
REMARK INTRA:                  -1.486
REMARK UNBOUND:                -1.628
REMARK SMILES CCCCCCCCCCCCCCCC(=O)[O-]
REMARK SMILES IDX 9 1 10 2 11 3 12 4 13 5 14 6 15 7 16 8 17 9 18 10 8 11 7 12
REMARK SMILES IDX 6 13 5 14 4 15 3 16 2 17 1 18
REMARK H PARENT
REMARK Flexibility Score: inf
ROOT
ATOM      1  C   UNL     1      -7.636  63.512 -11.864  1.00  0.00     0.000 C 
ENDROOT
BRANCH   1   2
ATOM      2  C   UNL     1      -7.216  62.409 -10.879  1.00  0.00     0.000 C 
BRANCH   2   3
ATOM      3  C   UNL     1      -7.978  62.488  -9.543  1.00  0.00     0.000 C 
BRANCH   3   4
ATOM      4  C   UNL     1      -7.861  63.869  -8.880  1.00  0.00     0.000 C 
BRANCH   4   5
ATOM      5  C   UNL     1      -7.850  63.789  -7.343  1.00  0.00     0.000 C 
BRANCH   5   6
ATOM      6  C   UNL     1      -6.667  62.969  -6.803  1.00  0.00     0.006 C 
BRANCH   6   7
ATOM      7  C   UNL     1      -5.331  63.371  -7.442  1.00  0.00     0.053 C 
BRANCH   7   8
ATOM      8  C   UNL     1      -4.463  62.169  -7.634  1.00  0.00     0.041 C 
ATOM      9  O   UNL     1      -3.336  62.283  -8.186  1.00  0.00    -0.550 OA
ATOM     10  O   UNL     1      -4.916  60.914  -7.248  1.00  0.00    -0.550 OA
ENDBRANCH   7   8
ENDBRANCH   6   7
ENDBRANCH   5   6
ENDBRANCH   4   5
ENDBRANCH   3   4
ENDBRANCH   2   3
ENDBRANCH   1   2
BRANCH   1  11
ATOM     11  C   UNL     1      -6.470  63.988 -12.750  1.00  0.00     0.000 C 
BRANCH  11  12
ATOM     12  C   UNL     1      -6.950  64.745 -13.999  1.00  0.00    -0.000 C 
BRANCH  12  13
ATOM     13  C   UNL     1      -7.986  65.832 -13.672  1.00  0.00    -0.000 C 
BRANCH  13  14
ATOM     14  C   UNL     1      -7.306  67.197 -13.489  1.00  0.00    -0.000 C 
BRANCH  14  15
ATOM     15  C   UNL     1      -7.725  67.903 -12.187  1.00  0.00    -0.000 C 
BRANCH  15  16
ATOM     16  C   UNL     1      -7.964  66.969 -10.983  1.00  0.00    -0.000 C 
BRANCH  16  17
ATOM     17  C   UNL     1      -9.375  67.044 -10.373  1.00  0.00    -0.003 C 
ATOM     18  C   UNL     1      -9.360  67.128  -8.847  1.00  0.00     0.004 C 
ENDBRANCH  16  17
ENDBRANCH  15  16
ENDBRANCH  14  15
ENDBRANCH  13  14
ENDBRANCH  12  13
ENDBRANCH  11  12
ENDBRANCH   1  11
TORSDOF 14
ENDMDL
MODEL 7
REMARK VINA RESULT:    -3.882     10.422     14.686
REMARK INTER + INTRA:          -8.687
REMARK INTER:                  -6.854
REMARK INTRA:                  -1.833
REMARK UNBOUND:                -1.628
REMARK SMILES CCCCCCCCCCCCCCCC(=O)[O-]
REMARK SMILES IDX 9 1 10 2 11 3 12 4 13 5 14 6 15 7 16 8 17 9 18 10 8 11 7 12
REMARK SMILES IDX 6 13 5 14 4 15 3 16 2 17 1 18
REMARK H PARENT
REMARK Flexibility Score: inf
ROOT
ATOM      1  C   UNL     1       3.290  50.620  -8.756  1.00  0.00     0.000 C 
ENDROOT
BRANCH   1   2
ATOM      2  C   UNL     1       3.691  50.041 -10.123  1.00  0.00     0.000 C 
BRANCH   2   3
ATOM      3  C   UNL     1       2.483  49.831 -11.054  1.00  0.00     0.000 C 
BRANCH   3   4
ATOM      4  C   UNL     1       2.716  50.409 -12.459  1.00  0.00     0.000 C 
BRANCH   4   5
ATOM      5  C   UNL     1       3.921  51.365 -12.515  1.00  0.00     0.000 C 
BRANCH   5   6
ATOM      6  C   UNL     1       3.958  52.191 -13.810  1.00  0.00     0.006 C 
BRANCH   6   7
ATOM      7  C   UNL     1       2.566  52.387 -14.425  1.00  0.00     0.053 C 
BRANCH   7   8
ATOM      8  C   UNL     1       2.285  53.841 -14.627  1.00  0.00     0.041 C 
ATOM      9  O   UNL     1       1.118  54.230 -14.899  1.00  0.00    -0.550 OA
ATOM     10  O   UNL     1       3.320  54.766 -14.563  1.00  0.00    -0.550 OA
ENDBRANCH   7   8
ENDBRANCH   6   7
ENDBRANCH   5   6
ENDBRANCH   4   5
ENDBRANCH   3   4
ENDBRANCH   2   3
ENDBRANCH   1   2
BRANCH   1  11
ATOM     11  C   UNL     1       3.574  52.129  -8.648  1.00  0.00     0.000 C 
BRANCH  11  12
ATOM     12  C   UNL     1       2.351  52.987  -9.011  1.00  0.00    -0.000 C 
BRANCH  12  13
ATOM     13  C   UNL     1       2.501  53.686 -10.371  1.00  0.00    -0.000 C 
BRANCH  13  14
ATOM     14  C   UNL     1       1.173  53.671 -11.143  1.00  0.00    -0.000 C 
BRANCH  14  15
ATOM     15  C   UNL     1      -0.016  54.161 -10.296  1.00  0.00    -0.000 C 
BRANCH  15  16
ATOM     16  C   UNL     1      -0.181  55.693 -10.224  1.00  0.00    -0.000 C 
BRANCH  16  17
ATOM     17  C   UNL     1      -1.130  56.192  -9.120  1.00  0.00    -0.003 C 
ATOM     18  C   UNL     1      -2.017  55.085  -8.552  1.00  0.00     0.004 C 
ENDBRANCH  16  17
ENDBRANCH  15  16
ENDBRANCH  14  15
ENDBRANCH  13  14
ENDBRANCH  12  13
ENDBRANCH  11  12
ENDBRANCH   1  11
TORSDOF 14
ENDMDL
MODEL 8
REMARK VINA RESULT:    -3.872      3.060      6.827
REMARK INTER + INTRA:          -8.670
REMARK INTER:                  -7.334
REMARK INTRA:                  -1.336
REMARK UNBOUND:                -1.628
REMARK SMILES CCCCCCCCCCCCCCCC(=O)[O-]
REMARK SMILES IDX 9 1 10 2 11 3 12 4 13 5 14 6 15 7 16 8 17 9 18 10 8 11 7 12
REMARK SMILES IDX 6 13 5 14 4 15 3 16 2 17 1 18
REMARK H PARENT
REMARK Flexibility Score: inf
ROOT
ATOM      1  C   UNL     1      -7.809  62.858  -9.968  1.00  0.00     0.000 C 
ENDROOT
BRANCH   1   2
ATOM      2  C   UNL     1      -6.926  63.838 -10.757  1.00  0.00     0.000 C 
BRANCH   2   3
ATOM      3  C   UNL     1      -6.880  63.514 -12.261  1.00  0.00     0.000 C 
BRANCH   3   4
ATOM      4  C   UNL     1      -6.492  64.732 -13.114  1.00  0.00     0.000 C 
BRANCH   4   5
ATOM      5  C   UNL     1      -7.715  65.444 -13.720  1.00  0.00     0.000 C 
BRANCH   5   6
ATOM      6  C   UNL     1      -8.061  66.749 -12.985  1.00  0.00     0.006 C 
BRANCH   6   7
ATOM      7  C   UNL     1      -9.268  66.598 -12.051  1.00  0.00     0.053 C 
BRANCH   7   8
ATOM      8  C   UNL     1      -8.915  67.036 -10.666  1.00  0.00     0.041 C 
ATOM      9  O   UNL     1      -8.307  68.124 -10.480  1.00  0.00    -0.550 OA
ATOM     10  O   UNL     1      -9.214  66.221  -9.581  1.00  0.00    -0.550 OA
ENDBRANCH   7   8
ENDBRANCH   6   7
ENDBRANCH   5   6
ENDBRANCH   4   5
ENDBRANCH   3   4
ENDBRANCH   2   3
ENDBRANCH   1   2
BRANCH   1  11
ATOM     11  C   UNL     1      -6.997  61.974  -9.004  1.00  0.00     0.000 C 
BRANCH  11  12
ATOM     12  C   UNL     1      -6.374  60.756  -9.704  1.00  0.00    -0.000 C 
BRANCH  12  13
ATOM     13  C   UNL     1      -5.132  60.223  -8.973  1.00  0.00    -0.000 C 
BRANCH  13  14
ATOM     14  C   UNL     1      -5.106  60.706  -7.516  1.00  0.00    -0.000 C 
BRANCH  14  15
ATOM     15  C   UNL     1      -3.803  61.440  -7.152  1.00  0.00    -0.000 C 
BRANCH  15  16
ATOM     16  C   UNL     1      -3.935  62.970  -7.001  1.00  0.00    -0.000 C 
BRANCH  16  17
ATOM     17  C   UNL     1      -3.344  63.790  -8.162  1.00  0.00    -0.003 C 
ATOM     18  C   UNL     1      -2.237  64.744  -7.713  1.00  0.00     0.004 C 
ENDBRANCH  16  17
ENDBRANCH  15  16
ENDBRANCH  14  15
ENDBRANCH  13  14
ENDBRANCH  12  13
ENDBRANCH  11  12
ENDBRANCH   1  11
TORSDOF 14
ENDMDL
MODEL 9
REMARK VINA RESULT:    -3.756      9.824     13.999
REMARK INTER + INTRA:          -8.458
REMARK INTER:                  -6.409
REMARK INTRA:                  -2.050
REMARK UNBOUND:                -1.628
REMARK SMILES CCCCCCCCCCCCCCCC(=O)[O-]
REMARK SMILES IDX 9 1 10 2 11 3 12 4 13 5 14 6 15 7 16 8 17 9 18 10 8 11 7 12
REMARK SMILES IDX 6 13 5 14 4 15 3 16 2 17 1 18
REMARK H PARENT
REMARK Flexibility Score: inf
ROOT
ATOM      1  C   UNL     1       2.932  51.392  -9.018  1.00  0.00     0.000 C 
ENDROOT
BRANCH   1   2
ATOM      2  C   UNL     1       3.107  52.892  -9.310  1.00  0.00     0.000 C 
BRANCH   2   3
ATOM      3  C   UNL     1       1.787  53.676  -9.189  1.00  0.00     0.000 C 
BRANCH   3   4
ATOM      4  C   UNL     1       0.916  53.559 -10.449  1.00  0.00     0.000 C 
BRANCH   4   5
ATOM      5  C   UNL     1       0.003  54.782 -10.653  1.00  0.00     0.000 C 
BRANCH   5   6
ATOM      6  C   UNL     1      -0.942  55.017  -9.464  1.00  0.00     0.006 C 
BRANCH   6   7
ATOM      7  C   UNL     1      -1.171  56.507  -9.179  1.00  0.00     0.053 C 
BRANCH   7   8
ATOM      8  C   UNL     1       0.132  57.195  -8.922  1.00  0.00     0.041 C 
ATOM      9  O   UNL     1       0.826  56.884  -7.918  1.00  0.00    -0.550 OA
ATOM     10  O   UNL     1       0.559  58.213  -9.765  1.00  0.00    -0.550 OA
ENDBRANCH   7   8
ENDBRANCH   6   7
ENDBRANCH   5   6
ENDBRANCH   4   5
ENDBRANCH   3   4
ENDBRANCH   2   3
ENDBRANCH   1   2
BRANCH   1  11
ATOM     11  C   UNL     1       3.436  50.503 -10.169  1.00  0.00     0.000 C 
BRANCH  11  12
ATOM     12  C   UNL     1       2.324  50.148 -11.170  1.00  0.00    -0.000 C 
BRANCH  12  13
ATOM     13  C   UNL     1       2.685  50.523 -12.615  1.00  0.00    -0.000 C 
BRANCH  13  14
ATOM     14  C   UNL     1       3.739  51.639 -12.644  1.00  0.00    -0.000 C 
BRANCH  14  15
ATOM     15  C   UNL     1       3.235  52.922 -13.327  1.00  0.00    -0.000 C 
BRANCH  15  16
ATOM     16  C   UNL     1       1.849  52.806 -13.995  1.00  0.00    -0.000 C 
BRANCH  16  17
ATOM     17  C   UNL     1       1.089  54.136 -14.150  1.00  0.00    -0.003 C 
ATOM     18  C   UNL     1       1.953  55.356 -13.831  1.00  0.00     0.004 C 
ENDBRANCH  16  17
ENDBRANCH  15  16
ENDBRANCH  14  15
ENDBRANCH  13  14
ENDBRANCH  12  13
ENDBRANCH  11  12
ENDBRANCH   1  11
TORSDOF 14
ENDMDL
