MODEL 1
REMARK VINA RESULT:    -3.598      0.000      0.000
REMARK INTER + INTRA:          -8.067
REMARK INTER:                  -6.121
REMARK INTRA:                  -1.945
REMARK UNBOUND:                -1.945
REMARK SMILES CCCCCCCCCCCCCC(=O)[O-]
REMARK SMILES IDX 8 1 9 2 10 3 11 4 12 5 13 6 14 7 15 8 16 9 7 10 6 11 5 12
REMARK SMILES IDX 4 13 3 14 2 15 1 16
REMARK H PARENT
REMARK Flexibility Score: inf
ROOT
ATOM      1  C   UNL     1     188.541 188.571 169.445  1.00  0.00     0.000 C 
ENDROOT
BRANCH   1   2
ATOM      2  C   UNL     1     189.601 187.919 170.351  1.00  0.00     0.000 C 
BRANCH   2   3
ATOM      3  C   UNL     1     189.910 186.463 169.961  1.00  0.00     0.000 C 
BRANCH   3   4
ATOM      4  C   UNL     1     189.266 185.447 170.918  1.00  0.00     0.000 C 
BRANCH   4   5
ATOM      5  C   UNL     1     188.960 186.044 172.300  1.00  0.00     0.006 C 
BRANCH   5   6
ATOM      6  C   UNL     1     189.651 185.243 173.407  1.00  0.00     0.053 C 
BRANCH   6   7
ATOM      7  C   UNL     1     190.784 186.026 173.991  1.00  0.00     0.041 C 
ATOM      8  O   UNL     1     191.349 185.635 175.046  1.00  0.00    -0.550 OA
ATOM      9  O   UNL     1     191.248 187.165 173.344  1.00  0.00    -0.550 OA
ENDBRANCH   6   7
ENDBRANCH   5   6
ENDBRANCH   4   5
ENDBRANCH   3   4
ENDBRANCH   2   3
ENDBRANCH   1   2
BRANCH   1  10
ATOM     10  C   UNL     1     187.224 188.952 170.147  1.00  0.00     0.000 C 
BRANCH  10  11
ATOM     11  C   UNL     1     186.318 187.743 170.420  1.00  0.00    -0.000 C 
BRANCH  11  12
ATOM     12  C   UNL     1     185.138 187.708 169.441  1.00  0.00    -0.000 C 
BRANCH  12  13
ATOM     13  C   UNL     1     185.435 186.785 168.250  1.00  0.00    -0.000 C 
BRANCH  13  14
ATOM     14  C   UNL     1     186.081 185.455 168.691  1.00  0.00    -0.000 C 
BRANCH  14  15
ATOM     15  C   UNL     1     187.256 185.017 167.801  1.00  0.00    -0.003 C 
ATOM     16  C   UNL     1     187.665 186.080 166.783  1.00  0.00     0.004 C 
ENDBRANCH  14  15
ENDBRANCH  13  14
ENDBRANCH  12  13
ENDBRANCH  11  12
ENDBRANCH  10  11
ENDBRANCH   1  10
TORSDOF 12
ENDMDL
MODEL 2
REMARK VINA RESULT:    -3.532      3.063      5.234
REMARK INTER + INTRA:          -7.955
REMARK INTER:                  -5.832
REMARK INTRA:                  -2.123
REMARK UNBOUND:                -1.945
REMARK SMILES CCCCCCCCCCCCCC(=O)[O-]
REMARK SMILES IDX 8 1 9 2 10 3 11 4 12 5 13 6 14 7 15 8 16 9 7 10 6 11 5 12
REMARK SMILES IDX 4 13 3 14 2 15 1 16
REMARK H PARENT
REMARK Flexibility Score: inf
ROOT
ATOM      1  C   UNL     1     190.066 187.060 167.285  1.00  0.00     0.000 C 
ENDROOT
BRANCH   1   2
ATOM      2  C   UNL     1     189.223 185.895 166.732  1.00  0.00     0.000 C 
BRANCH   2   3
ATOM      3  C   UNL     1     187.709 186.139 166.859  1.00  0.00     0.000 C 
BRANCH   3   4
ATOM      4  C   UNL     1     186.994 185.019 167.633  1.00  0.00     0.000 C 
BRANCH   4   5
ATOM      5  C   UNL     1     186.053 185.558 168.722  1.00  0.00     0.006 C 
BRANCH   5   6
ATOM      6  C   UNL     1     185.498 186.932 168.334  1.00  0.00     0.053 C 
BRANCH   6   7
ATOM      7  C   UNL     1     184.584 187.447 169.400  1.00  0.00     0.041 C 
ATOM      8  O   UNL     1     184.804 187.174 170.610  1.00  0.00    -0.550 OA
ATOM      9  O   UNL     1     183.516 188.268 169.063  1.00  0.00    -0.550 OA
ENDBRANCH   6   7
ENDBRANCH   5   6
ENDBRANCH   4   5
ENDBRANCH   3   4
ENDBRANCH   2   3
ENDBRANCH   1   2
BRANCH   1  10
ATOM     10  C   UNL     1     189.259 188.210 167.915  1.00  0.00     0.000 C 
BRANCH  10  11
ATOM     11  C   UNL     1     189.532 188.381 169.417  1.00  0.00    -0.000 C 
BRANCH  11  12
ATOM     12  C   UNL     1     188.230 188.299 170.224  1.00  0.00    -0.000 C 
BRANCH  12  13
ATOM     13  C   UNL     1     188.242 187.089 171.170  1.00  0.00    -0.000 C 
BRANCH  13  14
ATOM     14  C   UNL     1     189.673 186.601 171.474  1.00  0.00    -0.000 C 
BRANCH  14  15
ATOM     15  C   UNL     1     189.817 185.070 171.459  1.00  0.00    -0.003 C 
ATOM     16  C   UNL     1     189.762 184.476 170.053  1.00  0.00     0.004 C 
ENDBRANCH  14  15
ENDBRANCH  13  14
ENDBRANCH  12  13
ENDBRANCH  11  12
ENDBRANCH  10  11
ENDBRANCH   1  10
TORSDOF 12
ENDMDL
MODEL 3
REMARK VINA RESULT:    -3.497      4.374      6.487
REMARK INTER + INTRA:          -7.895
REMARK INTER:                  -6.402
REMARK INTRA:                  -1.493
REMARK UNBOUND:                -1.945
REMARK SMILES CCCCCCCCCCCCCC(=O)[O-]
REMARK SMILES IDX 8 1 9 2 10 3 11 4 12 5 13 6 14 7 15 8 16 9 7 10 6 11 5 12
REMARK SMILES IDX 4 13 3 14 2 15 1 16
REMARK H PARENT
REMARK Flexibility Score: inf
ROOT
ATOM      1  C   UNL     1     186.753 188.289 170.000  1.00  0.00     0.000 C 
ENDROOT
BRANCH   1   2
ATOM      2  C   UNL     1     186.018 187.156 170.739  1.00  0.00     0.000 C 
BRANCH   2   3
ATOM      3  C   UNL     1     184.507 187.134 170.450  1.00  0.00     0.000 C 
BRANCH   3   4
ATOM      4  C   UNL     1     184.170 187.623 169.032  1.00  0.00     0.000 C 
BRANCH   4   5
ATOM      5  C   UNL     1     182.971 188.583 169.004  1.00  0.00     0.006 C 
BRANCH   5   6
ATOM      6  C   UNL     1     182.050 188.342 170.205  1.00  0.00     0.053 C 
BRANCH   6   7
ATOM      7  C   UNL     1     181.108 189.490 170.380  1.00  0.00     0.041 C 
ATOM      8  O   UNL     1     179.902 189.281 170.678  1.00  0.00    -0.550 OA
ATOM      9  O   UNL     1     181.571 190.794 170.261  1.00  0.00    -0.550 OA
ENDBRANCH   6   7
ENDBRANCH   5   6
ENDBRANCH   4   5
ENDBRANCH   3   4
ENDBRANCH   2   3
ENDBRANCH   1   2
BRANCH   1  10
ATOM     10  C   UNL     1     188.282 188.307 170.183  1.00  0.00     0.000 C 
BRANCH  10  11
ATOM     11  C   UNL     1     188.805 187.100 170.975  1.00  0.00    -0.000 C 
BRANCH  11  12
ATOM     12  C   UNL     1     189.737 186.239 170.113  1.00  0.00    -0.000 C 
BRANCH  12  13
ATOM     13  C   UNL     1     188.953 185.141 169.379  1.00  0.00    -0.000 C 
BRANCH  13  14
ATOM     14  C   UNL     1     188.820 185.430 167.869  1.00  0.00    -0.000 C 
BRANCH  14  15
ATOM     15  C   UNL     1     187.362 185.512 167.385  1.00  0.00    -0.003 C 
ATOM     16  C   UNL     1     186.396 184.711 168.256  1.00  0.00     0.004 C 
ENDBRANCH  14  15
ENDBRANCH  13  14
ENDBRANCH  12  13
ENDBRANCH  11  12
ENDBRANCH  10  11
ENDBRANCH   1  10
TORSDOF 12
ENDMDL
MODEL 4
REMARK VINA RESULT:    -3.480      1.289      2.895
REMARK INTER + INTRA:          -7.867
REMARK INTER:                  -6.024
REMARK INTRA:                  -1.843
REMARK UNBOUND:                -1.945
REMARK SMILES CCCCCCCCCCCCCC(=O)[O-]
REMARK SMILES IDX 8 1 9 2 10 3 11 4 12 5 13 6 14 7 15 8 16 9 7 10 6 11 5 12
REMARK SMILES IDX 4 13 3 14 2 15 1 16
REMARK H PARENT
REMARK Flexibility Score: inf
ROOT
ATOM      1  C   UNL     1     188.309 185.007 168.755  1.00  0.00     0.000 C 
ENDROOT
BRANCH   1   2
ATOM      2  C   UNL     1     189.549 185.726 168.192  1.00  0.00     0.000 C 
BRANCH   2   3
ATOM      3  C   UNL     1     190.458 186.301 169.292  1.00  0.00     0.000 C 
BRANCH   3   4
ATOM      4  C   UNL     1     190.317 185.551 170.626  1.00  0.00     0.000 C 
BRANCH   4   5
ATOM      5  C   UNL     1     189.837 186.458 171.769  1.00  0.00     0.006 C 
BRANCH   5   6
ATOM      6  C   UNL     1     188.769 185.757 172.613  1.00  0.00     0.053 C 
BRANCH   6   7
ATOM      7  C   UNL     1     189.402 184.785 173.558  1.00  0.00     0.041 C 
ATOM      8  O   UNL     1     190.479 185.078 174.140  1.00  0.00    -0.550 OA
ATOM      9  O   UNL     1     188.777 183.575 173.833  1.00  0.00    -0.550 OA
ENDBRANCH   6   7
ENDBRANCH   5   6
ENDBRANCH   4   5
ENDBRANCH   3   4
ENDBRANCH   2   3
ENDBRANCH   1   2
BRANCH   1  10
ATOM     10  C   UNL     1     187.085 184.982 167.820  1.00  0.00     0.000 C 
BRANCH  10  11
ATOM     11  C   UNL     1     186.445 186.365 167.633  1.00  0.00    -0.000 C 
BRANCH  11  12
ATOM     12  C   UNL     1     185.288 186.572 168.620  1.00  0.00    -0.000 C 
BRANCH  12  13
ATOM     13  C   UNL     1     185.453 187.887 169.396  1.00  0.00    -0.000 C 
BRANCH  13  14
ATOM     14  C   UNL     1     186.619 187.826 170.406  1.00  0.00    -0.000 C 
BRANCH  14  15
ATOM     15  C   UNL     1     187.557 189.043 170.336  1.00  0.00    -0.003 C 
ATOM     16  C   UNL     1     188.269 189.174 168.991  1.00  0.00     0.004 C 
ENDBRANCH  14  15
ENDBRANCH  13  14
ENDBRANCH  12  13
ENDBRANCH  11  12
ENDBRANCH  10  11
ENDBRANCH   1  10
TORSDOF 12
ENDMDL
MODEL 5
REMARK VINA RESULT:    -3.469      1.209      2.810
REMARK INTER + INTRA:          -7.847
REMARK INTER:                  -6.034
REMARK INTRA:                  -1.813
REMARK UNBOUND:                -1.945
REMARK SMILES CCCCCCCCCCCCCC(=O)[O-]
REMARK SMILES IDX 8 1 9 2 10 3 11 4 12 5 13 6 14 7 15 8 16 9 7 10 6 11 5 12
REMARK SMILES IDX 4 13 3 14 2 15 1 16
REMARK H PARENT
REMARK Flexibility Score: inf
ROOT
ATOM      1  C   UNL     1     189.730 185.292 168.537  1.00  0.00     0.000 C 
ENDROOT
BRANCH   1   2
ATOM      2  C   UNL     1     189.578 184.874 170.010  1.00  0.00     0.000 C 
BRANCH   2   3
ATOM      3  C   UNL     1     189.783 186.044 170.989  1.00  0.00     0.000 C 
BRANCH   3   4
ATOM      4  C   UNL     1     188.707 186.090 172.087  1.00  0.00     0.000 C 
BRANCH   4   5
ATOM      5  C   UNL     1     189.018 185.149 173.262  1.00  0.00     0.006 C 
BRANCH   5   6
ATOM      6  C   UNL     1     190.089 185.752 174.177  1.00  0.00     0.053 C 
BRANCH   6   7
ATOM      7  C   UNL     1     191.280 184.852 174.253  1.00  0.00     0.041 C 
ATOM      8  O   UNL     1     191.407 183.897 173.442  1.00  0.00    -0.550 OA
ATOM      9  O   UNL     1     192.277 185.094 175.190  1.00  0.00    -0.550 OA
ENDBRANCH   6   7
ENDBRANCH   5   6
ENDBRANCH   4   5
ENDBRANCH   3   4
ENDBRANCH   2   3
ENDBRANCH   1   2
BRANCH   1  10
ATOM     10  C   UNL     1     188.411 185.417 167.751  1.00  0.00     0.000 C 
BRANCH  10  11
ATOM     11  C   UNL     1     187.211 184.814 168.495  1.00  0.00    -0.000 C 
BRANCH  11  12
ATOM     12  C   UNL     1     186.014 185.773 168.475  1.00  0.00    -0.000 C 
BRANCH  12  13
ATOM     13  C   UNL     1     185.963 186.619 169.755  1.00  0.00    -0.000 C 
BRANCH  13  14
ATOM     14  C   UNL     1     186.056 188.131 169.460  1.00  0.00    -0.000 C 
BRANCH  14  15
ATOM     15  C   UNL     1     187.304 188.799 170.061  1.00  0.00    -0.003 C 
ATOM     16  C   UNL     1     188.457 188.919 169.067  1.00  0.00     0.004 C 
ENDBRANCH  14  15
ENDBRANCH  13  14
ENDBRANCH  12  13
ENDBRANCH  11  12
ENDBRANCH  10  11
ENDBRANCH   1  10
TORSDOF 12
ENDMDL
MODEL 6
REMARK VINA RESULT:    -3.451      1.043      2.566
REMARK INTER + INTRA:          -7.817
REMARK INTER:                  -5.970
REMARK INTRA:                  -1.848
REMARK UNBOUND:                -1.945
REMARK SMILES CCCCCCCCCCCCCC(=O)[O-]
REMARK SMILES IDX 8 1 9 2 10 3 11 4 12 5 13 6 14 7 15 8 16 9 7 10 6 11 5 12
REMARK SMILES IDX 4 13 3 14 2 15 1 16
REMARK H PARENT
REMARK Flexibility Score: inf
ROOT
ATOM      1  C   UNL     1     188.882 188.424 168.551  1.00  0.00     0.000 C 
ENDROOT
BRANCH   1   2
ATOM      2  C   UNL     1     188.629 188.509 170.067  1.00  0.00     0.000 C 
BRANCH   2   3
ATOM      3  C   UNL     1     189.481 187.514 170.874  1.00  0.00     0.000 C 
BRANCH   3   4
ATOM      4  C   UNL     1     188.626 186.499 171.651  1.00  0.00     0.000 C 
BRANCH   4   5
ATOM      5  C   UNL     1     189.362 185.176 171.909  1.00  0.00     0.006 C 
BRANCH   5   6
ATOM      6  C   UNL     1     189.349 184.825 173.400  1.00  0.00     0.053 C 
BRANCH   6   7
ATOM      7  C   UNL     1     190.726 184.931 173.975  1.00  0.00     0.041 C 
ATOM      8  O   UNL     1     191.360 186.017 173.908  1.00  0.00    -0.550 OA
ATOM      9  O   UNL     1     191.293 183.843 174.627  1.00  0.00    -0.550 OA
ENDBRANCH   6   7
ENDBRANCH   5   6
ENDBRANCH   4   5
ENDBRANCH   3   4
ENDBRANCH   2   3
ENDBRANCH   1   2
BRANCH   1  10
ATOM     10  C   UNL     1     189.377 187.055 168.046  1.00  0.00     0.000 C 
BRANCH  10  11
ATOM     11  C   UNL     1     188.270 186.228 167.376  1.00  0.00    -0.000 C 
BRANCH  11  12
ATOM     12  C   UNL     1     187.752 185.136 168.322  1.00  0.00    -0.000 C 
BRANCH  12  13
ATOM     13  C   UNL     1     186.260 185.334 168.628  1.00  0.00    -0.000 C 
BRANCH  13  14
ATOM     14  C   UNL     1     185.722 186.667 168.070  1.00  0.00    -0.000 C 
BRANCH  14  15
ATOM     15  C   UNL     1     184.834 187.436 169.064  1.00  0.00    -0.003 C 
ATOM     16  C   UNL     1     185.207 187.179 170.522  1.00  0.00     0.004 C 
ENDBRANCH  14  15
ENDBRANCH  13  14
ENDBRANCH  12  13
ENDBRANCH  11  12
ENDBRANCH  10  11
ENDBRANCH   1  10
TORSDOF 12
ENDMDL
MODEL 7
REMARK VINA RESULT:    -3.436      1.086      1.958
REMARK INTER + INTRA:          -7.792
REMARK INTER:                  -5.818
REMARK INTRA:                  -1.973
REMARK UNBOUND:                -1.945
REMARK SMILES CCCCCCCCCCCCCC(=O)[O-]
REMARK SMILES IDX 8 1 9 2 10 3 11 4 12 5 13 6 14 7 15 8 16 9 7 10 6 11 5 12
REMARK SMILES IDX 4 13 3 14 2 15 1 16
REMARK H PARENT
REMARK Flexibility Score: inf
ROOT
ATOM      1  C   UNL     1     187.137 188.508 169.351  1.00  0.00     0.000 C 
ENDROOT
BRANCH   1   2
ATOM      2  C   UNL     1     188.191 188.401 170.468  1.00  0.00     0.000 C 
BRANCH   2   3
ATOM      3  C   UNL     1     189.258 187.329 170.184  1.00  0.00     0.000 C 
BRANCH   3   4
ATOM      4  C   UNL     1     188.950 185.992 170.878  1.00  0.00     0.000 C 
BRANCH   4   5
ATOM      5  C   UNL     1     188.177 186.170 172.194  1.00  0.00     0.006 C 
BRANCH   5   6
ATOM      6  C   UNL     1     188.691 185.205 173.266  1.00  0.00     0.053 C 
BRANCH   6   7
ATOM      7  C   UNL     1     190.166 185.368 173.453  1.00  0.00     0.041 C 
ATOM      8  O   UNL     1     190.634 186.453 173.890  1.00  0.00    -0.550 OA
ATOM      9  O   UNL     1     191.023 184.306 173.190  1.00  0.00    -0.550 OA
ENDBRANCH   6   7
ENDBRANCH   5   6
ENDBRANCH   4   5
ENDBRANCH   3   4
ENDBRANCH   2   3
ENDBRANCH   1   2
BRANCH   1  10
ATOM     10  C   UNL     1     185.859 187.678 169.574  1.00  0.00     0.000 C 
BRANCH  10  11
ATOM     11  C   UNL     1     185.521 186.767 168.385  1.00  0.00    -0.000 C 
BRANCH  11  12
ATOM     12  C   UNL     1     186.043 185.344 168.618  1.00  0.00    -0.000 C 
BRANCH  12  13
ATOM     13  C   UNL     1     187.302 185.073 167.781  1.00  0.00    -0.000 C 
BRANCH  13  14
ATOM     14  C   UNL     1     187.390 185.992 166.545  1.00  0.00    -0.000 C 
BRANCH  14  15
ATOM     15  C   UNL     1     188.720 186.757 166.440  1.00  0.00    -0.003 C 
ATOM     16  C   UNL     1     189.932 185.903 166.810  1.00  0.00     0.004 C 
ENDBRANCH  14  15
ENDBRANCH  13  14
ENDBRANCH  12  13
ENDBRANCH  11  12
ENDBRANCH  10  11
ENDBRANCH   1  10
TORSDOF 12
ENDMDL
MODEL 8
REMARK VINA RESULT:    -3.362      2.822      5.482
REMARK INTER + INTRA:          -7.666
REMARK INTER:                  -5.888
REMARK INTRA:                  -1.778
REMARK UNBOUND:                -1.945
REMARK SMILES CCCCCCCCCCCCCC(=O)[O-]
REMARK SMILES IDX 8 1 9 2 10 3 11 4 12 5 13 6 14 7 15 8 16 9 7 10 6 11 5 12
REMARK SMILES IDX 4 13 3 14 2 15 1 16
REMARK H PARENT
REMARK Flexibility Score: inf
ROOT
ATOM      1  C   UNL     1     188.284 188.670 169.139  1.00  0.00     0.000 C 
ENDROOT
BRANCH   1   2
ATOM      2  C   UNL     1     187.325 188.676 170.344  1.00  0.00     0.000 C 
BRANCH   2   3
ATOM      3  C   UNL     1     186.178 187.660 170.203  1.00  0.00     0.000 C 
BRANCH   3   4
ATOM      4  C   UNL     1     186.000 187.170 168.756  1.00  0.00     0.000 C 
BRANCH   4   5
ATOM      5  C   UNL     1     185.951 185.638 168.651  1.00  0.00     0.006 C 
BRANCH   5   6
ATOM      6  C   UNL     1     187.364 185.045 168.647  1.00  0.00     0.053 C 
BRANCH   6   7
ATOM      7  C   UNL     1     187.945 185.086 167.269  1.00  0.00     0.041 C 
ATOM      8  O   UNL     1     189.190 185.188 167.109  1.00  0.00    -0.550 OA
ATOM      9  O   UNL     1     187.116 184.965 166.161  1.00  0.00    -0.550 OA
ENDBRANCH   6   7
ENDBRANCH   5   6
ENDBRANCH   4   5
ENDBRANCH   3   4
ENDBRANCH   2   3
ENDBRANCH   1   2
BRANCH   1  10
ATOM     10  C   UNL     1     189.781 188.613 169.493  1.00  0.00     0.000 C 
BRANCH  10  11
ATOM     11  C   UNL     1     190.078 187.708 170.699  1.00  0.00    -0.000 C 
BRANCH  11  12
ATOM     12  C   UNL     1     190.525 186.314 170.242  1.00  0.00    -0.000 C 
BRANCH  12  13
ATOM     13  C   UNL     1     189.854 185.216 171.081  1.00  0.00    -0.000 C 
BRANCH  13  14
ATOM     14  C   UNL     1     188.826 185.791 172.078  1.00  0.00    -0.000 C 
BRANCH  14  15
ATOM     15  C   UNL     1     189.047 185.323 173.526  1.00  0.00    -0.003 C 
ATOM     16  C   UNL     1     190.253 184.399 173.680  1.00  0.00     0.004 C 
ENDBRANCH  14  15
ENDBRANCH  13  14
ENDBRANCH  12  13
ENDBRANCH  11  12
ENDBRANCH  10  11
ENDBRANCH   1  10
TORSDOF 12
ENDMDL
MODEL 9
REMARK VINA RESULT:    -3.354      1.875      2.973
REMARK INTER + INTRA:          -7.651
REMARK INTER:                  -5.579
REMARK INTRA:                  -2.072
REMARK UNBOUND:                -1.945
REMARK SMILES CCCCCCCCCCCCCC(=O)[O-]
REMARK SMILES IDX 8 1 9 2 10 3 11 4 12 5 13 6 14 7 15 8 16 9 7 10 6 11 5 12
REMARK SMILES IDX 4 13 3 14 2 15 1 16
REMARK H PARENT
REMARK Flexibility Score: inf
ROOT
ATOM      1  C   UNL     1     186.644 187.678 170.526  1.00  0.00     0.000 C 
ENDROOT
BRANCH   1   2
ATOM      2  C   UNL     1     187.454 188.897 170.051  1.00  0.00     0.000 C 
BRANCH   2   3
ATOM      3  C   UNL     1     188.940 188.573 169.811  1.00  0.00     0.000 C 
BRANCH   3   4
ATOM      4  C   UNL     1     189.394 187.305 170.554  1.00  0.00     0.000 C 
BRANCH   4   5
ATOM      5  C   UNL     1     190.041 186.271 169.621  1.00  0.00     0.006 C 
BRANCH   5   6
ATOM      6  C   UNL     1     189.540 184.859 169.939  1.00  0.00     0.053 C 
BRANCH   6   7
ATOM      7  C   UNL     1     190.620 184.054 170.590  1.00  0.00     0.041 C 
ATOM      8  O   UNL     1     191.273 183.211 169.921  1.00  0.00    -0.550 OA
ATOM      9  O   UNL     1     190.938 184.269 171.925  1.00  0.00    -0.550 OA
ENDBRANCH   6   7
ENDBRANCH   5   6
ENDBRANCH   4   5
ENDBRANCH   3   4
ENDBRANCH   2   3
ENDBRANCH   1   2
BRANCH   1  10
ATOM     10  C   UNL     1     185.254 187.523 169.881  1.00  0.00     0.000 C 
BRANCH  10  11
ATOM     11  C   UNL     1     185.298 186.796 168.529  1.00  0.00    -0.000 C 
BRANCH  11  12
ATOM     12  C   UNL     1     186.128 185.510 168.624  1.00  0.00    -0.000 C 
BRANCH  12  13
ATOM     13  C   UNL     1     186.942 185.282 167.342  1.00  0.00    -0.000 C 
BRANCH  13  14
ATOM     14  C   UNL     1     187.504 186.599 166.766  1.00  0.00    -0.000 C 
BRANCH  14  15
ATOM     15  C   UNL     1     188.907 186.453 166.153  1.00  0.00    -0.003 C 
ATOM     16  C   UNL     1     189.414 185.012 166.155  1.00  0.00     0.004 C 
ENDBRANCH  14  15
ENDBRANCH  13  14
ENDBRANCH  12  13
ENDBRANCH  11  12
ENDBRANCH  10  11
ENDBRANCH   1  10
TORSDOF 12
ENDMDL
