MODEL 1
REMARK VINA RESULT:     0.901      0.000      0.000
REMARK INTER + INTRA:           0.270
REMARK INTER:                   2.376
REMARK INTRA:                  -2.106
REMARK UNBOUND:                -2.106
REMARK SMILES CCCCCCCCCCCCCCCCCCCCCCCCCCCCCC(=O)[O-]
REMARK SMILES IDX 16 1 17 2 18 3 19 4 20 5 21 6 22 7 23 8 24 9 25 10 26 11
REMARK SMILES IDX 27 12 28 13 29 14 30 15 31 16 32 17 15 18 14 19 13 20 12 21
REMARK SMILES IDX 11 22 10 23 9 24 8 25 7 26 6 27 5 28 4 29 3 30 2 31 1 32
REMARK H PARENT
REMARK Flexibility Score: inf
ROOT
ATOM      1  C   UNL     1      53.864  79.793  37.107  1.00  0.00     0.000 C 
ENDROOT
BRANCH   1   2
ATOM      2  C   UNL     1      52.687  80.660  37.579  1.00  0.00     0.000 C 
BRANCH   2   3
ATOM      3  C   UNL     1      51.717  79.907  38.508  1.00  0.00     0.000 C 
BRANCH   3   4
ATOM      4  C   UNL     1      50.482  80.714  38.947  1.00  0.00     0.000 C 
BRANCH   4   5
ATOM      5  C   UNL     1      49.328  79.822  39.440  1.00  0.00     0.000 C 
BRANCH   5   6
ATOM      6  C   UNL     1      48.144  80.633  39.985  1.00  0.00     0.000 C 
BRANCH   6   7
ATOM      7  C   UNL     1      48.536  81.524  41.179  1.00  0.00     0.000 C 
BRANCH   7   8
ATOM      8  C   UNL     1      48.093  82.984  41.004  1.00  0.00     0.000 C 
BRANCH   8   9
ATOM      9  C   UNL     1      48.209  83.803  42.303  1.00  0.00     0.000 C 
BRANCH   9  10
ATOM     10  C   UNL     1      49.611  83.699  42.942  1.00  0.00     0.000 C 
BRANCH  10  11
ATOM     11  C   UNL     1      49.682  84.233  44.385  1.00  0.00     0.000 C 
BRANCH  11  12
ATOM     12  C   UNL     1      48.297  84.405  45.027  1.00  0.00     0.000 C 
BRANCH  12  13
ATOM     13  C   UNL     1      48.167  83.676  46.378  1.00  0.00     0.006 C 
BRANCH  13  14
ATOM     14  C   UNL     1      48.832  82.290  46.418  1.00  0.00     0.053 C 
BRANCH  14  15
ATOM     15  C   UNL     1      49.155  81.858  47.816  1.00  0.00     0.041 C 
ATOM     16  O   UNL     1      50.029  80.974  48.023  1.00  0.00    -0.550 OA
ATOM     17  O   UNL     1      48.529  82.470  48.896  1.00  0.00    -0.550 OA
ENDBRANCH  14  15
ENDBRANCH  13  14
ENDBRANCH  12  13
ENDBRANCH  11  12
ENDBRANCH  10  11
ENDBRANCH   9  10
ENDBRANCH   8   9
ENDBRANCH   7   8
ENDBRANCH   6   7
ENDBRANCH   5   6
ENDBRANCH   4   5
ENDBRANCH   3   4
ENDBRANCH   2   3
ENDBRANCH   1   2
BRANCH   1  18
ATOM     18  C   UNL     1      53.455  78.917  35.915  1.00  0.00     0.000 C 
BRANCH  18  19
ATOM     19  C   UNL     1      53.106  79.737  34.659  1.00  0.00     0.000 C 
BRANCH  19  20
ATOM     20  C   UNL     1      54.208  80.704  34.177  1.00  0.00     0.000 C 
BRANCH  20  21
ATOM     21  C   UNL     1      53.834  81.561  32.955  1.00  0.00     0.000 C 
BRANCH  21  22
ATOM     22  C   UNL     1      54.999  81.733  31.965  1.00  0.00     0.000 C 
BRANCH  22  23
ATOM     23  C   UNL     1      55.756  83.056  32.177  1.00  0.00     0.000 C 
BRANCH  23  24
ATOM     24  C   UNL     1      54.849  84.299  32.241  1.00  0.00    -0.000 C 
BRANCH  24  25
ATOM     25  C   UNL     1      54.511  84.861  30.850  1.00  0.00    -0.000 C 
BRANCH  25  26
ATOM     26  C   UNL     1      53.081  84.494  30.398  1.00  0.00    -0.000 C 
BRANCH  26  27
ATOM     27  C   UNL     1      51.973  85.106  31.278  1.00  0.00    -0.000 C 
BRANCH  27  28
ATOM     28  C   UNL     1      51.438  84.186  32.387  1.00  0.00    -0.000 C 
BRANCH  28  29
ATOM     29  C   UNL     1      50.386  83.183  31.880  1.00  0.00    -0.000 C 
BRANCH  29  30
ATOM     30  C   UNL     1      49.020  83.378  32.572  1.00  0.00    -0.000 C 
BRANCH  30  31
ATOM     31  C   UNL     1      48.092  84.357  31.836  1.00  0.00    -0.003 C 
ATOM     32  C   UNL     1      48.361  84.422  30.336  1.00  0.00     0.004 C 
ENDBRANCH  30  31
ENDBRANCH  29  30
ENDBRANCH  28  29
ENDBRANCH  27  28
ENDBRANCH  26  27
ENDBRANCH  25  26
ENDBRANCH  24  25
ENDBRANCH  23  24
ENDBRANCH  22  23
ENDBRANCH  21  22
ENDBRANCH  20  21
ENDBRANCH  19  20
ENDBRANCH  18  19
ENDBRANCH   1  18
TORSDOF 28
ENDMDL
MODEL 2
REMARK VINA RESULT:     1.342      4.670     12.182
REMARK INTER + INTRA:           1.433
REMARK INTER:                   2.991
REMARK INTRA:                  -1.558
REMARK UNBOUND:                -2.106
REMARK SMILES CCCCCCCCCCCCCCCCCCCCCCCCCCCCCC(=O)[O-]
REMARK SMILES IDX 16 1 17 2 18 3 19 4 20 5 21 6 22 7 23 8 24 9 25 10 26 11
REMARK SMILES IDX 27 12 28 13 29 14 30 15 31 16 32 17 15 18 14 19 13 20 12 21
REMARK SMILES IDX 11 22 10 23 9 24 8 25 7 26 6 27 5 28 4 29 3 30 2 31 1 32
REMARK H PARENT
REMARK Flexibility Score: inf
ROOT
ATOM      1  C   UNL     1      53.235  79.300  35.162  1.00  0.00     0.000 C 
ENDROOT
BRANCH   1   2
ATOM      2  C   UNL     1      53.777  80.633  34.625  1.00  0.00     0.000 C 
BRANCH   2   3
ATOM      3  C   UNL     1      53.291  80.952  33.200  1.00  0.00     0.000 C 
BRANCH   3   4
ATOM      4  C   UNL     1      53.830  82.268  32.610  1.00  0.00     0.000 C 
BRANCH   4   5
ATOM      5  C   UNL     1      55.348  82.233  32.355  1.00  0.00     0.000 C 
BRANCH   5   6
ATOM      6  C   UNL     1      56.009  83.609  32.522  1.00  0.00     0.000 C 
BRANCH   6   7
ATOM      7  C   UNL     1      56.881  83.998  31.313  1.00  0.00     0.000 C 
BRANCH   7   8
ATOM      8  C   UNL     1      56.106  84.787  30.247  1.00  0.00     0.000 C 
BRANCH   8   9
ATOM      9  C   UNL     1      55.129  83.909  29.445  1.00  0.00     0.000 C 
BRANCH   9  10
ATOM     10  C   UNL     1      53.939  84.716  28.882  1.00  0.00     0.000 C 
BRANCH  10  11
ATOM     11  C   UNL     1      52.560  84.163  29.288  1.00  0.00     0.000 C 
BRANCH  11  12
ATOM     12  C   UNL     1      52.516  82.627  29.313  1.00  0.00     0.000 C 
BRANCH  12  13
ATOM     13  C   UNL     1      51.370  82.074  30.183  1.00  0.00     0.006 C 
BRANCH  13  14
ATOM     14  C   UNL     1      50.749  83.100  31.144  1.00  0.00     0.053 C 
BRANCH  14  15
ATOM     15  C   UNL     1      49.316  83.390  30.814  1.00  0.00     0.041 C 
ATOM     16  O   UNL     1      48.475  82.454  30.759  1.00  0.00    -0.550 OA
ATOM     17  O   UNL     1      48.897  84.701  30.622  1.00  0.00    -0.550 OA
ENDBRANCH  14  15
ENDBRANCH  13  14
ENDBRANCH  12  13
ENDBRANCH  11  12
ENDBRANCH  10  11
ENDBRANCH   9  10
ENDBRANCH   8   9
ENDBRANCH   7   8
ENDBRANCH   6   7
ENDBRANCH   5   6
ENDBRANCH   4   5
ENDBRANCH   3   4
ENDBRANCH   2   3
ENDBRANCH   1   2
BRANCH   1  18
ATOM     18  C   UNL     1      53.542  79.146  36.658  1.00  0.00     0.000 C 
BRANCH  18  19
ATOM     19  C   UNL     1      53.054  80.343  37.497  1.00  0.00     0.000 C 
BRANCH  19  20
ATOM     20  C   UNL     1      52.142  79.982  38.688  1.00  0.00     0.000 C 
BRANCH  20  21
ATOM     21  C   UNL     1      50.785  80.708  38.713  1.00  0.00     0.000 C 
BRANCH  21  22
ATOM     22  C   UNL     1      49.657  79.851  39.313  1.00  0.00     0.000 C 
BRANCH  22  23
ATOM     23  C   UNL     1      48.833  80.620  40.362  1.00  0.00     0.000 C 
BRANCH  23  24
ATOM     24  C   UNL     1      47.916  81.707  39.770  1.00  0.00    -0.000 C 
BRANCH  24  25
ATOM     25  C   UNL     1      47.875  82.983  40.626  1.00  0.00    -0.000 C 
BRANCH  25  26
ATOM     26  C   UNL     1      49.210  83.246  41.356  1.00  0.00    -0.000 C 
BRANCH  26  27
ATOM     27  C   UNL     1      49.155  82.976  42.872  1.00  0.00    -0.000 C 
BRANCH  27  28
ATOM     28  C   UNL     1      48.016  83.685  43.621  1.00  0.00    -0.000 C 
BRANCH  28  29
ATOM     29  C   UNL     1      48.393  85.105  44.082  1.00  0.00    -0.000 C 
BRANCH  29  30
ATOM     30  C   UNL     1      49.157  85.094  45.424  1.00  0.00    -0.000 C 
BRANCH  30  31
ATOM     31  C   UNL     1      50.685  85.125  45.263  1.00  0.00    -0.003 C 
ATOM     32  C   UNL     1      51.272  83.771  44.878  1.00  0.00     0.004 C 
ENDBRANCH  30  31
ENDBRANCH  29  30
ENDBRANCH  28  29
ENDBRANCH  27  28
ENDBRANCH  26  27
ENDBRANCH  25  26
ENDBRANCH  24  25
ENDBRANCH  23  24
ENDBRANCH  22  23
ENDBRANCH  21  22
ENDBRANCH  20  21
ENDBRANCH  19  20
ENDBRANCH  18  19
ENDBRANCH   1  18
TORSDOF 28
ENDMDL
MODEL 3
REMARK VINA RESULT:     1.566      4.263     11.541
REMARK INTER + INTRA:           2.023
REMARK INTER:                   4.458
REMARK INTRA:                  -2.435
REMARK UNBOUND:                -2.106
REMARK SMILES CCCCCCCCCCCCCCCCCCCCCCCCCCCCCC(=O)[O-]
REMARK SMILES IDX 16 1 17 2 18 3 19 4 20 5 21 6 22 7 23 8 24 9 25 10 26 11
REMARK SMILES IDX 27 12 28 13 29 14 30 15 31 16 32 17 15 18 14 19 13 20 12 21
REMARK SMILES IDX 11 22 10 23 9 24 8 25 7 26 6 27 5 28 4 29 3 30 2 31 1 32
REMARK H PARENT
REMARK Flexibility Score: inf
ROOT
ATOM      1  C   UNL     1      52.841  79.136  35.015  1.00  0.00     0.000 C 
ENDROOT
BRANCH   1   2
ATOM      2  C   UNL     1      53.805  80.200  34.470  1.00  0.00     0.000 C 
BRANCH   2   3
ATOM      3  C   UNL     1      53.351  80.794  33.124  1.00  0.00     0.000 C 
BRANCH   3   4
ATOM      4  C   UNL     1      53.887  82.205  32.823  1.00  0.00     0.000 C 
BRANCH   4   5
ATOM      5  C   UNL     1      55.392  82.217  32.496  1.00  0.00     0.000 C 
BRANCH   5   6
ATOM      6  C   UNL     1      56.004  83.623  32.574  1.00  0.00     0.000 C 
BRANCH   6   7
ATOM      7  C   UNL     1      56.754  84.014  31.286  1.00  0.00     0.000 C 
BRANCH   7   8
ATOM      8  C   UNL     1      55.934  84.940  30.375  1.00  0.00     0.000 C 
BRANCH   8   9
ATOM      9  C   UNL     1      55.414  84.228  29.113  1.00  0.00     0.000 C 
BRANCH   9  10
ATOM     10  C   UNL     1      54.044  83.553  29.340  1.00  0.00     0.000 C 
BRANCH  10  11
ATOM     11  C   UNL     1      52.880  84.545  29.520  1.00  0.00     0.000 C 
BRANCH  11  12
ATOM     12  C   UNL     1      52.803  85.125  30.941  1.00  0.00     0.000 C 
BRANCH  12  13
ATOM     13  C   UNL     1      51.539  84.682  31.702  1.00  0.00     0.006 C 
BRANCH  13  14
ATOM     14  C   UNL     1      50.334  84.362  30.802  1.00  0.00     0.053 C 
BRANCH  14  15
ATOM     15  C   UNL     1      49.469  83.281  31.376  1.00  0.00     0.041 C 
ATOM     16  O   UNL     1      49.111  82.307  30.662  1.00  0.00    -0.550 OA
ATOM     17  O   UNL     1      49.104  83.321  32.717  1.00  0.00    -0.550 OA
ENDBRANCH  14  15
ENDBRANCH  13  14
ENDBRANCH  12  13
ENDBRANCH  11  12
ENDBRANCH  10  11
ENDBRANCH   9  10
ENDBRANCH   8   9
ENDBRANCH   7   8
ENDBRANCH   6   7
ENDBRANCH   5   6
ENDBRANCH   4   5
ENDBRANCH   3   4
ENDBRANCH   2   3
ENDBRANCH   1   2
BRANCH   1  18
ATOM     18  C   UNL     1      53.614  77.972  35.651  1.00  0.00     0.000 C 
BRANCH  18  19
ATOM     19  C   UNL     1      54.661  78.437  36.680  1.00  0.00     0.000 C 
BRANCH  19  20
ATOM     20  C   UNL     1      54.084  79.002  37.996  1.00  0.00     0.000 C 
BRANCH  20  21
ATOM     21  C   UNL     1      54.214  80.527  38.162  1.00  0.00     0.000 C 
BRANCH  21  22
ATOM     22  C   UNL     1      52.853  81.234  38.288  1.00  0.00     0.000 C 
BRANCH  22  23
ATOM     23  C   UNL     1      51.681  80.239  38.356  1.00  0.00     0.000 C 
BRANCH  23  24
ATOM     24  C   UNL     1      50.632  80.574  39.433  1.00  0.00    -0.000 C 
BRANCH  24  25
ATOM     25  C   UNL     1      49.387  79.674  39.352  1.00  0.00    -0.000 C 
BRANCH  25  26
ATOM     26  C   UNL     1      48.185  80.261  40.122  1.00  0.00    -0.000 C 
BRANCH  26  27
ATOM     27  C   UNL     1      48.400  81.710  40.601  1.00  0.00    -0.000 C 
BRANCH  27  28
ATOM     28  C   UNL     1      48.062  81.967  42.078  1.00  0.00    -0.000 C 
BRANCH  28  29
ATOM     29  C   UNL     1      48.773  83.207  42.650  1.00  0.00    -0.000 C 
BRANCH  29  30
ATOM     30  C   UNL     1      48.642  83.293  44.186  1.00  0.00    -0.000 C 
BRANCH  30  31
ATOM     31  C   UNL     1      49.941  83.712  44.892  1.00  0.00    -0.003 C 
ATOM     32  C   UNL     1      49.780  84.969  45.741  1.00  0.00     0.004 C 
ENDBRANCH  30  31
ENDBRANCH  29  30
ENDBRANCH  28  29
ENDBRANCH  27  28
ENDBRANCH  26  27
ENDBRANCH  25  26
ENDBRANCH  24  25
ENDBRANCH  23  24
ENDBRANCH  22  23
ENDBRANCH  21  22
ENDBRANCH  20  21
ENDBRANCH  19  20
ENDBRANCH  18  19
ENDBRANCH   1  18
TORSDOF 28
ENDMDL
MODEL 4
REMARK VINA RESULT:     1.664      1.602      2.986
REMARK INTER + INTRA:           2.280
REMARK INTER:                   3.673
REMARK INTRA:                  -1.393
REMARK UNBOUND:                -2.106
REMARK SMILES CCCCCCCCCCCCCCCCCCCCCCCCCCCCCC(=O)[O-]
REMARK SMILES IDX 16 1 17 2 18 3 19 4 20 5 21 6 22 7 23 8 24 9 25 10 26 11
REMARK SMILES IDX 27 12 28 13 29 14 30 15 31 16 32 17 15 18 14 19 13 20 12 21
REMARK SMILES IDX 11 22 10 23 9 24 8 25 7 26 6 27 5 28 4 29 3 30 2 31 1 32
REMARK H PARENT
REMARK Flexibility Score: inf
ROOT
ATOM      1  C   UNL     1      53.909  79.886  34.052  1.00  0.00     0.000 C 
ENDROOT
BRANCH   1   2
ATOM      2  C   UNL     1      53.046  79.063  35.021  1.00  0.00     0.000 C 
BRANCH   2   3
ATOM      3  C   UNL     1      53.547  79.123  36.475  1.00  0.00     0.000 C 
BRANCH   3   4
ATOM      4  C   UNL     1      53.294  80.461  37.194  1.00  0.00     0.000 C 
BRANCH   4   5
ATOM      5  C   UNL     1      52.613  80.285  38.563  1.00  0.00     0.000 C 
BRANCH   5   6
ATOM      6  C   UNL     1      51.128  80.675  38.541  1.00  0.00     0.000 C 
BRANCH   6   7
ATOM      7  C   UNL     1      50.303  79.926  39.605  1.00  0.00     0.000 C 
BRANCH   7   8
ATOM      8  C   UNL     1      48.789  80.040  39.377  1.00  0.00     0.000 C 
BRANCH   8   9
ATOM      9  C   UNL     1      48.048  80.658  40.576  1.00  0.00     0.000 C 
BRANCH   9  10
ATOM     10  C   UNL     1      47.875  82.186  40.438  1.00  0.00     0.000 C 
BRANCH  10  11
ATOM     11  C   UNL     1      48.995  83.005  41.106  1.00  0.00     0.000 C 
BRANCH  11  12
ATOM     12  C   UNL     1      48.604  83.528  42.498  1.00  0.00     0.000 C 
BRANCH  12  13
ATOM     13  C   UNL     1      48.463  82.404  43.542  1.00  0.00     0.006 C 
BRANCH  13  14
ATOM     14  C   UNL     1      48.078  82.889  44.949  1.00  0.00     0.053 C 
BRANCH  14  15
ATOM     15  C   UNL     1      49.146  83.739  45.567  1.00  0.00     0.041 C 
ATOM     16  O   UNL     1      50.177  84.042  44.910  1.00  0.00    -0.550 OA
ATOM     17  O   UNL     1      48.977  84.245  46.851  1.00  0.00    -0.550 OA
ENDBRANCH  14  15
ENDBRANCH  13  14
ENDBRANCH  12  13
ENDBRANCH  11  12
ENDBRANCH  10  11
ENDBRANCH   9  10
ENDBRANCH   8   9
ENDBRANCH   7   8
ENDBRANCH   6   7
ENDBRANCH   5   6
ENDBRANCH   4   5
ENDBRANCH   3   4
ENDBRANCH   2   3
ENDBRANCH   1   2
BRANCH   1  18
ATOM     18  C   UNL     1      53.031  80.644  33.046  1.00  0.00     0.000 C 
BRANCH  18  19
ATOM     19  C   UNL     1      53.540  82.070  32.760  1.00  0.00     0.000 C 
BRANCH  19  20
ATOM     20  C   UNL     1      55.041  82.176  32.416  1.00  0.00     0.000 C 
BRANCH  20  21
ATOM     21  C   UNL     1      55.711  83.499  32.825  1.00  0.00     0.000 C 
BRANCH  21  22
ATOM     22  C   UNL     1      56.004  84.418  31.627  1.00  0.00     0.000 C 
BRANCH  22  23
ATOM     23  C   UNL     1      57.073  83.832  30.688  1.00  0.00     0.000 C 
BRANCH  23  24
ATOM     24  C   UNL     1      56.973  84.328  29.232  1.00  0.00    -0.000 C 
BRANCH  24  25
ATOM     25  C   UNL     1      55.651  85.056  28.940  1.00  0.00    -0.000 C 
BRANCH  25  26
ATOM     26  C   UNL     1      54.445  84.092  28.893  1.00  0.00    -0.000 C 
BRANCH  26  27
ATOM     27  C   UNL     1      53.216  84.593  29.677  1.00  0.00    -0.000 C 
BRANCH  27  28
ATOM     28  C   UNL     1      51.898  84.605  28.887  1.00  0.00    -0.000 C 
BRANCH  28  29
ATOM     29  C   UNL     1      50.713  84.036  29.688  1.00  0.00    -0.000 C 
BRANCH  29  30
ATOM     30  C   UNL     1      50.736  84.498  31.162  1.00  0.00    -0.000 C 
BRANCH  30  31
ATOM     31  C   UNL     1      49.949  83.577  32.107  1.00  0.00    -0.003 C 
ATOM     32  C   UNL     1      49.331  84.321  33.287  1.00  0.00     0.004 C 
ENDBRANCH  30  31
ENDBRANCH  29  30
ENDBRANCH  28  29
ENDBRANCH  27  28
ENDBRANCH  26  27
ENDBRANCH  25  26
ENDBRANCH  24  25
ENDBRANCH  23  24
ENDBRANCH  22  23
ENDBRANCH  21  22
ENDBRANCH  20  21
ENDBRANCH  19  20
ENDBRANCH  18  19
ENDBRANCH   1  18
TORSDOF 28
ENDMDL
MODEL 5
REMARK VINA RESULT:     1.730      1.212      1.996
REMARK INTER + INTRA:           2.456
REMARK INTER:                   3.986
REMARK INTRA:                  -1.530
REMARK UNBOUND:                -2.106
REMARK SMILES CCCCCCCCCCCCCCCCCCCCCCCCCCCCCC(=O)[O-]
REMARK SMILES IDX 16 1 17 2 18 3 19 4 20 5 21 6 22 7 23 8 24 9 25 10 26 11
REMARK SMILES IDX 27 12 28 13 29 14 30 15 31 16 32 17 15 18 14 19 13 20 12 21
REMARK SMILES IDX 11 22 10 23 9 24 8 25 7 26 6 27 5 28 4 29 3 30 2 31 1 32
REMARK H PARENT
REMARK Flexibility Score: inf
ROOT
ATOM      1  C   UNL     1      53.689  78.667  35.696  1.00  0.00     0.000 C 
ENDROOT
BRANCH   1   2
ATOM      2  C   UNL     1      53.745  79.245  37.119  1.00  0.00     0.000 C 
BRANCH   2   3
ATOM      3  C   UNL     1      52.976  80.570  37.263  1.00  0.00     0.000 C 
BRANCH   3   4
ATOM      4  C   UNL     1      52.419  80.847  38.671  1.00  0.00     0.000 C 
BRANCH   4   5
ATOM      5  C   UNL     1      50.882  80.930  38.702  1.00  0.00     0.000 C 
BRANCH   5   6
ATOM      6  C   UNL     1      50.249  79.868  39.612  1.00  0.00     0.000 C 
BRANCH   6   7
ATOM      7  C   UNL     1      48.743  79.683  39.348  1.00  0.00     0.000 C 
BRANCH   7   8
ATOM      8  C   UNL     1      47.876  80.708  40.094  1.00  0.00     0.000 C 
BRANCH   8   9
ATOM      9  C   UNL     1      48.691  81.892  40.646  1.00  0.00     0.000 C 
BRANCH   9  10
ATOM     10  C   UNL     1      48.180  82.368  42.023  1.00  0.00     0.000 C 
BRANCH  10  11
ATOM     11  C   UNL     1      49.109  83.381  42.719  1.00  0.00     0.000 C 
BRANCH  11  12
ATOM     12  C   UNL     1      48.343  84.408  43.567  1.00  0.00     0.000 C 
BRANCH  12  13
ATOM     13  C   UNL     1      48.807  84.437  45.037  1.00  0.00     0.006 C 
BRANCH  13  14
ATOM     14  C   UNL     1      49.753  83.290  45.427  1.00  0.00     0.053 C 
BRANCH  14  15
ATOM     15  C   UNL     1      49.025  82.150  46.072  1.00  0.00     0.041 C 
ATOM     16  O   UNL     1      48.489  81.256  45.364  1.00  0.00    -0.550 OA
ATOM     17  O   UNL     1      48.985  82.044  47.457  1.00  0.00    -0.550 OA
ENDBRANCH  14  15
ENDBRANCH  13  14
ENDBRANCH  12  13
ENDBRANCH  11  12
ENDBRANCH  10  11
ENDBRANCH   9  10
ENDBRANCH   8   9
ENDBRANCH   7   8
ENDBRANCH   6   7
ENDBRANCH   5   6
ENDBRANCH   4   5
ENDBRANCH   3   4
ENDBRANCH   2   3
ENDBRANCH   1   2
BRANCH   1  18
ATOM     18  C   UNL     1      53.148  79.707  34.705  1.00  0.00     0.000 C 
BRANCH  18  19
ATOM     19  C   UNL     1      54.236  80.272  33.773  1.00  0.00     0.000 C 
BRANCH  19  20
ATOM     20  C   UNL     1      53.819  81.507  32.946  1.00  0.00     0.000 C 
BRANCH  20  21
ATOM     21  C   UNL     1      54.950  82.158  32.131  1.00  0.00     0.000 C 
BRANCH  21  22
ATOM     22  C   UNL     1      55.175  81.479  30.769  1.00  0.00     0.000 C 
BRANCH  22  23
ATOM     23  C   UNL     1      54.244  82.036  29.677  1.00  0.00     0.000 C 
BRANCH  23  24
ATOM     24  C   UNL     1      52.941  82.656  30.216  1.00  0.00    -0.000 C 
BRANCH  24  25
ATOM     25  C   UNL     1      52.517  83.917  29.445  1.00  0.00    -0.000 C 
BRANCH  25  26
ATOM     26  C   UNL     1      52.277  85.124  30.376  1.00  0.00    -0.000 C 
BRANCH  26  27
ATOM     27  C   UNL     1      52.554  84.829  31.863  1.00  0.00    -0.000 C 
BRANCH  27  28
ATOM     28  C   UNL     1      51.354  85.024  32.803  1.00  0.00    -0.000 C 
BRANCH  28  29
ATOM     29  C   UNL     1      50.000  84.858  32.089  1.00  0.00    -0.000 C 
BRANCH  29  30
ATOM     30  C   UNL     1      49.342  83.497  32.407  1.00  0.00    -0.000 C 
BRANCH  30  31
ATOM     31  C   UNL     1      48.691  82.829  31.186  1.00  0.00    -0.003 C 
ATOM     32  C   UNL     1      49.706  82.199  30.237  1.00  0.00     0.004 C 
ENDBRANCH  30  31
ENDBRANCH  29  30
ENDBRANCH  28  29
ENDBRANCH  27  28
ENDBRANCH  26  27
ENDBRANCH  25  26
ENDBRANCH  24  25
ENDBRANCH  23  24
ENDBRANCH  22  23
ENDBRANCH  21  22
ENDBRANCH  20  21
ENDBRANCH  19  20
ENDBRANCH  18  19
ENDBRANCH   1  18
TORSDOF 28
ENDMDL
MODEL 6
REMARK VINA RESULT:     1.771      4.312     11.881
REMARK INTER + INTRA:           2.564
REMARK INTER:                   4.624
REMARK INTRA:                  -2.060
REMARK UNBOUND:                -2.106
REMARK SMILES CCCCCCCCCCCCCCCCCCCCCCCCCCCCCC(=O)[O-]
REMARK SMILES IDX 16 1 17 2 18 3 19 4 20 5 21 6 22 7 23 8 24 9 25 10 26 11
REMARK SMILES IDX 27 12 28 13 29 14 30 15 31 16 32 17 15 18 14 19 13 20 12 21
REMARK SMILES IDX 11 22 10 23 9 24 8 25 7 26 6 27 5 28 4 29 3 30 2 31 1 32
REMARK H PARENT
REMARK Flexibility Score: inf
ROOT
ATOM      1  C   UNL     1      53.912  79.992  34.643  1.00  0.00     0.000 C 
ENDROOT
BRANCH   1   2
ATOM      2  C   UNL     1      53.869  81.370  33.964  1.00  0.00     0.000 C 
BRANCH   2   3
ATOM      3  C   UNL     1      53.688  81.285  32.438  1.00  0.00     0.000 C 
BRANCH   3   4
ATOM      4  C   UNL     1      52.225  81.243  31.960  1.00  0.00     0.000 C 
BRANCH   4   5
ATOM      5  C   UNL     1      52.097  81.004  30.444  1.00  0.00     0.000 C 
BRANCH   5   6
ATOM      6  C   UNL     1      52.792  82.092  29.613  1.00  0.00     0.000 C 
BRANCH   6   7
ATOM      7  C   UNL     1      54.063  81.580  28.911  1.00  0.00     0.000 C 
BRANCH   7   8
ATOM      8  C   UNL     1      55.326  81.741  29.770  1.00  0.00     0.000 C 
BRANCH   8   9
ATOM      9  C   UNL     1      56.160  82.975  29.382  1.00  0.00     0.000 C 
BRANCH   9  10
ATOM     10  C   UNL     1      55.392  84.297  29.598  1.00  0.00     0.000 C 
BRANCH  10  11
ATOM     11  C   UNL     1      55.840  85.085  30.843  1.00  0.00     0.000 C 
BRANCH  11  12
ATOM     12  C   UNL     1      54.944  84.832  32.065  1.00  0.00     0.000 C 
BRANCH  12  13
ATOM     13  C   UNL     1      53.449  84.740  31.704  1.00  0.00     0.006 C 
BRANCH  13  14
ATOM     14  C   UNL     1      52.495  85.125  32.846  1.00  0.00     0.053 C 
BRANCH  14  15
ATOM     15  C   UNL     1      51.058  84.901  32.483  1.00  0.00     0.041 C 
ATOM     16  O   UNL     1      50.191  84.750  33.384  1.00  0.00    -0.550 OA
ATOM     17  O   UNL     1      50.667  84.915  31.149  1.00  0.00    -0.550 OA
ENDBRANCH  14  15
ENDBRANCH  13  14
ENDBRANCH  12  13
ENDBRANCH  11  12
ENDBRANCH  10  11
ENDBRANCH   9  10
ENDBRANCH   8   9
ENDBRANCH   7   8
ENDBRANCH   6   7
ENDBRANCH   5   6
ENDBRANCH   4   5
ENDBRANCH   3   4
ENDBRANCH   2   3
ENDBRANCH   1   2
BRANCH   1  18
ATOM     18  C   UNL     1      52.867  79.901  35.764  1.00  0.00     0.000 C 
BRANCH  18  19
ATOM     19  C   UNL     1      53.497  79.732  37.160  1.00  0.00     0.000 C 
BRANCH  19  20
ATOM     20  C   UNL     1      52.965  80.694  38.242  1.00  0.00     0.000 C 
BRANCH  20  21
ATOM     21  C   UNL     1      51.432  80.829  38.298  1.00  0.00     0.000 C 
BRANCH  21  22
ATOM     22  C   UNL     1      50.798  79.992  39.422  1.00  0.00     0.000 C 
BRANCH  22  23
ATOM     23  C   UNL     1      49.407  79.457  39.039  1.00  0.00     0.000 C 
BRANCH  23  24
ATOM     24  C   UNL     1      48.252  80.430  39.343  1.00  0.00    -0.000 C 
BRANCH  24  25
ATOM     25  C   UNL     1      48.310  80.997  40.771  1.00  0.00    -0.000 C 
BRANCH  25  26
ATOM     26  C   UNL     1      49.018  82.368  40.832  1.00  0.00    -0.000 C 
BRANCH  26  27
ATOM     27  C   UNL     1      48.335  83.381  41.772  1.00  0.00    -0.000 C 
BRANCH  27  28
ATOM     28  C   UNL     1      48.572  83.143  43.272  1.00  0.00    -0.000 C 
BRANCH  28  29
ATOM     29  C   UNL     1      48.541  84.442  44.098  1.00  0.00    -0.000 C 
BRANCH  29  30
ATOM     30  C   UNL     1      49.678  84.491  45.142  1.00  0.00    -0.000 C 
BRANCH  30  31
ATOM     31  C   UNL     1      49.203  84.235  46.581  1.00  0.00    -0.003 C 
ATOM     32  C   UNL     1      48.780  82.790  46.823  1.00  0.00     0.004 C 
ENDBRANCH  30  31
ENDBRANCH  29  30
ENDBRANCH  28  29
ENDBRANCH  27  28
ENDBRANCH  26  27
ENDBRANCH  25  26
ENDBRANCH  24  25
ENDBRANCH  23  24
ENDBRANCH  22  23
ENDBRANCH  21  22
ENDBRANCH  20  21
ENDBRANCH  19  20
ENDBRANCH  18  19
ENDBRANCH   1  18
TORSDOF 28
ENDMDL
MODEL 7
REMARK VINA RESULT:     2.173      4.342     12.033
REMARK INTER + INTRA:           3.624
REMARK INTER:                   5.674
REMARK INTRA:                  -2.050
REMARK UNBOUND:                -2.106
REMARK SMILES CCCCCCCCCCCCCCCCCCCCCCCCCCCCCC(=O)[O-]
REMARK SMILES IDX 16 1 17 2 18 3 19 4 20 5 21 6 22 7 23 8 24 9 25 10 26 11
REMARK SMILES IDX 27 12 28 13 29 14 30 15 31 16 32 17 15 18 14 19 13 20 12 21
REMARK SMILES IDX 11 22 10 23 9 24 8 25 7 26 6 27 5 28 4 29 3 30 2 31 1 32
REMARK H PARENT
REMARK Flexibility Score: inf
ROOT
ATOM      1  C   UNL     1      53.497  81.214  34.651  1.00  0.00     0.000 C 
ENDROOT
BRANCH   1   2
ATOM      2  C   UNL     1      53.711  81.252  33.130  1.00  0.00     0.000 C 
BRANCH   2   3
ATOM      3  C   UNL     1      54.901  82.133  32.710  1.00  0.00     0.000 C 
BRANCH   3   4
ATOM      4  C   UNL     1      55.741  81.577  31.547  1.00  0.00     0.000 C 
BRANCH   4   5
ATOM      5  C   UNL     1      54.966  81.530  30.217  1.00  0.00     0.000 C 
BRANCH   5   6
ATOM      6  C   UNL     1      55.740  82.173  29.057  1.00  0.00     0.000 C 
BRANCH   6   7
ATOM      7  C   UNL     1      56.523  83.427  29.491  1.00  0.00     0.000 C 
BRANCH   7   8
ATOM      8  C   UNL     1      55.619  84.650  29.707  1.00  0.00     0.000 C 
BRANCH   8   9
ATOM      9  C   UNL     1      54.306  84.572  28.907  1.00  0.00     0.000 C 
BRANCH   9  10
ATOM     10  C   UNL     1      53.076  84.956  29.757  1.00  0.00     0.000 C 
BRANCH  10  11
ATOM     11  C   UNL     1      52.905  84.107  31.031  1.00  0.00     0.000 C 
BRANCH  11  12
ATOM     12  C   UNL     1      52.442  84.932  32.241  1.00  0.00     0.000 C 
BRANCH  12  13
ATOM     13  C   UNL     1      50.908  84.987  32.378  1.00  0.00     0.006 C 
BRANCH  13  14
ATOM     14  C   UNL     1      50.213  83.618  32.303  1.00  0.00     0.053 C 
BRANCH  14  15
ATOM     15  C   UNL     1      48.777  83.733  31.893  1.00  0.00     0.041 C 
ATOM     16  O   UNL     1      47.877  83.878  32.763  1.00  0.00    -0.550 OA
ATOM     17  O   UNL     1      48.435  83.737  30.546  1.00  0.00    -0.550 OA
ENDBRANCH  14  15
ENDBRANCH  13  14
ENDBRANCH  12  13
ENDBRANCH  11  12
ENDBRANCH  10  11
ENDBRANCH   9  10
ENDBRANCH   8   9
ENDBRANCH   7   8
ENDBRANCH   6   7
ENDBRANCH   5   6
ENDBRANCH   4   5
ENDBRANCH   3   4
ENDBRANCH   2   3
ENDBRANCH   1   2
BRANCH   1  18
ATOM     18  C   UNL     1      53.938  79.863  35.232  1.00  0.00     0.000 C 
BRANCH  18  19
ATOM     19  C   UNL     1      53.103  79.432  36.453  1.00  0.00     0.000 C 
BRANCH  19  20
ATOM     20  C   UNL     1      52.719  80.571  37.422  1.00  0.00     0.000 C 
BRANCH  20  21
ATOM     21  C   UNL     1      52.008  80.118  38.709  1.00  0.00     0.000 C 
BRANCH  21  22
ATOM     22  C   UNL     1      50.616  80.751  38.879  1.00  0.00     0.000 C 
BRANCH  22  23
ATOM     23  C   UNL     1      49.718  79.943  39.832  1.00  0.00     0.000 C 
BRANCH  23  24
ATOM     24  C   UNL     1      48.342  80.584  40.097  1.00  0.00    -0.000 C 
BRANCH  24  25
ATOM     25  C   UNL     1      48.304  81.396  41.402  1.00  0.00    -0.000 C 
BRANCH  25  26
ATOM     26  C   UNL     1      48.767  82.855  41.202  1.00  0.00    -0.000 C 
BRANCH  26  27
ATOM     27  C   UNL     1      48.130  83.851  42.190  1.00  0.00    -0.000 C 
BRANCH  27  28
ATOM     28  C   UNL     1      48.063  83.372  43.649  1.00  0.00    -0.000 C 
BRANCH  28  29
ATOM     29  C   UNL     1      49.276  83.823  44.485  1.00  0.00    -0.000 C 
BRANCH  29  30
ATOM     30  C   UNL     1      49.595  82.828  45.623  1.00  0.00    -0.000 C 
BRANCH  30  31
ATOM     31  C   UNL     1      48.416  81.915  45.990  1.00  0.00    -0.003 C 
ATOM     32  C   UNL     1      48.604  81.206  47.328  1.00  0.00     0.004 C 
ENDBRANCH  30  31
ENDBRANCH  29  30
ENDBRANCH  28  29
ENDBRANCH  27  28
ENDBRANCH  26  27
ENDBRANCH  25  26
ENDBRANCH  24  25
ENDBRANCH  23  24
ENDBRANCH  22  23
ENDBRANCH  21  22
ENDBRANCH  20  21
ENDBRANCH  19  20
ENDBRANCH  18  19
ENDBRANCH   1  18
TORSDOF 28
ENDMDL
MODEL 8
REMARK VINA RESULT:     2.222      1.811      2.770
REMARK INTER + INTRA:           3.752
REMARK INTER:                   5.390
REMARK INTRA:                  -1.638
REMARK UNBOUND:                -2.106
REMARK SMILES CCCCCCCCCCCCCCCCCCCCCCCCCCCCCC(=O)[O-]
REMARK SMILES IDX 16 1 17 2 18 3 19 4 20 5 21 6 22 7 23 8 24 9 25 10 26 11
REMARK SMILES IDX 27 12 28 13 29 14 30 15 31 16 32 17 15 18 14 19 13 20 12 21
REMARK SMILES IDX 11 22 10 23 9 24 8 25 7 26 6 27 5 28 4 29 3 30 2 31 1 32
REMARK H PARENT
REMARK Flexibility Score: inf
ROOT
ATOM      1  C   UNL     1      53.899  78.532  35.960  1.00  0.00     0.000 C 
ENDROOT
BRANCH   1   2
ATOM      2  C   UNL     1      53.878  79.304  37.288  1.00  0.00     0.000 C 
BRANCH   2   3
ATOM      3  C   UNL     1      53.029  80.587  37.227  1.00  0.00     0.000 C 
BRANCH   3   4
ATOM      4  C   UNL     1      52.825  81.294  38.579  1.00  0.00     0.000 C 
BRANCH   4   5
ATOM      5  C   UNL     1      51.354  81.303  39.034  1.00  0.00     0.000 C 
BRANCH   5   6
ATOM      6  C   UNL     1      50.679  79.932  38.885  1.00  0.00     0.000 C 
BRANCH   6   7
ATOM      7  C   UNL     1      49.180  79.969  39.237  1.00  0.00     0.000 C 
BRANCH   7   8
ATOM      8  C   UNL     1      48.922  80.288  40.717  1.00  0.00     0.000 C 
BRANCH   8   9
ATOM      9  C   UNL     1      47.875  81.400  40.914  1.00  0.00     0.000 C 
BRANCH   9  10
ATOM     10  C   UNL     1      48.513  82.804  40.983  1.00  0.00     0.000 C 
BRANCH  10  11
ATOM     11  C   UNL     1      48.024  83.656  42.169  1.00  0.00     0.000 C 
BRANCH  11  12
ATOM     12  C   UNL     1      49.042  83.717  43.320  1.00  0.00     0.000 C 
BRANCH  12  13
ATOM     13  C   UNL     1      48.611  82.889  44.546  1.00  0.00     0.006 C 
BRANCH  13  14
ATOM     14  C   UNL     1      49.480  83.105  45.795  1.00  0.00     0.053 C 
BRANCH  14  15
ATOM     15  C   UNL     1      50.555  84.124  45.569  1.00  0.00     0.041 C 
ATOM     16  O   UNL     1      50.653  85.125  46.328  1.00  0.00    -0.550 OA
ATOM     17  O   UNL     1      51.485  83.940  44.552  1.00  0.00    -0.550 OA
ENDBRANCH  14  15
ENDBRANCH  13  14
ENDBRANCH  12  13
ENDBRANCH  11  12
ENDBRANCH  10  11
ENDBRANCH   9  10
ENDBRANCH   8   9
ENDBRANCH   7   8
ENDBRANCH   6   7
ENDBRANCH   5   6
ENDBRANCH   4   5
ENDBRANCH   3   4
ENDBRANCH   2   3
ENDBRANCH   1   2
BRANCH   1  18
ATOM     18  C   UNL     1      53.102  79.279  34.881  1.00  0.00     0.000 C 
BRANCH  18  19
ATOM     19  C   UNL     1      53.989  80.162  33.983  1.00  0.00     0.000 C 
BRANCH  19  20
ATOM     20  C   UNL     1      53.252  81.303  33.250  1.00  0.00     0.000 C 
BRANCH  20  21
ATOM     21  C   UNL     1      54.131  82.509  32.873  1.00  0.00     0.000 C 
BRANCH  21  22
ATOM     22  C   UNL     1      55.414  82.107  32.126  1.00  0.00     0.000 C 
BRANCH  22  23
ATOM     23  C   UNL     1      55.387  82.532  30.647  1.00  0.00     0.000 C 
BRANCH  23  24
ATOM     24  C   UNL     1      55.026  81.395  29.671  1.00  0.00    -0.000 C 
BRANCH  24  25
ATOM     25  C   UNL     1      53.698  81.640  28.936  1.00  0.00    -0.000 C 
BRANCH  25  26
ATOM     26  C   UNL     1      52.507  81.789  29.906  1.00  0.00    -0.000 C 
BRANCH  26  27
ATOM     27  C   UNL     1      51.217  82.302  29.235  1.00  0.00    -0.000 C 
BRANCH  27  28
ATOM     28  C   UNL     1      51.165  83.820  28.997  1.00  0.00    -0.000 C 
BRANCH  28  29
ATOM     29  C   UNL     1      51.345  84.637  30.290  1.00  0.00    -0.000 C 
BRANCH  29  30
ATOM     30  C   UNL     1      50.083  84.598  31.179  1.00  0.00    -0.000 C 
BRANCH  30  31
ATOM     31  C   UNL     1      50.337  85.043  32.627  1.00  0.00    -0.003 C 
ATOM     32  C   UNL     1      51.812  85.001  33.015  1.00  0.00     0.004 C 
ENDBRANCH  30  31
ENDBRANCH  29  30
ENDBRANCH  28  29
ENDBRANCH  27  28
ENDBRANCH  26  27
ENDBRANCH  25  26
ENDBRANCH  24  25
ENDBRANCH  23  24
ENDBRANCH  22  23
ENDBRANCH  21  22
ENDBRANCH  20  21
ENDBRANCH  19  20
ENDBRANCH  18  19
ENDBRANCH   1  18
TORSDOF 28
ENDMDL
MODEL 9
REMARK VINA RESULT:     3.181      1.252      3.026
REMARK INTER + INTRA:           6.282
REMARK INTER:                   8.725
REMARK INTRA:                  -2.443
REMARK UNBOUND:                -2.106
REMARK SMILES CCCCCCCCCCCCCCCCCCCCCCCCCCCCCC(=O)[O-]
REMARK SMILES IDX 16 1 17 2 18 3 19 4 20 5 21 6 22 7 23 8 24 9 25 10 26 11
REMARK SMILES IDX 27 12 28 13 29 14 30 15 31 16 32 17 15 18 14 19 13 20 12 21
REMARK SMILES IDX 11 22 10 23 9 24 8 25 7 26 6 27 5 28 4 29 3 30 2 31 1 32
REMARK H PARENT
REMARK Flexibility Score: inf
ROOT
ATOM      1  C   UNL     1      53.699  79.436  33.730  1.00  0.00     0.000 C 
ENDROOT
BRANCH   1   2
ATOM      2  C   UNL     1      52.767  78.875  34.815  1.00  0.00     0.000 C 
BRANCH   2   3
ATOM      3  C   UNL     1      53.389  78.910  36.223  1.00  0.00     0.000 C 
BRANCH   3   4
ATOM      4  C   UNL     1      53.564  80.318  36.820  1.00  0.00     0.000 C 
BRANCH   4   5
ATOM      5  C   UNL     1      53.273  80.369  38.330  1.00  0.00     0.000 C 
BRANCH   5   6
ATOM      6  C   UNL     1      51.937  81.052  38.654  1.00  0.00     0.000 C 
BRANCH   6   7
ATOM      7  C   UNL     1      50.822  80.044  38.991  1.00  0.00     0.000 C 
BRANCH   7   8
ATOM      8  C   UNL     1      49.486  80.721  39.328  1.00  0.00     0.000 C 
BRANCH   8   9
ATOM      9  C   UNL     1      48.906  80.260  40.678  1.00  0.00     0.000 C 
BRANCH   9  10
ATOM     10  C   UNL     1      48.297  81.427  41.486  1.00  0.00     0.000 C 
BRANCH  10  11
ATOM     11  C   UNL     1      48.804  82.817  41.056  1.00  0.00     0.000 C 
BRANCH  11  12
ATOM     12  C   UNL     1      49.361  83.638  42.229  1.00  0.00     0.000 C 
BRANCH  12  13
ATOM     13  C   UNL     1      48.366  83.765  43.399  1.00  0.00     0.006 C 
BRANCH  13  14
ATOM     14  C   UNL     1      49.020  84.028  44.765  1.00  0.00     0.053 C 
BRANCH  14  15
ATOM     15  C   UNL     1      48.869  82.866  45.698  1.00  0.00     0.041 C 
ATOM     16  O   UNL     1      48.693  81.704  45.244  1.00  0.00    -0.550 OA
ATOM     17  O   UNL     1      48.980  83.056  47.070  1.00  0.00    -0.550 OA
ENDBRANCH  14  15
ENDBRANCH  13  14
ENDBRANCH  12  13
ENDBRANCH  11  12
ENDBRANCH  10  11
ENDBRANCH   9  10
ENDBRANCH   8   9
ENDBRANCH   7   8
ENDBRANCH   6   7
ENDBRANCH   5   6
ENDBRANCH   4   5
ENDBRANCH   3   4
ENDBRANCH   2   3
ENDBRANCH   1   2
BRANCH   1  18
ATOM     18  C   UNL     1      53.048  80.626  33.010  1.00  0.00     0.000 C 
BRANCH  18  19
ATOM     19  C   UNL     1      54.058  81.727  32.636  1.00  0.00     0.000 C 
BRANCH  19  20
ATOM     20  C   UNL     1      54.419  81.806  31.137  1.00  0.00     0.000 C 
BRANCH  20  21
ATOM     21  C   UNL     1      55.592  82.743  30.798  1.00  0.00     0.000 C 
BRANCH  21  22
ATOM     22  C   UNL     1      55.213  84.231  30.878  1.00  0.00     0.000 C 
BRANCH  22  23
ATOM     23  C   UNL     1      53.964  84.562  30.043  1.00  0.00     0.000 C 
BRANCH  23  24
ATOM     24  C   UNL     1      52.751  85.019  30.876  1.00  0.00    -0.000 C 
BRANCH  24  25
ATOM     25  C   UNL     1      53.066  85.125  32.378  1.00  0.00    -0.000 C 
BRANCH  25  26
ATOM     26  C   UNL     1      51.807  84.964  33.257  1.00  0.00    -0.000 C 
BRANCH  26  27
ATOM     27  C   UNL     1      50.483  85.119  32.482  1.00  0.00    -0.000 C 
BRANCH  27  28
ATOM     28  C   UNL     1      49.440  84.022  32.746  1.00  0.00    -0.000 C 
BRANCH  28  29
ATOM     29  C   UNL     1      48.137  84.229  31.951  1.00  0.00    -0.000 C 
BRANCH  29  30
ATOM     30  C   UNL     1      48.007  83.228  30.783  1.00  0.00    -0.000 C 
BRANCH  30  31
ATOM     31  C   UNL     1      49.309  82.474  30.471  1.00  0.00    -0.003 C 
ATOM     32  C   UNL     1      50.161  83.167  29.413  1.00  0.00     0.004 C 
ENDBRANCH  30  31
ENDBRANCH  29  30
ENDBRANCH  28  29
ENDBRANCH  27  28
ENDBRANCH  26  27
ENDBRANCH  25  26
ENDBRANCH  24  25
ENDBRANCH  23  24
ENDBRANCH  22  23
ENDBRANCH  21  22
ENDBRANCH  20  21
ENDBRANCH  19  20
ENDBRANCH  18  19
ENDBRANCH   1  18
TORSDOF 28
ENDMDL
