MODEL 1
REMARK VINA RESULT:    -6.963      0.000      0.000
REMARK INTER + INTRA:          -8.543
REMARK INTER:                  -8.387
REMARK INTRA:                  -0.156
REMARK UNBOUND:                -0.156
REMARK SMILES O=c1c(O)c(-c2ccc(O)c(O)c2)oc2cc(O)cc(O)c12
REMARK SMILES IDX 5 1 3 2 2 3 1 4 22 5 20 6 19 7 17 8 16 9 15 10 14 11 6 12
REMARK SMILES IDX 7 13 8 14 9 15 13 16 11 17 10 18 12 20 4 22 21 24 18 26
REMARK H PARENT 10 19 12 21 4 23 21 25 18 27
REMARK Flexibility Score: inf
ROOT
ATOM      1  C   UNL     1      -7.025   6.422  -9.824  1.00  0.00     0.180 A 
ATOM      2  C   UNL     1      -5.944   5.978  -9.044  1.00  0.00     0.208 A 
ATOM      3  C   UNL     1      -4.797   6.782  -8.949  1.00  0.00     0.238 A 
ATOM      4  O   UNL     1      -3.854   6.404  -8.205  1.00  0.00    -0.285 OA
ATOM      5  C   UNL     1      -4.738   8.012  -9.648  1.00  0.00     0.111 A 
ATOM      6  C   UNL     1      -3.610   8.886  -9.654  1.00  0.00     0.134 A 
ATOM      7  C   UNL     1      -3.712  10.139 -10.273  1.00  0.00     0.093 A 
ATOM      8  C   UNL     1      -4.879  10.519 -10.941  1.00  0.00     0.123 A 
ATOM      9  C   UNL     1      -5.963   9.648 -10.990  1.00  0.00     0.094 A 
ATOM     10  C   UNL     1      -5.905   8.407 -10.351  1.00  0.00     0.146 A 
ATOM     11  O   UNL     1      -6.965   7.611 -10.414  1.00  0.00    -0.452 OA
ENDROOT
BRANCH   1  12
ATOM     12  C   UNL     1      -8.258   5.619  -9.993  1.00  0.00     0.025 A 
ATOM     13  C   UNL     1      -9.091   5.394  -8.888  1.00  0.00     0.016 A 
ATOM     14  C   UNL     1     -10.267   4.656  -9.029  1.00  0.00     0.051 A 
ATOM     15  C   UNL     1     -10.644   4.144 -10.275  1.00  0.00     0.157 A 
ATOM     16  C   UNL     1      -8.644   5.126 -11.250  1.00  0.00     0.062 A 
ATOM     17  C   UNL     1      -9.825   4.388 -11.403  1.00  0.00     0.158 A 
BRANCH  15  18
ATOM     18  O   UNL     1     -11.829   3.409 -10.347  1.00  0.00    -0.504 OA
ATOM     19  H   UNL     1     -11.925   2.460 -10.016  1.00  0.00     0.293 HD
ENDBRANCH  15  18
BRANCH  17  20
ATOM     20  O   UNL     1     -10.145   3.927 -12.681  1.00  0.00    -0.504 OA
ATOM     21  H   UNL     1     -10.005   2.975 -12.989  1.00  0.00     0.293 HD
ENDBRANCH  17  20
ENDBRANCH   1  12
BRANCH   2  22
ATOM     22  O   UNL     1      -6.031   4.770  -8.346  1.00  0.00    -0.502 OA
ATOM     23  H   UNL     1      -6.034   3.871  -8.812  1.00  0.00     0.293 HD
ENDBRANCH   2  22
BRANCH   6  24
ATOM     24  O   UNL     1      -2.370   8.565  -9.097  1.00  0.00    -0.507 OA
ATOM     25  H   UNL     1      -1.670   9.239  -8.826  1.00  0.00     0.293 HD
ENDBRANCH   6  24
BRANCH   8  26
ATOM     26  O   UNL     1      -4.965  11.760 -11.568  1.00  0.00    -0.508 OA
ATOM     27  H   UNL     1      -5.431  11.873 -12.461  1.00  0.00     0.293 HD
ENDBRANCH   8  26
TORSDOF 6
ENDMDL
MODEL 2
REMARK VINA RESULT:    -6.731      2.921      4.812
REMARK INTER + INTRA:          -8.264
REMARK INTER:                  -7.983
REMARK INTRA:                  -0.281
REMARK UNBOUND:                -0.156
REMARK SMILES O=c1c(O)c(-c2ccc(O)c(O)c2)oc2cc(O)cc(O)c12
REMARK SMILES IDX 5 1 3 2 2 3 1 4 22 5 20 6 19 7 17 8 16 9 15 10 14 11 6 12
REMARK SMILES IDX 7 13 8 14 9 15 13 16 11 17 10 18 12 20 4 22 21 24 18 26
REMARK H PARENT 10 19 12 21 4 23 21 25 18 27
REMARK Flexibility Score: inf
ROOT
ATOM      1  C   UNL     1      -5.769   4.838  -9.685  1.00  0.00     0.180 A 
ATOM      2  C   UNL     1      -4.832   5.652 -10.345  1.00  0.00     0.208 A 
ATOM      3  C   UNL     1      -3.463   5.445 -10.111  1.00  0.00     0.238 A 
ATOM      4  O   UNL     1      -2.629   6.140 -10.746  1.00  0.00    -0.285 OA
ATOM      5  C   UNL     1      -3.048   4.438  -9.206  1.00  0.00     0.111 A 
ATOM      6  C   UNL     1      -1.690   4.168  -8.863  1.00  0.00     0.134 A 
ATOM      7  C   UNL     1      -1.388   3.062  -8.057  1.00  0.00     0.093 A 
ATOM      8  C   UNL     1      -2.401   2.257  -7.531  1.00  0.00     0.123 A 
ATOM      9  C   UNL     1      -3.733   2.549  -7.812  1.00  0.00     0.094 A 
ATOM     10  C   UNL     1      -4.064   3.623  -8.642  1.00  0.00     0.146 A 
ATOM     11  O   UNL     1      -5.345   3.859  -8.893  1.00  0.00    -0.452 OA
ENDROOT
BRANCH   1  12
ATOM     12  C   UNL     1      -7.228   5.013  -9.862  1.00  0.00     0.025 A 
ATOM     13  C   UNL     1      -7.962   5.714  -8.895  1.00  0.00     0.016 A 
ATOM     14  C   UNL     1      -9.335   5.907  -9.053  1.00  0.00     0.051 A 
ATOM     15  C   UNL     1     -10.000   5.421 -10.184  1.00  0.00     0.157 A 
ATOM     16  C   UNL     1      -7.887   4.542 -11.010  1.00  0.00     0.062 A 
ATOM     17  C   UNL     1      -9.265   4.734 -11.179  1.00  0.00     0.158 A 
BRANCH  15  18
ATOM     18  O   UNL     1     -11.375   5.641 -10.277  1.00  0.00    -0.504 OA
ATOM     19  H   UNL     1     -11.974   5.189 -10.953  1.00  0.00     0.293 HD
ENDBRANCH  15  18
BRANCH  17  20
ATOM     20  O   UNL     1      -9.854   4.237 -12.343  1.00  0.00    -0.504 OA
ATOM     21  H   UNL     1     -10.758   4.529 -12.688  1.00  0.00     0.293 HD
ENDBRANCH  17  20
ENDBRANCH   1  12
BRANCH   2  22
ATOM     22  O   UNL     1      -5.263   6.626 -11.250  1.00  0.00    -0.502 OA
ATOM     23  H   UNL     1      -6.002   7.283 -11.031  1.00  0.00     0.293 HD
ENDBRANCH   2  22
BRANCH   6  24
ATOM     24  O   UNL     1      -0.611   4.964  -9.259  1.00  0.00    -0.507 OA
ATOM     25  H   UNL     1       0.329   4.876  -8.904  1.00  0.00     0.293 HD
ENDBRANCH   6  24
BRANCH   8  26
ATOM     26  O   UNL     1      -2.092   1.169  -6.717  1.00  0.00    -0.508 OA
ATOM     27  H   UNL     1      -2.766   0.435  -6.535  1.00  0.00     0.293 HD
ENDBRANCH   8  26
TORSDOF 6
ENDMDL
MODEL 3
REMARK VINA RESULT:    -6.714      2.010      3.412
REMARK INTER + INTRA:          -8.243
REMARK INTER:                  -8.023
REMARK INTRA:                  -0.220
REMARK UNBOUND:                -0.156
REMARK SMILES O=c1c(O)c(-c2ccc(O)c(O)c2)oc2cc(O)cc(O)c12
REMARK SMILES IDX 5 1 3 2 2 3 1 4 22 5 20 6 19 7 17 8 16 9 15 10 14 11 6 12
REMARK SMILES IDX 7 13 8 14 9 15 13 16 11 17 10 18 12 20 4 22 21 24 18 26
REMARK H PARENT 10 19 12 21 4 23 21 25 18 27
REMARK Flexibility Score: inf
ROOT
ATOM      1  C   UNL     1      -6.311   5.869 -10.074  1.00  0.00     0.180 A 
ATOM      2  C   UNL     1      -6.006   7.234  -9.935  1.00  0.00     0.208 A 
ATOM      3  C   UNL     1      -4.660   7.626  -9.849  1.00  0.00     0.238 A 
ATOM      4  O   UNL     1      -4.392   8.854  -9.780  1.00  0.00    -0.285 OA
ATOM      5  C   UNL     1      -3.638   6.648  -9.887  1.00  0.00     0.111 A 
ATOM      6  C   UNL     1      -2.244   6.929  -9.768  1.00  0.00     0.134 A 
ATOM      7  C   UNL     1      -1.314   5.897  -9.950  1.00  0.00     0.093 A 
ATOM      8  C   UNL     1      -1.731   4.585 -10.182  1.00  0.00     0.123 A 
ATOM      9  C   UNL     1      -3.091   4.291 -10.241  1.00  0.00     0.094 A 
ATOM     10  C   UNL     1      -4.041   5.304 -10.099  1.00  0.00     0.146 A 
ATOM     11  O   UNL     1      -5.327   4.982 -10.172  1.00  0.00    -0.452 OA
ENDROOT
BRANCH   1  12
ATOM     12  C   UNL     1      -7.706   5.377 -10.146  1.00  0.00     0.025 A 
ATOM     13  C   UNL     1      -8.520   5.441  -9.006  1.00  0.00     0.016 A 
ATOM     14  C   UNL     1      -9.843   5.001  -9.057  1.00  0.00     0.051 A 
ATOM     15  C   UNL     1     -10.386   4.506 -10.247  1.00  0.00     0.157 A 
ATOM     16  C   UNL     1      -8.253   4.902 -11.349  1.00  0.00     0.062 A 
ATOM     17  C   UNL     1      -9.582   4.461 -11.411  1.00  0.00     0.158 A 
BRANCH  15  18
ATOM     18  O   UNL     1     -11.714   4.075 -10.230  1.00  0.00    -0.504 OA
ATOM     19  H   UNL     1     -12.046   3.291  -9.687  1.00  0.00     0.293 HD
ENDBRANCH  15  18
BRANCH  17  20
ATOM     20  O   UNL     1     -10.058   3.999 -12.639  1.00  0.00    -0.504 OA
ATOM     21  H   UNL     1      -9.967   4.507 -13.508  1.00  0.00     0.293 HD
ENDBRANCH  17  20
ENDBRANCH   1  12
BRANCH   2  22
ATOM     22  O   UNL     1      -7.030   8.185  -9.921  1.00  0.00    -0.502 OA
ATOM     23  H   UNL     1      -6.974   9.038  -9.377  1.00  0.00     0.293 HD
ENDBRANCH   2  22
BRANCH   6  24
ATOM     24  O   UNL     1      -1.725   8.186  -9.447  1.00  0.00    -0.507 OA
ATOM     25  H   UNL     1      -1.009   8.664  -9.973  1.00  0.00     0.293 HD
ENDBRANCH   6  24
BRANCH   8  26
ATOM     26  O   UNL     1      -0.799   3.562 -10.346  1.00  0.00    -0.508 OA
ATOM     27  H   UNL     1       0.139   3.633  -9.971  1.00  0.00     0.293 HD
ENDBRANCH   8  26
TORSDOF 6
ENDMDL
MODEL 4
REMARK VINA RESULT:    -6.615      1.715      3.376
REMARK INTER + INTRA:          -8.124
REMARK INTER:                  -7.805
REMARK INTRA:                  -0.319
REMARK UNBOUND:                -0.156
REMARK SMILES O=c1c(O)c(-c2ccc(O)c(O)c2)oc2cc(O)cc(O)c12
REMARK SMILES IDX 5 1 3 2 2 3 1 4 22 5 20 6 19 7 17 8 16 9 15 10 14 11 6 12
REMARK SMILES IDX 7 13 8 14 9 15 13 16 11 17 10 18 12 20 4 22 21 24 18 26
REMARK H PARENT 10 19 12 21 4 23 21 25 18 27
REMARK Flexibility Score: inf
ROOT
ATOM      1  C   UNL     1      -6.233   7.242  -9.569  1.00  0.00     0.180 A 
ATOM      2  C   UNL     1      -5.809   8.408 -10.231  1.00  0.00     0.208 A 
ATOM      3  C   UNL     1      -4.547   8.942  -9.928  1.00  0.00     0.238 A 
ATOM      4  O   UNL     1      -4.151   9.954 -10.562  1.00  0.00    -0.285 OA
ATOM      5  C   UNL     1      -3.731   8.314  -8.956  1.00  0.00     0.111 A 
ATOM      6  C   UNL     1      -2.451   8.792  -8.542  1.00  0.00     0.134 A 
ATOM      7  C   UNL     1      -1.675   8.018  -7.669  1.00  0.00     0.093 A 
ATOM      8  C   UNL     1      -2.160   6.818  -7.146  1.00  0.00     0.123 A 
ATOM      9  C   UNL     1      -3.432   6.374  -7.498  1.00  0.00     0.094 A 
ATOM     10  C   UNL     1      -4.215   7.104  -8.395  1.00  0.00     0.146 A 
ATOM     11  O   UNL     1      -5.418   6.639  -8.711  1.00  0.00    -0.452 OA
ENDROOT
BRANCH   1  12
ATOM     12  C   UNL     1      -7.560   6.634  -9.817  1.00  0.00     0.025 A 
ATOM     13  C   UNL     1      -8.653   7.015  -9.026  1.00  0.00     0.016 A 
ATOM     14  C   UNL     1      -9.917   6.469  -9.256  1.00  0.00     0.051 A 
ATOM     15  C   UNL     1     -10.119   5.547 -10.287  1.00  0.00     0.157 A 
ATOM     16  C   UNL     1      -7.764   5.725 -10.869  1.00  0.00     0.062 A 
ATOM     17  C   UNL     1      -9.030   5.174 -11.110  1.00  0.00     0.158 A 
BRANCH  15  18
ATOM     18  O   UNL     1     -11.406   5.033 -10.460  1.00  0.00    -0.504 OA
ATOM     19  H   UNL     1     -11.679   4.442 -11.232  1.00  0.00     0.293 HD
ENDBRANCH  15  18
BRANCH  17  20
ATOM     20  O   UNL     1      -9.158   4.275 -12.170  1.00  0.00    -0.504 OA
ATOM     21  H   UNL     1      -9.134   3.270 -12.064  1.00  0.00     0.293 HD
ENDBRANCH  17  20
ENDBRANCH   1  12
BRANCH   2  22
ATOM     22  O   UNL     1      -6.622   8.999 -11.201  1.00  0.00    -0.502 OA
ATOM     23  H   UNL     1      -6.365   9.030 -12.181  1.00  0.00     0.293 HD
ENDBRANCH   2  22
BRANCH   6  24
ATOM     24  O   UNL     1      -1.913  10.021  -8.933  1.00  0.00    -0.507 OA
ATOM     25  H   UNL     1      -1.365  10.623  -8.338  1.00  0.00     0.293 HD
ENDBRANCH   6  24
BRANCH   8  26
ATOM     26  O   UNL     1      -1.388   6.063  -6.265  1.00  0.00    -0.508 OA
ATOM     27  H   UNL     1      -0.718   5.381  -6.598  1.00  0.00     0.293 HD
ENDBRANCH   8  26
TORSDOF 6
ENDMDL
MODEL 5
REMARK VINA RESULT:    -6.534      1.953      3.752
REMARK INTER + INTRA:          -8.027
REMARK INTER:                  -7.753
REMARK INTRA:                  -0.274
REMARK UNBOUND:                -0.156
REMARK SMILES O=c1c(O)c(-c2ccc(O)c(O)c2)oc2cc(O)cc(O)c12
REMARK SMILES IDX 5 1 3 2 2 3 1 4 22 5 20 6 19 7 17 8 16 9 15 10 14 11 6 12
REMARK SMILES IDX 7 13 8 14 9 15 13 16 11 17 10 18 12 20 4 22 21 24 18 26
REMARK H PARENT 10 19 12 21 4 23 21 25 18 27
REMARK Flexibility Score: inf
ROOT
ATOM      1  C   UNL     1      -6.016   8.206  -9.975  1.00  0.00     0.180 A 
ATOM      2  C   UNL     1      -5.983   9.431 -10.664  1.00  0.00     0.208 A 
ATOM      3  C   UNL     1      -5.099  10.433 -10.231  1.00  0.00     0.238 A 
ATOM      4  O   UNL     1      -5.036  11.506 -10.885  1.00  0.00    -0.285 OA
ATOM      5  C   UNL     1      -4.273  10.204  -9.105  1.00  0.00     0.111 A 
ATOM      6  C   UNL     1      -3.371  11.164  -8.555  1.00  0.00     0.134 A 
ATOM      7  C   UNL     1      -2.506  10.784  -7.520  1.00  0.00     0.093 A 
ATOM      8  C   UNL     1      -2.559   9.500  -6.972  1.00  0.00     0.123 A 
ATOM      9  C   UNL     1      -3.478   8.576  -7.462  1.00  0.00     0.094 A 
ATOM     10  C   UNL     1      -4.327   8.913  -8.519  1.00  0.00     0.146 A 
ATOM     11  O   UNL     1      -5.181   7.999  -8.963  1.00  0.00    -0.452 OA
ENDROOT
BRANCH   1  12
ATOM     12  C   UNL     1      -6.938   7.112 -10.357  1.00  0.00     0.025 A 
ATOM     13  C   UNL     1      -6.423   5.955 -10.958  1.00  0.00     0.016 A 
ATOM     14  C   UNL     1      -7.272   4.903 -11.308  1.00  0.00     0.051 A 
ATOM     15  C   UNL     1      -8.645   4.978 -11.050  1.00  0.00     0.157 A 
ATOM     16  C   UNL     1      -8.312   7.181 -10.076  1.00  0.00     0.062 A 
ATOM     17  C   UNL     1      -9.172   6.129 -10.420  1.00  0.00     0.158 A 
BRANCH  15  18
ATOM     18  O   UNL     1      -9.439   3.894 -11.431  1.00  0.00    -0.504 OA
ATOM     19  H   UNL     1     -10.096   3.434 -10.818  1.00  0.00     0.293 HD
ENDBRANCH  15  18
BRANCH  17  20
ATOM     20  O   UNL     1     -10.527   6.268 -10.113  1.00  0.00    -0.504 OA
ATOM     21  H   UNL     1     -10.879   6.837  -9.356  1.00  0.00     0.293 HD
ENDBRANCH  17  20
ENDBRANCH   1  12
BRANCH   2  22
ATOM     22  O   UNL     1      -6.792   9.628 -11.786  1.00  0.00    -0.502 OA
ATOM     23  H   UNL     1      -7.716  10.039 -11.725  1.00  0.00     0.293 HD
ENDBRANCH   2  22
BRANCH   6  24
ATOM     24  O   UNL     1      -3.303  12.497  -8.967  1.00  0.00    -0.507 OA
ATOM     25  H   UNL     1      -2.448  12.992  -9.173  1.00  0.00     0.293 HD
ENDBRANCH   6  24
BRANCH   8  26
ATOM     26  O   UNL     1      -1.707   9.136  -5.931  1.00  0.00    -0.508 OA
ATOM     27  H   UNL     1      -0.858   9.653  -5.735  1.00  0.00     0.293 HD
ENDBRANCH   8  26
TORSDOF 6
ENDMDL
MODEL 6
REMARK VINA RESULT:    -6.437      1.574      1.751
REMARK INTER + INTRA:          -7.910
REMARK INTER:                  -7.719
REMARK INTRA:                  -0.191
REMARK UNBOUND:                -0.156
REMARK SMILES O=c1c(O)c(-c2ccc(O)c(O)c2)oc2cc(O)cc(O)c12
REMARK SMILES IDX 5 1 3 2 2 3 1 4 22 5 20 6 19 7 17 8 16 9 15 10 14 11 6 12
REMARK SMILES IDX 7 13 8 14 9 15 13 16 11 17 10 18 12 20 4 22 21 24 18 26
REMARK H PARENT 10 19 12 21 4 23 21 25 18 27
REMARK Flexibility Score: inf
ROOT
ATOM      1  C   UNL     1      -6.184   5.883  -9.918  1.00  0.00     0.180 A 
ATOM      2  C   UNL     1      -5.079   5.041 -10.129  1.00  0.00     0.208 A 
ATOM      3  C   UNL     1      -3.785   5.577 -10.033  1.00  0.00     0.238 A 
ATOM      4  O   UNL     1      -2.800   4.806 -10.169  1.00  0.00    -0.285 OA
ATOM      5  C   UNL     1      -3.612   6.952  -9.743  1.00  0.00     0.111 A 
ATOM      6  C   UNL     1      -2.349   7.609  -9.662  1.00  0.00     0.134 A 
ATOM      7  C   UNL     1      -2.291   8.944  -9.239  1.00  0.00     0.093 A 
ATOM      8  C   UNL     1      -3.456   9.662  -8.959  1.00  0.00     0.123 A 
ATOM      9  C   UNL     1      -4.697   9.045  -9.094  1.00  0.00     0.094 A 
ATOM     10  C   UNL     1      -4.785   7.705  -9.477  1.00  0.00     0.146 A 
ATOM     11  O   UNL     1      -5.988   7.153  -9.583  1.00  0.00    -0.452 OA
ENDROOT
BRANCH   1  12
ATOM     12  C   UNL     1      -7.578   5.396 -10.027  1.00  0.00     0.025 A 
ATOM     13  C   UNL     1      -8.417   5.447  -8.905  1.00  0.00     0.016 A 
ATOM     14  C   UNL     1      -9.740   5.012  -8.991  1.00  0.00     0.051 A 
ATOM     15  C   UNL     1     -10.257   4.533 -10.199  1.00  0.00     0.157 A 
ATOM     16  C   UNL     1      -8.100   4.938 -11.248  1.00  0.00     0.062 A 
ATOM     17  C   UNL     1      -9.429   4.502 -11.346  1.00  0.00     0.158 A 
BRANCH  15  18
ATOM     18  O   UNL     1     -11.587   4.107 -10.217  1.00  0.00    -0.504 OA
ATOM     19  H   UNL     1     -12.344   4.600  -9.766  1.00  0.00     0.293 HD
ENDBRANCH  15  18
BRANCH  17  20
ATOM     20  O   UNL     1      -9.878   4.057 -12.590  1.00  0.00    -0.504 OA
ATOM     21  H   UNL     1      -9.590   4.458 -13.471  1.00  0.00     0.293 HD
ENDBRANCH  17  20
ENDBRANCH   1  12
BRANCH   2  22
ATOM     22  O   UNL     1      -5.272   3.682 -10.393  1.00  0.00    -0.502 OA
ATOM     23  H   UNL     1      -6.176   3.300 -10.644  1.00  0.00     0.293 HD
ENDBRANCH   2  22
BRANCH   6  24
ATOM     24  O   UNL     1      -1.134   7.012 -10.008  1.00  0.00    -0.507 OA
ATOM     25  H   UNL     1      -0.276   7.514 -10.184  1.00  0.00     0.293 HD
ENDBRANCH   6  24
BRANCH   8  26
ATOM     26  O   UNL     1      -3.390  10.994  -8.556  1.00  0.00    -0.508 OA
ATOM     27  H   UNL     1      -3.586  11.269  -7.601  1.00  0.00     0.293 HD
ENDBRANCH   8  26
TORSDOF 6
ENDMDL
MODEL 7
REMARK VINA RESULT:    -6.384     10.854     13.061
REMARK INTER + INTRA:          -7.846
REMARK INTER:                  -7.516
REMARK INTRA:                  -0.330
REMARK UNBOUND:                -0.156
REMARK SMILES O=c1c(O)c(-c2ccc(O)c(O)c2)oc2cc(O)cc(O)c12
REMARK SMILES IDX 5 1 3 2 2 3 1 4 22 5 20 6 19 7 17 8 16 9 15 10 14 11 6 12
REMARK SMILES IDX 7 13 8 14 9 15 13 16 11 17 10 18 12 20 4 22 21 24 18 26
REMARK H PARENT 10 19 12 21 4 23 21 25 18 27
REMARK Flexibility Score: inf
ROOT
ATOM      1  C   UNL     1      -0.189   8.096 -19.214  1.00  0.00     0.180 A 
ATOM      2  C   UNL     1      -0.856   6.911 -18.857  1.00  0.00     0.208 A 
ATOM      3  C   UNL     1      -0.522   5.716 -19.515  1.00  0.00     0.238 A 
ATOM      4  O   UNL     1      -1.084   4.650 -19.154  1.00  0.00    -0.285 OA
ATOM      5  C   UNL     1       0.462   5.724 -20.533  1.00  0.00     0.111 A 
ATOM      6  C   UNL     1       0.849   4.580 -21.293  1.00  0.00     0.134 A 
ATOM      7  C   UNL     1       1.927   4.676 -22.184  1.00  0.00     0.093 A 
ATOM      8  C   UNL     1       2.586   5.890 -22.389  1.00  0.00     0.123 A 
ATOM      9  C   UNL     1       2.175   7.026 -21.696  1.00  0.00     0.094 A 
ATOM     10  C   UNL     1       1.129   6.953 -20.773  1.00  0.00     0.146 A 
ATOM     11  O   UNL     1       0.776   8.057 -20.126  1.00  0.00    -0.452 OA
ENDROOT
BRANCH   1  12
ATOM     12  C   UNL     1      -0.503   9.398 -18.582  1.00  0.00     0.025 A 
ATOM     13  C   UNL     1       0.295   9.863 -17.528  1.00  0.00     0.016 A 
ATOM     14  C   UNL     1       0.028  11.097 -16.931  1.00  0.00     0.051 A 
ATOM     15  C   UNL     1      -1.026  11.896 -17.385  1.00  0.00     0.157 A 
ATOM     16  C   UNL     1      -1.548  10.207 -19.056  1.00  0.00     0.062 A 
ATOM     17  C   UNL     1      -1.822  11.449 -18.466  1.00  0.00     0.158 A 
BRANCH  15  18
ATOM     18  O   UNL     1      -1.244  13.116 -16.741  1.00  0.00    -0.504 OA
ATOM     19  H   UNL     1      -1.906  13.247 -15.990  1.00  0.00     0.293 HD
ENDBRANCH  15  18
BRANCH  17  20
ATOM     20  O   UNL     1      -2.878  12.199 -18.987  1.00  0.00    -0.504 OA
ATOM     21  H   UNL     1      -2.960  13.201 -18.890  1.00  0.00     0.293 HD
ENDBRANCH  17  20
ENDBRANCH   1  12
BRANCH   2  22
ATOM     22  O   UNL     1      -1.809   6.922 -17.835  1.00  0.00    -0.502 OA
ATOM     23  H   UNL     1      -2.632   7.512 -17.865  1.00  0.00     0.293 HD
ENDBRANCH   2  22
BRANCH   6  24
ATOM     24  O   UNL     1       0.199   3.345 -21.232  1.00  0.00    -0.507 OA
ATOM     25  H   UNL     1      -0.803   3.223 -21.218  1.00  0.00     0.293 HD
ENDBRANCH   6  24
BRANCH   8  26
ATOM     26  O   UNL     1       3.645   5.980 -23.289  1.00  0.00    -0.508 OA
ATOM     27  H   UNL     1       4.467   5.395 -23.201  1.00  0.00     0.293 HD
ENDBRANCH   8  26
TORSDOF 6
ENDMDL
MODEL 8
REMARK VINA RESULT:    -6.205     10.646     12.247
REMARK INTER + INTRA:          -7.630
REMARK INTER:                  -7.311
REMARK INTRA:                  -0.319
REMARK UNBOUND:                -0.156
REMARK SMILES O=c1c(O)c(-c2ccc(O)c(O)c2)oc2cc(O)cc(O)c12
REMARK SMILES IDX 5 1 3 2 2 3 1 4 22 5 20 6 19 7 17 8 16 9 15 10 14 11 6 12
REMARK SMILES IDX 7 13 8 14 9 15 13 16 11 17 10 18 12 20 4 22 21 24 18 26
REMARK H PARENT 10 19 12 21 4 23 21 25 18 27
REMARK Flexibility Score: inf
ROOT
ATOM      1  C   UNL     1       0.438   7.593 -19.157  1.00  0.00     0.180 A 
ATOM      2  C   UNL     1       1.021   7.663 -17.880  1.00  0.00     0.208 A 
ATOM      3  C   UNL     1       0.724   8.759 -17.053  1.00  0.00     0.238 A 
ATOM      4  O   UNL     1       1.206   8.788 -15.892  1.00  0.00    -0.285 OA
ATOM      5  C   UNL     1      -0.139   9.779 -17.520  1.00  0.00     0.111 A 
ATOM      6  C   UNL     1      -0.477  10.953 -16.783  1.00  0.00     0.134 A 
ATOM      7  C   UNL     1      -1.444  11.832 -17.290  1.00  0.00     0.093 A 
ATOM      8  C   UNL     1      -2.036  11.611 -18.536  1.00  0.00     0.123 A 
ATOM      9  C   UNL     1      -1.668  10.499 -19.288  1.00  0.00     0.094 A 
ATOM     10  C   UNL     1      -0.734   9.585 -18.794  1.00  0.00     0.146 A 
ATOM     11  O   UNL     1      -0.420   8.533 -19.540  1.00  0.00    -0.452 OA
ENDROOT
BRANCH   1  12
ATOM     12  C   UNL     1       0.722   6.482 -20.093  1.00  0.00     0.025 A 
ATOM     13  C   UNL     1      -0.046   5.312 -20.029  1.00  0.00     0.016 A 
ATOM     14  C   UNL     1       0.192   4.260 -20.915  1.00  0.00     0.051 A 
ATOM     15  C   UNL     1       1.188   4.362 -21.893  1.00  0.00     0.157 A 
ATOM     16  C   UNL     1       1.708   6.598 -21.088  1.00  0.00     0.062 A 
ATOM     17  C   UNL     1       1.952   5.549 -21.985  1.00  0.00     0.158 A 
BRANCH  15  18
ATOM     18  O   UNL     1       1.380   3.272 -22.744  1.00  0.00    -0.504 OA
ATOM     19  H   UNL     1       1.558   3.355 -23.735  1.00  0.00     0.293 HD
ENDBRANCH  15  18
BRANCH  17  20
ATOM     20  O   UNL     1       2.949   5.733 -22.945  1.00  0.00    -0.504 OA
ATOM     21  H   UNL     1       3.750   5.126 -23.050  1.00  0.00     0.293 HD
ENDBRANCH  17  20
ENDBRANCH   1  12
BRANCH   2  22
ATOM     22  O   UNL     1       1.854   6.634 -17.431  1.00  0.00    -0.502 OA
ATOM     23  H   UNL     1       2.809   6.797 -17.135  1.00  0.00     0.293 HD
ENDBRANCH   2  22
BRANCH   6  24
ATOM     24  O   UNL     1       0.122  11.315 -15.573  1.00  0.00    -0.507 OA
ATOM     25  H   UNL     1       0.771  12.079 -15.459  1.00  0.00     0.293 HD
ENDBRANCH   6  24
BRANCH   8  26
ATOM     26  O   UNL     1      -2.984  12.499 -19.039  1.00  0.00    -0.508 OA
ATOM     27  H   UNL     1      -2.754  13.464 -19.239  1.00  0.00     0.293 HD
ENDBRANCH   8  26
TORSDOF 6
ENDMDL
MODEL 9
REMARK VINA RESULT:    -6.167      3.240      6.286
REMARK INTER + INTRA:          -7.585
REMARK INTER:                  -7.295
REMARK INTRA:                  -0.290
REMARK UNBOUND:                -0.156
REMARK SMILES O=c1c(O)c(-c2ccc(O)c(O)c2)oc2cc(O)cc(O)c12
REMARK SMILES IDX 5 1 3 2 2 3 1 4 22 5 20 6 19 7 17 8 16 9 15 10 14 11 6 12
REMARK SMILES IDX 7 13 8 14 9 15 13 16 11 17 10 18 12 20 4 22 21 24 18 26
REMARK H PARENT 10 19 12 21 4 23 21 25 18 27
REMARK Flexibility Score: inf
ROOT
ATOM      1  C   UNL     1      -4.386   5.013  -8.649  1.00  0.00     0.180 A 
ATOM      2  C   UNL     1      -4.172   6.381  -8.402  1.00  0.00     0.208 A 
ATOM      3  C   UNL     1      -5.054   7.320  -8.959  1.00  0.00     0.238 A 
ATOM      4  O   UNL     1      -4.889   8.538  -8.690  1.00  0.00    -0.285 OA
ATOM      5  C   UNL     1      -6.130   6.882  -9.770  1.00  0.00     0.111 A 
ATOM      6  C   UNL     1      -7.060   7.749 -10.417  1.00  0.00     0.134 A 
ATOM      7  C   UNL     1      -8.162   7.201 -11.087  1.00  0.00     0.093 A 
ATOM      8  C   UNL     1      -8.329   5.818 -11.188  1.00  0.00     0.123 A 
ATOM      9  C   UNL     1      -7.394   4.965 -10.610  1.00  0.00     0.094 A 
ATOM     10  C   UNL     1      -6.305   5.480  -9.904  1.00  0.00     0.146 A 
ATOM     11  O   UNL     1      -5.442   4.631  -9.359  1.00  0.00    -0.452 OA
ENDROOT
BRANCH   1  12
ATOM     12  C   UNL     1      -3.485   3.966  -8.117  1.00  0.00     0.025 A 
ATOM     13  C   UNL     1      -2.258   3.725  -8.750  1.00  0.00     0.016 A 
ATOM     14  C   UNL     1      -1.384   2.756  -8.253  1.00  0.00     0.051 A 
ATOM     15  C   UNL     1      -1.709   2.022  -7.108  1.00  0.00     0.157 A 
ATOM     16  C   UNL     1      -3.805   3.247  -6.953  1.00  0.00     0.062 A 
ATOM     17  C   UNL     1      -2.933   2.276  -6.444  1.00  0.00     0.158 A 
BRANCH  15  18
ATOM     18  O   UNL     1      -0.795   1.063  -6.666  1.00  0.00    -0.504 OA
ATOM     19  H   UNL     1      -0.397   0.349  -7.258  1.00  0.00     0.293 HD
ENDBRANCH  15  18
BRANCH  17  20
ATOM     20  O   UNL     1      -3.318   1.598  -5.285  1.00  0.00    -0.504 OA
ATOM     21  H   UNL     1      -3.663   2.055  -4.453  1.00  0.00     0.293 HD
ENDBRANCH  17  20
ENDBRANCH   1  12
BRANCH   2  22
ATOM     22  O   UNL     1      -3.117   6.789  -7.582  1.00  0.00    -0.502 OA
ATOM     23  H   UNL     1      -2.953   6.389  -6.666  1.00  0.00     0.293 HD
ENDBRANCH   2  22
BRANCH   6  24
ATOM     24  O   UNL     1      -6.935   9.140 -10.456  1.00  0.00    -0.507 OA
ATOM     25  H   UNL     1      -7.250   9.724 -11.216  1.00  0.00     0.293 HD
ENDBRANCH   6  24
BRANCH   8  26
ATOM     26  O   UNL     1      -9.420   5.283 -11.870  1.00  0.00    -0.508 OA
ATOM     27  H   UNL     1     -10.371   5.465 -11.576  1.00  0.00     0.293 HD
ENDBRANCH   8  26
TORSDOF 6
ENDMDL
