MODEL 1
REMARK VINA RESULT:    -5.797      0.000      0.000
REMARK INTER + INTRA:         -17.806
REMARK INTER:                 -14.607
REMARK INTRA:                  -3.199
REMARK UNBOUND:                -3.199
REMARK SMILES CCCCCCCCCCCCCCCCCCCCCCCCCCCC(=O)[O-]
REMARK SMILES IDX 15 1 16 2 17 3 18 4 19 5 20 6 21 7 22 8 23 9 24 10 25 11
REMARK SMILES IDX 26 12 27 13 28 14 29 15 30 16 14 17 13 18 12 19 11 20 10 21
REMARK SMILES IDX 9 22 8 23 7 24 6 25 5 26 4 27 3 28 2 29 1 30
REMARK H PARENT
REMARK Flexibility Score: inf
ROOT
ATOM      1  C   UNL     1      89.230 324.956 200.858  1.00  0.00     0.000 C 
ENDROOT
BRANCH   1   2
ATOM      2  C   UNL     1      89.576 326.334 200.262  1.00  0.00     0.000 C 
BRANCH   2   3
ATOM      3  C   UNL     1      88.877 326.630 198.920  1.00  0.00     0.000 C 
BRANCH   3   4
ATOM      4  C   UNL     1      88.794 325.389 198.017  1.00  0.00     0.000 C 
BRANCH   4   5
ATOM      5  C   UNL     1      87.998 325.692 196.742  1.00  0.00     0.000 C 
BRANCH   5   6
ATOM      6  C   UNL     1      88.896 325.928 195.515  1.00  0.00     0.000 C 
BRANCH   6   7
ATOM      7  C   UNL     1      88.174 326.618 194.338  1.00  0.00     0.000 C 
BRANCH   7   8
ATOM      8  C   UNL     1      86.687 326.228 194.248  1.00  0.00     0.000 C 
BRANCH   8   9
ATOM      9  C   UNL     1      86.443 325.051 193.290  1.00  0.00     0.000 C 
BRANCH   9  10
ATOM     10  C   UNL     1      87.652 324.751 192.388  1.00  0.00     0.000 C 
BRANCH  10  11
ATOM     11  C   UNL     1      88.160 323.319 192.614  1.00  0.00     0.000 C 
BRANCH  11  12
ATOM     12  C   UNL     1      88.327 322.529 191.304  1.00  0.00     0.006 C 
BRANCH  12  13
ATOM     13  C   UNL     1      88.676 323.397 190.085  1.00  0.00     0.053 C 
BRANCH  13  14
ATOM     14  C   UNL     1      89.236 322.585 188.958  1.00  0.00     0.041 C 
ATOM     15  O   UNL     1      90.318 322.923 188.411  1.00  0.00    -0.550 OA
ATOM     16  O   UNL     1      88.573 321.443 188.523  1.00  0.00    -0.550 OA
ENDBRANCH  13  14
ENDBRANCH  12  13
ENDBRANCH  11  12
ENDBRANCH  10  11
ENDBRANCH   9  10
ENDBRANCH   8   9
ENDBRANCH   7   8
ENDBRANCH   6   7
ENDBRANCH   5   6
ENDBRANCH   4   5
ENDBRANCH   3   4
ENDBRANCH   2   3
ENDBRANCH   1   2
BRANCH   1  17
ATOM     17  C   UNL     1      88.179 325.000 201.988  1.00  0.00     0.000 C 
BRANCH  17  18
ATOM     18  C   UNL     1      88.597 324.224 203.249  1.00  0.00     0.000 C 
BRANCH  18  19
ATOM     19  C   UNL     1      87.433 323.427 203.856  1.00  0.00     0.000 C 
BRANCH  19  20
ATOM     20  C   UNL     1      87.417 323.550 205.385  1.00  0.00     0.000 C 
BRANCH  20  21
ATOM     21  C   UNL     1      86.617 324.785 205.831  1.00  0.00     0.000 C 
BRANCH  21  22
ATOM     22  C   UNL     1      87.437 325.740 206.719  1.00  0.00    -0.000 C 
BRANCH  22  23
ATOM     23  C   UNL     1      88.926 325.371 206.867  1.00  0.00    -0.000 C 
BRANCH  23  24
ATOM     24  C   UNL     1      89.902 326.265 206.076  1.00  0.00    -0.000 C 
BRANCH  24  25
ATOM     25  C   UNL     1      89.235 327.278 205.123  1.00  0.00    -0.000 C 
BRANCH  25  26
ATOM     26  C   UNL     1      90.033 327.592 203.843  1.00  0.00    -0.000 C 
BRANCH  26  27
ATOM     27  C   UNL     1      91.512 327.157 203.871  1.00  0.00    -0.000 C 
BRANCH  27  28
ATOM     28  C   UNL     1      92.190 327.068 202.492  1.00  0.00    -0.000 C 
BRANCH  28  29
ATOM     29  C   UNL     1      92.962 325.757 202.289  1.00  0.00    -0.003 C 
ATOM     30  C   UNL     1      92.295 324.607 203.037  1.00  0.00     0.004 C 
ENDBRANCH  28  29
ENDBRANCH  27  28
ENDBRANCH  26  27
ENDBRANCH  25  26
ENDBRANCH  24  25
ENDBRANCH  23  24
ENDBRANCH  22  23
ENDBRANCH  21  22
ENDBRANCH  20  21
ENDBRANCH  19  20
ENDBRANCH  18  19
ENDBRANCH  17  18
ENDBRANCH   1  17
TORSDOF 26
ENDMDL
MODEL 2
REMARK VINA RESULT:    -5.789      3.415     11.707
REMARK INTER + INTRA:         -17.786
REMARK INTER:                 -15.421
REMARK INTRA:                  -2.365
REMARK UNBOUND:                -3.199
REMARK SMILES CCCCCCCCCCCCCCCCCCCCCCCCCCCC(=O)[O-]
REMARK SMILES IDX 15 1 16 2 17 3 18 4 19 5 20 6 21 7 22 8 23 9 24 10 25 11
REMARK SMILES IDX 26 12 27 13 28 14 29 15 30 16 14 17 13 18 12 19 11 20 10 21
REMARK SMILES IDX 9 22 8 23 7 24 6 25 5 26 4 27 3 28 2 29 1 30
REMARK H PARENT
REMARK Flexibility Score: inf
ROOT
ATOM      1  C   UNL     1      89.011 325.797 199.263  1.00  0.00     0.000 C 
ENDROOT
BRANCH   1   2
ATOM      2  C   UNL     1      89.686 326.418 200.502  1.00  0.00     0.000 C 
BRANCH   2   3
ATOM      3  C   UNL     1      88.823 326.366 201.778  1.00  0.00     0.000 C 
BRANCH   3   4
ATOM      4  C   UNL     1      89.673 326.399 203.060  1.00  0.00     0.000 C 
BRANCH   4   5
ATOM      5  C   UNL     1      89.076 327.368 204.088  1.00  0.00     0.000 C 
BRANCH   5   6
ATOM      6  C   UNL     1      89.752 327.272 205.467  1.00  0.00     0.000 C 
BRANCH   6   7
ATOM      7  C   UNL     1      89.430 325.969 206.228  1.00  0.00     0.000 C 
BRANCH   7   8
ATOM      8  C   UNL     1      88.159 326.086 207.089  1.00  0.00     0.000 C 
BRANCH   8   9
ATOM      9  C   UNL     1      86.934 325.442 206.420  1.00  0.00     0.000 C 
BRANCH   9  10
ATOM     10  C   UNL     1      87.277 324.155 205.653  1.00  0.00     0.000 C 
BRANCH  10  11
ATOM     11  C   UNL     1      86.795 324.243 204.196  1.00  0.00     0.000 C 
BRANCH  11  12
ATOM     12  C   UNL     1      87.367 323.124 203.307  1.00  0.00     0.006 C 
BRANCH  12  13
ATOM     13  C   UNL     1      86.700 323.013 201.927  1.00  0.00     0.053 C 
BRANCH  13  14
ATOM     14  C   UNL     1      87.687 322.676 200.852  1.00  0.00     0.041 C 
ATOM     15  O   UNL     1      87.287 322.362 199.701  1.00  0.00    -0.550 OA
ATOM     16  O   UNL     1      89.051 322.724 201.116  1.00  0.00    -0.550 OA
ENDBRANCH  13  14
ENDBRANCH  12  13
ENDBRANCH  11  12
ENDBRANCH  10  11
ENDBRANCH   9  10
ENDBRANCH   8   9
ENDBRANCH   7   8
ENDBRANCH   6   7
ENDBRANCH   5   6
ENDBRANCH   4   5
ENDBRANCH   3   4
ENDBRANCH   2   3
ENDBRANCH   1   2
BRANCH   1  17
ATOM     17  C   UNL     1      88.852 326.768 198.074  1.00  0.00     0.000 C 
BRANCH  17  18
ATOM     18  C   UNL     1      88.089 326.163 196.883  1.00  0.00     0.000 C 
BRANCH  18  19
ATOM     19  C   UNL     1      88.928 326.154 195.596  1.00  0.00     0.000 C 
BRANCH  19  20
ATOM     20  C   UNL     1      88.113 326.664 194.401  1.00  0.00     0.000 C 
BRANCH  20  21
ATOM     21  C   UNL     1      87.487 325.497 193.621  1.00  0.00     0.000 C 
BRANCH  21  22
ATOM     22  C   UNL     1      88.368 324.234 193.625  1.00  0.00    -0.000 C 
BRANCH  22  23
ATOM     23  C   UNL     1      88.146 323.283 192.433  1.00  0.00    -0.000 C 
BRANCH  23  24
ATOM     24  C   UNL     1      88.131 323.963 191.049  1.00  0.00    -0.000 C 
BRANCH  24  25
ATOM     25  C   UNL     1      88.399 323.022 189.857  1.00  0.00    -0.000 C 
BRANCH  25  26
ATOM     26  C   UNL     1      89.352 323.585 188.784  1.00  0.00    -0.000 C 
BRANCH  26  27
ATOM     27  C   UNL     1      90.670 322.804 188.607  1.00  0.00    -0.000 C 
BRANCH  27  28
ATOM     28  C   UNL     1      90.691 321.407 189.254  1.00  0.00    -0.000 C 
BRANCH  28  29
ATOM     29  C   UNL     1      92.105 320.945 189.630  1.00  0.00    -0.003 C 
ATOM     30  C   UNL     1      93.152 321.959 189.179  1.00  0.00     0.004 C 
ENDBRANCH  28  29
ENDBRANCH  27  28
ENDBRANCH  26  27
ENDBRANCH  25  26
ENDBRANCH  24  25
ENDBRANCH  23  24
ENDBRANCH  22  23
ENDBRANCH  21  22
ENDBRANCH  20  21
ENDBRANCH  19  20
ENDBRANCH  18  19
ENDBRANCH  17  18
ENDBRANCH   1  17
TORSDOF 26
ENDMDL
MODEL 3
REMARK VINA RESULT:    -5.783      1.318      3.144
REMARK INTER + INTRA:         -17.771
REMARK INTER:                 -15.130
REMARK INTRA:                  -2.641
REMARK UNBOUND:                -3.199
REMARK SMILES CCCCCCCCCCCCCCCCCCCCCCCCCCCC(=O)[O-]
REMARK SMILES IDX 15 1 16 2 17 3 18 4 19 5 20 6 21 7 22 8 23 9 24 10 25 11
REMARK SMILES IDX 26 12 27 13 28 14 29 15 30 16 14 17 13 18 12 19 11 20 10 21
REMARK SMILES IDX 9 22 8 23 7 24 6 25 5 26 4 27 3 28 2 29 1 30
REMARK H PARENT
REMARK Flexibility Score: inf
ROOT
ATOM      1  C   UNL     1      89.925 326.176 200.466  1.00  0.00     0.000 C 
ENDROOT
BRANCH   1   2
ATOM      2  C   UNL     1      89.006 325.702 199.323  1.00  0.00     0.000 C 
BRANCH   2   3
ATOM      3  C   UNL     1      88.879 326.708 198.162  1.00  0.00     0.000 C 
BRANCH   3   4
ATOM      4  C   UNL     1      88.080 326.138 196.978  1.00  0.00     0.000 C 
BRANCH   4   5
ATOM      5  C   UNL     1      88.902 326.194 195.685  1.00  0.00     0.000 C 
BRANCH   5   6
ATOM      6  C   UNL     1      88.050 326.521 194.446  1.00  0.00     0.000 C 
BRANCH   6   7
ATOM      7  C   UNL     1      86.560 326.150 194.599  1.00  0.00     0.000 C 
BRANCH   7   8
ATOM      8  C   UNL     1      86.061 325.229 193.471  1.00  0.00     0.000 C 
BRANCH   8   9
ATOM      9  C   UNL     1      87.201 324.736 192.565  1.00  0.00     0.000 C 
BRANCH   9  10
ATOM     10  C   UNL     1      86.806 323.520 191.713  1.00  0.00     0.000 C 
BRANCH  10  11
ATOM     11  C   UNL     1      88.054 322.791 191.190  1.00  0.00     0.000 C 
BRANCH  11  12
ATOM     12  C   UNL     1      88.163 322.814 189.655  1.00  0.00     0.006 C 
BRANCH  12  13
ATOM     13  C   UNL     1      89.368 323.606 189.122  1.00  0.00     0.053 C 
BRANCH  13  14
ATOM     14  C   UNL     1      90.405 322.710 188.518  1.00  0.00     0.041 C 
ATOM     15  O   UNL     1      90.087 321.568 188.096  1.00  0.00    -0.550 OA
ATOM     16  O   UNL     1      91.722 323.143 188.405  1.00  0.00    -0.550 OA
ENDBRANCH  13  14
ENDBRANCH  12  13
ENDBRANCH  11  12
ENDBRANCH  10  11
ENDBRANCH   9  10
ENDBRANCH   8   9
ENDBRANCH   7   8
ENDBRANCH   6   7
ENDBRANCH   5   6
ENDBRANCH   4   5
ENDBRANCH   3   4
ENDBRANCH   2   3
ENDBRANCH   1   2
BRANCH   1  17
ATOM     17  C   UNL     1      89.184 326.504 201.780  1.00  0.00     0.000 C 
BRANCH  17  18
ATOM     18  C   UNL     1      90.122 326.914 202.929  1.00  0.00     0.000 C 
BRANCH  18  19
ATOM     19  C   UNL     1      89.443 326.802 204.303  1.00  0.00     0.000 C 
BRANCH  19  20
ATOM     20  C   UNL     1      90.396 326.197 205.342  1.00  0.00     0.000 C 
BRANCH  20  21
ATOM     21  C   UNL     1      89.914 326.496 206.771  1.00  0.00     0.000 C 
BRANCH  21  22
ATOM     22  C   UNL     1      88.386 326.383 206.924  1.00  0.00    -0.000 C 
BRANCH  22  23
ATOM     23  C   UNL     1      87.830 324.948 206.854  1.00  0.00    -0.000 C 
BRANCH  23  24
ATOM     24  C   UNL     1      86.573 324.776 205.978  1.00  0.00    -0.000 C 
BRANCH  24  25
ATOM     25  C   UNL     1      86.617 323.585 205.000  1.00  0.00    -0.000 C 
BRANCH  25  26
ATOM     26  C   UNL     1      87.213 323.902 203.614  1.00  0.00    -0.000 C 
BRANCH  26  27
ATOM     27  C   UNL     1      88.522 323.159 203.280  1.00  0.00    -0.000 C 
BRANCH  27  28
ATOM     28  C   UNL     1      88.715 322.818 201.791  1.00  0.00    -0.000 C 
BRANCH  28  29
ATOM     29  C   UNL     1      87.398 322.813 201.004  1.00  0.00    -0.003 C 
ATOM     30  C   UNL     1      87.598 322.239 199.605  1.00  0.00     0.004 C 
ENDBRANCH  28  29
ENDBRANCH  27  28
ENDBRANCH  26  27
ENDBRANCH  25  26
ENDBRANCH  24  25
ENDBRANCH  23  24
ENDBRANCH  22  23
ENDBRANCH  21  22
ENDBRANCH  20  21
ENDBRANCH  19  20
ENDBRANCH  18  19
ENDBRANCH  17  18
ENDBRANCH   1  17
TORSDOF 26
ENDMDL
MODEL 4
REMARK VINA RESULT:    -5.776      4.201     11.270
REMARK INTER + INTRA:         -17.755
REMARK INTER:                 -14.576
REMARK INTRA:                  -3.179
REMARK UNBOUND:                -3.199
REMARK SMILES CCCCCCCCCCCCCCCCCCCCCCCCCCCC(=O)[O-]
REMARK SMILES IDX 15 1 16 2 17 3 18 4 19 5 20 6 21 7 22 8 23 9 24 10 25 11
REMARK SMILES IDX 26 12 27 13 28 14 29 15 30 16 14 17 13 18 12 19 11 20 10 21
REMARK SMILES IDX 9 22 8 23 7 24 6 25 5 26 4 27 3 28 2 29 1 30
REMARK H PARENT
REMARK Flexibility Score: inf
ROOT
ATOM      1  C   UNL     1      88.503 324.539 201.539  1.00  0.00     0.000 C 
ENDROOT
BRANCH   1   2
ATOM      2  C   UNL     1      89.046 323.409 202.435  1.00  0.00     0.000 C 
BRANCH   2   3
ATOM      3  C   UNL     1      88.320 323.278 203.789  1.00  0.00     0.000 C 
BRANCH   3   4
ATOM      4  C   UNL     1      86.808 323.531 203.669  1.00  0.00     0.000 C 
BRANCH   4   5
ATOM      5  C   UNL     1      86.245 324.112 204.971  1.00  0.00     0.000 C 
BRANCH   5   6
ATOM      6  C   UNL     1      87.308 324.247 206.077  1.00  0.00     0.000 C 
BRANCH   6   7
ATOM      7  C   UNL     1      87.518 325.696 206.564  1.00  0.00     0.000 C 
BRANCH   7   8
ATOM      8  C   UNL     1      89.007 326.077 206.658  1.00  0.00     0.000 C 
BRANCH   8   9
ATOM      9  C   UNL     1      89.376 327.245 205.728  1.00  0.00     0.000 C 
BRANCH   9  10
ATOM     10  C   UNL     1      89.082 326.948 204.248  1.00  0.00     0.000 C 
BRANCH  10  11
ATOM     11  C   UNL     1      90.310 327.255 203.376  1.00  0.00     0.000 C 
BRANCH  11  12
ATOM     12  C   UNL     1      91.434 326.217 203.537  1.00  0.00     0.006 C 
BRANCH  12  13
ATOM     13  C   UNL     1      92.774 326.807 204.003  1.00  0.00     0.053 C 
BRANCH  13  14
ATOM     14  C   UNL     1      93.941 326.150 203.331  1.00  0.00     0.041 C 
ATOM     15  O   UNL     1      94.122 324.910 203.447  1.00  0.00    -0.550 OA
ATOM     16  O   UNL     1      94.820 326.904 202.562  1.00  0.00    -0.550 OA
ENDBRANCH  13  14
ENDBRANCH  12  13
ENDBRANCH  11  12
ENDBRANCH  10  11
ENDBRANCH   9  10
ENDBRANCH   8   9
ENDBRANCH   7   8
ENDBRANCH   6   7
ENDBRANCH   5   6
ENDBRANCH   4   5
ENDBRANCH   3   4
ENDBRANCH   2   3
ENDBRANCH   1   2
BRANCH   1  17
ATOM     17  C   UNL     1      89.515 325.063 200.497  1.00  0.00     0.000 C 
BRANCH  17  18
ATOM     18  C   UNL     1      89.152 326.446 199.929  1.00  0.00     0.000 C 
BRANCH  18  19
ATOM     19  C   UNL     1      88.882 326.402 198.417  1.00  0.00     0.000 C 
BRANCH  19  20
ATOM     20  C   UNL     1      88.594 324.970 197.949  1.00  0.00     0.000 C 
BRANCH  20  21
ATOM     21  C   UNL     1      88.550 324.889 196.415  1.00  0.00     0.000 C 
BRANCH  21  22
ATOM     22  C   UNL     1      88.892 326.228 195.735  1.00  0.00    -0.000 C 
BRANCH  22  23
ATOM     23  C   UNL     1      88.074 326.539 194.466  1.00  0.00    -0.000 C 
BRANCH  23  24
ATOM     24  C   UNL     1      86.548 326.376 194.616  1.00  0.00    -0.000 C 
BRANCH  24  25
ATOM     25  C   UNL     1      85.895 325.396 193.620  1.00  0.00    -0.000 C 
BRANCH  25  26
ATOM     26  C   UNL     1      86.634 324.054 193.447  1.00  0.00    -0.000 C 
BRANCH  26  27
ATOM     27  C   UNL     1      86.871 323.622 191.986  1.00  0.00    -0.000 C 
BRANCH  27  28
ATOM     28  C   UNL     1      88.151 324.183 191.341  1.00  0.00    -0.000 C 
BRANCH  28  29
ATOM     29  C   UNL     1      88.513 323.482 190.024  1.00  0.00    -0.003 C 
ATOM     30  C   UNL     1      87.389 322.555 189.570  1.00  0.00     0.004 C 
ENDBRANCH  28  29
ENDBRANCH  27  28
ENDBRANCH  26  27
ENDBRANCH  25  26
ENDBRANCH  24  25
ENDBRANCH  23  24
ENDBRANCH  22  23
ENDBRANCH  21  22
ENDBRANCH  20  21
ENDBRANCH  19  20
ENDBRANCH  18  19
ENDBRANCH  17  18
ENDBRANCH   1  17
TORSDOF 26
ENDMDL
MODEL 5
REMARK VINA RESULT:    -5.748      3.325     10.190
REMARK INTER + INTRA:         -17.683
REMARK INTER:                 -14.289
REMARK INTRA:                  -3.394
REMARK UNBOUND:                -3.199
REMARK SMILES CCCCCCCCCCCCCCCCCCCCCCCCCCCC(=O)[O-]
REMARK SMILES IDX 15 1 16 2 17 3 18 4 19 5 20 6 21 7 22 8 23 9 24 10 25 11
REMARK SMILES IDX 26 12 27 13 28 14 29 15 30 16 14 17 13 18 12 19 11 20 10 21
REMARK SMILES IDX 9 22 8 23 7 24 6 25 5 26 4 27 3 28 2 29 1 30
REMARK H PARENT
REMARK Flexibility Score: inf
ROOT
ATOM      1  C   UNL     1      88.714 326.485 201.791  1.00  0.00     0.000 C 
ENDROOT
BRANCH   1   2
ATOM      2  C   UNL     1      89.279 326.889 203.167  1.00  0.00     0.000 C 
BRANCH   2   3
ATOM      3  C   UNL     1      90.306 325.893 203.740  1.00  0.00     0.000 C 
BRANCH   3   4
ATOM      4  C   UNL     1      90.789 326.294 205.144  1.00  0.00     0.000 C 
BRANCH   4   5
ATOM      5  C   UNL     1      89.654 326.938 205.950  1.00  0.00     0.000 C 
BRANCH   5   6
ATOM      6  C   UNL     1      89.066 325.996 207.016  1.00  0.00     0.000 C 
BRANCH   6   7
ATOM      7  C   UNL     1      87.526 326.046 207.108  1.00  0.00     0.000 C 
BRANCH   7   8
ATOM      8  C   UNL     1      86.842 325.162 206.049  1.00  0.00     0.000 C 
BRANCH   8   9
ATOM      9  C   UNL     1      87.700 323.952 205.648  1.00  0.00     0.000 C 
BRANCH   9  10
ATOM     10  C   UNL     1      87.018 323.053 204.604  1.00  0.00     0.000 C 
BRANCH  10  11
ATOM     11  C   UNL     1      86.581 323.872 203.379  1.00  0.00     0.000 C 
BRANCH  11  12
ATOM     12  C   UNL     1      87.073 323.272 202.050  1.00  0.00     0.006 C 
BRANCH  12  13
ATOM     13  C   UNL     1      86.111 322.248 201.428  1.00  0.00     0.053 C 
BRANCH  13  14
ATOM     14  C   UNL     1      86.733 321.522 200.275  1.00  0.00     0.041 C 
ATOM     15  O   UNL     1      87.985 321.430 200.187  1.00  0.00    -0.550 OA
ATOM     16  O   UNL     1      85.931 320.931 199.306  1.00  0.00    -0.550 OA
ENDBRANCH  13  14
ENDBRANCH  12  13
ENDBRANCH  11  12
ENDBRANCH  10  11
ENDBRANCH   9  10
ENDBRANCH   8   9
ENDBRANCH   7   8
ENDBRANCH   6   7
ENDBRANCH   5   6
ENDBRANCH   4   5
ENDBRANCH   3   4
ENDBRANCH   2   3
ENDBRANCH   1   2
BRANCH   1  17
ATOM     17  C   UNL     1      89.761 326.467 200.657  1.00  0.00     0.000 C 
BRANCH  17  18
ATOM     18  C   UNL     1      89.146 326.337 199.252  1.00  0.00     0.000 C 
BRANCH  18  19
ATOM     19  C   UNL     1      89.265 324.911 198.693  1.00  0.00     0.000 C 
BRANCH  19  20
ATOM     20  C   UNL     1      88.436 324.749 197.413  1.00  0.00     0.000 C 
BRANCH  20  21
ATOM     21  C   UNL     1      88.140 326.113 196.770  1.00  0.00     0.000 C 
BRANCH  21  22
ATOM     22  C   UNL     1      88.984 326.377 195.509  1.00  0.00    -0.000 C 
BRANCH  22  23
ATOM     23  C   UNL     1      88.179 326.804 194.267  1.00  0.00    -0.000 C 
BRANCH  23  24
ATOM     24  C   UNL     1      86.717 326.313 194.235  1.00  0.00    -0.000 C 
BRANCH  24  25
ATOM     25  C   UNL     1      86.487 324.995 193.469  1.00  0.00    -0.000 C 
BRANCH  25  26
ATOM     26  C   UNL     1      87.614 324.602 192.494  1.00  0.00    -0.000 C 
BRANCH  26  27
ATOM     27  C   UNL     1      88.212 323.198 192.718  1.00  0.00    -0.000 C 
BRANCH  27  28
ATOM     28  C   UNL     1      88.721 322.928 194.145  1.00  0.00    -0.000 C 
BRANCH  28  29
ATOM     29  C   UNL     1      87.771 322.038 194.959  1.00  0.00    -0.003 C 
ATOM     30  C   UNL     1      87.011 321.075 194.053  1.00  0.00     0.004 C 
ENDBRANCH  28  29
ENDBRANCH  27  28
ENDBRANCH  26  27
ENDBRANCH  25  26
ENDBRANCH  24  25
ENDBRANCH  23  24
ENDBRANCH  22  23
ENDBRANCH  21  22
ENDBRANCH  20  21
ENDBRANCH  19  20
ENDBRANCH  18  19
ENDBRANCH  17  18
ENDBRANCH   1  17
TORSDOF 26
ENDMDL
MODEL 6
REMARK VINA RESULT:    -5.706      3.720     10.555
REMARK INTER + INTRA:         -17.579
REMARK INTER:                 -13.784
REMARK INTRA:                  -3.795
REMARK UNBOUND:                -3.199
REMARK SMILES CCCCCCCCCCCCCCCCCCCCCCCCCCCC(=O)[O-]
REMARK SMILES IDX 15 1 16 2 17 3 18 4 19 5 20 6 21 7 22 8 23 9 24 10 25 11
REMARK SMILES IDX 26 12 27 13 28 14 29 15 30 16 14 17 13 18 12 19 11 20 10 21
REMARK SMILES IDX 9 22 8 23 7 24 6 25 5 26 4 27 3 28 2 29 1 30
REMARK H PARENT
REMARK Flexibility Score: inf
ROOT
ATOM      1  C   UNL     1      89.011 326.165 200.160  1.00  0.00     0.000 C 
ENDROOT
BRANCH   1   2
ATOM      2  C   UNL     1      90.377 326.478 200.801  1.00  0.00     0.000 C 
BRANCH   2   3
ATOM      3  C   UNL     1      90.383 326.391 202.340  1.00  0.00     0.000 C 
BRANCH   3   4
ATOM      4  C   UNL     1      89.004 326.697 202.948  1.00  0.00     0.000 C 
BRANCH   4   5
ATOM      5  C   UNL     1      89.144 327.509 204.241  1.00  0.00     0.000 C 
BRANCH   5   6
ATOM      6  C   UNL     1      90.447 327.205 205.003  1.00  0.00     0.000 C 
BRANCH   6   7
ATOM      7  C   UNL     1      90.253 326.276 206.220  1.00  0.00     0.000 C 
BRANCH   7   8
ATOM      8  C   UNL     1      88.928 326.538 206.959  1.00  0.00     0.000 C 
BRANCH   8   9
ATOM      9  C   UNL     1      88.078 325.266 207.114  1.00  0.00     0.000 C 
BRANCH   9  10
ATOM     10  C   UNL     1      86.966 325.157 206.059  1.00  0.00     0.000 C 
BRANCH  10  11
ATOM     11  C   UNL     1      86.870 323.723 205.514  1.00  0.00     0.000 C 
BRANCH  11  12
ATOM     12  C   UNL     1      86.989 323.655 203.981  1.00  0.00     0.006 C 
BRANCH  12  13
ATOM     13  C   UNL     1      88.358 323.169 203.477  1.00  0.00     0.053 C 
BRANCH  13  14
ATOM     14  C   UNL     1      88.412 323.099 201.982  1.00  0.00     0.041 C 
ATOM     15  O   UNL     1      87.374 323.301 201.301  1.00  0.00    -0.550 OA
ATOM     16  O   UNL     1      89.615 322.827 201.339  1.00  0.00    -0.550 OA
ENDBRANCH  13  14
ENDBRANCH  12  13
ENDBRANCH  11  12
ENDBRANCH  10  11
ENDBRANCH   9  10
ENDBRANCH   8   9
ENDBRANCH   7   8
ENDBRANCH   6   7
ENDBRANCH   5   6
ENDBRANCH   4   5
ENDBRANCH   3   4
ENDBRANCH   2   3
ENDBRANCH   1   2
BRANCH   1  17
ATOM     17  C   UNL     1      89.098 325.625 198.716  1.00  0.00     0.000 C 
BRANCH  17  18
ATOM     18  C   UNL     1      88.415 326.533 197.678  1.00  0.00     0.000 C 
BRANCH  18  19
ATOM     19  C   UNL     1      87.804 325.734 196.517  1.00  0.00     0.000 C 
BRANCH  19  20
ATOM     20  C   UNL     1      86.598 326.467 195.916  1.00  0.00     0.000 C 
BRANCH  20  21
ATOM     21  C   UNL     1      86.721 326.572 194.388  1.00  0.00     0.000 C 
BRANCH  21  22
ATOM     22  C   UNL     1      88.091 326.101 193.864  1.00  0.00    -0.000 C 
BRANCH  22  23
ATOM     23  C   UNL     1      88.030 325.056 192.733  1.00  0.00    -0.000 C 
BRANCH  23  24
ATOM     24  C   UNL     1      88.131 323.588 193.194  1.00  0.00    -0.000 C 
BRANCH  24  25
ATOM     25  C   UNL     1      86.792 322.936 193.594  1.00  0.00    -0.000 C 
BRANCH  25  26
ATOM     26  C   UNL     1      86.835 322.100 194.889  1.00  0.00    -0.000 C 
BRANCH  26  27
ATOM     27  C   UNL     1      88.209 322.048 195.588  1.00  0.00    -0.000 C 
BRANCH  27  28
ATOM     28  C   UNL     1      88.161 322.137 197.124  1.00  0.00    -0.000 C 
BRANCH  28  29
ATOM     29  C   UNL     1      89.556 322.156 197.765  1.00  0.00    -0.003 C 
ATOM     30  C   UNL     1      90.578 322.798 196.833  1.00  0.00     0.004 C 
ENDBRANCH  28  29
ENDBRANCH  27  28
ENDBRANCH  26  27
ENDBRANCH  25  26
ENDBRANCH  24  25
ENDBRANCH  23  24
ENDBRANCH  22  23
ENDBRANCH  21  22
ENDBRANCH  20  21
ENDBRANCH  19  20
ENDBRANCH  18  19
ENDBRANCH  17  18
ENDBRANCH   1  17
TORSDOF 26
ENDMDL
MODEL 7
REMARK VINA RESULT:    -5.668      1.739      3.530
REMARK INTER + INTRA:         -17.481
REMARK INTER:                 -14.077
REMARK INTRA:                  -3.404
REMARK UNBOUND:                -3.199
REMARK SMILES CCCCCCCCCCCCCCCCCCCCCCCCCCCC(=O)[O-]
REMARK SMILES IDX 15 1 16 2 17 3 18 4 19 5 20 6 21 7 22 8 23 9 24 10 25 11
REMARK SMILES IDX 26 12 27 13 28 14 29 15 30 16 14 17 13 18 12 19 11 20 10 21
REMARK SMILES IDX 9 22 8 23 7 24 6 25 5 26 4 27 3 28 2 29 1 30
REMARK H PARENT
REMARK Flexibility Score: inf
ROOT
ATOM      1  C   UNL     1      89.283 324.452 200.083  1.00  0.00     0.000 C 
ENDROOT
BRANCH   1   2
ATOM      2  C   UNL     1      88.735 323.864 198.768  1.00  0.00     0.000 C 
BRANCH   2   3
ATOM      3  C   UNL     1      89.715 323.959 197.582  1.00  0.00     0.000 C 
BRANCH   3   4
ATOM      4  C   UNL     1      89.138 324.768 196.409  1.00  0.00     0.000 C 
BRANCH   4   5
ATOM      5  C   UNL     1      88.760 326.186 196.855  1.00  0.00     0.000 C 
BRANCH   5   6
ATOM      6  C   UNL     1      87.251 326.467 196.748  1.00  0.00     0.000 C 
BRANCH   6   7
ATOM      7  C   UNL     1      86.617 325.968 195.432  1.00  0.00     0.000 C 
BRANCH   7   8
ATOM      8  C   UNL     1      87.040 326.811 194.216  1.00  0.00     0.000 C 
BRANCH   8   9
ATOM      9  C   UNL     1      88.035 326.073 193.305  1.00  0.00     0.000 C 
BRANCH   9  10
ATOM     10  C   UNL     1      87.514 324.707 192.830  1.00  0.00     0.000 C 
BRANCH  10  11
ATOM     11  C   UNL     1      88.129 324.331 191.472  1.00  0.00     0.000 C 
BRANCH  11  12
ATOM     12  C   UNL     1      88.080 322.818 191.192  1.00  0.00     0.006 C 
BRANCH  12  13
ATOM     13  C   UNL     1      87.763 321.958 192.426  1.00  0.00     0.053 C 
BRANCH  13  14
ATOM     14  C   UNL     1      89.006 321.481 193.111  1.00  0.00     0.041 C 
ATOM     15  O   UNL     1      89.276 321.873 194.276  1.00  0.00    -0.550 OA
ATOM     16  O   UNL     1      89.859 320.589 192.471  1.00  0.00    -0.550 OA
ENDBRANCH  13  14
ENDBRANCH  12  13
ENDBRANCH  11  12
ENDBRANCH  10  11
ENDBRANCH   9  10
ENDBRANCH   8   9
ENDBRANCH   7   8
ENDBRANCH   6   7
ENDBRANCH   5   6
ENDBRANCH   4   5
ENDBRANCH   3   4
ENDBRANCH   2   3
ENDBRANCH   1   2
BRANCH   1  17
ATOM     17  C   UNL     1      88.513 325.689 200.594  1.00  0.00     0.000 C 
BRANCH  17  18
ATOM     18  C   UNL     1      89.305 326.530 201.610  1.00  0.00     0.000 C 
BRANCH  18  19
ATOM     19  C   UNL     1      90.814 326.518 201.327  1.00  0.00     0.000 C 
BRANCH  19  20
ATOM     20  C   UNL     1      91.610 326.993 202.550  1.00  0.00     0.000 C 
BRANCH  20  21
ATOM     21  C   UNL     1      90.671 327.506 203.653  1.00  0.00     0.000 C 
BRANCH  21  22
ATOM     22  C   UNL     1      91.368 327.633 205.021  1.00  0.00    -0.000 C 
BRANCH  22  23
ATOM     23  C   UNL     1      90.532 327.151 206.222  1.00  0.00    -0.000 C 
BRANCH  23  24
ATOM     24  C   UNL     1      89.017 327.035 205.959  1.00  0.00    -0.000 C 
BRANCH  24  25
ATOM     25  C   UNL     1      88.244 326.162 206.969  1.00  0.00    -0.000 C 
BRANCH  25  26
ATOM     26  C   UNL     1      87.050 325.386 206.380  1.00  0.00    -0.000 C 
BRANCH  26  27
ATOM     27  C   UNL     1      87.413 324.065 205.674  1.00  0.00    -0.000 C 
BRANCH  27  28
ATOM     28  C   UNL     1      87.574 324.166 204.146  1.00  0.00    -0.000 C 
BRANCH  28  29
ATOM     29  C   UNL     1      88.806 323.414 203.624  1.00  0.00    -0.003 C 
ATOM     30  C   UNL     1      90.070 323.863 204.350  1.00  0.00     0.004 C 
ENDBRANCH  28  29
ENDBRANCH  27  28
ENDBRANCH  26  27
ENDBRANCH  25  26
ENDBRANCH  24  25
ENDBRANCH  23  24
ENDBRANCH  22  23
ENDBRANCH  21  22
ENDBRANCH  20  21
ENDBRANCH  19  20
ENDBRANCH  18  19
ENDBRANCH  17  18
ENDBRANCH   1  17
TORSDOF 26
ENDMDL
MODEL 8
REMARK VINA RESULT:    -5.632      1.382      3.531
REMARK INTER + INTRA:         -17.390
REMARK INTER:                 -15.013
REMARK INTRA:                  -2.377
REMARK UNBOUND:                -3.199
REMARK SMILES CCCCCCCCCCCCCCCCCCCCCCCCCCCC(=O)[O-]
REMARK SMILES IDX 15 1 16 2 17 3 18 4 19 5 20 6 21 7 22 8 23 9 24 10 25 11
REMARK SMILES IDX 26 12 27 13 28 14 29 15 30 16 14 17 13 18 12 19 11 20 10 21
REMARK SMILES IDX 9 22 8 23 7 24 6 25 5 26 4 27 3 28 2 29 1 30
REMARK H PARENT
REMARK Flexibility Score: inf
ROOT
ATOM      1  C   UNL     1      88.712 325.130 199.116  1.00  0.00     0.000 C 
ENDROOT
BRANCH   1   2
ATOM      2  C   UNL     1      88.807 324.968 197.587  1.00  0.00     0.000 C 
BRANCH   2   3
ATOM      3  C   UNL     1      88.169 326.125 196.792  1.00  0.00     0.000 C 
BRANCH   3   4
ATOM      4  C   UNL     1      88.968 326.476 195.526  1.00  0.00     0.000 C 
BRANCH   4   5
ATOM      5  C   UNL     1      88.030 326.738 194.342  1.00  0.00     0.000 C 
BRANCH   5   6
ATOM      6  C   UNL     1      88.106 325.644 193.262  1.00  0.00     0.000 C 
BRANCH   6   7
ATOM      7  C   UNL     1      88.485 324.253 193.811  1.00  0.00     0.000 C 
BRANCH   7   8
ATOM      8  C   UNL     1      87.601 323.130 193.238  1.00  0.00     0.000 C 
BRANCH   8   9
ATOM      9  C   UNL     1      86.713 323.613 192.079  1.00  0.00     0.000 C 
BRANCH   9  10
ATOM     10  C   UNL     1      87.140 323.040 190.718  1.00  0.00     0.000 C 
BRANCH  10  11
ATOM     11  C   UNL     1      88.537 323.549 190.326  1.00  0.00     0.000 C 
BRANCH  11  12
ATOM     12  C   UNL     1      88.922 323.185 188.881  1.00  0.00     0.006 C 
BRANCH  12  13
ATOM     13  C   UNL     1      89.644 321.836 188.742  1.00  0.00     0.053 C 
BRANCH  13  14
ATOM     14  C   UNL     1      91.111 322.006 188.496  1.00  0.00     0.041 C 
ATOM     15  O   UNL     1      91.607 323.159 188.398  1.00  0.00    -0.550 OA
ATOM     16  O   UNL     1      91.936 320.892 188.390  1.00  0.00    -0.550 OA
ENDBRANCH  13  14
ENDBRANCH  12  13
ENDBRANCH  11  12
ENDBRANCH  10  11
ENDBRANCH   9  10
ENDBRANCH   8   9
ENDBRANCH   7   8
ENDBRANCH   6   7
ENDBRANCH   5   6
ENDBRANCH   4   5
ENDBRANCH   3   4
ENDBRANCH   2   3
ENDBRANCH   1   2
BRANCH   1  17
ATOM     17  C   UNL     1      89.337 326.436 199.654  1.00  0.00     0.000 C 
BRANCH  17  18
ATOM     18  C   UNL     1      89.404 326.498 201.191  1.00  0.00     0.000 C 
BRANCH  18  19
ATOM     19  C   UNL     1      90.832 326.742 201.702  1.00  0.00     0.000 C 
BRANCH  19  20
ATOM     20  C   UNL     1      90.823 327.221 203.159  1.00  0.00     0.000 C 
BRANCH  20  21
ATOM     21  C   UNL     1      89.816 326.419 203.998  1.00  0.00     0.000 C 
BRANCH  21  22
ATOM     22  C   UNL     1      89.176 327.252 205.124  1.00  0.00    -0.000 C 
BRANCH  22  23
ATOM     23  C   UNL     1      89.115 326.553 206.495  1.00  0.00    -0.000 C 
BRANCH  23  24
ATOM     24  C   UNL     1      87.759 325.904 206.838  1.00  0.00    -0.000 C 
BRANCH  24  25
ATOM     25  C   UNL     1      87.589 324.450 206.352  1.00  0.00    -0.000 C 
BRANCH  25  26
ATOM     26  C   UNL     1      86.355 324.200 205.463  1.00  0.00    -0.000 C 
BRANCH  26  27
ATOM     27  C   UNL     1      86.668 323.845 203.995  1.00  0.00    -0.000 C 
BRANCH  27  28
ATOM     28  C   UNL     1      88.077 323.275 203.750  1.00  0.00    -0.000 C 
BRANCH  28  29
ATOM     29  C   UNL     1      88.415 323.140 202.259  1.00  0.00    -0.003 C 
ATOM     30  C   UNL     1      87.198 322.687 201.460  1.00  0.00     0.004 C 
ENDBRANCH  28  29
ENDBRANCH  27  28
ENDBRANCH  26  27
ENDBRANCH  25  26
ENDBRANCH  24  25
ENDBRANCH  23  24
ENDBRANCH  22  23
ENDBRANCH  21  22
ENDBRANCH  20  21
ENDBRANCH  19  20
ENDBRANCH  18  19
ENDBRANCH  17  18
ENDBRANCH   1  17
TORSDOF 26
ENDMDL
MODEL 9
REMARK VINA RESULT:    -5.593      3.835      6.413
REMARK INTER + INTRA:         -17.292
REMARK INTER:                 -13.682
REMARK INTRA:                  -3.610
REMARK UNBOUND:                -3.199
REMARK SMILES CCCCCCCCCCCCCCCCCCCCCCCCCCCC(=O)[O-]
REMARK SMILES IDX 15 1 16 2 17 3 18 4 19 5 20 6 21 7 22 8 23 9 24 10 25 11
REMARK SMILES IDX 26 12 27 13 28 14 29 15 30 16 14 17 13 18 12 19 11 20 10 21
REMARK SMILES IDX 9 22 8 23 7 24 6 25 5 26 4 27 3 28 2 29 1 30
REMARK H PARENT
REMARK Flexibility Score: inf
ROOT
ATOM      1  C   UNL     1      87.996 326.142 196.596  1.00  0.00     0.000 C 
ENDROOT
BRANCH   1   2
ATOM      2  C   UNL     1      88.922 326.451 195.403  1.00  0.00     0.000 C 
BRANCH   2   3
ATOM      3  C   UNL     1      88.175 326.682 194.074  1.00  0.00     0.000 C 
BRANCH   3   4
ATOM      4  C   UNL     1      86.707 326.230 194.141  1.00  0.00     0.000 C 
BRANCH   4   5
ATOM      5  C   UNL     1      86.467 325.014 193.238  1.00  0.00     0.000 C 
BRANCH   5   6
ATOM      6  C   UNL     1      87.746 324.529 192.532  1.00  0.00     0.000 C 
BRANCH   6   7
ATOM      7  C   UNL     1      88.121 323.068 192.861  1.00  0.00     0.000 C 
BRANCH   7   8
ATOM      8  C   UNL     1      88.839 322.933 194.216  1.00  0.00     0.000 C 
BRANCH   8   9
ATOM      9  C   UNL     1      87.874 322.581 195.361  1.00  0.00     0.000 C 
BRANCH   9  10
ATOM     10  C   UNL     1      88.546 322.620 196.743  1.00  0.00     0.000 C 
BRANCH  10  11
ATOM     11  C   UNL     1      87.700 321.866 197.782  1.00  0.00     0.000 C 
BRANCH  11  12
ATOM     12  C   UNL     1      88.382 321.776 199.158  1.00  0.00     0.006 C 
BRANCH  12  13
ATOM     13  C   UNL     1      87.658 322.549 200.272  1.00  0.00     0.053 C 
BRANCH  13  14
ATOM     14  C   UNL     1      87.045 321.631 201.285  1.00  0.00     0.041 C 
ATOM     15  O   UNL     1      85.898 321.151 201.092  1.00  0.00    -0.550 OA
ATOM     16  O   UNL     1      87.748 321.292 202.436  1.00  0.00    -0.550 OA
ENDBRANCH  13  14
ENDBRANCH  12  13
ENDBRANCH  11  12
ENDBRANCH  10  11
ENDBRANCH   9  10
ENDBRANCH   8   9
ENDBRANCH   7   8
ENDBRANCH   6   7
ENDBRANCH   5   6
ENDBRANCH   4   5
ENDBRANCH   3   4
ENDBRANCH   2   3
ENDBRANCH   1   2
BRANCH   1  17
ATOM     17  C   UNL     1      88.517 326.664 197.953  1.00  0.00     0.000 C 
BRANCH  17  18
ATOM     18  C   UNL     1      88.888 325.544 198.942  1.00  0.00     0.000 C 
BRANCH  18  19
ATOM     19  C   UNL     1      89.687 326.070 200.144  1.00  0.00     0.000 C 
BRANCH  19  20
ATOM     20  C   UNL     1      88.755 326.454 201.301  1.00  0.00     0.000 C 
BRANCH  20  21
ATOM     21  C   UNL     1      88.808 325.404 202.422  1.00  0.00     0.000 C 
BRANCH  21  22
ATOM     22  C   UNL     1      89.817 325.760 203.529  1.00  0.00    -0.000 C 
BRANCH  22  23
ATOM     23  C   UNL     1      89.761 327.221 204.014  1.00  0.00    -0.000 C 
BRANCH  23  24
ATOM     24  C   UNL     1      90.090 327.427 205.506  1.00  0.00    -0.000 C 
BRANCH  24  25
ATOM     25  C   UNL     1      89.514 326.357 206.456  1.00  0.00    -0.000 C 
BRANCH  25  26
ATOM     26  C   UNL     1      88.030 326.547 206.828  1.00  0.00    -0.000 C 
BRANCH  26  27
ATOM     27  C   UNL     1      87.151 325.290 206.671  1.00  0.00    -0.000 C 
BRANCH  27  28
ATOM     28  C   UNL     1      87.918 323.997 206.338  1.00  0.00    -0.000 C 
BRANCH  28  29
ATOM     29  C   UNL     1      87.140 323.067 205.397  1.00  0.00    -0.003 C 
ATOM     30  C   UNL     1      86.263 323.866 204.439  1.00  0.00     0.004 C 
ENDBRANCH  28  29
ENDBRANCH  27  28
ENDBRANCH  26  27
ENDBRANCH  25  26
ENDBRANCH  24  25
ENDBRANCH  23  24
ENDBRANCH  22  23
ENDBRANCH  21  22
ENDBRANCH  20  21
ENDBRANCH  19  20
ENDBRANCH  18  19
ENDBRANCH  17  18
ENDBRANCH   1  17
TORSDOF 26
ENDMDL
