MODEL 1
REMARK VINA RESULT:    -7.146      0.000      0.000
REMARK INTER + INTRA:          -8.662
REMARK INTER:                  -8.399
REMARK INTRA:                  -0.263
REMARK UNBOUND:                -0.263
REMARK SMILES O=c1cc(-c2ccc(O)c(O)c2)oc2cc(O)cc(O)c12
REMARK SMILES IDX 4 1 3 2 2 3 1 4 21 5 19 6 18 7 16 8 15 9 14 10 13 11 5 12
REMARK SMILES IDX 6 13 7 14 8 15 12 16 10 17 9 18 11 20 20 22 17 24
REMARK H PARENT 9 19 11 21 20 23 17 25
REMARK Flexibility Score: inf
ROOT
ATOM      1  C   UNL     1     165.437 154.754 151.282  1.00  0.00     0.138 A 
ATOM      2  C   UNL     1     164.335 153.887 151.297  1.00  0.00     0.100 A 
ATOM      3  C   UNL     1     164.497 152.560 150.896  1.00  0.00     0.197 A 
ATOM      4  O   UNL     1     163.478 151.822 150.861  1.00  0.00    -0.289 OA
ATOM      5  C   UNL     1     165.775 152.092 150.509  1.00  0.00     0.107 A 
ATOM      6  C   UNL     1     166.066 150.750 150.120  1.00  0.00     0.134 A 
ATOM      7  C   UNL     1     167.344 150.432 149.645  1.00  0.00     0.093 A 
ATOM      8  C   UNL     1     168.358 151.392 149.603  1.00  0.00     0.123 A 
ATOM      9  C   UNL     1     168.098 152.692 150.030  1.00  0.00     0.094 A 
ATOM     10  C   UNL     1     166.824 153.049 150.477  1.00  0.00     0.146 A 
ATOM     11  O   UNL     1     166.615 154.304 150.862  1.00  0.00    -0.456 OA
ENDROOT
BRANCH   1  12
ATOM     12  C   UNL     1     165.322 156.175 151.699  1.00  0.00     0.021 A 
ATOM     13  C   UNL     1     165.580 156.581 153.021  1.00  0.00     0.016 A 
ATOM     14  C   UNL     1     165.475 157.926 153.383  1.00  0.00     0.051 A 
ATOM     15  C   UNL     1     165.117 158.890 152.432  1.00  0.00     0.157 A 
ATOM     16  C   UNL     1     164.978 157.150 150.745  1.00  0.00     0.062 A 
ATOM     17  C   UNL     1     164.870 158.498 151.106  1.00  0.00     0.158 A 
BRANCH  15  18
ATOM     18  O   UNL     1     165.011 160.231 152.797  1.00  0.00    -0.504 OA
ATOM     19  H   UNL     1     164.113 160.700 152.842  1.00  0.00     0.293 HD
ENDBRANCH  15  18
BRANCH  17  20
ATOM     20  O   UNL     1     164.516 159.433 150.133  1.00  0.00    -0.504 OA
ATOM     21  H   UNL     1     163.851 160.175 150.317  1.00  0.00     0.293 HD
ENDBRANCH  17  20
ENDBRANCH   1  12
BRANCH   6  22
ATOM     22  O   UNL     1     165.151 149.697 150.205  1.00  0.00    -0.507 OA
ATOM     23  H   UNL     1     164.417 149.625 150.893  1.00  0.00     0.293 HD
ENDBRANCH   6  22
BRANCH   8  24
ATOM     24  O   UNL     1     169.631 151.062 149.143  1.00  0.00    -0.508 OA
ATOM     25  H   UNL     1     169.861 151.086 148.156  1.00  0.00     0.293 HD
ENDBRANCH   8  24
TORSDOF 5
ENDMDL
MODEL 2
REMARK VINA RESULT:    -6.943      2.723      4.976
REMARK INTER + INTRA:          -8.423
REMARK INTER:                  -8.140
REMARK INTRA:                  -0.284
REMARK UNBOUND:                -0.263
REMARK SMILES O=c1cc(-c2ccc(O)c(O)c2)oc2cc(O)cc(O)c12
REMARK SMILES IDX 4 1 3 2 2 3 1 4 21 5 19 6 18 7 16 8 15 9 14 10 13 11 5 12
REMARK SMILES IDX 6 13 7 14 8 15 12 16 10 17 9 18 11 20 20 22 17 24
REMARK H PARENT 9 19 11 21 20 23 17 25
REMARK Flexibility Score: inf
ROOT
ATOM      1  C   UNL     1     167.167 151.825 149.732  1.00  0.00     0.138 A 
ATOM      2  C   UNL     1     167.980 152.574 148.870  1.00  0.00     0.100 A 
ATOM      3  C   UNL     1     169.145 152.007 148.354  1.00  0.00     0.197 A 
ATOM      4  O   UNL     1     169.887 152.724 147.633  1.00  0.00    -0.289 OA
ATOM      5  C   UNL     1     169.480 150.669 148.677  1.00  0.00     0.107 A 
ATOM      6  C   UNL     1     170.622 149.974 148.177  1.00  0.00     0.134 A 
ATOM      7  C   UNL     1     170.914 148.692 148.659  1.00  0.00     0.093 A 
ATOM      8  C   UNL     1     170.073 148.058 149.576  1.00  0.00     0.123 A 
ATOM      9  C   UNL     1     168.928 148.708 150.030  1.00  0.00     0.094 A 
ATOM     10  C   UNL     1     168.627 150.000 149.594  1.00  0.00     0.146 A 
ATOM     11  O   UNL     1     167.532 150.590 150.063  1.00  0.00    -0.456 OA
ENDROOT
BRANCH   1  12
ATOM     12  C   UNL     1     165.916 152.379 150.309  1.00  0.00     0.021 A 
ATOM     13  C   UNL     1     164.812 151.558 150.607  1.00  0.00     0.016 A 
ATOM     14  C   UNL     1     163.651 152.105 151.161  1.00  0.00     0.051 A 
ATOM     15  C   UNL     1     163.574 153.477 151.432  1.00  0.00     0.157 A 
ATOM     16  C   UNL     1     165.837 153.753 150.598  1.00  0.00     0.062 A 
ATOM     17  C   UNL     1     164.674 154.303 151.151  1.00  0.00     0.158 A 
BRANCH  15  18
ATOM     18  O   UNL     1     162.414 154.019 151.982  1.00  0.00    -0.504 OA
ATOM     19  H   UNL     1     161.713 154.469 151.405  1.00  0.00     0.293 HD
ENDBRANCH  15  18
BRANCH  17  20
ATOM     20  O   UNL     1     164.633 155.673 151.413  1.00  0.00    -0.504 OA
ATOM     21  H   UNL     1     163.799 156.225 151.254  1.00  0.00     0.293 HD
ENDBRANCH  17  20
ENDBRANCH   1  12
BRANCH   6  22
ATOM     22  O   UNL     1     171.478 150.483 147.196  1.00  0.00    -0.507 OA
ATOM     23  H   UNL     1     171.738 149.999 146.350  1.00  0.00     0.293 HD
ENDBRANCH   6  22
BRANCH   8  24
ATOM     24  O   UNL     1     170.364 146.776 150.038  1.00  0.00    -0.508 OA
ATOM     25  H   UNL     1     170.725 146.059 149.420  1.00  0.00     0.293 HD
ENDBRANCH   8  24
TORSDOF 5
ENDMDL
MODEL 3
REMARK VINA RESULT:    -6.881      2.039      7.309
REMARK INTER + INTRA:          -8.350
REMARK INTER:                  -8.074
REMARK INTRA:                  -0.277
REMARK UNBOUND:                -0.263
REMARK SMILES O=c1cc(-c2ccc(O)c(O)c2)oc2cc(O)cc(O)c12
REMARK SMILES IDX 4 1 3 2 2 3 1 4 21 5 19 6 18 7 16 8 15 9 14 10 13 11 5 12
REMARK SMILES IDX 6 13 7 14 8 15 12 16 10 17 9 18 11 20 20 22 17 24
REMARK H PARENT 9 19 11 21 20 23 17 25
REMARK Flexibility Score: inf
ROOT
ATOM      1  C   UNL     1     166.492 151.359 149.462  1.00  0.00     0.138 A 
ATOM      2  C   UNL     1     165.297 150.814 149.953  1.00  0.00     0.100 A 
ATOM      3  C   UNL     1     164.394 151.631 150.634  1.00  0.00     0.197 A 
ATOM      4  O   UNL     1     163.360 151.100 151.117  1.00  0.00    -0.289 OA
ATOM      5  C   UNL     1     164.676 153.009 150.798  1.00  0.00     0.107 A 
ATOM      6  C   UNL     1     163.811 153.944 151.439  1.00  0.00     0.134 A 
ATOM      7  C   UNL     1     164.248 155.259 151.645  1.00  0.00     0.093 A 
ATOM      8  C   UNL     1     165.493 155.686 151.178  1.00  0.00     0.123 A 
ATOM      9  C   UNL     1     166.323 154.793 150.503  1.00  0.00     0.094 A 
ATOM     10  C   UNL     1     165.930 153.467 150.313  1.00  0.00     0.146 A 
ATOM     11  O   UNL     1     166.757 152.644 149.676  1.00  0.00    -0.456 OA
ENDROOT
BRANCH   1  12
ATOM     12  C   UNL     1     167.486 150.536 148.730  1.00  0.00     0.021 A 
ATOM     13  C   UNL     1     167.181 149.931 147.496  1.00  0.00     0.016 A 
ATOM     14  C   UNL     1     168.140 149.170 146.823  1.00  0.00     0.051 A 
ATOM     15  C   UNL     1     169.422 149.006 147.364  1.00  0.00     0.157 A 
ATOM     16  C   UNL     1     168.780 150.379 149.259  1.00  0.00     0.062 A 
ATOM     17  C   UNL     1     169.742 149.616 148.587  1.00  0.00     0.158 A 
BRANCH  15  18
ATOM     18  O   UNL     1     170.375 148.245 146.690  1.00  0.00    -0.504 OA
ATOM     19  H   UNL     1     170.196 147.283 146.423  1.00  0.00     0.293 HD
ENDBRANCH  15  18
BRANCH  17  20
ATOM     20  O   UNL     1     171.010 149.476 149.152  1.00  0.00    -0.504 OA
ATOM     21  H   UNL     1     171.269 149.945 150.012  1.00  0.00     0.293 HD
ENDBRANCH  17  20
ENDBRANCH   1  12
BRANCH   6  22
ATOM     22  O   UNL     1     162.515 153.643 151.867  1.00  0.00    -0.507 OA
ATOM     23  H   UNL     1     161.751 154.301 151.899  1.00  0.00     0.293 HD
ENDBRANCH   6  22
BRANCH   8  24
ATOM     24  O   UNL     1     165.913 157.000 151.373  1.00  0.00    -0.508 OA
ATOM     25  H   UNL     1     166.828 157.213 151.752  1.00  0.00     0.293 HD
ENDBRANCH   8  24
TORSDOF 5
ENDMDL
MODEL 4
REMARK VINA RESULT:    -6.817      1.116      2.623
REMARK INTER + INTRA:          -8.275
REMARK INTER:                  -8.010
REMARK INTRA:                  -0.265
REMARK UNBOUND:                -0.263
REMARK SMILES O=c1cc(-c2ccc(O)c(O)c2)oc2cc(O)cc(O)c12
REMARK SMILES IDX 4 1 3 2 2 3 1 4 21 5 19 6 18 7 16 8 15 9 14 10 13 11 5 12
REMARK SMILES IDX 6 13 7 14 8 15 12 16 10 17 9 18 11 20 20 22 17 24
REMARK H PARENT 9 19 11 21 20 23 17 25
REMARK Flexibility Score: inf
ROOT
ATOM      1  C   UNL     1     165.900 154.800 150.965  1.00  0.00     0.138 A 
ATOM      2  C   UNL     1     167.225 154.712 150.514  1.00  0.00     0.100 A 
ATOM      3  C   UNL     1     167.706 153.499 150.019  1.00  0.00     0.197 A 
ATOM      4  O   UNL     1     168.916 153.434 149.679  1.00  0.00    -0.289 OA
ATOM      5  C   UNL     1     166.845 152.377 149.947  1.00  0.00     0.107 A 
ATOM      6  C   UNL     1     167.215 151.102 149.424  1.00  0.00     0.134 A 
ATOM      7  C   UNL     1     166.314 150.033 149.511  1.00  0.00     0.093 A 
ATOM      8  C   UNL     1     165.037 150.209 150.048  1.00  0.00     0.123 A 
ATOM      9  C   UNL     1     164.648 151.464 150.512  1.00  0.00     0.094 A 
ATOM     10  C   UNL     1     165.535 152.541 150.470  1.00  0.00     0.146 A 
ATOM     11  O   UNL     1     165.129 153.717 150.937  1.00  0.00    -0.456 OA
ENDROOT
BRANCH   1  12
ATOM     12  C   UNL     1     165.337 156.065 151.499  1.00  0.00     0.021 A 
ATOM     13  C   UNL     1     164.971 156.198 152.852  1.00  0.00     0.016 A 
ATOM     14  C   UNL     1     164.453 157.405 153.331  1.00  0.00     0.051 A 
ATOM     15  C   UNL     1     164.298 158.500 152.472  1.00  0.00     0.157 A 
ATOM     16  C   UNL     1     165.191 157.174 150.646  1.00  0.00     0.062 A 
ATOM     17  C   UNL     1     164.671 158.382 151.124  1.00  0.00     0.158 A 
BRANCH  15  18
ATOM     18  O   UNL     1     163.779 159.700 152.953  1.00  0.00    -0.504 OA
ATOM     19  H   UNL     1     162.782 159.839 153.070  1.00  0.00     0.293 HD
ENDBRANCH  15  18
BRANCH  17  20
ATOM     20  O   UNL     1     164.533 159.455 150.242  1.00  0.00    -0.504 OA
ATOM     21  H   UNL     1     164.304 159.320 149.264  1.00  0.00     0.293 HD
ENDBRANCH  17  20
ENDBRANCH   1  12
BRANCH   6  22
ATOM     22  O   UNL     1     168.433 150.841 148.790  1.00  0.00    -0.507 OA
ATOM     23  H   UNL     1     168.674 149.973 148.338  1.00  0.00     0.293 HD
ENDBRANCH   6  22
BRANCH   8  24
ATOM     24  O   UNL     1     164.142 149.144 150.117  1.00  0.00    -0.508 OA
ATOM     25  H   UNL     1     163.194 149.224 149.768  1.00  0.00     0.293 HD
ENDBRANCH   8  24
TORSDOF 5
ENDMDL
MODEL 5
REMARK VINA RESULT:    -6.793      2.652      5.091
REMARK INTER + INTRA:          -8.247
REMARK INTER:                  -7.956
REMARK INTRA:                  -0.291
REMARK UNBOUND:                -0.263
REMARK SMILES O=c1cc(-c2ccc(O)c(O)c2)oc2cc(O)cc(O)c12
REMARK SMILES IDX 4 1 3 2 2 3 1 4 21 5 19 6 18 7 16 8 15 9 14 10 13 11 5 12
REMARK SMILES IDX 6 13 7 14 8 15 12 16 10 17 9 18 11 20 20 22 17 24
REMARK H PARENT 9 19 11 21 20 23 17 25
REMARK Flexibility Score: inf
ROOT
ATOM      1  C   UNL     1     167.432 151.507 149.455  1.00  0.00     0.138 A 
ATOM      2  C   UNL     1     168.046 151.728 148.214  1.00  0.00     0.100 A 
ATOM      3  C   UNL     1     168.861 150.739 147.662  1.00  0.00     0.197 A 
ATOM      4  O   UNL     1     169.447 150.989 146.577  1.00  0.00    -0.289 OA
ATOM      5  C   UNL     1     169.036 149.510 148.342  1.00  0.00     0.107 A 
ATOM      6  C   UNL     1     169.812 148.415 147.855  1.00  0.00     0.134 A 
ATOM      7  C   UNL     1     170.008 147.293 148.670  1.00  0.00     0.093 A 
ATOM      8  C   UNL     1     169.407 147.201 149.928  1.00  0.00     0.123 A 
ATOM      9  C   UNL     1     168.605 148.243 150.390  1.00  0.00     0.094 A 
ATOM     10  C   UNL     1     168.418 149.389 149.615  1.00  0.00     0.146 A 
ATOM     11  O   UNL     1     167.657 150.366 150.099  1.00  0.00    -0.456 OA
ENDROOT
BRANCH   1  12
ATOM     12  C   UNL     1     166.555 152.524 150.088  1.00  0.00     0.021 A 
ATOM     13  C   UNL     1     166.921 153.882 150.146  1.00  0.00     0.016 A 
ATOM     14  C   UNL     1     166.071 154.820 150.738  1.00  0.00     0.051 A 
ATOM     15  C   UNL     1     164.840 154.421 151.275  1.00  0.00     0.157 A 
ATOM     16  C   UNL     1     165.312 152.133 150.616  1.00  0.00     0.062 A 
ATOM     17  C   UNL     1     164.459 153.071 151.211  1.00  0.00     0.158 A 
BRANCH  15  18
ATOM     18  O   UNL     1     163.996 155.359 151.867  1.00  0.00    -0.504 OA
ATOM     19  H   UNL     1     163.878 155.408 152.872  1.00  0.00     0.293 HD
ENDBRANCH  15  18
BRANCH  17  20
ATOM     20  O   UNL     1     163.239 152.641 151.732  1.00  0.00    -0.504 OA
ATOM     21  H   UNL     1     163.123 152.417 152.713  1.00  0.00     0.293 HD
ENDBRANCH  17  20
ENDBRANCH   1  12
BRANCH   6  22
ATOM     22  O   UNL     1     170.383 148.369 146.581  1.00  0.00    -0.507 OA
ATOM     23  H   UNL     1     169.888 148.131 145.735  1.00  0.00     0.293 HD
ENDBRANCH   6  22
BRANCH   8  24
ATOM     24  O   UNL     1     169.596 146.074 150.726  1.00  0.00    -0.508 OA
ATOM     25  H   UNL     1     169.893 146.152 151.691  1.00  0.00     0.293 HD
ENDBRANCH   8  24
TORSDOF 5
ENDMDL
MODEL 6
REMARK VINA RESULT:    -6.780      3.055      5.677
REMARK INTER + INTRA:          -8.232
REMARK INTER:                  -7.941
REMARK INTRA:                  -0.291
REMARK UNBOUND:                -0.263
REMARK SMILES O=c1cc(-c2ccc(O)c(O)c2)oc2cc(O)cc(O)c12
REMARK SMILES IDX 4 1 3 2 2 3 1 4 21 5 19 6 18 7 16 8 15 9 14 10 13 11 5 12
REMARK SMILES IDX 6 13 7 14 8 15 12 16 10 17 9 18 11 20 20 22 17 24
REMARK H PARENT 9 19 11 21 20 23 17 25
REMARK Flexibility Score: inf
ROOT
ATOM      1  C   UNL     1     167.271 150.269 150.186  1.00  0.00     0.138 A 
ATOM      2  C   UNL     1     168.305 150.367 149.244  1.00  0.00     0.100 A 
ATOM      3  C   UNL     1     169.139 149.271 149.020  1.00  0.00     0.197 A 
ATOM      4  O   UNL     1     170.096 149.408 148.215  1.00  0.00    -0.289 OA
ATOM      5  C   UNL     1     168.917 148.061 149.721  1.00  0.00     0.107 A 
ATOM      6  C   UNL     1     169.679 146.867 149.545  1.00  0.00     0.134 A 
ATOM      7  C   UNL     1     169.440 145.768 150.379  1.00  0.00     0.093 A 
ATOM      8  C   UNL     1     168.428 145.798 151.341  1.00  0.00     0.123 A 
ATOM      9  C   UNL     1     167.643 146.941 151.484  1.00  0.00     0.094 A 
ATOM     10  C   UNL     1     167.879 148.066 150.691  1.00  0.00     0.146 A 
ATOM     11  O   UNL     1     167.117 149.140 150.870  1.00  0.00    -0.456 OA
ENDROOT
BRANCH   1  12
ATOM     12  C   UNL     1     166.353 151.403 150.462  1.00  0.00     0.021 A 
ATOM     13  C   UNL     1     165.128 151.218 151.130  1.00  0.00     0.016 A 
ATOM     14  C   UNL     1     164.289 152.305 151.387  1.00  0.00     0.051 A 
ATOM     15  C   UNL     1     164.660 153.595 150.989  1.00  0.00     0.157 A 
ATOM     16  C   UNL     1     166.726 152.704 150.079  1.00  0.00     0.062 A 
ATOM     17  C   UNL     1     165.886 153.795 150.334  1.00  0.00     0.158 A 
BRANCH  15  18
ATOM     18  O   UNL     1     163.819 154.677 151.246  1.00  0.00    -0.504 OA
ATOM     19  H   UNL     1     163.382 155.200 150.495  1.00  0.00     0.293 HD
ENDBRANCH  15  18
BRANCH  17  20
ATOM     20  O   UNL     1     166.288 155.067 149.928  1.00  0.00    -0.504 OA
ATOM     21  H   UNL     1     166.921 155.208 149.150  1.00  0.00     0.293 HD
ENDBRANCH  17  20
ENDBRANCH   1  12
BRANCH   6  22
ATOM     22  O   UNL     1     170.654 146.703 148.558  1.00  0.00    -0.507 OA
ATOM     23  H   UNL     1     170.467 146.455 147.598  1.00  0.00     0.293 HD
ENDBRANCH   6  22
BRANCH   8  24
ATOM     24  O   UNL     1     168.188 144.694 152.156  1.00  0.00    -0.508 OA
ATOM     25  H   UNL     1     167.333 144.155 152.079  1.00  0.00     0.293 HD
ENDBRANCH   8  24
TORSDOF 5
ENDMDL
MODEL 7
REMARK VINA RESULT:    -6.760      3.071      8.669
REMARK INTER + INTRA:          -8.209
REMARK INTER:                  -7.918
REMARK INTRA:                  -0.291
REMARK UNBOUND:                -0.263
REMARK SMILES O=c1cc(-c2ccc(O)c(O)c2)oc2cc(O)cc(O)c12
REMARK SMILES IDX 4 1 3 2 2 3 1 4 21 5 19 6 18 7 16 8 15 9 14 10 13 11 5 12
REMARK SMILES IDX 6 13 7 14 8 15 12 16 10 17 9 18 11 20 20 22 17 24
REMARK H PARENT 9 19 11 21 20 23 17 25
REMARK Flexibility Score: inf
ROOT
ATOM      1  C   UNL     1     167.815 149.677 150.096  1.00  0.00     0.138 A 
ATOM      2  C   UNL     1     168.590 150.655 149.458  1.00  0.00     0.100 A 
ATOM      3  C   UNL     1     168.127 151.970 149.397  1.00  0.00     0.197 A 
ATOM      4  O   UNL     1     168.815 152.814 148.765  1.00  0.00    -0.289 OA
ATOM      5  C   UNL     1     166.895 152.312 150.006  1.00  0.00     0.107 A 
ATOM      6  C   UNL     1     166.344 153.628 150.041  1.00  0.00     0.134 A 
ATOM      7  C   UNL     1     165.062 153.824 150.570  1.00  0.00     0.093 A 
ATOM      8  C   UNL     1     164.338 152.763 151.119  1.00  0.00     0.123 A 
ATOM      9  C   UNL     1     164.891 151.485 151.137  1.00  0.00     0.094 A 
ATOM     10  C   UNL     1     166.153 151.250 150.587  1.00  0.00     0.146 A 
ATOM     11  O   UNL     1     166.637 150.013 150.612  1.00  0.00    -0.456 OA
ENDROOT
BRANCH   1  12
ATOM     12  C   UNL     1     168.260 148.264 150.191  1.00  0.00     0.021 A 
ATOM     13  C   UNL     1     167.696 147.372 151.122  1.00  0.00     0.016 A 
ATOM     14  C   UNL     1     168.126 146.043 151.182  1.00  0.00     0.051 A 
ATOM     15  C   UNL     1     169.120 145.581 150.311  1.00  0.00     0.157 A 
ATOM     16  C   UNL     1     169.248 147.788 149.310  1.00  0.00     0.062 A 
ATOM     17  C   UNL     1     169.681 146.458 149.369  1.00  0.00     0.158 A 
BRANCH  15  18
ATOM     18  O   UNL     1     169.548 144.256 150.376  1.00  0.00    -0.504 OA
ATOM     19  H   UNL     1     168.925 143.486 150.164  1.00  0.00     0.293 HD
ENDBRANCH  15  18
BRANCH  17  20
ATOM     20  O   UNL     1     170.670 146.029 148.484  1.00  0.00    -0.504 OA
ATOM     21  H   UNL     1     170.793 145.052 148.248  1.00  0.00     0.293 HD
ENDBRANCH  17  20
ENDBRANCH   1  12
BRANCH   6  22
ATOM     22  O   UNL     1     167.018 154.769 149.597  1.00  0.00    -0.507 OA
ATOM     23  H   UNL     1     166.663 155.419 148.912  1.00  0.00     0.293 HD
ENDBRANCH   6  22
BRANCH   8  24
ATOM     24  O   UNL     1     163.070 152.971 151.657  1.00  0.00    -0.508 OA
ATOM     25  H   UNL     1     162.893 153.712 152.325  1.00  0.00     0.293 HD
ENDBRANCH   8  24
TORSDOF 5
ENDMDL
MODEL 8
REMARK VINA RESULT:    -6.739      2.463      4.071
REMARK INTER + INTRA:          -8.184
REMARK INTER:                  -7.915
REMARK INTRA:                  -0.269
REMARK UNBOUND:                -0.263
REMARK SMILES O=c1cc(-c2ccc(O)c(O)c2)oc2cc(O)cc(O)c12
REMARK SMILES IDX 4 1 3 2 2 3 1 4 21 5 19 6 18 7 16 8 15 9 14 10 13 11 5 12
REMARK SMILES IDX 6 13 7 14 8 15 12 16 10 17 9 18 11 20 20 22 17 24
REMARK H PARENT 9 19 11 21 20 23 17 25
REMARK Flexibility Score: inf
ROOT
ATOM      1  C   UNL     1     166.671 152.267 149.389  1.00  0.00     0.138 A 
ATOM      2  C   UNL     1     166.128 151.904 148.148  1.00  0.00     0.100 A 
ATOM      3  C   UNL     1     166.808 150.993 147.338  1.00  0.00     0.197 A 
ATOM      4  O   UNL     1     166.328 150.733 146.204  1.00  0.00    -0.289 OA
ATOM      5  C   UNL     1     168.022 150.420 147.788  1.00  0.00     0.107 A 
ATOM      6  C   UNL     1     168.780 149.451 147.064  1.00  0.00     0.134 A 
ATOM      7  C   UNL     1     170.026 149.043 147.557  1.00  0.00     0.093 A 
ATOM      8  C   UNL     1     170.512 149.522 148.776  1.00  0.00     0.123 A 
ATOM      9  C   UNL     1     169.754 150.428 149.515  1.00  0.00     0.094 A 
ATOM     10  C   UNL     1     168.524 150.881 149.034  1.00  0.00     0.146 A 
ATOM     11  O   UNL     1     167.839 151.756 149.763  1.00  0.00    -0.456 OA
ENDROOT
BRANCH   1  12
ATOM     12  C   UNL     1     165.990 153.230 150.290  1.00  0.00     0.021 A 
ATOM     13  C   UNL     1     166.631 154.397 150.746  1.00  0.00     0.016 A 
ATOM     14  C   UNL     1     165.963 155.292 151.585  1.00  0.00     0.051 A 
ATOM     15  C   UNL     1     164.642 155.042 151.978  1.00  0.00     0.157 A 
ATOM     16  C   UNL     1     164.658 152.994 150.677  1.00  0.00     0.062 A 
ATOM     17  C   UNL     1     163.987 153.888 151.519  1.00  0.00     0.158 A 
BRANCH  15  18
ATOM     18  O   UNL     1     163.979 155.936 152.817  1.00  0.00    -0.504 OA
ATOM     19  H   UNL     1     163.927 156.926 152.604  1.00  0.00     0.293 HD
ENDBRANCH  15  18
BRANCH  17  20
ATOM     20  O   UNL     1     162.670 153.611 151.888  1.00  0.00    -0.504 OA
ATOM     21  H   UNL     1     161.907 153.650 151.223  1.00  0.00     0.293 HD
ENDBRANCH  17  20
ENDBRANCH   1  12
BRANCH   6  22
ATOM     22  O   UNL     1     168.347 148.845 145.882  1.00  0.00    -0.507 OA
ATOM     23  H   UNL     1     168.518 147.884 145.630  1.00  0.00     0.293 HD
ENDBRANCH   6  22
BRANCH   8  24
ATOM     24  O   UNL     1     171.746 149.099 149.265  1.00  0.00    -0.508 OA
ATOM     25  H   UNL     1     172.250 148.331 148.838  1.00  0.00     0.293 HD
ENDBRANCH   8  24
TORSDOF 5
ENDMDL
MODEL 9
REMARK VINA RESULT:    -6.668      5.475      8.110
REMARK INTER + INTRA:          -8.101
REMARK INTER:                  -7.788
REMARK INTRA:                  -0.312
REMARK UNBOUND:                -0.263
REMARK SMILES O=c1cc(-c2ccc(O)c(O)c2)oc2cc(O)cc(O)c12
REMARK SMILES IDX 4 1 3 2 2 3 1 4 21 5 19 6 18 7 16 8 15 9 14 10 13 11 5 12
REMARK SMILES IDX 6 13 7 14 8 15 12 16 10 17 9 18 11 20 20 22 17 24
REMARK H PARENT 9 19 11 21 20 23 17 25
REMARK Flexibility Score: inf
ROOT
ATOM      1  C   UNL     1     169.411 148.277 149.632  1.00  0.00     0.138 A 
ATOM      2  C   UNL     1     170.139 147.225 149.060  1.00  0.00     0.100 A 
ATOM      3  C   UNL     1     170.025 145.939 149.590  1.00  0.00     0.197 A 
ATOM      4  O   UNL     1     170.737 145.027 149.095  1.00  0.00    -0.289 OA
ATOM      5  C   UNL     1     169.153 145.701 150.680  1.00  0.00     0.107 A 
ATOM      6  C   UNL     1     168.926 144.425 151.276  1.00  0.00     0.134 A 
ATOM      7  C   UNL     1     168.130 144.332 152.424  1.00  0.00     0.093 A 
ATOM      8  C   UNL     1     167.504 145.459 152.961  1.00  0.00     0.123 A 
ATOM      9  C   UNL     1     167.676 146.701 152.355  1.00  0.00     0.094 A 
ATOM     10  C   UNL     1     168.492 146.832 151.228  1.00  0.00     0.146 A 
ATOM     11  O   UNL     1     168.641 148.038 150.689  1.00  0.00    -0.456 OA
ENDROOT
BRANCH   1  12
ATOM     12  C   UNL     1     169.494 149.664 149.108  1.00  0.00     0.021 A 
ATOM     13  C   UNL     1     169.910 149.932 147.790  1.00  0.00     0.016 A 
ATOM     14  C   UNL     1     169.968 151.247 147.319  1.00  0.00     0.051 A 
ATOM     15  C   UNL     1     169.607 152.314 148.151  1.00  0.00     0.157 A 
ATOM     16  C   UNL     1     169.118 150.740 149.932  1.00  0.00     0.062 A 
ATOM     17  C   UNL     1     169.178 152.057 149.463  1.00  0.00     0.158 A 
BRANCH  15  18
ATOM     18  O   UNL     1     169.668 153.624 147.678  1.00  0.00    -0.504 OA
ATOM     19  H   UNL     1     168.834 154.188 147.567  1.00  0.00     0.293 HD
ENDBRANCH  15  18
BRANCH  17  20
ATOM     20  O   UNL     1     168.806 153.097 150.316  1.00  0.00    -0.504 OA
ATOM     21  H   UNL     1     169.473 153.555 150.926  1.00  0.00     0.293 HD
ENDBRANCH  17  20
ENDBRANCH   1  12
BRANCH   6  22
ATOM     22  O   UNL     1     169.434 143.226 150.769  1.00  0.00    -0.507 OA
ATOM     23  H   UNL     1     170.296 142.794 151.064  1.00  0.00     0.293 HD
ENDBRANCH   6  22
BRANCH   8  24
ATOM     24  O   UNL     1     166.701 145.354 154.095  1.00  0.00    -0.508 OA
ATOM     25  H   UNL     1     166.325 146.174 154.556  1.00  0.00     0.293 HD
ENDBRANCH   8  24
TORSDOF 5
ENDMDL
