MODEL 1
REMARK VINA RESULT:    -4.678      0.000      0.000
REMARK INTER + INTRA:         -13.094
REMARK INTER:                 -10.148
REMARK INTRA:                  -2.946
REMARK UNBOUND:                -2.946
REMARK SMILES CCCCCCCCCCCCCCCCCCCCCC(=O)[O-]
REMARK SMILES IDX 12 1 11 2 10 3 9 4 8 5 7 6 6 7 5 8 4 9 3 10 2 11 1 12 13 13
REMARK SMILES IDX 14 14 15 15 16 16 17 17 18 18 19 19 20 20 21 21 22 22 23 23
REMARK SMILES IDX 24 24
REMARK H PARENT
REMARK Flexibility Score: inf
ROOT
ATOM      1  C   UNL     1      47.531   9.919  24.494  1.00  0.00     0.000 C 
ENDROOT
BRANCH   1   2
ATOM      2  C   UNL     1      46.928  10.723  23.328  1.00  0.00     0.000 C 
BRANCH   2   3
ATOM      3  C   UNL     1      45.998   9.884  22.439  1.00  0.00     0.000 C 
BRANCH   3   4
ATOM      4  C   UNL     1      46.250  10.171  20.954  1.00  0.00    -0.000 C 
BRANCH   4   5
ATOM      5  C   UNL     1      46.714   8.908  20.220  1.00  0.00    -0.000 C 
BRANCH   5   6
ATOM      6  C   UNL     1      46.806   7.715  21.183  1.00  0.00    -0.000 C 
BRANCH   6   7
ATOM      7  C   UNL     1      48.213   7.096  21.231  1.00  0.00    -0.000 C 
BRANCH   7   8
ATOM      8  C   UNL     1      49.311   8.098  20.837  1.00  0.00    -0.000 C 
BRANCH   8   9
ATOM      9  C   UNL     1      50.550   7.413  20.235  1.00  0.00    -0.000 C 
BRANCH   9  10
ATOM     10  C   UNL     1      50.849   7.886  18.801  1.00  0.00    -0.000 C 
BRANCH  10  11
ATOM     11  C   UNL     1      49.806   8.889  18.284  1.00  0.00    -0.003 C 
ATOM     12  C   UNL     1      49.413   8.639  16.828  1.00  0.00     0.004 C 
ENDBRANCH  10  11
ENDBRANCH   9  10
ENDBRANCH   8   9
ENDBRANCH   7   8
ENDBRANCH   6   7
ENDBRANCH   5   6
ENDBRANCH   4   5
ENDBRANCH   3   4
ENDBRANCH   2   3
ENDBRANCH   1   2
BRANCH   1  13
ATOM     13  C   UNL     1      48.863   9.214  24.177  1.00  0.00     0.000 C 
BRANCH  13  14
ATOM     14  C   UNL     1      48.948   7.798  24.766  1.00  0.00     0.000 C 
BRANCH  14  15
ATOM     15  C   UNL     1      50.324   7.172  24.499  1.00  0.00     0.000 C 
BRANCH  15  16
ATOM     16  C   UNL     1      50.342   5.656  24.756  1.00  0.00     0.000 C 
BRANCH  16  17
ATOM     17  C   UNL     1      49.319   4.896  23.894  1.00  0.00     0.000 C 
BRANCH  17  18
ATOM     18  C   UNL     1      49.941   3.698  23.162  1.00  0.00     0.000 C 
BRANCH  18  19
ATOM     19  C   UNL     1      49.938   3.876  21.633  1.00  0.00     0.000 C 
BRANCH  19  20
ATOM     20  C   UNL     1      50.389   2.608  20.885  1.00  0.00     0.006 C 
BRANCH  20  21
ATOM     21  C   UNL     1      51.869   2.247  21.091  1.00  0.00     0.053 C 
BRANCH  21  22
ATOM     22  C   UNL     1      52.704   2.592  19.897  1.00  0.00     0.041 C 
ATOM     23  O   UNL     1      52.169   3.096  18.874  1.00  0.00    -0.550 OA
ATOM     24  O   UNL     1      54.079   2.392  19.926  1.00  0.00    -0.550 OA
ENDBRANCH  21  22
ENDBRANCH  20  21
ENDBRANCH  19  20
ENDBRANCH  18  19
ENDBRANCH  17  18
ENDBRANCH  16  17
ENDBRANCH  15  16
ENDBRANCH  14  15
ENDBRANCH  13  14
ENDBRANCH   1  13
TORSDOF 20
ENDMDL
MODEL 2
REMARK VINA RESULT:    -4.545      2.597      5.334
REMARK INTER + INTRA:         -12.805
REMARK INTER:                  -9.359
REMARK INTRA:                  -3.447
REMARK UNBOUND:                -2.946
REMARK SMILES CCCCCCCCCCCCCCCCCCCCCC(=O)[O-]
REMARK SMILES IDX 12 1 11 2 10 3 9 4 8 5 7 6 6 7 5 8 4 9 3 10 2 11 1 12 13 13
REMARK SMILES IDX 14 14 15 15 16 16 17 17 18 18 19 19 20 20 21 21 22 22 23 23
REMARK SMILES IDX 24 24
REMARK H PARENT
REMARK Flexibility Score: inf
ROOT
ATOM      1  C   UNL     1      48.528   8.792  24.304  1.00  0.00     0.000 C 
ENDROOT
BRANCH   1   2
ATOM      2  C   UNL     1      50.000   8.456  24.604  1.00  0.00     0.000 C 
BRANCH   2   3
ATOM      3  C   UNL     1      50.354   6.993  24.300  1.00  0.00     0.000 C 
BRANCH   3   4
ATOM      4  C   UNL     1      50.367   6.151  25.582  1.00  0.00    -0.000 C 
BRANCH   4   5
ATOM      5  C   UNL     1      49.451   4.929  25.449  1.00  0.00    -0.000 C 
BRANCH   5   6
ATOM      6  C   UNL     1      49.463   4.388  24.011  1.00  0.00    -0.000 C 
BRANCH   6   7
ATOM      7  C   UNL     1      49.003   2.923  23.923  1.00  0.00    -0.000 C 
BRANCH   7   8
ATOM      8  C   UNL     1      48.941   2.411  22.474  1.00  0.00    -0.000 C 
BRANCH   8   9
ATOM      9  C   UNL     1      50.306   2.467  21.768  1.00  0.00    -0.000 C 
BRANCH   9  10
ATOM     10  C   UNL     1      50.314   3.435  20.571  1.00  0.00    -0.000 C 
BRANCH  10  11
ATOM     11  C   UNL     1      51.370   3.059  19.520  1.00  0.00    -0.003 C 
ATOM     12  C   UNL     1      51.854   4.260  18.709  1.00  0.00     0.004 C 
ENDBRANCH  10  11
ENDBRANCH   9  10
ENDBRANCH   8   9
ENDBRANCH   7   8
ENDBRANCH   6   7
ENDBRANCH   5   6
ENDBRANCH   4   5
ENDBRANCH   3   4
ENDBRANCH   2   3
ENDBRANCH   1   2
BRANCH   1  13
ATOM     13  C   UNL     1      47.548   8.506  25.456  1.00  0.00     0.000 C 
BRANCH  13  14
ATOM     14  C   UNL     1      46.665   7.275  25.200  1.00  0.00     0.000 C 
BRANCH  14  15
ATOM     15  C   UNL     1      46.128   7.272  23.761  1.00  0.00     0.000 C 
BRANCH  15  16
ATOM     16  C   UNL     1      46.245   5.893  23.091  1.00  0.00     0.000 C 
BRANCH  16  17
ATOM     17  C   UNL     1      46.692   5.984  21.621  1.00  0.00     0.000 C 
BRANCH  17  18
ATOM     18  C   UNL     1      48.197   6.254  21.480  1.00  0.00     0.000 C 
BRANCH  18  19
ATOM     19  C   UNL     1      48.498   7.452  20.562  1.00  0.00     0.000 C 
BRANCH  19  20
ATOM     20  C   UNL     1      49.969   7.898  20.628  1.00  0.00     0.006 C 
BRANCH  20  21
ATOM     21  C   UNL     1      50.673   7.956  19.262  1.00  0.00     0.053 C 
BRANCH  21  22
ATOM     22  C   UNL     1      50.040   8.956  18.345  1.00  0.00     0.041 C 
ATOM     23  O   UNL     1      49.540   8.585  17.250  1.00  0.00    -0.550 OA
ATOM     24  O   UNL     1      49.968  10.294  18.715  1.00  0.00    -0.550 OA
ENDBRANCH  21  22
ENDBRANCH  20  21
ENDBRANCH  19  20
ENDBRANCH  18  19
ENDBRANCH  17  18
ENDBRANCH  16  17
ENDBRANCH  15  16
ENDBRANCH  14  15
ENDBRANCH  13  14
ENDBRANCH   1  13
TORSDOF 20
ENDMDL
MODEL 3
REMARK VINA RESULT:    -4.483      2.085      4.455
REMARK INTER + INTRA:         -12.670
REMARK INTER:                  -9.238
REMARK INTRA:                  -3.431
REMARK UNBOUND:                -2.946
REMARK SMILES CCCCCCCCCCCCCCCCCCCCCC(=O)[O-]
REMARK SMILES IDX 12 1 11 2 10 3 9 4 8 5 7 6 6 7 5 8 4 9 3 10 2 11 1 12 13 13
REMARK SMILES IDX 14 14 15 15 16 16 17 17 18 18 19 19 20 20 21 21 22 22 23 23
REMARK SMILES IDX 24 24
REMARK H PARENT
REMARK Flexibility Score: inf
ROOT
ATOM      1  C   UNL     1      47.530   4.927  22.912  1.00  0.00     0.000 C 
ENDROOT
BRANCH   1   2
ATOM      2  C   UNL     1      48.488   4.521  24.047  1.00  0.00     0.000 C 
BRANCH   2   3
ATOM      3  C   UNL     1      49.881   5.154  23.910  1.00  0.00     0.000 C 
BRANCH   3   4
ATOM      4  C   UNL     1      50.263   5.924  25.180  1.00  0.00    -0.000 C 
BRANCH   4   5
ATOM      5  C   UNL     1      49.285   7.073  25.445  1.00  0.00    -0.000 C 
BRANCH   5   6
ATOM      6  C   UNL     1      49.451   8.188  24.400  1.00  0.00    -0.000 C 
BRANCH   6   7
ATOM      7  C   UNL     1      48.142   8.509  23.659  1.00  0.00    -0.000 C 
BRANCH   7   8
ATOM      8  C   UNL     1      48.269   8.336  22.136  1.00  0.00    -0.000 C 
BRANCH   8   9
ATOM      9  C   UNL     1      49.708   8.017  21.695  1.00  0.00    -0.000 C 
BRANCH   9  10
ATOM     10  C   UNL     1      49.761   6.994  20.546  1.00  0.00    -0.000 C 
BRANCH  10  11
ATOM     11  C   UNL     1      50.601   7.490  19.358  1.00  0.00    -0.003 C 
ATOM     12  C   UNL     1      50.439   8.988  19.102  1.00  0.00     0.004 C 
ENDBRANCH  10  11
ENDBRANCH   9  10
ENDBRANCH   8   9
ENDBRANCH   7   8
ENDBRANCH   6   7
ENDBRANCH   5   6
ENDBRANCH   4   5
ENDBRANCH   3   4
ENDBRANCH   2   3
ENDBRANCH   1   2
BRANCH   1  13
ATOM     13  C   UNL     1      46.440   3.891  22.581  1.00  0.00     0.000 C 
BRANCH  13  14
ATOM     14  C   UNL     1      45.819   4.098  21.191  1.00  0.00     0.000 C 
BRANCH  14  15
ATOM     15  C   UNL     1      46.267   2.997  20.219  1.00  0.00     0.000 C 
BRANCH  15  16
ATOM     16  C   UNL     1      46.122   1.588  20.816  1.00  0.00     0.000 C 
BRANCH  16  17
ATOM     17  C   UNL     1      47.445   0.803  20.813  1.00  0.00     0.000 C 
BRANCH  17  18
ATOM     18  C   UNL     1      48.241   0.986  22.114  1.00  0.00     0.000 C 
BRANCH  18  19
ATOM     19  C   UNL     1      49.665   1.514  21.865  1.00  0.00     0.000 C 
BRANCH  19  20
ATOM     20  C   UNL     1      49.778   2.330  20.566  1.00  0.00     0.006 C 
BRANCH  20  21
ATOM     21  C   UNL     1      50.912   3.369  20.570  1.00  0.00     0.053 C 
BRANCH  21  22
ATOM     22  C   UNL     1      51.721   3.323  19.310  1.00  0.00     0.041 C 
ATOM     23  O   UNL     1      51.754   4.321  18.542  1.00  0.00    -0.550 OA
ATOM     24  O   UNL     1      52.467   2.192  19.002  1.00  0.00    -0.550 OA
ENDBRANCH  21  22
ENDBRANCH  20  21
ENDBRANCH  19  20
ENDBRANCH  18  19
ENDBRANCH  17  18
ENDBRANCH  16  17
ENDBRANCH  15  16
ENDBRANCH  14  15
ENDBRANCH  13  14
ENDBRANCH   1  13
TORSDOF 20
ENDMDL
MODEL 4
REMARK VINA RESULT:    -4.479      1.664      2.787
REMARK INTER + INTRA:         -12.662
REMARK INTER:                  -9.253
REMARK INTRA:                  -3.410
REMARK UNBOUND:                -2.946
REMARK SMILES CCCCCCCCCCCCCCCCCCCCCC(=O)[O-]
REMARK SMILES IDX 12 1 11 2 10 3 9 4 8 5 7 6 6 7 5 8 4 9 3 10 2 11 1 12 13 13
REMARK SMILES IDX 14 14 15 15 16 16 17 17 18 18 19 19 20 20 21 21 22 22 23 23
REMARK SMILES IDX 24 24
REMARK H PARENT
REMARK Flexibility Score: inf
ROOT
ATOM      1  C   UNL     1      49.437   8.240  23.337  1.00  0.00     0.000 C 
ENDROOT
BRANCH   1   2
ATOM      2  C   UNL     1      48.391   9.013  24.161  1.00  0.00     0.000 C 
BRANCH   2   3
ATOM      3  C   UNL     1      47.318   8.102  24.775  1.00  0.00     0.000 C 
BRANCH   3   4
ATOM      4  C   UNL     1      46.062   8.061  23.897  1.00  0.00    -0.000 C 
BRANCH   4   5
ATOM      5  C   UNL     1      46.088   9.176  22.845  1.00  0.00    -0.000 C 
BRANCH   5   6
ATOM      6  C   UNL     1      46.148   8.592  21.426  1.00  0.00    -0.000 C 
BRANCH   6   7
ATOM      7  C   UNL     1      47.094   9.375  20.499  1.00  0.00    -0.000 C 
BRANCH   7   8
ATOM      8  C   UNL     1      48.078   8.458  19.751  1.00  0.00    -0.000 C 
BRANCH   8   9
ATOM      9  C   UNL     1      48.984   9.231  18.779  1.00  0.00    -0.000 C 
BRANCH   9  10
ATOM     10  C   UNL     1      50.478   8.934  19.000  1.00  0.00    -0.000 C 
BRANCH  10  11
ATOM     11  C   UNL     1      50.719   7.522  19.558  1.00  0.00    -0.003 C 
ATOM     12  C   UNL     1      51.796   6.757  18.791  1.00  0.00     0.004 C 
ENDBRANCH  10  11
ENDBRANCH   9  10
ENDBRANCH   8   9
ENDBRANCH   7   8
ENDBRANCH   6   7
ENDBRANCH   5   6
ENDBRANCH   4   5
ENDBRANCH   3   4
ENDBRANCH   2   3
ENDBRANCH   1   2
BRANCH   1  13
ATOM     13  C   UNL     1      49.432   6.715  23.547  1.00  0.00     0.000 C 
BRANCH  13  14
ATOM     14  C   UNL     1      49.032   5.938  22.284  1.00  0.00     0.000 C 
BRANCH  14  15
ATOM     15  C   UNL     1      47.775   5.092  22.533  1.00  0.00     0.000 C 
BRANCH  15  16
ATOM     16  C   UNL     1      46.966   4.845  21.249  1.00  0.00     0.000 C 
BRANCH  16  17
ATOM     17  C   UNL     1      46.545   3.374  21.086  1.00  0.00     0.000 C 
BRANCH  17  18
ATOM     18  C   UNL     1      47.590   2.544  20.324  1.00  0.00     0.000 C 
BRANCH  18  19
ATOM     19  C   UNL     1      48.441   1.665  21.259  1.00  0.00     0.000 C 
BRANCH  19  20
ATOM     20  C   UNL     1      49.863   2.216  21.462  1.00  0.00     0.006 C 
BRANCH  20  21
ATOM     21  C   UNL     1      50.382   3.070  20.294  1.00  0.00     0.053 C 
BRANCH  21  22
ATOM     22  C   UNL     1      51.763   2.668  19.874  1.00  0.00     0.041 C 
ATOM     23  O   UNL     1      52.290   3.185  18.854  1.00  0.00    -0.550 OA
ATOM     24  O   UNL     1      52.482   1.750  20.631  1.00  0.00    -0.550 OA
ENDBRANCH  21  22
ENDBRANCH  20  21
ENDBRANCH  19  20
ENDBRANCH  18  19
ENDBRANCH  17  18
ENDBRANCH  16  17
ENDBRANCH  15  16
ENDBRANCH  14  15
ENDBRANCH  13  14
ENDBRANCH   1  13
TORSDOF 20
ENDMDL
MODEL 5
REMARK VINA RESULT:    -4.412      2.723      5.506
REMARK INTER + INTRA:         -12.516
REMARK INTER:                  -8.770
REMARK INTRA:                  -3.746
REMARK UNBOUND:                -2.946
REMARK SMILES CCCCCCCCCCCCCCCCCCCCCC(=O)[O-]
REMARK SMILES IDX 12 1 11 2 10 3 9 4 8 5 7 6 6 7 5 8 4 9 3 10 2 11 1 12 13 13
REMARK SMILES IDX 14 14 15 15 16 16 17 17 18 18 19 19 20 20 21 21 22 22 23 23
REMARK SMILES IDX 24 24
REMARK H PARENT
REMARK Flexibility Score: inf
ROOT
ATOM      1  C   UNL     1      46.842   4.255  24.767  1.00  0.00     0.000 C 
ENDROOT
BRANCH   1   2
ATOM      2  C   UNL     1      46.261   4.000  23.364  1.00  0.00     0.000 C 
BRANCH   2   3
ATOM      3  C   UNL     1      46.670   5.071  22.342  1.00  0.00     0.000 C 
BRANCH   3   4
ATOM      4  C   UNL     1      46.374   4.608  20.910  1.00  0.00    -0.000 C 
BRANCH   4   5
ATOM      5  C   UNL     1      45.913   3.147  20.887  1.00  0.00    -0.000 C 
BRANCH   5   6
ATOM      6  C   UNL     1      46.786   2.310  19.941  1.00  0.00    -0.000 C 
BRANCH   6   7
ATOM      7  C   UNL     1      47.157   0.938  20.531  1.00  0.00    -0.000 C 
BRANCH   7   8
ATOM      8  C   UNL     1      47.944   1.057  21.847  1.00  0.00    -0.000 C 
BRANCH   8   9
ATOM      9  C   UNL     1      49.441   1.326  21.619  1.00  0.00    -0.000 C 
BRANCH   9  10
ATOM     10  C   UNL     1      49.852   2.757  22.012  1.00  0.00    -0.000 C 
BRANCH  10  11
ATOM     11  C   UNL     1      49.993   3.682  20.794  1.00  0.00    -0.003 C 
ATOM     12  C   UNL     1      50.964   3.139  19.746  1.00  0.00     0.004 C 
ENDBRANCH  10  11
ENDBRANCH   9  10
ENDBRANCH   8   9
ENDBRANCH   7   8
ENDBRANCH   6   7
ENDBRANCH   5   6
ENDBRANCH   4   5
ENDBRANCH   3   4
ENDBRANCH   2   3
ENDBRANCH   1   2
BRANCH   1  13
ATOM     13  C   UNL     1      47.773   3.149  25.296  1.00  0.00     0.000 C 
BRANCH  13  14
ATOM     14  C   UNL     1      49.188   3.656  25.611  1.00  0.00     0.000 C 
BRANCH  14  15
ATOM     15  C   UNL     1      49.549   4.861  24.731  1.00  0.00     0.000 C 
BRANCH  15  16
ATOM     16  C   UNL     1      50.373   5.918  25.487  1.00  0.00     0.000 C 
BRANCH  16  17
ATOM     17  C   UNL     1      50.052   7.353  25.036  1.00  0.00     0.000 C 
BRANCH  17  18
ATOM     18  C   UNL     1      48.896   7.408  24.026  1.00  0.00     0.000 C 
BRANCH  18  19
ATOM     19  C   UNL     1      49.255   8.210  22.762  1.00  0.00     0.000 C 
BRANCH  19  20
ATOM     20  C   UNL     1      49.511   7.312  21.540  1.00  0.00     0.006 C 
BRANCH  20  21
ATOM     21  C   UNL     1      49.083   7.932  20.200  1.00  0.00     0.053 C 
BRANCH  21  22
ATOM     22  C   UNL     1      50.257   8.251  19.327  1.00  0.00     0.041 C 
ATOM     23  O   UNL     1      50.196   9.203  18.505  1.00  0.00    -0.550 OA
ATOM     24  O   UNL     1      51.433   7.519  19.446  1.00  0.00    -0.550 OA
ENDBRANCH  21  22
ENDBRANCH  20  21
ENDBRANCH  19  20
ENDBRANCH  18  19
ENDBRANCH  17  18
ENDBRANCH  16  17
ENDBRANCH  15  16
ENDBRANCH  14  15
ENDBRANCH  13  14
ENDBRANCH   1  13
TORSDOF 20
ENDMDL
MODEL 6
REMARK VINA RESULT:    -4.400      1.619      3.696
REMARK INTER + INTRA:         -12.490
REMARK INTER:                  -9.716
REMARK INTRA:                  -2.774
REMARK UNBOUND:                -2.946
REMARK SMILES CCCCCCCCCCCCCCCCCCCCCC(=O)[O-]
REMARK SMILES IDX 12 1 11 2 10 3 9 4 8 5 7 6 6 7 5 8 4 9 3 10 2 11 1 12 13 13
REMARK SMILES IDX 14 14 15 15 16 16 17 17 18 18 19 19 20 20 21 21 22 22 23 23
REMARK SMILES IDX 24 24
REMARK H PARENT
REMARK Flexibility Score: inf
ROOT
ATOM      1  C   UNL     1      49.463   6.194  22.821  1.00  0.00     0.000 C 
ENDROOT
BRANCH   1   2
ATOM      2  C   UNL     1      49.970   6.276  24.272  1.00  0.00     0.000 C 
BRANCH   2   3
ATOM      3  C   UNL     1      49.866   7.690  24.864  1.00  0.00     0.000 C 
BRANCH   3   4
ATOM      4  C   UNL     1      49.382   8.694  23.810  1.00  0.00    -0.000 C 
BRANCH   4   5
ATOM      5  C   UNL     1      48.069   9.357  24.242  1.00  0.00    -0.000 C 
BRANCH   5   6
ATOM      6  C   UNL     1      46.976   9.152  23.182  1.00  0.00    -0.000 C 
BRANCH   6   7
ATOM      7  C   UNL     1      47.397   9.651  21.789  1.00  0.00    -0.000 C 
BRANCH   7   8
ATOM      8  C   UNL     1      46.773   8.822  20.653  1.00  0.00    -0.000 C 
BRANCH   8   9
ATOM      9  C   UNL     1      47.802   8.413  19.585  1.00  0.00    -0.000 C 
BRANCH   9  10
ATOM     10  C   UNL     1      49.251   8.500  20.097  1.00  0.00    -0.000 C 
BRANCH  10  11
ATOM     11  C   UNL     1      50.270   8.629  18.954  1.00  0.00    -0.003 C 
ATOM     12  C   UNL     1      49.614   8.639  17.573  1.00  0.00     0.004 C 
ENDBRANCH  10  11
ENDBRANCH   9  10
ENDBRANCH   8   9
ENDBRANCH   7   8
ENDBRANCH   6   7
ENDBRANCH   5   6
ENDBRANCH   4   5
ENDBRANCH   3   4
ENDBRANCH   2   3
ENDBRANCH   1   2
BRANCH   1  13
ATOM     13  C   UNL     1      48.048   5.608  22.658  1.00  0.00     0.000 C 
BRANCH  13  14
ATOM     14  C   UNL     1      48.052   4.095  22.394  1.00  0.00     0.000 C 
BRANCH  14  15
ATOM     15  C   UNL     1      48.858   3.759  21.132  1.00  0.00     0.000 C 
BRANCH  15  16
ATOM     16  C   UNL     1      49.054   2.245  20.942  1.00  0.00     0.000 C 
BRANCH  16  17
ATOM     17  C   UNL     1      50.243   1.695  21.749  1.00  0.00     0.000 C 
BRANCH  17  18
ATOM     18  C   UNL     1      51.571   2.369  21.373  1.00  0.00     0.000 C 
BRANCH  18  19
ATOM     19  C   UNL     1      52.070   1.952  19.978  1.00  0.00     0.000 C 
BRANCH  19  20
ATOM     20  C   UNL     1      52.632   3.133  19.168  1.00  0.00     0.006 C 
BRANCH  20  21
ATOM     21  C   UNL     1      51.613   4.250  18.891  1.00  0.00     0.053 C 
BRANCH  21  22
ATOM     22  C   UNL     1      52.233   5.413  18.179  1.00  0.00     0.041 C 
ATOM     23  O   UNL     1      51.741   5.828  17.096  1.00  0.00    -0.550 OA
ATOM     24  O   UNL     1      53.332   6.062  18.729  1.00  0.00    -0.550 OA
ENDBRANCH  21  22
ENDBRANCH  20  21
ENDBRANCH  19  20
ENDBRANCH  18  19
ENDBRANCH  17  18
ENDBRANCH  16  17
ENDBRANCH  15  16
ENDBRANCH  14  15
ENDBRANCH  13  14
ENDBRANCH   1  13
TORSDOF 20
ENDMDL
MODEL 7
REMARK VINA RESULT:    -4.298      4.390      7.332
REMARK INTER + INTRA:         -12.269
REMARK INTER:                  -8.658
REMARK INTRA:                  -3.611
REMARK UNBOUND:                -2.946
REMARK SMILES CCCCCCCCCCCCCCCCCCCCCC(=O)[O-]
REMARK SMILES IDX 12 1 11 2 10 3 9 4 8 5 7 6 6 7 5 8 4 9 3 10 2 11 1 12 13 13
REMARK SMILES IDX 14 14 15 15 16 16 17 17 18 18 19 19 20 20 21 21 22 22 23 23
REMARK SMILES IDX 24 24
REMARK H PARENT
REMARK Flexibility Score: inf
ROOT
ATOM      1  C   UNL     1      46.094   3.029  20.825  1.00  0.00     0.000 C 
ENDROOT
BRANCH   1   2
ATOM      2  C   UNL     1      44.822   3.656  20.225  1.00  0.00     0.000 C 
BRANCH   2   3
ATOM      3  C   UNL     1      43.734   3.925  21.276  1.00  0.00     0.000 C 
BRANCH   3   4
ATOM      4  C   UNL     1      44.348   4.429  22.588  1.00  0.00    -0.000 C 
BRANCH   4   5
ATOM      5  C   UNL     1      43.554   3.925  23.798  1.00  0.00    -0.000 C 
BRANCH   5   6
ATOM      6  C   UNL     1      44.495   3.400  24.892  1.00  0.00    -0.000 C 
BRANCH   6   7
ATOM      7  C   UNL     1      45.915   3.118  24.372  1.00  0.00    -0.000 C 
BRANCH   7   8
ATOM      8  C   UNL     1      46.334   1.651  24.568  1.00  0.00    -0.000 C 
BRANCH   8   9
ATOM      9  C   UNL     1      45.635   0.700  23.582  1.00  0.00    -0.000 C 
BRANCH   9  10
ATOM     10  C   UNL     1      44.533  -0.142  24.252  1.00  0.00    -0.000 C 
BRANCH  10  11
ATOM     11  C   UNL     1      43.179  -0.010  23.538  1.00  0.00    -0.003 C 
ATOM     12  C   UNL     1      43.318   0.396  22.071  1.00  0.00     0.004 C 
ENDBRANCH  10  11
ENDBRANCH   9  10
ENDBRANCH   8   9
ENDBRANCH   7   8
ENDBRANCH   6   7
ENDBRANCH   5   6
ENDBRANCH   4   5
ENDBRANCH   3   4
ENDBRANCH   2   3
ENDBRANCH   1   2
BRANCH   1  13
ATOM     13  C   UNL     1      46.874   2.105  19.872  1.00  0.00     0.000 C 
BRANCH  13  14
ATOM     14  C   UNL     1      47.586   0.955  20.601  1.00  0.00     0.000 C 
BRANCH  14  15
ATOM     15  C   UNL     1      48.703   1.488  21.510  1.00  0.00     0.000 C 
BRANCH  15  16
ATOM     16  C   UNL     1      49.764   2.287  20.736  1.00  0.00     0.000 C 
BRANCH  16  17
ATOM     17  C   UNL     1      49.948   3.713  21.282  1.00  0.00     0.000 C 
BRANCH  17  18
ATOM     18  C   UNL     1      49.071   3.990  22.512  1.00  0.00     0.000 C 
BRANCH  18  19
ATOM     19  C   UNL     1      48.778   5.489  22.702  1.00  0.00     0.000 C 
BRANCH  19  20
ATOM     20  C   UNL     1      48.741   6.262  21.372  1.00  0.00     0.006 C 
BRANCH  20  21
ATOM     21  C   UNL     1      49.637   7.510  21.342  1.00  0.00     0.053 C 
BRANCH  21  22
ATOM     22  C   UNL     1      49.856   8.013  19.949  1.00  0.00     0.041 C 
ATOM     23  O   UNL     1      51.009   7.997  19.443  1.00  0.00    -0.550 OA
ATOM     24  O   UNL     1      48.780   8.465  19.194  1.00  0.00    -0.550 OA
ENDBRANCH  21  22
ENDBRANCH  20  21
ENDBRANCH  19  20
ENDBRANCH  18  19
ENDBRANCH  17  18
ENDBRANCH  16  17
ENDBRANCH  15  16
ENDBRANCH  14  15
ENDBRANCH  13  14
ENDBRANCH   1  13
TORSDOF 20
ENDMDL
MODEL 8
REMARK VINA RESULT:    -4.265      1.508      3.413
REMARK INTER + INTRA:         -12.198
REMARK INTER:                  -8.458
REMARK INTRA:                  -3.740
REMARK UNBOUND:                -2.946
REMARK SMILES CCCCCCCCCCCCCCCCCCCCCC(=O)[O-]
REMARK SMILES IDX 12 1 11 2 10 3 9 4 8 5 7 6 6 7 5 8 4 9 3 10 2 11 1 12 13 13
REMARK SMILES IDX 14 14 15 15 16 16 17 17 18 18 19 19 20 20 21 21 22 22 23 23
REMARK SMILES IDX 24 24
REMARK H PARENT
REMARK Flexibility Score: inf
ROOT
ATOM      1  C   UNL     1      49.750   5.617  26.106  1.00  0.00     0.000 C 
ENDROOT
BRANCH   1   2
ATOM      2  C   UNL     1      50.658   6.407  25.145  1.00  0.00     0.000 C 
BRANCH   2   3
ATOM      3  C   UNL     1      49.965   6.762  23.821  1.00  0.00     0.000 C 
BRANCH   3   4
ATOM      4  C   UNL     1      49.616   8.254  23.765  1.00  0.00    -0.000 C 
BRANCH   4   5
ATOM      5  C   UNL     1      48.157   8.495  24.169  1.00  0.00    -0.000 C 
BRANCH   5   6
ATOM      6  C   UNL     1      47.417   9.309  23.098  1.00  0.00    -0.000 C 
BRANCH   6   7
ATOM      7  C   UNL     1      46.440   8.456  22.271  1.00  0.00    -0.000 C 
BRANCH   7   8
ATOM      8  C   UNL     1      46.459   8.821  20.776  1.00  0.00    -0.000 C 
BRANCH   8   9
ATOM      9  C   UNL     1      47.859   9.227  20.284  1.00  0.00    -0.000 C 
BRANCH   9  10
ATOM     10  C   UNL     1      48.765   8.012  20.013  1.00  0.00    -0.000 C 
BRANCH  10  11
ATOM     11  C   UNL     1      50.253   8.392  19.960  1.00  0.00    -0.003 C 
ATOM     12  C   UNL     1      51.087   7.409  19.138  1.00  0.00     0.004 C 
ENDBRANCH  10  11
ENDBRANCH   9  10
ENDBRANCH   8   9
ENDBRANCH   7   8
ENDBRANCH   6   7
ENDBRANCH   5   6
ENDBRANCH   4   5
ENDBRANCH   3   4
ENDBRANCH   2   3
ENDBRANCH   1   2
BRANCH   1  13
ATOM     13  C   UNL     1      48.843   4.572  25.430  1.00  0.00     0.000 C 
BRANCH  13  14
ATOM     14  C   UNL     1      47.349   4.814  25.696  1.00  0.00     0.000 C 
BRANCH  14  15
ATOM     15  C   UNL     1      46.622   5.236  24.412  1.00  0.00     0.000 C 
BRANCH  15  16
ATOM     16  C   UNL     1      46.858   4.255  23.251  1.00  0.00     0.000 C 
BRANCH  16  17
ATOM     17  C   UNL     1      47.187   4.969  21.928  1.00  0.00     0.000 C 
BRANCH  17  18
ATOM     18  C   UNL     1      48.574   4.595  21.387  1.00  0.00     0.000 C 
BRANCH  18  19
ATOM     19  C   UNL     1      49.067   3.236  21.917  1.00  0.00     0.000 C 
BRANCH  19  20
ATOM     20  C   UNL     1      50.602   3.124  21.934  1.00  0.00     0.006 C 
BRANCH  20  21
ATOM     21  C   UNL     1      51.164   2.021  21.023  1.00  0.00     0.053 C 
BRANCH  21  22
ATOM     22  C   UNL     1      51.762   2.578  19.769  1.00  0.00     0.041 C 
ATOM     23  O   UNL     1      52.583   1.896  19.100  1.00  0.00    -0.550 OA
ATOM     24  O   UNL     1      51.385   3.837  19.316  1.00  0.00    -0.550 OA
ENDBRANCH  21  22
ENDBRANCH  20  21
ENDBRANCH  19  20
ENDBRANCH  18  19
ENDBRANCH  17  18
ENDBRANCH  16  17
ENDBRANCH  15  16
ENDBRANCH  14  15
ENDBRANCH  13  14
ENDBRANCH   1  13
TORSDOF 20
ENDMDL
MODEL 9
REMARK VINA RESULT:    -4.242      3.635      7.319
REMARK INTER + INTRA:         -12.148
REMARK INTER:                  -8.476
REMARK INTRA:                  -3.671
REMARK UNBOUND:                -2.946
REMARK SMILES CCCCCCCCCCCCCCCCCCCCCC(=O)[O-]
REMARK SMILES IDX 12 1 11 2 10 3 9 4 8 5 7 6 6 7 5 8 4 9 3 10 2 11 1 12 13 13
REMARK SMILES IDX 14 14 15 15 16 16 17 17 18 18 19 19 20 20 21 21 22 22 23 23
REMARK SMILES IDX 24 24
REMARK H PARENT
REMARK Flexibility Score: inf
ROOT
ATOM      1  C   UNL     1      47.041   2.687  20.156  1.00  0.00     0.000 C 
ENDROOT
BRANCH   1   2
ATOM      2  C   UNL     1      46.829   1.163  20.192  1.00  0.00     0.000 C 
BRANCH   2   3
ATOM      3  C   UNL     1      47.978   0.414  20.884  1.00  0.00     0.000 C 
BRANCH   3   4
ATOM      4  C   UNL     1      47.447  -0.527  21.972  1.00  0.00    -0.000 C 
BRANCH   4   5
ATOM      5  C   UNL     1      48.422  -0.612  23.151  1.00  0.00    -0.000 C 
BRANCH   5   6
ATOM      6  C   UNL     1      49.555  -1.607  22.858  1.00  0.00    -0.000 C 
BRANCH   6   7
ATOM      7  C   UNL     1      50.946  -1.040  23.187  1.00  0.00    -0.000 C 
BRANCH   7   8
ATOM      8  C   UNL     1      51.497  -0.144  22.065  1.00  0.00    -0.000 C 
BRANCH   8   9
ATOM      9  C   UNL     1      51.569   1.337  22.472  1.00  0.00    -0.000 C 
BRANCH   9  10
ATOM     10  C   UNL     1      51.060   2.281  21.367  1.00  0.00    -0.000 C 
BRANCH  10  11
ATOM     11  C   UNL     1      51.984   2.299  20.140  1.00  0.00    -0.003 C 
ATOM     12  C   UNL     1      51.625   3.401  19.143  1.00  0.00     0.004 C 
ENDBRANCH  10  11
ENDBRANCH   9  10
ENDBRANCH   8   9
ENDBRANCH   7   8
ENDBRANCH   6   7
ENDBRANCH   5   6
ENDBRANCH   4   5
ENDBRANCH   3   4
ENDBRANCH   2   3
ENDBRANCH   1   2
BRANCH   1  13
ATOM     13  C   UNL     1      45.805   3.525  20.535  1.00  0.00     0.000 C 
BRANCH  13  14
ATOM     14  C   UNL     1      44.841   2.781  21.471  1.00  0.00     0.000 C 
BRANCH  14  15
ATOM     15  C   UNL     1      45.019   3.242  22.925  1.00  0.00     0.000 C 
BRANCH  15  16
ATOM     16  C   UNL     1      45.779   2.216  23.781  1.00  0.00     0.000 C 
BRANCH  16  17
ATOM     17  C   UNL     1      46.999   2.826  24.493  1.00  0.00     0.000 C 
BRANCH  17  18
ATOM     18  C   UNL     1      48.121   3.207  23.516  1.00  0.00     0.000 C 
BRANCH  18  19
ATOM     19  C   UNL     1      48.382   4.724  23.481  1.00  0.00     0.000 C 
BRANCH  19  20
ATOM     20  C   UNL     1      49.284   5.146  22.308  1.00  0.00     0.006 C 
BRANCH  20  21
ATOM     21  C   UNL     1      48.679   6.233  21.406  1.00  0.00     0.053 C 
BRANCH  21  22
ATOM     22  C   UNL     1      49.377   7.548  21.564  1.00  0.00     0.041 C 
ATOM     23  O   UNL     1      49.911   8.106  20.569  1.00  0.00    -0.550 OA
ATOM     24  O   UNL     1      49.406   8.178  22.803  1.00  0.00    -0.550 OA
ENDBRANCH  21  22
ENDBRANCH  20  21
ENDBRANCH  19  20
ENDBRANCH  18  19
ENDBRANCH  17  18
ENDBRANCH  16  17
ENDBRANCH  15  16
ENDBRANCH  14  15
ENDBRANCH  13  14
ENDBRANCH   1  13
TORSDOF 20
ENDMDL
