MODEL 1
REMARK VINA RESULT:    -3.091      0.000      0.000
REMARK INTER + INTRA:          -9.152
REMARK INTER:                  -5.801
REMARK INTRA:                  -3.351
REMARK UNBOUND:                -3.351
REMARK SMILES CCCCCCCCC=CCCCCCCCC(=O)[O-]
REMARK SMILES IDX 10 1 9 2 11 3 12 4 13 5 14 6 15 7 16 8 17 9 18 10 19 11
REMARK SMILES IDX 20 12 8 13 7 14 6 15 5 16 4 17 3 18 2 19 1 20
REMARK H PARENT
REMARK Flexibility Score: inf
ROOT
ATOM      1  C   UNL     1      29.687   0.311  -2.642  1.00  0.00    -0.031 C 
ATOM      2  C   UNL     1      29.272  -0.877  -3.121  1.00  0.00    -0.031 C 
ENDROOT
BRANCH   1   3
ATOM      3  C   UNL     1      30.775   0.495  -1.612  1.00  0.00     0.027 C 
BRANCH   3   4
ATOM      4  C   UNL     1      30.204   0.765  -0.212  1.00  0.00     0.004 C 
BRANCH   4   5
ATOM      5  C   UNL     1      30.687  -0.266   0.818  1.00  0.00     0.000 C 
BRANCH   5   6
ATOM      6  C   UNL     1      31.949  -0.990   0.327  1.00  0.00     0.000 C 
BRANCH   6   7
ATOM      7  C   UNL     1      31.833  -2.520   0.479  1.00  0.00     0.000 C 
BRANCH   7   8
ATOM      8  C   UNL     1      30.884  -2.966   1.607  1.00  0.00     0.006 C 
BRANCH   8   9
ATOM      9  C   UNL     1      30.149  -4.289   1.324  1.00  0.00     0.053 C 
BRANCH   9  10
ATOM     10  C   UNL     1      30.829  -5.475   1.942  1.00  0.00     0.041 C 
ATOM     11  O   UNL     1      30.291  -6.082   2.906  1.00  0.00    -0.550 OA
ATOM     12  O   UNL     1      32.020  -5.955   1.412  1.00  0.00    -0.550 OA
ENDBRANCH   9  10
ENDBRANCH   8   9
ENDBRANCH   7   8
ENDBRANCH   6   7
ENDBRANCH   5   6
ENDBRANCH   4   5
ENDBRANCH   3   4
ENDBRANCH   1   3
BRANCH   2  13
ATOM     13  C   UNL     1      29.863  -2.217  -2.753  1.00  0.00     0.027 C 
BRANCH  13  14
ATOM     14  C   UNL     1      28.962  -2.974  -1.769  1.00  0.00     0.004 C 
BRANCH  14  15
ATOM     15  C   UNL     1      27.643  -2.228  -1.503  1.00  0.00     0.000 C 
BRANCH  15  16
ATOM     16  C   UNL     1      27.353  -2.054  -0.004  1.00  0.00     0.000 C 
BRANCH  16  17
ATOM     17  C   UNL     1      26.826  -0.652   0.340  1.00  0.00    -0.000 C 
BRANCH  17  18
ATOM     18  C   UNL     1      26.264   0.041  -0.911  1.00  0.00    -0.000 C 
BRANCH  18  19
ATOM     19  C   UNL     1      26.588   1.543  -0.950  1.00  0.00    -0.003 C 
ATOM     20  C   UNL     1      26.907   2.115   0.431  1.00  0.00     0.004 C 
ENDBRANCH  18  19
ENDBRANCH  17  18
ENDBRANCH  16  17
ENDBRANCH  15  16
ENDBRANCH  14  15
ENDBRANCH  13  14
ENDBRANCH   2  13
TORSDOF 15
ENDMDL
MODEL 2
REMARK VINA RESULT:    -3.070      1.419      2.066
REMARK INTER + INTRA:          -9.114
REMARK INTER:                  -6.222
REMARK INTRA:                  -2.892
REMARK UNBOUND:                -3.351
REMARK SMILES CCCCCCCCC=CCCCCCCCC(=O)[O-]
REMARK SMILES IDX 10 1 9 2 11 3 12 4 13 5 14 6 15 7 16 8 17 9 18 10 19 11
REMARK SMILES IDX 20 12 8 13 7 14 6 15 5 16 4 17 3 18 2 19 1 20
REMARK H PARENT
REMARK Flexibility Score: inf
ROOT
ATOM      1  C   UNL     1      30.166   0.898  -0.990  1.00  0.00    -0.031 C 
ATOM      2  C   UNL     1      29.510   0.357  -2.035  1.00  0.00    -0.031 C 
ENDROOT
BRANCH   1   3
ATOM      3  C   UNL     1      30.504   0.171   0.287  1.00  0.00     0.027 C 
BRANCH   3   4
ATOM      4  C   UNL     1      32.021   0.049   0.498  1.00  0.00     0.004 C 
BRANCH   4   5
ATOM      5  C   UNL     1      32.689  -0.801  -0.593  1.00  0.00     0.000 C 
BRANCH   5   6
ATOM      6  C   UNL     1      33.250  -2.106  -0.012  1.00  0.00     0.000 C 
BRANCH   6   7
ATOM      7  C   UNL     1      32.484  -3.343  -0.524  1.00  0.00     0.000 C 
BRANCH   7   8
ATOM      8  C   UNL     1      31.666  -4.065   0.563  1.00  0.00     0.006 C 
BRANCH   8   9
ATOM      9  C   UNL     1      30.146  -3.833   0.462  1.00  0.00     0.053 C 
BRANCH   9  10
ATOM     10  C   UNL     1      29.506  -3.594   1.798  1.00  0.00     0.041 C 
ATOM     11  O   UNL     1      29.148  -4.567   2.512  1.00  0.00    -0.550 OA
ATOM     12  O   UNL     1      29.368  -2.301   2.287  1.00  0.00    -0.550 OA
ENDBRANCH   9  10
ENDBRANCH   8   9
ENDBRANCH   7   8
ENDBRANCH   6   7
ENDBRANCH   5   6
ENDBRANCH   4   5
ENDBRANCH   3   4
ENDBRANCH   1   3
BRANCH   2  13
ATOM     13  C   UNL     1      29.054  -1.080  -2.125  1.00  0.00     0.027 C 
BRANCH  13  14
ATOM     14  C   UNL     1      27.535  -1.198  -1.949  1.00  0.00     0.004 C 
BRANCH  14  15
ATOM     15  C   UNL     1      27.159  -1.862  -0.612  1.00  0.00     0.000 C 
BRANCH  15  16
ATOM     16  C   UNL     1      26.653  -0.851   0.429  1.00  0.00     0.000 C 
BRANCH  16  17
ATOM     17  C   UNL     1      26.221   0.482  -0.200  1.00  0.00    -0.000 C 
BRANCH  17  18
ATOM     18  C   UNL     1      26.879   1.666   0.524  1.00  0.00    -0.000 C 
BRANCH  18  19
ATOM     19  C   UNL     1      27.008   2.909  -0.371  1.00  0.00    -0.003 C 
ATOM     20  C   UNL     1      26.594   2.641  -1.818  1.00  0.00     0.004 C 
ENDBRANCH  18  19
ENDBRANCH  17  18
ENDBRANCH  16  17
ENDBRANCH  15  16
ENDBRANCH  14  15
ENDBRANCH  13  14
ENDBRANCH   2  13
TORSDOF 15
ENDMDL
MODEL 3
REMARK VINA RESULT:    -3.035      3.605      6.206
REMARK INTER + INTRA:          -9.047
REMARK INTER:                  -6.258
REMARK INTRA:                  -2.788
REMARK UNBOUND:                -3.351
REMARK SMILES CCCCCCCCC=CCCCCCCCC(=O)[O-]
REMARK SMILES IDX 10 1 9 2 11 3 12 4 13 5 14 6 15 7 16 8 17 9 18 10 19 11
REMARK SMILES IDX 20 12 8 13 7 14 6 15 5 16 4 17 3 18 2 19 1 20
REMARK H PARENT
REMARK Flexibility Score: inf
ROOT
ATOM      1  C   UNL     1      29.557  -3.977   1.742  1.00  0.00    -0.031 C 
ATOM      2  C   UNL     1      30.623  -4.734   1.420  1.00  0.00    -0.031 C 
ENDROOT
BRANCH   1   3
ATOM      3  C   UNL     1      29.615  -2.519   2.121  1.00  0.00     0.027 C 
BRANCH   3   4
ATOM      4  C   UNL     1      28.982  -1.618   1.049  1.00  0.00     0.004 C 
BRANCH   4   5
ATOM      5  C   UNL     1      28.511  -2.418  -0.174  1.00  0.00     0.000 C 
BRANCH   5   6
ATOM      6  C   UNL     1      27.121  -1.957  -0.635  1.00  0.00     0.000 C 
BRANCH   6   7
ATOM      7  C   UNL     1      26.463  -1.000   0.381  1.00  0.00     0.000 C 
BRANCH   7   8
ATOM      8  C   UNL     1      26.021   0.345  -0.225  1.00  0.00     0.006 C 
BRANCH   8   9
ATOM      9  C   UNL     1      26.858   1.550   0.243  1.00  0.00     0.053 C 
BRANCH   9  10
ATOM     10  C   UNL     1      26.801   2.704  -0.714  1.00  0.00     0.041 C 
ATOM     11  O   UNL     1      25.857   2.794  -1.542  1.00  0.00    -0.550 OA
ATOM     12  O   UNL     1      27.750   3.716  -0.648  1.00  0.00    -0.550 OA
ENDBRANCH   9  10
ENDBRANCH   8   9
ENDBRANCH   7   8
ENDBRANCH   6   7
ENDBRANCH   5   6
ENDBRANCH   4   5
ENDBRANCH   3   4
ENDBRANCH   1   3
BRANCH   2  13
ATOM     13  C   UNL     1      32.047  -4.237   1.329  1.00  0.00     0.027 C 
BRANCH  13  14
ATOM     14  C   UNL     1      32.489  -4.068  -0.130  1.00  0.00     0.004 C 
BRANCH  14  15
ATOM     15  C   UNL     1      32.177  -2.661  -0.668  1.00  0.00     0.000 C 
BRANCH  15  16
ATOM     16  C   UNL     1      33.041  -1.571  -0.012  1.00  0.00     0.000 C 
BRANCH  16  17
ATOM     17  C   UNL     1      32.276  -0.256   0.201  1.00  0.00    -0.000 C 
BRANCH  17  18
ATOM     18  C   UNL     1      31.777   0.307  -1.139  1.00  0.00    -0.000 C 
BRANCH  18  19
ATOM     19  C   UNL     1      30.379   0.938  -1.031  1.00  0.00    -0.003 C 
ATOM     20  C   UNL     1      29.488   0.608  -2.229  1.00  0.00     0.004 C 
ENDBRANCH  18  19
ENDBRANCH  17  18
ENDBRANCH  16  17
ENDBRANCH  15  16
ENDBRANCH  14  15
ENDBRANCH  13  14
ENDBRANCH   2  13
TORSDOF 15
ENDMDL
MODEL 4
REMARK VINA RESULT:    -3.019      1.497      2.733
REMARK INTER + INTRA:          -9.017
REMARK INTER:                  -5.674
REMARK INTRA:                  -3.343
REMARK UNBOUND:                -3.351
REMARK SMILES CCCCCCCCC=CCCCCCCCC(=O)[O-]
REMARK SMILES IDX 10 1 9 2 11 3 12 4 13 5 14 6 15 7 16 8 17 9 18 10 19 11
REMARK SMILES IDX 20 12 8 13 7 14 6 15 5 16 4 17 3 18 2 19 1 20
REMARK H PARENT
REMARK Flexibility Score: inf
ROOT
ATOM      1  C   UNL     1      29.709  -1.244  -2.441  1.00  0.00    -0.031 C 
ATOM      2  C   UNL     1      28.566  -1.742  -1.933  1.00  0.00    -0.031 C 
ENDROOT
BRANCH   1   3
ATOM      3  C   UNL     1      29.965   0.215  -2.725  1.00  0.00     0.027 C 
BRANCH   3   4
ATOM      4  C   UNL     1      31.158   0.759  -1.924  1.00  0.00     0.004 C 
BRANCH   4   5
ATOM      5  C   UNL     1      30.716   1.441  -0.621  1.00  0.00     0.000 C 
BRANCH   5   6
ATOM      6  C   UNL     1      31.053   0.574   0.600  1.00  0.00     0.000 C 
BRANCH   6   7
ATOM      7  C   UNL     1      32.211  -0.404   0.311  1.00  0.00     0.000 C 
BRANCH   7   8
ATOM      8  C   UNL     1      31.838  -1.887   0.505  1.00  0.00     0.006 C 
BRANCH   8   9
ATOM      9  C   UNL     1      30.605  -2.112   1.399  1.00  0.00     0.053 C 
BRANCH   9  10
ATOM     10  C   UNL     1      29.926  -3.423   1.132  1.00  0.00     0.041 C 
ATOM     11  O   UNL     1      28.686  -3.542   1.311  1.00  0.00    -0.550 OA
ATOM     12  O   UNL     1      30.648  -4.494   0.620  1.00  0.00    -0.550 OA
ENDBRANCH   9  10
ENDBRANCH   8   9
ENDBRANCH   7   8
ENDBRANCH   6   7
ENDBRANCH   5   6
ENDBRANCH   4   5
ENDBRANCH   3   4
ENDBRANCH   1   3
BRANCH   2  13
ATOM     13  C   UNL     1      27.372  -0.919  -1.510  1.00  0.00     0.027 C 
BRANCH  13  14
ATOM     14  C   UNL     1      27.477  -0.495  -0.040  1.00  0.00     0.004 C 
BRANCH  14  15
ATOM     15  C   UNL     1      26.486   0.629   0.309  1.00  0.00     0.000 C 
BRANCH  15  16
ATOM     16  C   UNL     1      27.153   2.014   0.354  1.00  0.00     0.000 C 
BRANCH  16  17
ATOM     17  C   UNL     1      26.678   2.939  -0.776  1.00  0.00    -0.000 C 
BRANCH  17  18
ATOM     18  C   UNL     1      27.621   2.850  -1.986  1.00  0.00    -0.000 C 
BRANCH  18  19
ATOM     19  C   UNL     1      26.899   2.398  -3.266  1.00  0.00    -0.003 C 
ATOM     20  C   UNL     1      25.466   1.933  -3.003  1.00  0.00     0.004 C 
ENDBRANCH  18  19
ENDBRANCH  17  18
ENDBRANCH  16  17
ENDBRANCH  15  16
ENDBRANCH  14  15
ENDBRANCH  13  14
ENDBRANCH   2  13
TORSDOF 15
ENDMDL
MODEL 5
REMARK VINA RESULT:    -3.011      3.881      6.205
REMARK INTER + INTRA:          -9.002
REMARK INTER:                  -5.962
REMARK INTRA:                  -3.040
REMARK UNBOUND:                -3.351
REMARK SMILES CCCCCCCCC=CCCCCCCCC(=O)[O-]
REMARK SMILES IDX 10 1 9 2 11 3 12 4 13 5 14 6 15 7 16 8 17 9 18 10 19 11
REMARK SMILES IDX 20 12 8 13 7 14 6 15 5 16 4 17 3 18 2 19 1 20
REMARK H PARENT
REMARK Flexibility Score: inf
ROOT
ATOM      1  C   UNL     1      29.609  -1.911  -2.493  1.00  0.00    -0.031 C 
ATOM      2  C   UNL     1      28.828  -2.677  -1.708  1.00  0.00    -0.031 C 
ENDROOT
BRANCH   1   3
ATOM      3  C   UNL     1      29.266  -0.516  -2.954  1.00  0.00     0.027 C 
BRANCH   3   4
ATOM      4  C   UNL     1      29.985   0.559  -2.124  1.00  0.00     0.004 C 
BRANCH   4   5
ATOM      5  C   UNL     1      29.009   1.602  -1.560  1.00  0.00     0.000 C 
BRANCH   5   6
ATOM      6  C   UNL     1      28.586   1.247  -0.128  1.00  0.00     0.000 C 
BRANCH   6   7
ATOM      7  C   UNL     1      27.084   1.503   0.111  1.00  0.00     0.000 C 
BRANCH   7   8
ATOM      8  C   UNL     1      26.301   1.861  -1.167  1.00  0.00     0.006 C 
BRANCH   8   9
ATOM      9  C   UNL     1      25.346   0.753  -1.649  1.00  0.00     0.053 C 
BRANCH   9  10
ATOM     10  C   UNL     1      24.256   1.273  -2.539  1.00  0.00     0.041 C 
ATOM     11  O   UNL     1      23.096   0.789  -2.468  1.00  0.00    -0.550 OA
ATOM     12  O   UNL     1      24.500   2.338  -3.397  1.00  0.00    -0.550 OA
ENDBRANCH   9  10
ENDBRANCH   8   9
ENDBRANCH   7   8
ENDBRANCH   6   7
ENDBRANCH   5   6
ENDBRANCH   4   5
ENDBRANCH   3   4
ENDBRANCH   1   3
BRANCH   2  13
ATOM     13  C   UNL     1      27.509  -2.248  -1.111  1.00  0.00     0.027 C 
BRANCH  13  14
ATOM     14  C   UNL     1      27.581  -2.183   0.420  1.00  0.00     0.004 C 
BRANCH  14  15
ATOM     15  C   UNL     1      28.738  -3.030   0.979  1.00  0.00     0.000 C 
BRANCH  15  16
ATOM     16  C   UNL     1      29.751  -2.194   1.778  1.00  0.00     0.000 C 
BRANCH  16  17
ATOM     17  C   UNL     1      31.161  -2.229   1.169  1.00  0.00    -0.000 C 
BRANCH  17  18
ATOM     18  C   UNL     1      31.601  -0.824   0.731  1.00  0.00    -0.000 C 
BRANCH  18  19
ATOM     19  C   UNL     1      32.786  -0.854  -0.248  1.00  0.00    -0.003 C 
ATOM     20  C   UNL     1      33.005  -2.235  -0.868  1.00  0.00     0.004 C 
ENDBRANCH  18  19
ENDBRANCH  17  18
ENDBRANCH  16  17
ENDBRANCH  15  16
ENDBRANCH  14  15
ENDBRANCH  13  14
ENDBRANCH   2  13
TORSDOF 15
ENDMDL
MODEL 6
REMARK VINA RESULT:    -3.007      3.927      6.412
REMARK INTER + INTRA:          -8.996
REMARK INTER:                  -5.901
REMARK INTRA:                  -3.095
REMARK UNBOUND:                -3.351
REMARK SMILES CCCCCCCCC=CCCCCCCCC(=O)[O-]
REMARK SMILES IDX 10 1 9 2 11 3 12 4 13 5 14 6 15 7 16 8 17 9 18 10 19 11
REMARK SMILES IDX 20 12 8 13 7 14 6 15 5 16 4 17 3 18 2 19 1 20
REMARK H PARENT
REMARK Flexibility Score: inf
ROOT
ATOM      1  C   UNL     1      30.146   0.697  -0.613  1.00  0.00    -0.031 C 
ATOM      2  C   UNL     1      30.508   0.219   0.593  1.00  0.00    -0.031 C 
ENDROOT
BRANCH   1   3
ATOM      3  C   UNL     1      29.966  -0.138  -1.856  1.00  0.00     0.027 C 
BRANCH   3   4
ATOM      4  C   UNL     1      28.524  -0.084  -2.384  1.00  0.00     0.004 C 
BRANCH   4   5
ATOM      5  C   UNL     1      27.562  -0.916  -1.523  1.00  0.00     0.000 C 
BRANCH   5   6
ATOM      6  C   UNL     1      26.344  -0.086  -1.096  1.00  0.00     0.000 C 
BRANCH   6   7
ATOM      7  C   UNL     1      26.493   0.463   0.338  1.00  0.00     0.000 C 
BRANCH   7   8
ATOM      8  C   UNL     1      26.830   1.965   0.400  1.00  0.00     0.006 C 
BRANCH   8   9
ATOM      9  C   UNL     1      26.616   2.711  -0.930  1.00  0.00     0.053 C 
BRANCH   9  10
ATOM     10  C   UNL     1      27.416   3.977  -1.020  1.00  0.00     0.041 C 
ATOM     11  O   UNL     1      28.655   3.961  -0.795  1.00  0.00    -0.550 OA
ATOM     12  O   UNL     1      26.811   5.161  -1.421  1.00  0.00    -0.550 OA
ENDBRANCH   9  10
ENDBRANCH   8   9
ENDBRANCH   7   8
ENDBRANCH   6   7
ENDBRANCH   5   6
ENDBRANCH   4   5
ENDBRANCH   3   4
ENDBRANCH   1   3
BRANCH   2  13
ATOM     13  C   UNL     1      30.737  -1.238   0.916  1.00  0.00     0.027 C 
BRANCH  13  14
ATOM     14  C   UNL     1      29.465  -1.896   1.466  1.00  0.00     0.004 C 
BRANCH  14  15
ATOM     15  C   UNL     1      29.249  -3.307   0.890  1.00  0.00     0.000 C 
BRANCH  15  16
ATOM     16  C   UNL     1      30.255  -3.652  -0.220  1.00  0.00     0.000 C 
BRANCH  16  17
ATOM     17  C   UNL     1      29.575  -3.949  -1.565  1.00  0.00    -0.000 C 
BRANCH  17  18
ATOM     18  C   UNL     1      30.524  -3.648  -2.735  1.00  0.00    -0.000 C 
BRANCH  18  19
ATOM     19  C   UNL     1      29.857  -3.848  -4.105  1.00  0.00    -0.003 C 
ATOM     20  C   UNL     1      28.339  -3.668  -4.054  1.00  0.00     0.004 C 
ENDBRANCH  18  19
ENDBRANCH  17  18
ENDBRANCH  16  17
ENDBRANCH  15  16
ENDBRANCH  14  15
ENDBRANCH  13  14
ENDBRANCH   2  13
TORSDOF 15
ENDMDL
MODEL 7
REMARK VINA RESULT:    -2.969      4.072      6.831
REMARK INTER + INTRA:          -8.924
REMARK INTER:                  -6.092
REMARK INTRA:                  -2.832
REMARK UNBOUND:                -3.351
REMARK SMILES CCCCCCCCC=CCCCCCCCC(=O)[O-]
REMARK SMILES IDX 10 1 9 2 11 3 12 4 13 5 14 6 15 7 16 8 17 9 18 10 19 11
REMARK SMILES IDX 20 12 8 13 7 14 6 15 5 16 4 17 3 18 2 19 1 20
REMARK H PARENT
REMARK Flexibility Score: inf
ROOT
ATOM      1  C   UNL     1      27.966  -1.095  -2.428  1.00  0.00    -0.031 C 
ATOM      2  C   UNL     1      28.944  -0.190  -2.625  1.00  0.00    -0.031 C 
ENDROOT
BRANCH   1   3
ATOM      3  C   UNL     1      28.042  -2.256  -1.468  1.00  0.00     0.027 C 
BRANCH   3   4
ATOM      4  C   UNL     1      26.928  -2.208  -0.412  1.00  0.00     0.004 C 
BRANCH   4   5
ATOM      5  C   UNL     1      27.138  -1.071   0.599  1.00  0.00     0.000 C 
BRANCH   5   6
ATOM      6  C   UNL     1      26.110   0.050   0.394  1.00  0.00     0.000 C 
BRANCH   6   7
ATOM      7  C   UNL     1      26.782   1.429   0.233  1.00  0.00     0.000 C 
BRANCH   7   8
ATOM      8  C   UNL     1      26.328   2.202  -1.020  1.00  0.00     0.006 C 
BRANCH   8   9
ATOM      9  C   UNL     1      25.346   1.424  -1.915  1.00  0.00     0.053 C 
BRANCH   9  10
ATOM     10  C   UNL     1      24.297   2.305  -2.528  1.00  0.00     0.041 C 
ATOM     11  O   UNL     1      23.077   2.032  -2.383  1.00  0.00    -0.550 OA
ATOM     12  O   UNL     1      24.662   3.465  -3.200  1.00  0.00    -0.550 OA
ENDBRANCH   9  10
ENDBRANCH   8   9
ENDBRANCH   7   8
ENDBRANCH   6   7
ENDBRANCH   5   6
ENDBRANCH   4   5
ENDBRANCH   3   4
ENDBRANCH   1   3
BRANCH   2  13
ATOM     13  C   UNL     1      30.257  -0.154  -1.878  1.00  0.00     0.027 C 
BRANCH  13  14
ATOM     14  C   UNL     1      30.202   0.822  -0.697  1.00  0.00     0.004 C 
BRANCH  14  15
ATOM     15  C   UNL     1      30.606   0.150   0.627  1.00  0.00     0.000 C 
BRANCH  15  16
ATOM     16  C   UNL     1      31.147  -1.275   0.426  1.00  0.00     0.000 C 
BRANCH  16  17
ATOM     17  C   UNL     1      30.538  -2.285   1.410  1.00  0.00    -0.000 C 
BRANCH  17  18
ATOM     18  C   UNL     1      30.468  -3.685   0.781  1.00  0.00    -0.000 C 
BRANCH  18  19
ATOM     19  C   UNL     1      31.418  -4.686   1.458  1.00  0.00    -0.003 C 
ATOM     20  C   UNL     1      32.625  -4.009   2.108  1.00  0.00     0.004 C 
ENDBRANCH  18  19
ENDBRANCH  17  18
ENDBRANCH  16  17
ENDBRANCH  15  16
ENDBRANCH  14  15
ENDBRANCH  13  14
ENDBRANCH   2  13
TORSDOF 15
ENDMDL
MODEL 8
REMARK VINA RESULT:    -2.957      1.474      3.979
REMARK INTER + INTRA:          -8.902
REMARK INTER:                  -5.526
REMARK INTRA:                  -3.375
REMARK UNBOUND:                -3.351
REMARK SMILES CCCCCCCCC=CCCCCCCCC(=O)[O-]
REMARK SMILES IDX 10 1 9 2 11 3 12 4 13 5 14 6 15 7 16 8 17 9 18 10 19 11
REMARK SMILES IDX 20 12 8 13 7 14 6 15 5 16 4 17 3 18 2 19 1 20
REMARK H PARENT
REMARK Flexibility Score: inf
ROOT
ATOM      1  C   UNL     1      29.168   1.040  -1.184  1.00  0.00    -0.031 C 
ATOM      2  C   UNL     1      30.400   1.225  -0.672  1.00  0.00    -0.031 C 
ENDROOT
BRANCH   1   3
ATOM      3  C   UNL     1      28.099   0.171  -0.570  1.00  0.00     0.027 C 
BRANCH   3   4
ATOM      4  C   UNL     1      27.942  -1.163  -1.315  1.00  0.00     0.004 C 
BRANCH   4   5
ATOM      5  C   UNL     1      28.403  -2.357  -0.465  1.00  0.00     0.000 C 
BRANCH   5   6
ATOM      6  C   UNL     1      28.303  -2.041   1.034  1.00  0.00     0.000 C 
BRANCH   6   7
ATOM      7  C   UNL     1      29.486  -2.631   1.829  1.00  0.00     0.000 C 
BRANCH   7   8
ATOM      8  C   UNL     1      30.012  -3.966   1.266  1.00  0.00     0.006 C 
BRANCH   8   9
ATOM      9  C   UNL     1      31.467  -4.283   1.658  1.00  0.00     0.053 C 
BRANCH   9  10
ATOM     10  C   UNL     1      31.601  -5.585   2.390  1.00  0.00     0.041 C 
ATOM     11  O   UNL     1      32.569  -5.776   3.172  1.00  0.00    -0.550 OA
ATOM     12  O   UNL     1      30.621  -6.562   2.265  1.00  0.00    -0.550 OA
ENDBRANCH   9  10
ENDBRANCH   8   9
ENDBRANCH   7   8
ENDBRANCH   6   7
ENDBRANCH   5   6
ENDBRANCH   4   5
ENDBRANCH   3   4
ENDBRANCH   1   3
BRANCH   2  13
ATOM     13  C   UNL     1      30.897   0.640   0.629  1.00  0.00     0.027 C 
BRANCH  13  14
ATOM     14  C   UNL     1      32.057  -0.336   0.396  1.00  0.00     0.004 C 
BRANCH  14  15
ATOM     15  C   UNL     1      32.227  -0.686  -1.093  1.00  0.00     0.000 C 
BRANCH  15  16
ATOM     16  C   UNL     1      31.958  -2.171  -1.386  1.00  0.00     0.000 C 
BRANCH  16  17
ATOM     17  C   UNL     1      31.456  -2.412  -2.817  1.00  0.00    -0.000 C 
BRANCH  17  18
ATOM     18  C   UNL     1      31.158  -1.080  -3.522  1.00  0.00    -0.000 C 
BRANCH  18  19
ATOM     19  C   UNL     1      29.905  -1.148  -4.410  1.00  0.00    -0.003 C 
ATOM     20  C   UNL     1      29.319  -2.558  -4.497  1.00  0.00     0.004 C 
ENDBRANCH  18  19
ENDBRANCH  17  18
ENDBRANCH  16  17
ENDBRANCH  15  16
ENDBRANCH  14  15
ENDBRANCH  13  14
ENDBRANCH   2  13
TORSDOF 15
ENDMDL
MODEL 9
REMARK VINA RESULT:    -2.925      3.681      6.378
REMARK INTER + INTRA:          -8.841
REMARK INTER:                  -5.779
REMARK INTRA:                  -3.062
REMARK UNBOUND:                -3.351
REMARK SMILES CCCCCCCCC=CCCCCCCCC(=O)[O-]
REMARK SMILES IDX 10 1 9 2 11 3 12 4 13 5 14 6 15 7 16 8 17 9 18 10 19 11
REMARK SMILES IDX 20 12 8 13 7 14 6 15 5 16 4 17 3 18 2 19 1 20
REMARK H PARENT
REMARK Flexibility Score: inf
ROOT
ATOM      1  C   UNL     1      30.043  -3.816  -1.155  1.00  0.00    -0.031 C 
ATOM      2  C   UNL     1      30.304  -3.947   0.160  1.00  0.00    -0.031 C 
ENDROOT
BRANCH   1   3
ATOM      3  C   UNL     1      28.717  -3.390  -1.734  1.00  0.00     0.027 C 
BRANCH   3   4
ATOM      4  C   UNL     1      28.857  -2.175  -2.664  1.00  0.00     0.004 C 
BRANCH   4   5
ATOM      5  C   UNL     1      28.078  -0.958  -2.146  1.00  0.00     0.000 C 
BRANCH   5   6
ATOM      6  C   UNL     1      27.169  -1.341  -0.970  1.00  0.00     0.000 C 
BRANCH   6   7
ATOM      7  C   UNL     1      26.409  -0.122  -0.407  1.00  0.00     0.000 C 
BRANCH   7   8
ATOM      8  C   UNL     1      26.817   1.218  -1.047  1.00  0.00     0.006 C 
BRANCH   8   9
ATOM      9  C   UNL     1      25.649   1.989  -1.689  1.00  0.00     0.053 C 
BRANCH   9  10
ATOM     10  C   UNL     1      24.799   1.124  -2.572  1.00  0.00     0.041 C 
ATOM     11  O   UNL     1      23.580   0.953  -2.308  1.00  0.00    -0.550 OA
ATOM     12  O   UNL     1      25.332   0.563  -3.726  1.00  0.00    -0.550 OA
ENDBRANCH   9  10
ENDBRANCH   8   9
ENDBRANCH   7   8
ENDBRANCH   6   7
ENDBRANCH   5   6
ENDBRANCH   4   5
ENDBRANCH   3   4
ENDBRANCH   1   3
BRANCH   2  13
ATOM     13  C   UNL     1      29.333  -3.635   1.274  1.00  0.00     0.027 C 
BRANCH  13  14
ATOM     14  C   UNL     1      29.480  -2.187   1.755  1.00  0.00     0.004 C 
BRANCH  14  15
ATOM     15  C   UNL     1      30.618  -1.449   1.027  1.00  0.00     0.000 C 
BRANCH  15  16
ATOM     16  C   UNL     1      30.243  -0.006   0.654  1.00  0.00     0.000 C 
BRANCH  16  17
ATOM     17  C   UNL     1      31.197   0.606  -0.383  1.00  0.00    -0.000 C 
BRANCH  17  18
ATOM     18  C   UNL     1      32.165  -0.457  -0.927  1.00  0.00    -0.000 C 
BRANCH  18  19
ATOM     19  C   UNL     1      32.153  -0.536  -2.462  1.00  0.00    -0.003 C 
ATOM     20  C   UNL     1      32.630  -1.891  -2.988  1.00  0.00     0.004 C 
ENDBRANCH  18  19
ENDBRANCH  17  18
ENDBRANCH  16  17
ENDBRANCH  15  16
ENDBRANCH  14  15
ENDBRANCH  13  14
ENDBRANCH   2  13
TORSDOF 15
ENDMDL
