MODEL 1
REMARK VINA RESULT:    -4.852      0.000      0.000
REMARK INTER + INTRA:         -11.674
REMARK INTER:                  -9.390
REMARK INTRA:                  -2.284
REMARK UNBOUND:                -2.284
REMARK SMILES CCCCCCCCCCCCCCCCCC(=O)[O-]
REMARK SMILES IDX 10 1 11 2 12 3 13 4 14 5 15 6 16 7 17 8 18 9 19 10 20 11
REMARK SMILES IDX 9 12 8 13 7 14 6 15 5 16 4 17 3 18 2 19 1 20
REMARK H PARENT
REMARK Flexibility Score: inf
ROOT
ATOM      1  C   UNL     1      14.999  15.862  60.457  1.00  0.00     0.000 C 
ENDROOT
BRANCH   1   2
ATOM      2  C   UNL     1      15.291  17.099  61.330  1.00  0.00     0.000 C 
BRANCH   2   3
ATOM      3  C   UNL     1      15.456  16.816  62.834  1.00  0.00     0.000 C 
BRANCH   3   4
ATOM      4  C   UNL     1      14.319  17.411  63.681  1.00  0.00     0.000 C 
BRANCH   4   5
ATOM      5  C   UNL     1      12.936  16.841  63.313  1.00  0.00     0.000 C 
BRANCH   5   6
ATOM      6  C   UNL     1      12.518  15.574  64.084  1.00  0.00     0.000 C 
BRANCH   6   7
ATOM      7  C   UNL     1      13.048  14.245  63.511  1.00  0.00     0.006 C 
BRANCH   7   8
ATOM      8  C   UNL     1      14.146  13.589  64.368  1.00  0.00     0.053 C 
BRANCH   8   9
ATOM      9  C   UNL     1      14.298  12.126  64.080  1.00  0.00     0.041 C 
ATOM     10  O   UNL     1      15.243  11.717  63.354  1.00  0.00    -0.550 OA
ATOM     11  O   UNL     1      13.418  11.210  64.641  1.00  0.00    -0.550 OA
ENDBRANCH   8   9
ENDBRANCH   7   8
ENDBRANCH   6   7
ENDBRANCH   5   6
ENDBRANCH   4   5
ENDBRANCH   3   4
ENDBRANCH   2   3
ENDBRANCH   1   2
BRANCH   1  12
ATOM     12  C   UNL     1      15.594  14.537  60.977  1.00  0.00     0.000 C 
BRANCH  12  13
ATOM     13  C   UNL     1      16.496  13.789  59.978  1.00  0.00    -0.000 C 
BRANCH  13  14
ATOM     14  C   UNL     1      16.607  14.507  58.622  1.00  0.00    -0.000 C 
BRANCH  14  15
ATOM     15  C   UNL     1      18.028  14.445  58.036  1.00  0.00    -0.000 C 
BRANCH  15  16
ATOM     16  C   UNL     1      18.753  15.799  58.090  1.00  0.00    -0.000 C 
BRANCH  16  17
ATOM     17  C   UNL     1      18.080  16.743  59.097  1.00  0.00    -0.000 C 
BRANCH  17  18
ATOM     18  C   UNL     1      19.082  17.311  60.125  1.00  0.00    -0.000 C 
BRANCH  18  19
ATOM     19  C   UNL     1      19.029  16.605  61.490  1.00  0.00    -0.003 C 
ATOM     20  C   UNL     1      20.056  17.147  62.483  1.00  0.00     0.004 C 
ENDBRANCH  18  19
ENDBRANCH  17  18
ENDBRANCH  16  17
ENDBRANCH  15  16
ENDBRANCH  14  15
ENDBRANCH  13  14
ENDBRANCH  12  13
ENDBRANCH   1  12
TORSDOF 16
ENDMDL
MODEL 2
REMARK VINA RESULT:    -4.819      1.894      3.531
REMARK INTER + INTRA:         -11.611
REMARK INTER:                  -9.439
REMARK INTRA:                  -2.172
REMARK UNBOUND:                -2.284
REMARK SMILES CCCCCCCCCCCCCCCCCC(=O)[O-]
REMARK SMILES IDX 10 1 11 2 12 3 13 4 14 5 15 6 16 7 17 8 18 9 19 10 20 11
REMARK SMILES IDX 9 12 8 13 7 14 6 15 5 16 4 17 3 18 2 19 1 20
REMARK H PARENT
REMARK Flexibility Score: inf
ROOT
ATOM      1  C   UNL     1      13.433  17.311  63.482  1.00  0.00     0.000 C 
ENDROOT
BRANCH   1   2
ATOM      2  C   UNL     1      12.837  15.897  63.638  1.00  0.00     0.000 C 
BRANCH   2   3
ATOM      3  C   UNL     1      13.151  15.198  64.973  1.00  0.00     0.000 C 
BRANCH   3   4
ATOM      4  C   UNL     1      13.768  13.802  64.784  1.00  0.00     0.000 C 
BRANCH   4   5
ATOM      5  C   UNL     1      13.393  13.158  63.436  1.00  0.00     0.000 C 
BRANCH   5   6
ATOM      6  C   UNL     1      14.563  12.519  62.662  1.00  0.00     0.000 C 
BRANCH   6   7
ATOM      7  C   UNL     1      14.653  12.894  61.170  1.00  0.00     0.006 C 
BRANCH   7   8
ATOM      8  C   UNL     1      15.364  11.841  60.302  1.00  0.00     0.053 C 
BRANCH   8   9
ATOM      9  C   UNL     1      16.849  12.035  60.268  1.00  0.00     0.041 C 
ATOM     10  O   UNL     1      17.556  11.707  61.258  1.00  0.00    -0.550 OA
ATOM     11  O   UNL     1      17.460  12.545  59.129  1.00  0.00    -0.550 OA
ENDBRANCH   8   9
ENDBRANCH   7   8
ENDBRANCH   6   7
ENDBRANCH   5   6
ENDBRANCH   4   5
ENDBRANCH   3   4
ENDBRANCH   2   3
ENDBRANCH   1   2
BRANCH   1  12
ATOM     12  C   UNL     1      14.954  17.358  63.232  1.00  0.00     0.000 C 
BRANCH  12  13
ATOM     13  C   UNL     1      15.507  16.225  62.348  1.00  0.00    -0.000 C 
BRANCH  13  14
ATOM     14  C   UNL     1      15.430  16.549  60.846  1.00  0.00    -0.000 C 
BRANCH  14  15
ATOM     15  C   UNL     1      16.627  15.987  60.059  1.00  0.00    -0.000 C 
BRANCH  15  16
ATOM     16  C   UNL     1      17.400  17.074  59.296  1.00  0.00    -0.000 C 
BRANCH  16  17
ATOM     17  C   UNL     1      18.829  17.217  59.842  1.00  0.00    -0.000 C 
BRANCH  17  18
ATOM     18  C   UNL     1      19.106  16.253  61.015  1.00  0.00    -0.000 C 
BRANCH  18  19
ATOM     19  C   UNL     1      19.880  16.903  62.175  1.00  0.00    -0.003 C 
ATOM     20  C   UNL     1      19.185  18.141  62.737  1.00  0.00     0.004 C 
ENDBRANCH  18  19
ENDBRANCH  17  18
ENDBRANCH  16  17
ENDBRANCH  15  16
ENDBRANCH  14  15
ENDBRANCH  13  14
ENDBRANCH  12  13
ENDBRANCH   1  12
TORSDOF 16
ENDMDL
MODEL 3
REMARK VINA RESULT:    -4.572      3.233      6.741
REMARK INTER + INTRA:         -11.133
REMARK INTER:                  -9.471
REMARK INTRA:                  -1.662
REMARK UNBOUND:                -2.284
REMARK SMILES CCCCCCCCCCCCCCCCCC(=O)[O-]
REMARK SMILES IDX 10 1 11 2 12 3 13 4 14 5 15 6 16 7 17 8 18 9 19 10 20 11
REMARK SMILES IDX 9 12 8 13 7 14 6 15 5 16 4 17 3 18 2 19 1 20
REMARK H PARENT
REMARK Flexibility Score: inf
ROOT
ATOM      1  C   UNL     1      14.046  15.746  64.566  1.00  0.00     0.000 C 
ENDROOT
BRANCH   1   2
ATOM      2  C   UNL     1      14.794  15.575  63.229  1.00  0.00     0.000 C 
BRANCH   2   3
ATOM      3  C   UNL     1      15.428  16.859  62.664  1.00  0.00     0.000 C 
BRANCH   3   4
ATOM      4  C   UNL     1      15.122  17.069  61.172  1.00  0.00     0.000 C 
BRANCH   4   5
ATOM      5  C   UNL     1      15.329  15.794  60.332  1.00  0.00     0.000 C 
BRANCH   5   6
ATOM      6  C   UNL     1      16.471  15.862  59.299  1.00  0.00     0.000 C 
BRANCH   6   7
ATOM      7  C   UNL     1      17.317  17.149  59.330  1.00  0.00     0.006 C 
BRANCH   7   8
ATOM      8  C   UNL     1      18.762  16.936  59.817  1.00  0.00     0.053 C 
BRANCH   8   9
ATOM      9  C   UNL     1      18.853  16.830  61.309  1.00  0.00     0.041 C 
ATOM     10  O   UNL     1      19.084  17.854  62.006  1.00  0.00    -0.550 OA
ATOM     11  O   UNL     1      18.648  15.606  61.934  1.00  0.00    -0.550 OA
ENDBRANCH   8   9
ENDBRANCH   7   8
ENDBRANCH   6   7
ENDBRANCH   5   6
ENDBRANCH   4   5
ENDBRANCH   3   4
ENDBRANCH   2   3
ENDBRANCH   1   2
BRANCH   1  12
ATOM     12  C   UNL     1      12.524  15.502  64.504  1.00  0.00     0.000 C 
BRANCH  12  13
ATOM     13  C   UNL     1      11.757  16.406  63.521  1.00  0.00    -0.000 C 
BRANCH  13  14
ATOM     14  C   UNL     1      10.779  17.360  64.229  1.00  0.00    -0.000 C 
BRANCH  14  15
ATOM     15  C   UNL     1      10.788  18.773  63.621  1.00  0.00    -0.000 C 
BRANCH  15  16
ATOM     16  C   UNL     1      12.202  19.369  63.523  1.00  0.00    -0.000 C 
BRANCH  16  17
ATOM     17  C   UNL     1      12.216  20.602  62.607  1.00  0.00    -0.000 C 
BRANCH  17  18
ATOM     18  C   UNL     1      13.616  20.877  62.019  1.00  0.00    -0.000 C 
BRANCH  18  19
ATOM     19  C   UNL     1      13.588  21.732  60.740  1.00  0.00    -0.003 C 
ATOM     20  C   UNL     1      13.865  23.211  61.004  1.00  0.00     0.004 C 
ENDBRANCH  18  19
ENDBRANCH  17  18
ENDBRANCH  16  17
ENDBRANCH  15  16
ENDBRANCH  14  15
ENDBRANCH  13  14
ENDBRANCH  12  13
ENDBRANCH   1  12
TORSDOF 16
ENDMDL
MODEL 4
REMARK VINA RESULT:    -4.350      2.181      4.215
REMARK INTER + INTRA:         -10.704
REMARK INTER:                  -8.766
REMARK INTRA:                  -1.937
REMARK UNBOUND:                -2.284
REMARK SMILES CCCCCCCCCCCCCCCCCC(=O)[O-]
REMARK SMILES IDX 10 1 11 2 12 3 13 4 14 5 15 6 16 7 17 8 18 9 19 10 20 11
REMARK SMILES IDX 9 12 8 13 7 14 6 15 5 16 4 17 3 18 2 19 1 20
REMARK H PARENT
REMARK Flexibility Score: inf
ROOT
ATOM      1  C   UNL     1      12.677  16.645  63.675  1.00  0.00     0.000 C 
ENDROOT
BRANCH   1   2
ATOM      2  C   UNL     1      12.584  15.109  63.774  1.00  0.00     0.000 C 
BRANCH   2   3
ATOM      3  C   UNL     1      13.837  14.412  64.335  1.00  0.00     0.000 C 
BRANCH   3   4
ATOM      4  C   UNL     1      13.945  12.941  63.900  1.00  0.00     0.000 C 
BRANCH   4   5
ATOM      5  C   UNL     1      14.531  12.775  62.485  1.00  0.00     0.000 C 
BRANCH   5   6
ATOM      6  C   UNL     1      15.362  11.497  62.260  1.00  0.00     0.000 C 
BRANCH   6   7
ATOM      7  C   UNL     1      16.297  11.522  61.035  1.00  0.00     0.006 C 
BRANCH   7   8
ATOM      8  C   UNL     1      15.750  10.758  59.815  1.00  0.00     0.053 C 
BRANCH   8   9
ATOM      9  C   UNL     1      14.861  11.608  58.959  1.00  0.00     0.041 C 
ATOM     10  O   UNL     1      15.005  12.860  58.940  1.00  0.00    -0.550 OA
ATOM     11  O   UNL     1      13.896  11.016  58.154  1.00  0.00    -0.550 OA
ENDBRANCH   8   9
ENDBRANCH   7   8
ENDBRANCH   6   7
ENDBRANCH   5   6
ENDBRANCH   4   5
ENDBRANCH   3   4
ENDBRANCH   2   3
ENDBRANCH   1   2
BRANCH   1  12
ATOM     12  C   UNL     1      14.106  17.222  63.730  1.00  0.00     0.000 C 
BRANCH  12  13
ATOM     13  C   UNL     1      14.566  17.951  62.454  1.00  0.00    -0.000 C 
BRANCH  13  14
ATOM     14  C   UNL     1      15.026  16.984  61.349  1.00  0.00    -0.000 C 
BRANCH  14  15
ATOM     15  C   UNL     1      16.167  16.061  61.810  1.00  0.00    -0.000 C 
BRANCH  15  16
ATOM     16  C   UNL     1      16.779  15.251  60.657  1.00  0.00    -0.000 C 
BRANCH  16  17
ATOM     17  C   UNL     1      18.302  15.437  60.602  1.00  0.00    -0.000 C 
BRANCH  17  18
ATOM     18  C   UNL     1      18.702  16.863  60.166  1.00  0.00    -0.000 C 
BRANCH  18  19
ATOM     19  C   UNL     1      19.948  17.400  60.890  1.00  0.00    -0.003 C 
ATOM     20  C   UNL     1      19.858  17.275  62.409  1.00  0.00     0.004 C 
ENDBRANCH  18  19
ENDBRANCH  17  18
ENDBRANCH  16  17
ENDBRANCH  15  16
ENDBRANCH  14  15
ENDBRANCH  13  14
ENDBRANCH  12  13
ENDBRANCH   1  12
TORSDOF 16
ENDMDL
MODEL 5
REMARK VINA RESULT:    -4.326     11.437     13.597
REMARK INTER + INTRA:         -10.657
REMARK INTER:                  -8.718
REMARK INTRA:                  -1.939
REMARK UNBOUND:                -2.284
REMARK SMILES CCCCCCCCCCCCCCCCCC(=O)[O-]
REMARK SMILES IDX 10 1 11 2 12 3 13 4 14 5 15 6 16 7 17 8 18 9 19 10 20 11
REMARK SMILES IDX 9 12 8 13 7 14 6 15 5 16 4 17 3 18 2 19 1 20
REMARK H PARENT
REMARK Flexibility Score: inf
ROOT
ATOM      1  C   UNL     1      11.256  25.353  59.633  1.00  0.00     0.000 C 
ENDROOT
BRANCH   1   2
ATOM      2  C   UNL     1      10.752  26.222  58.464  1.00  0.00     0.000 C 
BRANCH   2   3
ATOM      3  C   UNL     1       9.421  26.954  58.717  1.00  0.00     0.000 C 
BRANCH   3   4
ATOM      4  C   UNL     1       9.542  28.479  58.567  1.00  0.00     0.000 C 
BRANCH   4   5
ATOM      5  C   UNL     1      10.945  28.929  58.118  1.00  0.00     0.000 C 
BRANCH   5   6
ATOM      6  C   UNL     1      11.015  29.583  56.724  1.00  0.00     0.000 C 
BRANCH   6   7
ATOM      7  C   UNL     1      10.339  28.792  55.587  1.00  0.00     0.006 C 
BRANCH   7   8
ATOM      8  C   UNL     1      11.242  27.723  54.945  1.00  0.00     0.053 C 
BRANCH   8   9
ATOM      9  C   UNL     1      11.628  28.070  53.540  1.00  0.00     0.041 C 
ATOM     10  O   UNL     1      11.678  29.274  53.172  1.00  0.00    -0.550 OA
ATOM     11  O   UNL     1      11.968  27.064  52.643  1.00  0.00    -0.550 OA
ENDBRANCH   8   9
ENDBRANCH   7   8
ENDBRANCH   6   7
ENDBRANCH   5   6
ENDBRANCH   4   5
ENDBRANCH   3   4
ENDBRANCH   2   3
ENDBRANCH   1   2
BRANCH   1  12
ATOM     12  C   UNL     1      10.155  24.790  60.555  1.00  0.00     0.000 C 
BRANCH  12  13
ATOM     13  C   UNL     1      10.462  24.866  62.062  1.00  0.00    -0.000 C 
BRANCH  13  14
ATOM     14  C   UNL     1      10.375  23.497  62.758  1.00  0.00    -0.000 C 
BRANCH  14  15
ATOM     15  C   UNL     1       9.908  22.381  61.809  1.00  0.00    -0.000 C 
BRANCH  15  16
ATOM     16  C   UNL     1      11.065  21.503  61.307  1.00  0.00    -0.000 C 
BRANCH  16  17
ATOM     17  C   UNL     1      12.226  21.498  62.313  1.00  0.00    -0.000 C 
BRANCH  17  18
ATOM     18  C   UNL     1      13.601  21.595  61.619  1.00  0.00    -0.000 C 
BRANCH  18  19
ATOM     19  C   UNL     1      13.843  22.943  60.919  1.00  0.00    -0.003 C 
ATOM     20  C   UNL     1      14.037  24.099  61.898  1.00  0.00     0.004 C 
ENDBRANCH  18  19
ENDBRANCH  17  18
ENDBRANCH  16  17
ENDBRANCH  15  16
ENDBRANCH  14  15
ENDBRANCH  13  14
ENDBRANCH  12  13
ENDBRANCH   1  12
TORSDOF 16
ENDMDL
MODEL 6
REMARK VINA RESULT:    -4.287      2.157      3.757
REMARK INTER + INTRA:         -10.581
REMARK INTER:                  -9.164
REMARK INTRA:                  -1.417
REMARK UNBOUND:                -2.284
REMARK SMILES CCCCCCCCCCCCCCCCCC(=O)[O-]
REMARK SMILES IDX 10 1 11 2 12 3 13 4 14 5 15 6 16 7 17 8 18 9 19 10 20 11
REMARK SMILES IDX 9 12 8 13 7 14 6 15 5 16 4 17 3 18 2 19 1 20
REMARK H PARENT
REMARK Flexibility Score: inf
ROOT
ATOM      1  C   UNL     1      16.948  11.699  60.868  1.00  0.00     0.000 C 
ENDROOT
BRANCH   1   2
ATOM      2  C   UNL     1      16.052  10.584  61.445  1.00  0.00     0.000 C 
BRANCH   2   3
ATOM      3  C   UNL     1      15.358  10.924  62.776  1.00  0.00     0.000 C 
BRANCH   3   4
ATOM      4  C   UNL     1      14.610  12.267  62.732  1.00  0.00     0.000 C 
BRANCH   4   5
ATOM      5  C   UNL     1      13.754  12.517  63.988  1.00  0.00     0.000 C 
BRANCH   5   6
ATOM      6  C   UNL     1      13.744  13.970  64.502  1.00  0.00     0.000 C 
BRANCH   6   7
ATOM      7  C   UNL     1      13.223  15.022  63.505  1.00  0.00     0.006 C 
BRANCH   7   8
ATOM      8  C   UNL     1      13.780  16.438  63.740  1.00  0.00     0.053 C 
BRANCH   8   9
ATOM      9  C   UNL     1      15.084  16.663  63.038  1.00  0.00     0.041 C 
ATOM     10  O   UNL     1      15.449  17.830  62.733  1.00  0.00    -0.550 OA
ATOM     11  O   UNL     1      15.915  15.588  62.749  1.00  0.00    -0.550 OA
ENDBRANCH   8   9
ENDBRANCH   7   8
ENDBRANCH   6   7
ENDBRANCH   5   6
ENDBRANCH   4   5
ENDBRANCH   3   4
ENDBRANCH   2   3
ENDBRANCH   1   2
BRANCH   1  12
ATOM     12  C   UNL     1      16.715  12.025  59.379  1.00  0.00     0.000 C 
BRANCH  12  13
ATOM     13  C   UNL     1      15.535  12.973  59.095  1.00  0.00    -0.000 C 
BRANCH  13  14
ATOM     14  C   UNL     1      15.594  14.265  59.928  1.00  0.00    -0.000 C 
BRANCH  14  15
ATOM     15  C   UNL     1      15.379  15.527  59.076  1.00  0.00    -0.000 C 
BRANCH  15  16
ATOM     16  C   UNL     1      16.385  16.642  59.401  1.00  0.00    -0.000 C 
BRANCH  16  17
ATOM     17  C   UNL     1      17.829  16.136  59.264  1.00  0.00    -0.000 C 
BRANCH  17  18
ATOM     18  C   UNL     1      18.824  16.979  60.090  1.00  0.00    -0.000 C 
BRANCH  18  19
ATOM     19  C   UNL     1      19.038  16.452  61.519  1.00  0.00    -0.003 C 
ATOM     20  C   UNL     1      20.044  17.278  62.317  1.00  0.00     0.004 C 
ENDBRANCH  18  19
ENDBRANCH  17  18
ENDBRANCH  16  17
ENDBRANCH  15  16
ENDBRANCH  14  15
ENDBRANCH  13  14
ENDBRANCH  12  13
ENDBRANCH   1  12
TORSDOF 16
ENDMDL
MODEL 7
REMARK VINA RESULT:    -4.265      3.942      7.264
REMARK INTER + INTRA:         -10.538
REMARK INTER:                  -8.895
REMARK INTRA:                  -1.643
REMARK UNBOUND:                -2.284
REMARK SMILES CCCCCCCCCCCCCCCCCC(=O)[O-]
REMARK SMILES IDX 10 1 11 2 12 3 13 4 14 5 15 6 16 7 17 8 18 9 19 10 20 11
REMARK SMILES IDX 9 12 8 13 7 14 6 15 5 16 4 17 3 18 2 19 1 20
REMARK H PARENT
REMARK Flexibility Score: inf
ROOT
ATOM      1  C   UNL     1      12.373  16.799  63.557  1.00  0.00     0.000 C 
ENDROOT
BRANCH   1   2
ATOM      2  C   UNL     1      13.585  17.746  63.443  1.00  0.00     0.000 C 
BRANCH   2   3
ATOM      3  C   UNL     1      14.931  17.056  63.156  1.00  0.00     0.000 C 
BRANCH   3   4
ATOM      4  C   UNL     1      15.153  16.782  61.660  1.00  0.00     0.000 C 
BRANCH   4   5
ATOM      5  C   UNL     1      15.324  15.284  61.344  1.00  0.00     0.000 C 
BRANCH   5   6
ATOM      6  C   UNL     1      16.704  14.880  60.787  1.00  0.00     0.000 C 
BRANCH   6   7
ATOM      7  C   UNL     1      17.864  15.831  61.137  1.00  0.00     0.006 C 
BRANCH   7   8
ATOM      8  C   UNL     1      18.776  16.171  59.945  1.00  0.00     0.053 C 
BRANCH   8   9
ATOM      9  C   UNL     1      18.013  16.728  58.782  1.00  0.00     0.041 C 
ATOM     10  O   UNL     1      17.215  17.690  58.947  1.00  0.00    -0.550 OA
ATOM     11  O   UNL     1      18.208  16.210  57.508  1.00  0.00    -0.550 OA
ENDBRANCH   8   9
ENDBRANCH   7   8
ENDBRANCH   6   7
ENDBRANCH   5   6
ENDBRANCH   4   5
ENDBRANCH   3   4
ENDBRANCH   2   3
ENDBRANCH   1   2
BRANCH   1  12
ATOM     12  C   UNL     1      10.998  17.495  63.616  1.00  0.00     0.000 C 
BRANCH  12  13
ATOM     13  C   UNL     1      11.033  18.976  64.035  1.00  0.00    -0.000 C 
BRANCH  13  14
ATOM     14  C   UNL     1      10.407  19.908  62.983  1.00  0.00    -0.000 C 
BRANCH  14  15
ATOM     15  C   UNL     1      10.941  21.347  63.077  1.00  0.00    -0.000 C 
BRANCH  15  16
ATOM     16  C   UNL     1      12.164  21.469  64.000  1.00  0.00    -0.000 C 
BRANCH  16  17
ATOM     17  C   UNL     1      13.396  21.948  63.219  1.00  0.00    -0.000 C 
BRANCH  17  18
ATOM     18  C   UNL     1      13.677  21.075  61.977  1.00  0.00    -0.000 C 
BRANCH  18  19
ATOM     19  C   UNL     1      13.697  21.868  60.659  1.00  0.00    -0.003 C 
ATOM     20  C   UNL     1      13.547  23.374  60.866  1.00  0.00     0.004 C 
ENDBRANCH  18  19
ENDBRANCH  17  18
ENDBRANCH  16  17
ENDBRANCH  15  16
ENDBRANCH  14  15
ENDBRANCH  13  14
ENDBRANCH  12  13
ENDBRANCH   1  12
TORSDOF 16
ENDMDL
MODEL 8
REMARK VINA RESULT:    -4.229      2.485      5.842
REMARK INTER + INTRA:         -10.469
REMARK INTER:                  -8.365
REMARK INTRA:                  -2.104
REMARK UNBOUND:                -2.284
REMARK SMILES CCCCCCCCCCCCCCCCCC(=O)[O-]
REMARK SMILES IDX 10 1 11 2 12 3 13 4 14 5 15 6 16 7 17 8 18 9 19 10 20 11
REMARK SMILES IDX 9 12 8 13 7 14 6 15 5 16 4 17 3 18 2 19 1 20
REMARK H PARENT
REMARK Flexibility Score: inf
ROOT
ATOM      1  C   UNL     1      12.860  16.973  63.526  1.00  0.00     0.000 C 
ENDROOT
BRANCH   1   2
ATOM      2  C   UNL     1      14.363  17.053  63.862  1.00  0.00     0.000 C 
BRANCH   2   3
ATOM      3  C   UNL     1      15.286  17.360  62.669  1.00  0.00     0.000 C 
BRANCH   3   4
ATOM      4  C   UNL     1      15.611  16.113  61.830  1.00  0.00     0.000 C 
BRANCH   4   5
ATOM      5  C   UNL     1      15.124  16.227  60.373  1.00  0.00     0.000 C 
BRANCH   5   6
ATOM      6  C   UNL     1      16.213  16.048  59.297  1.00  0.00     0.000 C 
BRANCH   6   7
ATOM      7  C   UNL     1      17.427  16.989  59.421  1.00  0.00     0.006 C 
BRANCH   7   8
ATOM      8  C   UNL     1      18.698  16.303  59.952  1.00  0.00     0.053 C 
BRANCH   8   9
ATOM      9  C   UNL     1      18.994  16.669  61.374  1.00  0.00     0.041 C 
ATOM     10  O   UNL     1      19.116  15.772  62.250  1.00  0.00    -0.550 OA
ATOM     11  O   UNL     1      19.172  18.001  61.728  1.00  0.00    -0.550 OA
ENDBRANCH   8   9
ENDBRANCH   7   8
ENDBRANCH   6   7
ENDBRANCH   5   6
ENDBRANCH   4   5
ENDBRANCH   3   4
ENDBRANCH   2   3
ENDBRANCH   1   2
BRANCH   1  12
ATOM     12  C   UNL     1      12.253  15.556  63.565  1.00  0.00     0.000 C 
BRANCH  12  13
ATOM     13  C   UNL     1      13.216  14.445  64.024  1.00  0.00    -0.000 C 
BRANCH  13  14
ATOM     14  C   UNL     1      13.373  13.324  62.982  1.00  0.00    -0.000 C 
BRANCH  14  15
ATOM     15  C   UNL     1      14.168  12.123  63.522  1.00  0.00    -0.000 C 
BRANCH  15  16
ATOM     16  C   UNL     1      15.278  11.666  62.563  1.00  0.00    -0.000 C 
BRANCH  16  17
ATOM     17  C   UNL     1      15.136  12.346  61.193  1.00  0.00    -0.000 C 
BRANCH  17  18
ATOM     18  C   UNL     1      16.504  12.665  60.554  1.00  0.00    -0.000 C 
BRANCH  18  19
ATOM     19  C   UNL     1      16.752  11.922  59.230  1.00  0.00    -0.003 C 
ATOM     20  C   UNL     1      15.643  10.932  58.883  1.00  0.00     0.004 C 
ENDBRANCH  18  19
ENDBRANCH  17  18
ENDBRANCH  16  17
ENDBRANCH  15  16
ENDBRANCH  14  15
ENDBRANCH  13  14
ENDBRANCH  12  13
ENDBRANCH   1  12
TORSDOF 16
ENDMDL
MODEL 9
REMARK VINA RESULT:    -4.152     11.283     13.504
REMARK INTER + INTRA:         -10.319
REMARK INTER:                  -8.687
REMARK INTRA:                  -1.632
REMARK UNBOUND:                -2.284
REMARK SMILES CCCCCCCCCCCCCCCCCC(=O)[O-]
REMARK SMILES IDX 10 1 11 2 12 3 13 4 14 5 15 6 16 7 17 8 18 9 19 10 20 11
REMARK SMILES IDX 9 12 8 13 7 14 6 15 5 16 4 17 3 18 2 19 1 20
REMARK H PARENT
REMARK Flexibility Score: inf
ROOT
ATOM      1  C   UNL     1      10.666  24.632  60.410  1.00  0.00     0.000 C 
ENDROOT
BRANCH   1   2
ATOM      2  C   UNL     1      11.212  25.583  59.325  1.00  0.00     0.000 C 
BRANCH   2   3
ATOM      3  C   UNL     1      10.374  26.851  59.083  1.00  0.00     0.000 C 
BRANCH   3   4
ATOM      4  C   UNL     1       9.513  26.763  57.812  1.00  0.00     0.000 C 
BRANCH   4   5
ATOM      5  C   UNL     1       9.167  28.145  57.225  1.00  0.00     0.000 C 
BRANCH   5   6
ATOM      6  C   UNL     1      10.357  29.112  57.067  1.00  0.00     0.000 C 
BRANCH   6   7
ATOM      7  C   UNL     1      10.880  29.289  55.628  1.00  0.00     0.006 C 
BRANCH   7   8
ATOM      8  C   UNL     1      11.258  27.968  54.933  1.00  0.00     0.053 C 
BRANCH   8   9
ATOM      9  C   UNL     1      11.599  28.160  53.487  1.00  0.00     0.041 C 
ATOM     10  O   UNL     1      11.592  29.314  52.980  1.00  0.00    -0.550 OA
ATOM     11  O   UNL     1      11.960  27.070  52.705  1.00  0.00    -0.550 OA
ENDBRANCH   8   9
ENDBRANCH   7   8
ENDBRANCH   6   7
ENDBRANCH   5   6
ENDBRANCH   4   5
ENDBRANCH   3   4
ENDBRANCH   2   3
ENDBRANCH   1   2
BRANCH   1  12
ATOM     12  C   UNL     1      10.938  25.068  61.864  1.00  0.00     0.000 C 
BRANCH  12  13
ATOM     13  C   UNL     1      12.253  25.840  62.079  1.00  0.00    -0.000 C 
BRANCH  13  14
ATOM     14  C   UNL     1      13.191  25.151  63.084  1.00  0.00    -0.000 C 
BRANCH  14  15
ATOM     15  C   UNL     1      14.294  24.329  62.396  1.00  0.00    -0.000 C 
BRANCH  15  16
ATOM     16  C   UNL     1      14.011  22.819  62.416  1.00  0.00    -0.000 C 
BRANCH  16  17
ATOM     17  C   UNL     1      13.554  22.327  61.035  1.00  0.00    -0.000 C 
BRANCH  17  18
ATOM     18  C   UNL     1      12.379  21.331  61.128  1.00  0.00    -0.000 C 
BRANCH  18  19
ATOM     19  C   UNL     1      11.496  21.535  62.370  1.00  0.00    -0.003 C 
ATOM     20  C   UNL     1      11.083  20.223  63.033  1.00  0.00     0.004 C 
ENDBRANCH  18  19
ENDBRANCH  17  18
ENDBRANCH  16  17
ENDBRANCH  15  16
ENDBRANCH  14  15
ENDBRANCH  13  14
ENDBRANCH  12  13
ENDBRANCH   1  12
TORSDOF 16
ENDMDL
