MODEL 1
REMARK VINA RESULT:     7.740      0.000      0.000
REMARK INTER + INTRA:          18.500
REMARK INTER:                  19.506
REMARK INTRA:                  -1.006
REMARK UNBOUND:                -1.006
REMARK SMILES CCCCCCCCCCCCCCCCCCCCCCCCCCCC(=O)[O-]
REMARK SMILES IDX 15 1 16 2 17 3 18 4 19 5 20 6 21 7 22 8 23 9 24 10 25 11
REMARK SMILES IDX 26 12 27 13 28 14 29 15 30 16 14 17 13 18 12 19 11 20 10 21
REMARK SMILES IDX 9 22 8 23 7 24 6 25 5 26 4 27 3 28 2 29 1 30
REMARK H PARENT
REMARK Flexibility Score: inf
ROOT
ATOM      1  C   UNL     1      31.812  18.581  37.524  1.00  0.00     0.000 C 
ENDROOT
BRANCH   1   2
ATOM      2  C   UNL     1      30.750  19.685  37.377  1.00  0.00     0.000 C 
BRANCH   2   3
ATOM      3  C   UNL     1      31.196  21.015  38.001  1.00  0.00     0.000 C 
BRANCH   3   4
ATOM      4  C   UNL     1      31.792  21.986  36.967  1.00  0.00     0.000 C 
BRANCH   4   5
ATOM      5  C   UNL     1      32.330  23.272  37.615  1.00  0.00     0.000 C 
BRANCH   5   6
ATOM      6  C   UNL     1      32.176  24.498  36.700  1.00  0.00     0.000 C 
BRANCH   6   7
ATOM      7  C   UNL     1      32.276  24.142  35.206  1.00  0.00     0.000 C 
BRANCH   7   8
ATOM      8  C   UNL     1      31.198  24.823  34.335  1.00  0.00     0.000 C 
BRANCH   8   9
ATOM      9  C   UNL     1      31.691  25.098  32.903  1.00  0.00     0.000 C 
BRANCH   9  10
ATOM     10  C   UNL     1      30.711  24.599  31.825  1.00  0.00     0.000 C 
BRANCH  10  11
ATOM     11  C   UNL     1      30.999  25.100  30.398  1.00  0.00     0.000 C 
BRANCH  11  12
ATOM     12  C   UNL     1      31.992  24.209  29.636  1.00  0.00     0.006 C 
BRANCH  12  13
ATOM     13  C   UNL     1      31.517  23.962  28.201  1.00  0.00     0.053 C 
BRANCH  13  14
ATOM     14  C   UNL     1      30.097  23.488  28.194  1.00  0.00     0.041 C 
ATOM     15  O   UNL     1      29.156  24.312  28.335  1.00  0.00    -0.550 OA
ATOM     16  O   UNL     1      29.813  22.145  27.984  1.00  0.00    -0.550 OA
ENDBRANCH  13  14
ENDBRANCH  12  13
ENDBRANCH  11  12
ENDBRANCH  10  11
ENDBRANCH   9  10
ENDBRANCH   8   9
ENDBRANCH   7   8
ENDBRANCH   6   7
ENDBRANCH   5   6
ENDBRANCH   4   5
ENDBRANCH   3   4
ENDBRANCH   2   3
ENDBRANCH   1   2
BRANCH   1  17
ATOM     17  C   UNL     1      32.448  18.543  38.925  1.00  0.00     0.000 C 
BRANCH  17  18
ATOM     18  C   UNL     1      33.744  17.712  39.039  1.00  0.00     0.000 C 
BRANCH  18  19
ATOM     19  C   UNL     1      33.932  16.976  40.378  1.00  0.00     0.000 C 
BRANCH  19  20
ATOM     20  C   UNL     1      33.717  17.891  41.598  1.00  0.00     0.000 C 
BRANCH  20  21
ATOM     21  C   UNL     1      34.720  17.611  42.728  1.00  0.00     0.000 C 
BRANCH  21  22
ATOM     22  C   UNL     1      34.568  16.194  43.309  1.00  0.00    -0.000 C 
BRANCH  22  23
ATOM     23  C   UNL     1      35.920  15.540  43.629  1.00  0.00    -0.000 C 
BRANCH  23  24
ATOM     24  C   UNL     1      35.986  14.066  43.199  1.00  0.00    -0.000 C 
BRANCH  24  25
ATOM     25  C   UNL     1      34.718  13.604  42.458  1.00  0.00    -0.000 C 
BRANCH  25  26
ATOM     26  C   UNL     1      35.002  12.625  41.297  1.00  0.00    -0.000 C 
BRANCH  26  27
ATOM     27  C   UNL     1      33.753  12.361  40.437  1.00  0.00    -0.000 C 
BRANCH  27  28
ATOM     28  C   UNL     1      33.160  10.956  40.686  1.00  0.00    -0.000 C 
BRANCH  28  29
ATOM     29  C   UNL     1      34.068   9.812  40.206  1.00  0.00    -0.003 C 
ATOM     30  C   UNL     1      33.367   8.859  39.241  1.00  0.00     0.004 C 
ENDBRANCH  28  29
ENDBRANCH  27  28
ENDBRANCH  26  27
ENDBRANCH  25  26
ENDBRANCH  24  25
ENDBRANCH  23  24
ENDBRANCH  22  23
ENDBRANCH  21  22
ENDBRANCH  20  21
ENDBRANCH  19  20
ENDBRANCH  18  19
ENDBRANCH  17  18
ENDBRANCH   1  17
TORSDOF 26
ENDMDL
MODEL 2
REMARK VINA RESULT:     8.951      1.425      1.581
REMARK INTER + INTRA:          21.550
REMARK INTER:                  22.941
REMARK INTRA:                  -1.391
REMARK UNBOUND:                -1.006
REMARK SMILES CCCCCCCCCCCCCCCCCCCCCCCCCCCC(=O)[O-]
REMARK SMILES IDX 15 1 16 2 17 3 18 4 19 5 20 6 21 7 22 8 23 9 24 10 25 11
REMARK SMILES IDX 26 12 27 13 28 14 29 15 30 16 14 17 13 18 12 19 11 20 10 21
REMARK SMILES IDX 9 22 8 23 7 24 6 25 5 26 4 27 3 28 2 29 1 30
REMARK H PARENT
REMARK Flexibility Score: inf
ROOT
ATOM      1  C   UNL     1      31.860  18.738  37.721  1.00  0.00     0.000 C 
ENDROOT
BRANCH   1   2
ATOM      2  C   UNL     1      31.179  20.013  37.196  1.00  0.00     0.000 C 
BRANCH   2   3
ATOM      3  C   UNL     1      31.548  21.256  38.019  1.00  0.00     0.000 C 
BRANCH   3   4
ATOM      4  C   UNL     1      31.266  22.571  37.270  1.00  0.00     0.000 C 
BRANCH   4   5
ATOM      5  C   UNL     1      32.458  23.020  36.409  1.00  0.00     0.000 C 
BRANCH   5   6
ATOM      6  C   UNL     1      32.397  24.516  36.060  1.00  0.00     0.000 C 
BRANCH   6   7
ATOM      7  C   UNL     1      32.172  24.768  34.558  1.00  0.00     0.000 C 
BRANCH   7   8
ATOM      8  C   UNL     1      30.902  24.089  34.002  1.00  0.00     0.000 C 
BRANCH   8   9
ATOM      9  C   UNL     1      30.356  24.805  32.754  1.00  0.00     0.000 C 
BRANCH   9  10
ATOM     10  C   UNL     1      31.350  24.803  31.578  1.00  0.00     0.000 C 
BRANCH  10  11
ATOM     11  C   UNL     1      30.737  25.125  30.202  1.00  0.00     0.000 C 
BRANCH  11  12
ATOM     12  C   UNL     1      30.871  23.970  29.198  1.00  0.00     0.006 C 
BRANCH  12  13
ATOM     13  C   UNL     1      32.204  23.238  29.381  1.00  0.00     0.053 C 
BRANCH  13  14
ATOM     14  C   UNL     1      33.328  24.049  28.816  1.00  0.00     0.041 C 
ATOM     15  O   UNL     1      33.084  25.077  28.132  1.00  0.00    -0.550 OA
ATOM     16  O   UNL     1      34.644  23.696  29.085  1.00  0.00    -0.550 OA
ENDBRANCH  13  14
ENDBRANCH  12  13
ENDBRANCH  11  12
ENDBRANCH  10  11
ENDBRANCH   9  10
ENDBRANCH   8   9
ENDBRANCH   7   8
ENDBRANCH   6   7
ENDBRANCH   5   6
ENDBRANCH   4   5
ENDBRANCH   3   4
ENDBRANCH   2   3
ENDBRANCH   1   2
BRANCH   1  17
ATOM     17  C   UNL     1      32.502  18.926  39.108  1.00  0.00     0.000 C 
BRANCH  17  18
ATOM     18  C   UNL     1      33.889  18.273  39.287  1.00  0.00     0.000 C 
BRANCH  18  19
ATOM     19  C   UNL     1      33.928  17.081  40.260  1.00  0.00     0.000 C 
BRANCH  19  20
ATOM     20  C   UNL     1      33.487  17.459  41.686  1.00  0.00     0.000 C 
BRANCH  20  21
ATOM     21  C   UNL     1      34.606  17.257  42.720  1.00  0.00     0.000 C 
BRANCH  21  22
ATOM     22  C   UNL     1      34.665  15.812  43.247  1.00  0.00    -0.000 C 
BRANCH  22  23
ATOM     23  C   UNL     1      36.102  15.341  43.514  1.00  0.00    -0.000 C 
BRANCH  23  24
ATOM     24  C   UNL     1      36.299  13.843  43.231  1.00  0.00    -0.000 C 
BRANCH  24  25
ATOM     25  C   UNL     1      35.123  13.223  42.457  1.00  0.00    -0.000 C 
BRANCH  25  26
ATOM     26  C   UNL     1      35.529  12.618  41.095  1.00  0.00    -0.000 C 
BRANCH  26  27
ATOM     27  C   UNL     1      34.515  12.946  39.984  1.00  0.00    -0.000 C 
BRANCH  27  28
ATOM     28  C   UNL     1      33.215  12.125  40.120  1.00  0.00    -0.000 C 
BRANCH  28  29
ATOM     29  C   UNL     1      33.389  10.636  39.779  1.00  0.00    -0.003 C 
ATOM     30  C   UNL     1      32.536   9.719  40.654  1.00  0.00     0.004 C 
ENDBRANCH  28  29
ENDBRANCH  27  28
ENDBRANCH  26  27
ENDBRANCH  25  26
ENDBRANCH  24  25
ENDBRANCH  23  24
ENDBRANCH  22  23
ENDBRANCH  21  22
ENDBRANCH  20  21
ENDBRANCH  19  20
ENDBRANCH  18  19
ENDBRANCH  17  18
ENDBRANCH   1  17
TORSDOF 26
ENDMDL
MODEL 3
REMARK VINA RESULT:     9.170      4.823     13.461
REMARK INTER + INTRA:          22.102
REMARK INTER:                  23.392
REMARK INTRA:                  -1.290
REMARK UNBOUND:                -1.006
REMARK SMILES CCCCCCCCCCCCCCCCCCCCCCCCCCCC(=O)[O-]
REMARK SMILES IDX 15 1 16 2 17 3 18 4 19 5 20 6 21 7 22 8 23 9 24 10 25 11
REMARK SMILES IDX 26 12 27 13 28 14 29 15 30 16 14 17 13 18 12 19 11 20 10 21
REMARK SMILES IDX 9 22 8 23 7 24 6 25 5 26 4 27 3 28 2 29 1 30
REMARK H PARENT
REMARK Flexibility Score: inf
ROOT
ATOM      1  C   UNL     1      31.118  19.177  37.404  1.00  0.00     0.000 C 
ENDROOT
BRANCH   1   2
ATOM      2  C   UNL     1      31.866  17.930  37.907  1.00  0.00     0.000 C 
BRANCH   2   3
ATOM      3  C   UNL     1      33.189  18.282  38.603  1.00  0.00     0.000 C 
BRANCH   3   4
ATOM      4  C   UNL     1      33.388  17.516  39.923  1.00  0.00     0.000 C 
BRANCH   4   5
ATOM      5  C   UNL     1      33.362  18.445  41.148  1.00  0.00     0.000 C 
BRANCH   5   6
ATOM      6  C   UNL     1      33.573  17.682  42.466  1.00  0.00     0.000 C 
BRANCH   6   7
ATOM      7  C   UNL     1      34.160  16.275  42.252  1.00  0.00     0.000 C 
BRANCH   7   8
ATOM      8  C   UNL     1      35.435  16.006  43.079  1.00  0.00     0.000 C 
BRANCH   8   9
ATOM      9  C   UNL     1      35.572  14.525  43.478  1.00  0.00     0.000 C 
BRANCH   9  10
ATOM     10  C   UNL     1      35.625  13.579  42.264  1.00  0.00     0.000 C 
BRANCH  10  11
ATOM     11  C   UNL     1      34.263  13.266  41.618  1.00  0.00     0.000 C 
BRANCH  11  12
ATOM     12  C   UNL     1      34.369  12.306  40.423  1.00  0.00     0.006 C 
BRANCH  12  13
ATOM     13  C   UNL     1      33.078  11.502  40.249  1.00  0.00     0.053 C 
BRANCH  13  14
ATOM     14  C   UNL     1      33.391  10.066  39.966  1.00  0.00     0.041 C 
ATOM     15  O   UNL     1      32.473   9.275  39.624  1.00  0.00    -0.550 OA
ATOM     16  O   UNL     1      34.702   9.613  40.032  1.00  0.00    -0.550 OA
ENDBRANCH  13  14
ENDBRANCH  12  13
ENDBRANCH  11  12
ENDBRANCH  10  11
ENDBRANCH   9  10
ENDBRANCH   8   9
ENDBRANCH   7   8
ENDBRANCH   6   7
ENDBRANCH   5   6
ENDBRANCH   4   5
ENDBRANCH   3   4
ENDBRANCH   2   3
ENDBRANCH   1   2
BRANCH   1  17
ATOM     17  C   UNL     1      31.656  20.486  38.010  1.00  0.00     0.000 C 
BRANCH  17  18
ATOM     18  C   UNL     1      31.144  21.781  37.343  1.00  0.00     0.000 C 
BRANCH  18  19
ATOM     19  C   UNL     1      32.241  22.718  36.809  1.00  0.00     0.000 C 
BRANCH  19  20
ATOM     20  C   UNL     1      31.920  24.206  37.040  1.00  0.00     0.000 C 
BRANCH  20  21
ATOM     21  C   UNL     1      32.095  25.050  35.767  1.00  0.00     0.000 C 
BRANCH  21  22
ATOM     22  C   UNL     1      33.005  24.367  34.731  1.00  0.00    -0.000 C 
BRANCH  22  23
ATOM     23  C   UNL     1      32.723  24.841  33.297  1.00  0.00    -0.000 C 
BRANCH  23  24
ATOM     24  C   UNL     1      31.302  24.496  32.825  1.00  0.00    -0.000 C 
BRANCH  24  25
ATOM     25  C   UNL     1      30.957  25.125  31.464  1.00  0.00    -0.000 C 
BRANCH  25  26
ATOM     26  C   UNL     1      30.357  24.123  30.453  1.00  0.00    -0.000 C 
BRANCH  26  27
ATOM     27  C   UNL     1      30.941  24.296  29.040  1.00  0.00    -0.000 C 
BRANCH  27  28
ATOM     28  C   UNL     1      32.109  23.323  28.768  1.00  0.00    -0.000 C 
BRANCH  28  29
ATOM     29  C   UNL     1      33.458  24.027  28.547  1.00  0.00    -0.003 C 
ATOM     30  C   UNL     1      34.124  24.463  29.850  1.00  0.00     0.004 C 
ENDBRANCH  28  29
ENDBRANCH  27  28
ENDBRANCH  26  27
ENDBRANCH  25  26
ENDBRANCH  24  25
ENDBRANCH  23  24
ENDBRANCH  22  23
ENDBRANCH  21  22
ENDBRANCH  20  21
ENDBRANCH  19  20
ENDBRANCH  18  19
ENDBRANCH  17  18
ENDBRANCH   1  17
TORSDOF 26
ENDMDL
MODEL 4
REMARK VINA RESULT:     9.872      1.119      1.450
REMARK INTER + INTRA:          23.872
REMARK INTER:                  23.766
REMARK INTRA:                   0.106
REMARK UNBOUND:                -1.006
REMARK SMILES CCCCCCCCCCCCCCCCCCCCCCCCCCCC(=O)[O-]
REMARK SMILES IDX 15 1 16 2 17 3 18 4 19 5 20 6 21 7 22 8 23 9 24 10 25 11
REMARK SMILES IDX 26 12 27 13 28 14 29 15 30 16 14 17 13 18 12 19 11 20 10 21
REMARK SMILES IDX 9 22 8 23 7 24 6 25 5 26 4 27 3 28 2 29 1 30
REMARK H PARENT
REMARK Flexibility Score: inf
ROOT
ATOM      1  C   UNL     1      32.421  18.237  38.067  1.00  0.00     0.000 C 
ENDROOT
BRANCH   1   2
ATOM      2  C   UNL     1      31.342  19.228  37.596  1.00  0.00     0.000 C 
BRANCH   2   3
ATOM      3  C   UNL     1      31.574  20.647  38.134  1.00  0.00     0.000 C 
BRANCH   3   4
ATOM      4  C   UNL     1      31.522  21.717  37.029  1.00  0.00     0.000 C 
BRANCH   4   5
ATOM      5  C   UNL     1      31.782  23.132  37.572  1.00  0.00     0.000 C 
BRANCH   5   6
ATOM      6  C   UNL     1      32.557  24.009  36.575  1.00  0.00     0.000 C 
BRANCH   6   7
ATOM      7  C   UNL     1      31.633  24.759  35.599  1.00  0.00     0.000 C 
BRANCH   7   8
ATOM      8  C   UNL     1      32.300  25.085  34.245  1.00  0.00     0.000 C 
BRANCH   8   9
ATOM      9  C   UNL     1      31.733  24.233  33.095  1.00  0.00     0.000 C 
BRANCH   9  10
ATOM     10  C   UNL     1      30.711  24.995  32.231  1.00  0.00     0.000 C 
BRANCH  10  11
ATOM     11  C   UNL     1      30.202  24.233  30.994  1.00  0.00     0.000 C 
BRANCH  11  12
ATOM     12  C   UNL     1      30.068  25.125  29.750  1.00  0.00     0.006 C 
BRANCH  12  13
ATOM     13  C   UNL     1      30.497  24.374  28.487  1.00  0.00     0.053 C 
BRANCH  13  14
ATOM     14  C   UNL     1      31.453  23.274  28.832  1.00  0.00     0.041 C 
ATOM     15  O   UNL     1      32.362  22.951  28.024  1.00  0.00    -0.550 OA
ATOM     16  O   UNL     1      31.368  22.640  30.065  1.00  0.00    -0.550 OA
ENDBRANCH  13  14
ENDBRANCH  12  13
ENDBRANCH  11  12
ENDBRANCH  10  11
ENDBRANCH   9  10
ENDBRANCH   8   9
ENDBRANCH   7   8
ENDBRANCH   6   7
ENDBRANCH   5   6
ENDBRANCH   4   5
ENDBRANCH   3   4
ENDBRANCH   2   3
ENDBRANCH   1   2
BRANCH   1  17
ATOM     17  C   UNL     1      32.353  17.949  39.578  1.00  0.00     0.000 C 
BRANCH  17  18
ATOM     18  C   UNL     1      33.705  17.624  40.250  1.00  0.00     0.000 C 
BRANCH  18  19
ATOM     19  C   UNL     1      33.605  17.069  41.681  1.00  0.00     0.000 C 
BRANCH  19  20
ATOM     20  C   UNL     1      34.861  17.361  42.524  1.00  0.00     0.000 C 
BRANCH  20  21
ATOM     21  C   UNL     1      35.100  16.301  43.610  1.00  0.00     0.000 C 
BRANCH  21  22
ATOM     22  C   UNL     1      36.172  15.275  43.203  1.00  0.00    -0.000 C 
BRANCH  22  23
ATOM     23  C   UNL     1      35.745  13.830  43.496  1.00  0.00    -0.000 C 
BRANCH  23  24
ATOM     24  C   UNL     1      34.782  13.268  42.438  1.00  0.00    -0.000 C 
BRANCH  24  25
ATOM     25  C   UNL     1      35.443  13.101  41.058  1.00  0.00    -0.000 C 
BRANCH  25  26
ATOM     26  C   UNL     1      34.433  13.023  39.893  1.00  0.00    -0.000 C 
BRANCH  26  27
ATOM     27  C   UNL     1      33.073  12.451  40.334  1.00  0.00    -0.000 C 
BRANCH  27  28
ATOM     28  C   UNL     1      32.722  11.144  39.590  1.00  0.00    -0.000 C 
BRANCH  28  29
ATOM     29  C   UNL     1      33.123   9.873  40.357  1.00  0.00    -0.003 C 
ATOM     30  C   UNL     1      34.457   9.292  39.893  1.00  0.00     0.004 C 
ENDBRANCH  28  29
ENDBRANCH  27  28
ENDBRANCH  26  27
ENDBRANCH  25  26
ENDBRANCH  24  25
ENDBRANCH  23  24
ENDBRANCH  22  23
ENDBRANCH  21  22
ENDBRANCH  20  21
ENDBRANCH  19  20
ENDBRANCH  18  19
ENDBRANCH  17  18
ENDBRANCH   1  17
TORSDOF 26
ENDMDL
MODEL 5
REMARK VINA RESULT:     9.985      4.822     13.705
REMARK INTER + INTRA:          24.155
REMARK INTER:                  25.768
REMARK INTRA:                  -1.613
REMARK UNBOUND:                -1.006
REMARK SMILES CCCCCCCCCCCCCCCCCCCCCCCCCCCC(=O)[O-]
REMARK SMILES IDX 15 1 16 2 17 3 18 4 19 5 20 6 21 7 22 8 23 9 24 10 25 11
REMARK SMILES IDX 26 12 27 13 28 14 29 15 30 16 14 17 13 18 12 19 11 20 10 21
REMARK SMILES IDX 9 22 8 23 7 24 6 25 5 26 4 27 3 28 2 29 1 30
REMARK H PARENT
REMARK Flexibility Score: inf
ROOT
ATOM      1  C   UNL     1      31.305  21.136  37.919  1.00  0.00     0.000 C 
ENDROOT
BRANCH   1   2
ATOM      2  C   UNL     1      30.987  19.745  37.342  1.00  0.00     0.000 C 
BRANCH   2   3
ATOM      3  C   UNL     1      31.960  18.667  37.842  1.00  0.00     0.000 C 
BRANCH   3   4
ATOM      4  C   UNL     1      32.375  18.874  39.309  1.00  0.00     0.000 C 
BRANCH   4   5
ATOM      5  C   UNL     1      33.773  18.308  39.607  1.00  0.00     0.000 C 
BRANCH   5   6
ATOM      6  C   UNL     1      33.729  17.131  40.594  1.00  0.00     0.000 C 
BRANCH   6   7
ATOM      7  C   UNL     1      34.459  17.433  41.915  1.00  0.00     0.000 C 
BRANCH   7   8
ATOM      8  C   UNL     1      34.308  16.319  42.973  1.00  0.00     0.000 C 
BRANCH   8   9
ATOM      9  C   UNL     1      35.491  15.335  42.958  1.00  0.00     0.000 C 
BRANCH   9  10
ATOM     10  C   UNL     1      35.050  13.869  42.787  1.00  0.00     0.000 C 
BRANCH  10  11
ATOM     11  C   UNL     1      34.986  13.371  41.332  1.00  0.00     0.000 C 
BRANCH  11  12
ATOM     12  C   UNL     1      33.557  13.042  40.872  1.00  0.00     0.006 C 
BRANCH  12  13
ATOM     13  C   UNL     1      33.567  11.964  39.784  1.00  0.00     0.053 C 
BRANCH  13  14
ATOM     14  C   UNL     1      33.283  10.619  40.377  1.00  0.00     0.041 C 
ATOM     15  O   UNL     1      32.849  10.527  41.556  1.00  0.00    -0.550 OA
ATOM     16  O   UNL     1      33.451   9.472  39.613  1.00  0.00    -0.550 OA
ENDBRANCH  13  14
ENDBRANCH  12  13
ENDBRANCH  11  12
ENDBRANCH  10  11
ENDBRANCH   9  10
ENDBRANCH   8   9
ENDBRANCH   7   8
ENDBRANCH   6   7
ENDBRANCH   5   6
ENDBRANCH   4   5
ENDBRANCH   3   4
ENDBRANCH   2   3
ENDBRANCH   1   2
BRANCH   1  17
ATOM     17  C   UNL     1      31.986  22.068  36.901  1.00  0.00     0.000 C 
BRANCH  17  18
ATOM     18  C   UNL     1      31.511  23.537  36.930  1.00  0.00     0.000 C 
BRANCH  18  19
ATOM     19  C   UNL     1      32.484  24.549  36.300  1.00  0.00     0.000 C 
BRANCH  19  20
ATOM     20  C   UNL     1      32.299  24.686  34.777  1.00  0.00     0.000 C 
BRANCH  20  21
ATOM     21  C   UNL     1      30.835  24.933  34.382  1.00  0.00     0.000 C 
BRANCH  21  22
ATOM     22  C   UNL     1      30.302  23.866  33.409  1.00  0.00    -0.000 C 
BRANCH  22  23
ATOM     23  C   UNL     1      30.722  24.132  31.956  1.00  0.00    -0.000 C 
BRANCH  23  24
ATOM     24  C   UNL     1      29.793  25.125  31.240  1.00  0.00    -0.000 C 
BRANCH  24  25
ATOM     25  C   UNL     1      29.898  25.042  29.707  1.00  0.00    -0.000 C 
BRANCH  25  26
ATOM     26  C   UNL     1      31.349  24.913  29.193  1.00  0.00    -0.000 C 
BRANCH  26  27
ATOM     27  C   UNL     1      31.573  23.619  28.389  1.00  0.00    -0.000 C 
BRANCH  27  28
ATOM     28  C   UNL     1      33.055  23.421  28.004  1.00  0.00    -0.000 C 
BRANCH  28  29
ATOM     29  C   UNL     1      34.040  23.893  29.086  1.00  0.00    -0.003 C 
ATOM     30  C   UNL     1      35.500  23.780  28.653  1.00  0.00     0.004 C 
ENDBRANCH  28  29
ENDBRANCH  27  28
ENDBRANCH  26  27
ENDBRANCH  25  26
ENDBRANCH  24  25
ENDBRANCH  23  24
ENDBRANCH  22  23
ENDBRANCH  21  22
ENDBRANCH  20  21
ENDBRANCH  19  20
ENDBRANCH  18  19
ENDBRANCH  17  18
ENDBRANCH   1  17
TORSDOF 26
ENDMDL
