MODEL 1
REMARK VINA RESULT:    -2.539      0.000      0.000
REMARK INTER + INTRA:          -3.594
REMARK INTER:                  -4.914
REMARK INTRA:                   1.320
REMARK UNBOUND:                 1.320
REMARK SMILES CCCCCCCCCCCCCCCCCC(=O)[O-]
REMARK SMILES IDX 10 1 11 2 12 3 13 4 14 5 15 6 16 7 17 8 18 9 19 10 20 11
REMARK SMILES IDX 9 12 8 13 7 14 6 15 5 16 4 17 3 18 2 19 1 20
REMARK H PARENT
REMARK Flexibility Score: inf
ROOT
ATOM      1  C   UNL     1      10.533  -5.793  -7.597  1.00  0.00     0.000 C 
ENDROOT
BRANCH   1   2
ATOM      2  C   UNL     1      10.664  -7.303  -7.326  1.00  0.00     0.000 C 
BRANCH   2   3
ATOM      3  C   UNL     1       9.845  -7.824  -6.130  1.00  0.00     0.000 C 
BRANCH   3   4
ATOM      4  C   UNL     1      10.712  -8.120  -4.894  1.00  0.00     0.000 C 
BRANCH   4   5
ATOM      5  C   UNL     1      11.847  -7.099  -4.714  1.00  0.00     0.000 C 
BRANCH   5   6
ATOM      6  C   UNL     1      11.331  -5.657  -4.566  1.00  0.00     0.000 C 
BRANCH   6   7
ATOM      7  C   UNL     1      11.404  -5.136  -3.119  1.00  0.00     0.006 C 
BRANCH   7   8
ATOM      8  C   UNL     1      12.123  -3.784  -2.979  1.00  0.00     0.053 C 
BRANCH   8   9
ATOM      9  C   UNL     1      12.045  -2.959  -4.227  1.00  0.00     0.041 C 
ATOM     10  O   UNL     1      12.005  -3.517  -5.355  1.00  0.00    -0.550 OA
ATOM     11  O   UNL     1      11.985  -1.572  -4.145  1.00  0.00    -0.550 OA
ENDBRANCH   8   9
ENDBRANCH   7   8
ENDBRANCH   6   7
ENDBRANCH   5   6
ENDBRANCH   4   5
ENDBRANCH   3   4
ENDBRANCH   2   3
ENDBRANCH   1   2
BRANCH   1  12
ATOM     12  C   UNL     1      11.440  -5.310  -8.741  1.00  0.00     0.000 C 
BRANCH  12  13
ATOM     13  C   UNL     1      10.801  -5.508 -10.124  1.00  0.00    -0.000 C 
BRANCH  13  14
ATOM     14  C   UNL     1       9.265  -5.436 -10.080  1.00  0.00    -0.000 C 
BRANCH  14  15
ATOM     15  C   UNL     1       8.753  -4.202  -9.306  1.00  0.00    -0.000 C 
BRANCH  15  16
ATOM     16  C   UNL     1       7.292  -4.329  -8.831  1.00  0.00    -0.000 C 
BRANCH  16  17
ATOM     17  C   UNL     1       6.230  -4.072  -9.917  1.00  0.00    -0.000 C 
BRANCH  17  18
ATOM     18  C   UNL     1       5.418  -2.776  -9.738  1.00  0.00    -0.000 C 
BRANCH  18  19
ATOM     19  C   UNL     1       3.916  -2.974  -9.988  1.00  0.00    -0.003 C 
ATOM     20  C   UNL     1       3.571  -4.454 -10.124  1.00  0.00     0.004 C 
ENDBRANCH  18  19
ENDBRANCH  17  18
ENDBRANCH  16  17
ENDBRANCH  15  16
ENDBRANCH  14  15
ENDBRANCH  13  14
ENDBRANCH  12  13
ENDBRANCH   1  12
TORSDOF 16
ENDMDL
MODEL 2
REMARK VINA RESULT:    -1.952      3.915      8.507
REMARK INTER + INTRA:          -2.458
REMARK INTER:                  -2.136
REMARK INTRA:                  -0.323
REMARK UNBOUND:                 1.320
REMARK SMILES CCCCCCCCCCCCCCCCCC(=O)[O-]
REMARK SMILES IDX 10 1 11 2 12 3 13 4 14 5 15 6 16 7 17 8 18 9 19 10 20 11
REMARK SMILES IDX 9 12 8 13 7 14 6 15 5 16 4 17 3 18 2 19 1 20
REMARK H PARENT
REMARK Flexibility Score: inf
ROOT
ATOM      1  C   UNL     1       9.522  -5.197  -9.766  1.00  0.00     0.000 C 
ENDROOT
BRANCH   1   2
ATOM      2  C   UNL     1       8.680  -3.932  -9.516  1.00  0.00     0.000 C 
BRANCH   2   3
ATOM      3  C   UNL     1       7.260  -3.966 -10.113  1.00  0.00     0.000 C 
BRANCH   3   4
ATOM      4  C   UNL     1       6.191  -4.394  -9.093  1.00  0.00     0.000 C 
BRANCH   4   5
ATOM      5  C   UNL     1       5.070  -3.353  -8.945  1.00  0.00     0.000 C 
BRANCH   5   6
ATOM      6  C   UNL     1       3.887  -3.614  -9.895  1.00  0.00     0.000 C 
BRANCH   6   7
ATOM      7  C   UNL     1       3.588  -5.110 -10.089  1.00  0.00     0.006 C 
BRANCH   7   8
ATOM      8  C   UNL     1       2.091  -5.459 -10.034  1.00  0.00     0.053 C 
BRANCH   8   9
ATOM      9  C   UNL     1       1.829  -6.767  -9.352  1.00  0.00     0.041 C 
ATOM     10  O   UNL     1       1.667  -7.815 -10.031  1.00  0.00    -0.550 OA
ATOM     11  O   UNL     1       1.796  -6.837  -7.964  1.00  0.00    -0.550 OA
ENDBRANCH   8   9
ENDBRANCH   7   8
ENDBRANCH   6   7
ENDBRANCH   5   6
ENDBRANCH   4   5
ENDBRANCH   3   4
ENDBRANCH   2   3
ENDBRANCH   1   2
BRANCH   1  12
ATOM     12  C   UNL     1       9.527  -6.158  -8.565  1.00  0.00     0.000 C 
BRANCH  12  13
ATOM     13  C   UNL     1      10.201  -7.501  -8.888  1.00  0.00    -0.000 C 
BRANCH  13  14
ATOM     14  C   UNL     1      11.315  -7.857  -7.888  1.00  0.00    -0.000 C 
BRANCH  14  15
ATOM     15  C   UNL     1      12.125  -6.621  -7.440  1.00  0.00    -0.000 C 
BRANCH  15  16
ATOM     16  C   UNL     1      11.432  -5.789  -6.344  1.00  0.00    -0.000 C 
BRANCH  16  17
ATOM     17  C   UNL     1      11.648  -6.296  -4.906  1.00  0.00    -0.000 C 
BRANCH  17  18
ATOM     18  C   UNL     1      10.831  -5.560  -3.828  1.00  0.00    -0.000 C 
BRANCH  18  19
ATOM     19  C   UNL     1      11.364  -5.800  -2.408  1.00  0.00    -0.003 C 
ATOM     20  C   UNL     1      12.114  -7.126  -2.319  1.00  0.00     0.004 C 
ENDBRANCH  18  19
ENDBRANCH  17  18
ENDBRANCH  16  17
ENDBRANCH  15  16
ENDBRANCH  14  15
ENDBRANCH  13  14
ENDBRANCH  12  13
ENDBRANCH   1  12
TORSDOF 16
ENDMDL
MODEL 3
REMARK VINA RESULT:    -1.552     15.196     17.249
REMARK INTER + INTRA:          -1.682
REMARK INTER:                  -2.777
REMARK INTRA:                   1.095
REMARK UNBOUND:                 1.320
REMARK SMILES CCCCCCCCCCCCCCCCCC(=O)[O-]
REMARK SMILES IDX 10 1 11 2 12 3 13 4 14 5 15 6 16 7 17 8 18 9 19 10 20 11
REMARK SMILES IDX 9 12 8 13 7 14 6 15 5 16 4 17 3 18 2 19 1 20
REMARK H PARENT
REMARK Flexibility Score: inf
ROOT
ATOM      1  C   UNL     1      -4.831  -5.976  -5.411  1.00  0.00     0.000 C 
ENDROOT
BRANCH   1   2
ATOM      2  C   UNL     1      -5.112  -5.951  -6.925  1.00  0.00     0.000 C 
BRANCH   2   3
ATOM      3  C   UNL     1      -4.994  -7.315  -7.631  1.00  0.00     0.000 C 
BRANCH   3   4
ATOM      4  C   UNL     1      -5.517  -7.287  -9.078  1.00  0.00     0.000 C 
BRANCH   4   5
ATOM      5  C   UNL     1      -6.826  -8.075  -9.244  1.00  0.00     0.000 C 
BRANCH   5   6
ATOM      6  C   UNL     1      -8.031  -7.169  -9.557  1.00  0.00     0.000 C 
BRANCH   6   7
ATOM      7  C   UNL     1      -7.622  -5.797 -10.122  1.00  0.00     0.006 C 
BRANCH   7   8
ATOM      8  C   UNL     1      -7.607  -4.671  -9.074  1.00  0.00     0.053 C 
BRANCH   8   9
ATOM      9  C   UNL     1      -7.224  -3.346  -9.658  1.00  0.00     0.041 C 
ATOM     10  O   UNL     1      -8.104  -2.473  -9.880  1.00  0.00    -0.550 OA
ATOM     11  O   UNL     1      -5.891  -3.060  -9.928  1.00  0.00    -0.550 OA
ENDBRANCH   8   9
ENDBRANCH   7   8
ENDBRANCH   6   7
ENDBRANCH   5   6
ENDBRANCH   4   5
ENDBRANCH   3   4
ENDBRANCH   2   3
ENDBRANCH   1   2
BRANCH   1  12
ATOM     12  C   UNL     1      -4.954  -7.384  -4.803  1.00  0.00     0.000 C 
BRANCH  12  13
ATOM     13  C   UNL     1      -6.337  -8.009  -5.041  1.00  0.00    -0.000 C 
BRANCH  13  14
ATOM     14  C   UNL     1      -7.399  -6.964  -5.426  1.00  0.00    -0.000 C 
BRANCH  14  15
ATOM     15  C   UNL     1      -7.658  -5.943  -4.297  1.00  0.00    -0.000 C 
BRANCH  15  16
ATOM     16  C   UNL     1      -7.092  -4.539  -4.589  1.00  0.00    -0.000 C 
BRANCH  16  17
ATOM     17  C   UNL     1      -8.107  -3.535  -5.168  1.00  0.00    -0.000 C 
BRANCH  17  18
ATOM     18  C   UNL     1      -7.568  -2.655  -6.311  1.00  0.00    -0.000 C 
BRANCH  18  19
ATOM     19  C   UNL     1      -7.591  -1.157  -5.972  1.00  0.00    -0.003 C 
ATOM     20  C   UNL     1      -8.125  -0.337  -7.143  1.00  0.00     0.004 C 
ENDBRANCH  18  19
ENDBRANCH  17  18
ENDBRANCH  16  17
ENDBRANCH  15  16
ENDBRANCH  14  15
ENDBRANCH  13  14
ENDBRANCH  12  13
ENDBRANCH   1  12
TORSDOF 16
ENDMDL
MODEL 4
REMARK VINA RESULT:    -1.071     14.825     16.623
REMARK INTER + INTRA:          -0.753
REMARK INTER:                  -1.151
REMARK INTRA:                   0.398
REMARK UNBOUND:                 1.320
REMARK SMILES CCCCCCCCCCCCCCCCCC(=O)[O-]
REMARK SMILES IDX 10 1 11 2 12 3 13 4 14 5 15 6 16 7 17 8 18 9 19 10 20 11
REMARK SMILES IDX 9 12 8 13 7 14 6 15 5 16 4 17 3 18 2 19 1 20
REMARK H PARENT
REMARK Flexibility Score: inf
ROOT
ATOM      1  C   UNL     1      -7.646  -6.872  -7.651  1.00  0.00     0.000 C 
ENDROOT
BRANCH   1   2
ATOM      2  C   UNL     1      -7.966  -7.708  -6.398  1.00  0.00     0.000 C 
BRANCH   2   3
ATOM      3  C   UNL     1      -8.108  -6.899  -5.094  1.00  0.00     0.000 C 
BRANCH   3   4
ATOM      4  C   UNL     1      -7.943  -5.384  -5.308  1.00  0.00     0.000 C 
BRANCH   4   5
ATOM      5  C   UNL     1      -7.382  -4.673  -4.066  1.00  0.00     0.000 C 
BRANCH   5   6
ATOM      6  C   UNL     1      -5.858  -4.833  -3.927  1.00  0.00     0.000 C 
BRANCH   6   7
ATOM      7  C   UNL     1      -5.164  -5.183  -5.255  1.00  0.00     0.006 C 
BRANCH   7   8
ATOM      8  C   UNL     1      -4.519  -6.579  -5.273  1.00  0.00     0.053 C 
BRANCH   8   9
ATOM      9  C   UNL     1      -4.756  -7.338  -4.003  1.00  0.00     0.041 C 
ATOM     10  O   UNL     1      -5.743  -8.113  -3.902  1.00  0.00    -0.550 OA
ATOM     11  O   UNL     1      -3.869  -7.216  -2.940  1.00  0.00    -0.550 OA
ENDBRANCH   8   9
ENDBRANCH   7   8
ENDBRANCH   6   7
ENDBRANCH   5   6
ENDBRANCH   4   5
ENDBRANCH   3   4
ENDBRANCH   2   3
ENDBRANCH   1   2
BRANCH   1  12
ATOM     12  C   UNL     1      -6.139  -6.621  -7.833  1.00  0.00     0.000 C 
BRANCH  12  13
ATOM     13  C   UNL     1      -5.847  -5.469  -8.806  1.00  0.00    -0.000 C 
BRANCH  13  14
ATOM     14  C   UNL     1      -6.628  -5.598 -10.125  1.00  0.00    -0.000 C 
BRANCH  14  15
ATOM     15  C   UNL     1      -8.041  -4.980 -10.038  1.00  0.00    -0.000 C 
BRANCH  15  16
ATOM     16  C   UNL     1      -8.115  -3.727  -9.144  1.00  0.00    -0.000 C 
BRANCH  16  17
ATOM     17  C   UNL     1      -6.957  -2.727  -9.325  1.00  0.00    -0.000 C 
BRANCH  17  18
ATOM     18  C   UNL     1      -6.784  -1.719  -8.174  1.00  0.00    -0.000 C 
BRANCH  18  19
ATOM     19  C   UNL     1      -8.074  -1.505  -7.369  1.00  0.00    -0.003 C 
ATOM     20  C   UNL     1      -7.867  -1.848  -5.897  1.00  0.00     0.004 C 
ENDBRANCH  18  19
ENDBRANCH  17  18
ENDBRANCH  16  17
ENDBRANCH  15  16
ENDBRANCH  14  15
ENDBRANCH  13  14
ENDBRANCH  12  13
ENDBRANCH   1  12
TORSDOF 16
ENDMDL
