MODEL 1
REMARK VINA RESULT:    -3.681      0.000      0.000
REMARK INTER + INTRA:         -15.395
REMARK INTER:                  -9.707
REMARK INTRA:                  -5.688
REMARK UNBOUND:                -5.688
REMARK SMILES CCCCCCCCCCCCCCCCCCCCCCCCCCCCCC(=O)[O-]
REMARK SMILES IDX 16 1 17 2 18 3 19 4 20 5 21 6 22 7 23 8 24 9 25 10 26 11
REMARK SMILES IDX 27 12 28 13 29 14 30 15 31 16 32 17 15 18 14 19 13 20 12 21
REMARK SMILES IDX 11 22 10 23 9 24 8 25 7 26 6 27 5 28 4 29 3 30 2 31 1 32
REMARK H PARENT
REMARK Flexibility Score: inf
ROOT
ATOM      1  C   UNL     1      -4.760  23.652  -0.718  1.00  0.00     0.000 C 
ENDROOT
BRANCH   1   2
ATOM      2  C   UNL     1      -4.885  25.165  -0.457  1.00  0.00     0.000 C 
BRANCH   2   3
ATOM      3  C   UNL     1      -6.109  25.581   0.383  1.00  0.00     0.000 C 
BRANCH   3   4
ATOM      4  C   UNL     1      -6.077  25.142   1.860  1.00  0.00     0.000 C 
BRANCH   4   5
ATOM      5  C   UNL     1      -6.061  26.313   2.864  1.00  0.00     0.000 C 
BRANCH   5   6
ATOM      6  C   UNL     1      -4.762  26.375   3.689  1.00  0.00     0.000 C 
BRANCH   6   7
ATOM      7  C   UNL     1      -3.620  25.574   3.028  1.00  0.00     0.000 C 
BRANCH   7   8
ATOM      8  C   UNL     1      -2.588  26.453   2.302  1.00  0.00     0.000 C 
BRANCH   8   9
ATOM      9  C   UNL     1      -2.468  27.859   2.912  1.00  0.00     0.000 C 
BRANCH   9  10
ATOM     10  C   UNL     1      -2.394  28.966   1.844  1.00  0.00     0.000 C 
BRANCH  10  11
ATOM     11  C   UNL     1      -3.704  29.747   1.611  1.00  0.00     0.000 C 
BRANCH  11  12
ATOM     12  C   UNL     1      -4.759  29.014   0.762  1.00  0.00     0.000 C 
BRANCH  12  13
ATOM     13  C   UNL     1      -5.348  29.899  -0.349  1.00  0.00     0.006 C 
BRANCH  13  14
ATOM     14  C   UNL     1      -5.689  31.308   0.151  1.00  0.00     0.053 C 
BRANCH  14  15
ATOM     15  C   UNL     1      -7.133  31.639  -0.071  1.00  0.00     0.041 C 
ATOM     16  O   UNL     1      -7.510  32.112  -1.176  1.00  0.00    -0.550 OA
ATOM     17  O   UNL     1      -8.068  31.392   0.926  1.00  0.00    -0.550 OA
ENDBRANCH  14  15
ENDBRANCH  13  14
ENDBRANCH  12  13
ENDBRANCH  11  12
ENDBRANCH  10  11
ENDBRANCH   9  10
ENDBRANCH   8   9
ENDBRANCH   7   8
ENDBRANCH   6   7
ENDBRANCH   5   6
ENDBRANCH   4   5
ENDBRANCH   3   4
ENDBRANCH   2   3
ENDBRANCH   1   2
BRANCH   1  18
ATOM     18  C   UNL     1      -3.833  22.951   0.289  1.00  0.00     0.000 C 
BRANCH  18  19
ATOM     19  C   UNL     1      -3.088  21.750  -0.322  1.00  0.00     0.000 C 
BRANCH  19  20
ATOM     20  C   UNL     1      -1.552  21.865  -0.311  1.00  0.00     0.000 C 
BRANCH  20  21
ATOM     21  C   UNL     1      -0.997  23.227   0.148  1.00  0.00     0.000 C 
BRANCH  21  22
ATOM     22  C   UNL     1       0.220  23.717  -0.665  1.00  0.00     0.000 C 
BRANCH  22  23
ATOM     23  C   UNL     1       0.072  25.173  -1.144  1.00  0.00     0.000 C 
BRANCH  23  24
ATOM     24  C   UNL     1      -1.395  25.654  -1.095  1.00  0.00    -0.000 C 
BRANCH  24  25
ATOM     25  C   UNL     1      -1.538  27.185  -1.086  1.00  0.00    -0.000 C 
BRANCH  25  26
ATOM     26  C   UNL     1      -2.609  27.688  -2.070  1.00  0.00    -0.000 C 
BRANCH  26  27
ATOM     27  C   UNL     1      -2.694  26.831  -3.342  1.00  0.00    -0.000 C 
BRANCH  27  28
ATOM     28  C   UNL     1      -4.145  26.553  -3.776  1.00  0.00    -0.000 C 
BRANCH  28  29
ATOM     29  C   UNL     1      -5.123  27.638  -3.278  1.00  0.00    -0.000 C 
BRANCH  29  30
ATOM     30  C   UNL     1      -5.526  28.654  -4.361  1.00  0.00    -0.000 C 
BRANCH  30  31
ATOM     31  C   UNL     1      -5.191  30.101  -3.976  1.00  0.00    -0.003 C 
ATOM     32  C   UNL     1      -3.735  30.434  -4.290  1.00  0.00     0.004 C 
ENDBRANCH  30  31
ENDBRANCH  29  30
ENDBRANCH  28  29
ENDBRANCH  27  28
ENDBRANCH  26  27
ENDBRANCH  25  26
ENDBRANCH  24  25
ENDBRANCH  23  24
ENDBRANCH  22  23
ENDBRANCH  21  22
ENDBRANCH  20  21
ENDBRANCH  19  20
ENDBRANCH  18  19
ENDBRANCH   1  18
TORSDOF 28
ENDMDL
MODEL 2
REMARK VINA RESULT:    -3.658      2.211      6.949
REMARK INTER + INTRA:         -15.335
REMARK INTER:                  -9.879
REMARK INTRA:                  -5.456
REMARK UNBOUND:                -5.688
REMARK SMILES CCCCCCCCCCCCCCCCCCCCCCCCCCCCCC(=O)[O-]
REMARK SMILES IDX 16 1 17 2 18 3 19 4 20 5 21 6 22 7 23 8 24 9 25 10 26 11
REMARK SMILES IDX 27 12 28 13 29 14 30 15 31 16 32 17 15 18 14 19 13 20 12 21
REMARK SMILES IDX 11 22 10 23 9 24 8 25 7 26 6 27 5 28 4 29 3 30 2 31 1 32
REMARK H PARENT
REMARK Flexibility Score: inf
ROOT
ATOM      1  C   UNL     1      -2.647  29.143   0.546  1.00  0.00     0.000 C 
ENDROOT
BRANCH   1   2
ATOM      2  C   UNL     1      -1.341  28.342   0.703  1.00  0.00     0.000 C 
BRANCH   2   3
ATOM      3  C   UNL     1      -0.985  27.437  -0.493  1.00  0.00     0.000 C 
BRANCH   3   4
ATOM      4  C   UNL     1      -0.866  25.934  -0.171  1.00  0.00     0.000 C 
BRANCH   4   5
ATOM      5  C   UNL     1       0.155  25.182  -1.050  1.00  0.00     0.000 C 
BRANCH   5   6
ATOM      6  C   UNL     1       0.202  23.673  -0.753  1.00  0.00     0.000 C 
BRANCH   6   7
ATOM      7  C   UNL     1      -0.960  23.229   0.162  1.00  0.00     0.000 C 
BRANCH   7   8
ATOM      8  C   UNL     1      -1.704  21.982  -0.345  1.00  0.00     0.000 C 
BRANCH   8   9
ATOM      9  C   UNL     1      -3.215  22.035  -0.067  1.00  0.00     0.000 C 
BRANCH   9  10
ATOM     10  C   UNL     1      -4.041  22.335  -1.331  1.00  0.00     0.000 C 
BRANCH  10  11
ATOM     11  C   UNL     1      -3.842  23.743  -1.930  1.00  0.00     0.000 C 
BRANCH  11  12
ATOM     12  C   UNL     1      -4.271  23.895  -3.400  1.00  0.00     0.000 C 
BRANCH  12  13
ATOM     13  C   UNL     1      -4.414  25.365  -3.830  1.00  0.00     0.006 C 
BRANCH  13  14
ATOM     14  C   UNL     1      -3.324  26.256  -3.222  1.00  0.00     0.053 C 
BRANCH  14  15
ATOM     15  C   UNL     1      -3.813  27.654  -3.001  1.00  0.00     0.041 C 
ATOM     16  O   UNL     1      -3.020  28.626  -3.117  1.00  0.00    -0.550 OA
ATOM     17  O   UNL     1      -5.149  27.888  -2.703  1.00  0.00    -0.550 OA
ENDBRANCH  14  15
ENDBRANCH  13  14
ENDBRANCH  12  13
ENDBRANCH  11  12
ENDBRANCH  10  11
ENDBRANCH   9  10
ENDBRANCH   8   9
ENDBRANCH   7   8
ENDBRANCH   6   7
ENDBRANCH   5   6
ENDBRANCH   4   5
ENDBRANCH   3   4
ENDBRANCH   2   3
ENDBRANCH   1   2
BRANCH   1  18
ATOM     18  C   UNL     1      -3.506  29.133   1.821  1.00  0.00     0.000 C 
BRANCH  18  19
ATOM     19  C   UNL     1      -2.850  28.352   2.976  1.00  0.00     0.000 C 
BRANCH  19  20
ATOM     20  C   UNL     1      -3.600  27.076   3.404  1.00  0.00     0.000 C 
BRANCH  20  21
ATOM     21  C   UNL     1      -3.069  25.764   2.796  1.00  0.00     0.000 C 
BRANCH  21  22
ATOM     22  C   UNL     1      -4.071  25.051   1.863  1.00  0.00     0.000 C 
BRANCH  22  23
ATOM     23  C   UNL     1      -4.299  25.807   0.541  1.00  0.00     0.000 C 
BRANCH  23  24
ATOM     24  C   UNL     1      -5.742  26.340   0.417  1.00  0.00    -0.000 C 
BRANCH  24  25
ATOM     25  C   UNL     1      -6.721  25.325  -0.196  1.00  0.00    -0.000 C 
BRANCH  25  26
ATOM     26  C   UNL     1      -7.339  24.385   0.853  1.00  0.00    -0.000 C 
BRANCH  26  27
ATOM     27  C   UNL     1      -8.049  25.145   1.984  1.00  0.00    -0.000 C 
BRANCH  27  28
ATOM     28  C   UNL     1      -7.303  25.046   3.328  1.00  0.00    -0.000 C 
BRANCH  28  29
ATOM     29  C   UNL     1      -7.334  26.374   4.114  1.00  0.00    -0.000 C 
BRANCH  29  30
ATOM     30  C   UNL     1      -6.754  26.268   5.535  1.00  0.00    -0.000 C 
BRANCH  30  31
ATOM     31  C   UNL     1      -7.554  25.321   6.438  1.00  0.00    -0.003 C 
ATOM     32  C   UNL     1      -9.041  25.666   6.420  1.00  0.00     0.004 C 
ENDBRANCH  30  31
ENDBRANCH  29  30
ENDBRANCH  28  29
ENDBRANCH  27  28
ENDBRANCH  26  27
ENDBRANCH  25  26
ENDBRANCH  24  25
ENDBRANCH  23  24
ENDBRANCH  22  23
ENDBRANCH  21  22
ENDBRANCH  20  21
ENDBRANCH  19  20
ENDBRANCH  18  19
ENDBRANCH   1  18
TORSDOF 28
ENDMDL
MODEL 3
REMARK VINA RESULT:    -3.644      1.618      3.793
REMARK INTER + INTRA:         -15.298
REMARK INTER:                  -9.737
REMARK INTRA:                  -5.561
REMARK UNBOUND:                -5.688
REMARK SMILES CCCCCCCCCCCCCCCCCCCCCCCCCCCCCC(=O)[O-]
REMARK SMILES IDX 16 1 17 2 18 3 19 4 20 5 21 6 22 7 23 8 24 9 25 10 26 11
REMARK SMILES IDX 27 12 28 13 29 14 30 15 31 16 32 17 15 18 14 19 13 20 12 21
REMARK SMILES IDX 11 22 10 23 9 24 8 25 7 26 6 27 5 28 4 29 3 30 2 31 1 32
REMARK H PARENT
REMARK Flexibility Score: inf
ROOT
ATOM      1  C   UNL     1      -1.185  26.387   0.416  1.00  0.00     0.000 C 
ENDROOT
BRANCH   1   2
ATOM      2  C   UNL     1      -2.277  26.280   1.497  1.00  0.00     0.000 C 
BRANCH   2   3
ATOM      3  C   UNL     1      -2.289  27.427   2.525  1.00  0.00     0.000 C 
BRANCH   3   4
ATOM      4  C   UNL     1      -3.327  28.536   2.265  1.00  0.00     0.000 C 
BRANCH   4   5
ATOM      5  C   UNL     1      -2.826  29.957   2.598  1.00  0.00     0.000 C 
BRANCH   5   6
ATOM      6  C   UNL     1      -1.310  30.010   2.859  1.00  0.00     0.000 C 
BRANCH   6   7
ATOM      7  C   UNL     1      -0.553  30.733   1.725  1.00  0.00     0.000 C 
BRANCH   7   8
ATOM      8  C   UNL     1       0.294  29.794   0.850  1.00  0.00     0.000 C 
BRANCH   8   9
ATOM      9  C   UNL     1      -0.244  29.667  -0.584  1.00  0.00     0.000 C 
BRANCH   9  10
ATOM     10  C   UNL     1      -1.361  30.681  -0.892  1.00  0.00     0.000 C 
BRANCH  10  11
ATOM     11  C   UNL     1      -2.771  30.077  -1.063  1.00  0.00     0.000 C 
BRANCH  11  12
ATOM     12  C   UNL     1      -3.878  31.089  -1.409  1.00  0.00     0.000 C 
BRANCH  12  13
ATOM     13  C   UNL     1      -4.570  31.664  -0.161  1.00  0.00     0.006 C 
BRANCH  13  14
ATOM     14  C   UNL     1      -5.797  30.841   0.252  1.00  0.00     0.053 C 
BRANCH  14  15
ATOM     15  C   UNL     1      -7.072  31.580  -0.013  1.00  0.00     0.041 C 
ATOM     16  O   UNL     1      -8.013  31.537   0.822  1.00  0.00    -0.550 OA
ATOM     17  O   UNL     1      -7.210  32.345  -1.165  1.00  0.00    -0.550 OA
ENDBRANCH  14  15
ENDBRANCH  13  14
ENDBRANCH  12  13
ENDBRANCH  11  12
ENDBRANCH  10  11
ENDBRANCH   9  10
ENDBRANCH   8   9
ENDBRANCH   7   8
ENDBRANCH   6   7
ENDBRANCH   5   6
ENDBRANCH   4   5
ENDBRANCH   3   4
ENDBRANCH   2   3
ENDBRANCH   1   2
BRANCH   1  18
ATOM     18  C   UNL     1      -1.191  25.192  -0.553  1.00  0.00     0.000 C 
BRANCH  18  19
ATOM     19  C   UNL     1      -0.833  23.862   0.136  1.00  0.00     0.000 C 
BRANCH  19  20
ATOM     20  C   UNL     1      -0.920  22.619  -0.768  1.00  0.00     0.000 C 
BRANCH  20  21
ATOM     21  C   UNL     1      -1.724  21.439  -0.189  1.00  0.00     0.000 C 
BRANCH  21  22
ATOM     22  C   UNL     1      -3.223  21.740   0.018  1.00  0.00     0.000 C 
BRANCH  22  23
ATOM     23  C   UNL     1      -3.877  22.392  -1.215  1.00  0.00     0.000 C 
BRANCH  23  24
ATOM     24  C   UNL     1      -4.659  23.672  -0.849  1.00  0.00    -0.000 C 
BRANCH  24  25
ATOM     25  C   UNL     1      -4.903  23.832   0.661  1.00  0.00    -0.000 C 
BRANCH  25  26
ATOM     26  C   UNL     1      -5.614  25.151   1.012  1.00  0.00    -0.000 C 
BRANCH  26  27
ATOM     27  C   UNL     1      -6.076  25.924  -0.233  1.00  0.00    -0.000 C 
BRANCH  27  28
ATOM     28  C   UNL     1      -5.279  27.222  -0.457  1.00  0.00    -0.000 C 
BRANCH  28  29
ATOM     29  C   UNL     1      -5.138  27.572  -1.953  1.00  0.00    -0.000 C 
BRANCH  29  30
ATOM     30  C   UNL     1      -6.473  27.574  -2.719  1.00  0.00    -0.000 C 
BRANCH  30  31
ATOM     31  C   UNL     1      -6.438  26.707  -3.984  1.00  0.00    -0.003 C 
ATOM     32  C   UNL     1      -5.300  25.691  -3.926  1.00  0.00     0.004 C 
ENDBRANCH  30  31
ENDBRANCH  29  30
ENDBRANCH  28  29
ENDBRANCH  27  28
ENDBRANCH  26  27
ENDBRANCH  25  26
ENDBRANCH  24  25
ENDBRANCH  23  24
ENDBRANCH  22  23
ENDBRANCH  21  22
ENDBRANCH  20  21
ENDBRANCH  19  20
ENDBRANCH  18  19
ENDBRANCH   1  18
TORSDOF 28
ENDMDL
MODEL 4
REMARK VINA RESULT:    -3.629      1.585      5.952
REMARK INTER + INTRA:         -15.256
REMARK INTER:                  -9.913
REMARK INTRA:                  -5.343
REMARK UNBOUND:                -5.688
REMARK SMILES CCCCCCCCCCCCCCCCCCCCCCCCCCCCCC(=O)[O-]
REMARK SMILES IDX 16 1 17 2 18 3 19 4 20 5 21 6 22 7 23 8 24 9 25 10 26 11
REMARK SMILES IDX 27 12 28 13 29 14 30 15 31 16 32 17 15 18 14 19 13 20 12 21
REMARK SMILES IDX 11 22 10 23 9 24 8 25 7 26 6 27 5 28 4 29 3 30 2 31 1 32
REMARK H PARENT
REMARK Flexibility Score: inf
ROOT
ATOM      1  C   UNL     1       0.120  24.680  -1.966  1.00  0.00     0.000 C 
ENDROOT
BRANCH   1   2
ATOM      2  C   UNL     1       0.407  23.287  -2.555  1.00  0.00     0.000 C 
BRANCH   2   3
ATOM      3  C   UNL     1       0.327  22.124  -1.547  1.00  0.00     0.000 C 
BRANCH   3   4
ATOM      4  C   UNL     1      -0.597  20.959  -1.954  1.00  0.00     0.000 C 
BRANCH   4   5
ATOM      5  C   UNL     1      -2.094  21.222  -1.689  1.00  0.00     0.000 C 
BRANCH   5   6
ATOM      6  C   UNL     1      -2.364  21.759  -0.271  1.00  0.00     0.000 C 
BRANCH   6   7
ATOM      7  C   UNL     1      -3.625  22.648  -0.222  1.00  0.00     0.000 C 
BRANCH   7   8
ATOM      8  C   UNL     1      -4.019  23.239  -1.586  1.00  0.00     0.000 C 
BRANCH   8   9
ATOM      9  C   UNL     1      -4.848  24.528  -1.461  1.00  0.00     0.000 C 
BRANCH   9  10
ATOM     10  C   UNL     1      -4.062  25.783  -1.880  1.00  0.00     0.000 C 
BRANCH  10  11
ATOM     11  C   UNL     1      -4.539  27.104  -1.240  1.00  0.00     0.000 C 
BRANCH  11  12
ATOM     12  C   UNL     1      -4.984  28.189  -2.237  1.00  0.00     0.000 C 
BRANCH  12  13
ATOM     13  C   UNL     1      -4.516  29.597  -1.832  1.00  0.00     0.006 C 
BRANCH  13  14
ATOM     14  C   UNL     1      -4.886  29.938  -0.383  1.00  0.00     0.053 C 
BRANCH  14  15
ATOM     15  C   UNL     1      -5.828  31.100  -0.313  1.00  0.00     0.041 C 
ATOM     16  O   UNL     1      -5.498  32.211  -0.807  1.00  0.00    -0.550 OA
ATOM     17  O   UNL     1      -7.082  30.950   0.265  1.00  0.00    -0.550 OA
ENDBRANCH  14  15
ENDBRANCH  13  14
ENDBRANCH  12  13
ENDBRANCH  11  12
ENDBRANCH  10  11
ENDBRANCH   9  10
ENDBRANCH   8   9
ENDBRANCH   7   8
ENDBRANCH   6   7
ENDBRANCH   5   6
ENDBRANCH   4   5
ENDBRANCH   3   4
ENDBRANCH   2   3
ENDBRANCH   1   2
BRANCH   1  18
ATOM     18  C   UNL     1      -0.145  24.640  -0.451  1.00  0.00     0.000 C 
BRANCH  18  19
ATOM     19  C   UNL     1      -1.040  25.797   0.029  1.00  0.00     0.000 C 
BRANCH  19  20
ATOM     20  C   UNL     1      -0.763  27.154  -0.644  1.00  0.00     0.000 C 
BRANCH  20  21
ATOM     21  C   UNL     1      -1.333  28.382   0.091  1.00  0.00     0.000 C 
BRANCH  21  22
ATOM     22  C   UNL     1      -1.560  28.162   1.602  1.00  0.00     0.000 C 
BRANCH  22  23
ATOM     23  C   UNL     1      -3.043  27.953   1.959  1.00  0.00     0.000 C 
BRANCH  23  24
ATOM     24  C   UNL     1      -3.225  27.384   3.383  1.00  0.00    -0.000 C 
BRANCH  24  25
ATOM     25  C   UNL     1      -3.710  25.924   3.403  1.00  0.00    -0.000 C 
BRANCH  25  26
ATOM     26  C   UNL     1      -4.206  25.444   2.028  1.00  0.00    -0.000 C 
BRANCH  26  27
ATOM     27  C   UNL     1      -5.700  25.085   2.030  1.00  0.00    -0.000 C 
BRANCH  27  28
ATOM     28  C   UNL     1      -6.606  26.306   1.785  1.00  0.00    -0.000 C 
BRANCH  28  29
ATOM     29  C   UNL     1      -7.488  26.636   3.007  1.00  0.00    -0.000 C 
BRANCH  29  30
ATOM     30  C   UNL     1      -7.365  25.618   4.154  1.00  0.00    -0.000 C 
BRANCH  30  31
ATOM     31  C   UNL     1      -6.840  26.241   5.454  1.00  0.00    -0.003 C 
ATOM     32  C   UNL     1      -7.588  25.697   6.669  1.00  0.00     0.004 C 
ENDBRANCH  30  31
ENDBRANCH  29  30
ENDBRANCH  28  29
ENDBRANCH  27  28
ENDBRANCH  26  27
ENDBRANCH  25  26
ENDBRANCH  24  25
ENDBRANCH  23  24
ENDBRANCH  22  23
ENDBRANCH  21  22
ENDBRANCH  20  21
ENDBRANCH  19  20
ENDBRANCH  18  19
ENDBRANCH   1  18
TORSDOF 28
ENDMDL
MODEL 5
REMARK VINA RESULT:    -3.610      1.998      5.331
REMARK INTER + INTRA:         -15.207
REMARK INTER:                  -9.446
REMARK INTRA:                  -5.761
REMARK UNBOUND:                -5.688
REMARK SMILES CCCCCCCCCCCCCCCCCCCCCCCCCCCCCC(=O)[O-]
REMARK SMILES IDX 16 1 17 2 18 3 19 4 20 5 21 6 22 7 23 8 24 9 25 10 26 11
REMARK SMILES IDX 27 12 28 13 29 14 30 15 31 16 32 17 15 18 14 19 13 20 12 21
REMARK SMILES IDX 11 22 10 23 9 24 8 25 7 26 6 27 5 28 4 29 3 30 2 31 1 32
REMARK H PARENT
REMARK Flexibility Score: inf
ROOT
ATOM      1  C   UNL     1      -4.394  25.478  -2.785  1.00  0.00     0.000 C 
ENDROOT
BRANCH   1   2
ATOM      2  C   UNL     1      -3.747  24.363  -1.942  1.00  0.00     0.000 C 
BRANCH   2   3
ATOM      3  C   UNL     1      -4.708  23.628  -0.987  1.00  0.00     0.000 C 
BRANCH   3   4
ATOM      4  C   UNL     1      -4.030  22.800   0.123  1.00  0.00     0.000 C 
BRANCH   4   5
ATOM      5  C   UNL     1      -3.342  21.515  -0.383  1.00  0.00     0.000 C 
BRANCH   5   6
ATOM      6  C   UNL     1      -1.848  21.453  -0.016  1.00  0.00     0.000 C 
BRANCH   6   7
ATOM      7  C   UNL     1      -0.947  21.899  -1.187  1.00  0.00     0.000 C 
BRANCH   7   8
ATOM      8  C   UNL     1       0.005  23.053  -0.830  1.00  0.00     0.000 C 
BRANCH   8   9
ATOM      9  C   UNL     1      -0.597  24.027   0.197  1.00  0.00     0.000 C 
BRANCH   9  10
ATOM     10  C   UNL     1      -0.573  25.489  -0.286  1.00  0.00     0.000 C 
BRANCH  10  11
ATOM     11  C   UNL     1      -1.414  26.474   0.553  1.00  0.00     0.000 C 
BRANCH  11  12
ATOM     12  C   UNL     1      -2.444  25.820   1.491  1.00  0.00     0.000 C 
BRANCH  12  13
ATOM     13  C   UNL     1      -3.860  26.394   1.315  1.00  0.00     0.006 C 
BRANCH  13  14
ATOM     14  C   UNL     1      -4.840  25.852   2.362  1.00  0.00     0.053 C 
BRANCH  14  15
ATOM     15  C   UNL     1      -6.106  26.652   2.400  1.00  0.00     0.041 C 
ATOM     16  O   UNL     1      -6.256  27.634   1.626  1.00  0.00    -0.550 OA
ATOM     17  O   UNL     1      -7.133  26.294   3.264  1.00  0.00    -0.550 OA
ENDBRANCH  14  15
ENDBRANCH  13  14
ENDBRANCH  12  13
ENDBRANCH  11  12
ENDBRANCH  10  11
ENDBRANCH   9  10
ENDBRANCH   8   9
ENDBRANCH   7   8
ENDBRANCH   6   7
ENDBRANCH   5   6
ENDBRANCH   4   5
ENDBRANCH   3   4
ENDBRANCH   2   3
ENDBRANCH   1   2
BRANCH   1  18
ATOM     18  C   UNL     1      -4.219  26.871  -2.158  1.00  0.00     0.000 C 
BRANCH  18  19
ATOM     19  C   UNL     1      -3.021  27.643  -2.741  1.00  0.00     0.000 C 
BRANCH  19  20
ATOM     20  C   UNL     1      -2.542  28.836  -1.893  1.00  0.00     0.000 C 
BRANCH  20  21
ATOM     21  C   UNL     1      -1.291  29.561  -2.424  1.00  0.00     0.000 C 
BRANCH  21  22
ATOM     22  C   UNL     1      -0.631  30.509  -1.400  1.00  0.00     0.000 C 
BRANCH  22  23
ATOM     23  C   UNL     1      -0.115  29.773  -0.150  1.00  0.00     0.000 C 
BRANCH  23  24
ATOM     24  C   UNL     1       0.268  30.748   0.984  1.00  0.00    -0.000 C 
BRANCH  24  25
ATOM     25  C   UNL     1      -0.302  30.349   2.355  1.00  0.00    -0.000 C 
BRANCH  25  26
ATOM     26  C   UNL     1      -1.500  29.390   2.245  1.00  0.00    -0.000 C 
BRANCH  26  27
ATOM     27  C   UNL     1      -2.841  30.080   2.537  1.00  0.00    -0.000 C 
BRANCH  27  28
ATOM     28  C   UNL     1      -3.746  30.170   1.295  1.00  0.00    -0.000 C 
BRANCH  28  29
ATOM     29  C   UNL     1      -3.600  31.518   0.559  1.00  0.00    -0.000 C 
BRANCH  29  30
ATOM     30  C   UNL     1      -4.652  31.743  -0.541  1.00  0.00    -0.000 C 
BRANCH  30  31
ATOM     31  C   UNL     1      -5.908  30.883  -0.351  1.00  0.00    -0.003 C 
ATOM     32  C   UNL     1      -7.052  31.700   0.244  1.00  0.00     0.004 C 
ENDBRANCH  30  31
ENDBRANCH  29  30
ENDBRANCH  28  29
ENDBRANCH  27  28
ENDBRANCH  26  27
ENDBRANCH  25  26
ENDBRANCH  24  25
ENDBRANCH  23  24
ENDBRANCH  22  23
ENDBRANCH  21  22
ENDBRANCH  20  21
ENDBRANCH  19  20
ENDBRANCH  18  19
ENDBRANCH   1  18
TORSDOF 28
ENDMDL
MODEL 6
REMARK VINA RESULT:    -3.606      1.199      2.240
REMARK INTER + INTRA:         -15.198
REMARK INTER:                  -9.231
REMARK INTRA:                  -5.967
REMARK UNBOUND:                -5.688
REMARK SMILES CCCCCCCCCCCCCCCCCCCCCCCCCCCCCC(=O)[O-]
REMARK SMILES IDX 16 1 17 2 18 3 19 4 20 5 21 6 22 7 23 8 24 9 25 10 26 11
REMARK SMILES IDX 27 12 28 13 29 14 30 15 31 16 32 17 15 18 14 19 13 20 12 21
REMARK SMILES IDX 11 22 10 23 9 24 8 25 7 26 6 27 5 28 4 29 3 30 2 31 1 32
REMARK H PARENT
REMARK Flexibility Score: inf
ROOT
ATOM      1  C   UNL     1      -4.836  23.887  -0.671  1.00  0.00     0.000 C 
ENDROOT
BRANCH   1   2
ATOM      2  C   UNL     1      -5.147  25.345  -0.285  1.00  0.00     0.000 C 
BRANCH   2   3
ATOM      3  C   UNL     1      -6.339  25.524   0.675  1.00  0.00     0.000 C 
BRANCH   3   4
ATOM      4  C   UNL     1      -6.072  25.128   2.140  1.00  0.00     0.000 C 
BRANCH   4   5
ATOM      5  C   UNL     1      -5.987  26.325   3.110  1.00  0.00     0.000 C 
BRANCH   5   6
ATOM      6  C   UNL     1      -4.611  26.446   3.789  1.00  0.00     0.000 C 
BRANCH   6   7
ATOM      7  C   UNL     1      -3.531  25.621   3.058  1.00  0.00     0.000 C 
BRANCH   7   8
ATOM      8  C   UNL     1      -2.544  26.475   2.245  1.00  0.00     0.000 C 
BRANCH   8   9
ATOM      9  C   UNL     1      -2.371  27.892   2.817  1.00  0.00     0.000 C 
BRANCH   9  10
ATOM     10  C   UNL     1      -2.394  28.979   1.728  1.00  0.00     0.000 C 
BRANCH  10  11
ATOM     11  C   UNL     1      -3.727  29.743   1.587  1.00  0.00     0.000 C 
BRANCH  11  12
ATOM     12  C   UNL     1      -4.800  29.036   0.739  1.00  0.00     0.000 C 
BRANCH  12  13
ATOM     13  C   UNL     1      -5.382  29.941  -0.360  1.00  0.00     0.006 C 
BRANCH  13  14
ATOM     14  C   UNL     1      -5.759  31.329   0.172  1.00  0.00     0.053 C 
BRANCH  14  15
ATOM     15  C   UNL     1      -7.203  31.641  -0.073  1.00  0.00     0.041 C 
ATOM     16  O   UNL     1      -7.564  32.143  -1.171  1.00  0.00    -0.550 OA
ATOM     17  O   UNL     1      -8.156  31.345   0.894  1.00  0.00    -0.550 OA
ENDBRANCH  14  15
ENDBRANCH  13  14
ENDBRANCH  12  13
ENDBRANCH  11  12
ENDBRANCH  10  11
ENDBRANCH   9  10
ENDBRANCH   8   9
ENDBRANCH   7   8
ENDBRANCH   6   7
ENDBRANCH   5   6
ENDBRANCH   4   5
ENDBRANCH   3   4
ENDBRANCH   2   3
ENDBRANCH   1   2
BRANCH   1  18
ATOM     18  C   UNL     1      -3.841  23.219   0.294  1.00  0.00     0.000 C 
BRANCH  18  19
ATOM     19  C   UNL     1      -3.112  22.019  -0.338  1.00  0.00     0.000 C 
BRANCH  19  20
ATOM     20  C   UNL     1      -1.574  22.108  -0.313  1.00  0.00     0.000 C 
BRANCH  20  21
ATOM     21  C   UNL     1      -1.000  23.449   0.184  1.00  0.00     0.000 C 
BRANCH  21  22
ATOM     22  C   UNL     1       0.164  23.991  -0.672  1.00  0.00     0.000 C 
BRANCH  22  23
ATOM     23  C   UNL     1      -0.117  25.392  -1.245  1.00  0.00     0.000 C 
BRANCH  23  24
ATOM     24  C   UNL     1      -1.623  25.732  -1.237  1.00  0.00    -0.000 C 
BRANCH  24  25
ATOM     25  C   UNL     1      -1.912  27.238  -1.346  1.00  0.00    -0.000 C 
BRANCH  25  26
ATOM     26  C   UNL     1      -3.030  27.557  -2.355  1.00  0.00    -0.000 C 
BRANCH  26  27
ATOM     27  C   UNL     1      -2.986  26.650  -3.594  1.00  0.00    -0.000 C 
BRANCH  27  28
ATOM     28  C   UNL     1      -4.352  26.020  -3.919  1.00  0.00    -0.000 C 
BRANCH  28  29
ATOM     29  C   UNL     1      -4.223  24.771  -4.816  1.00  0.00    -0.000 C 
BRANCH  29  30
ATOM     30  C   UNL     1      -4.433  23.444  -4.067  1.00  0.00    -0.000 C 
BRANCH  30  31
ATOM     31  C   UNL     1      -3.254  22.476  -4.221  1.00  0.00    -0.003 C 
ATOM     32  C   UNL     1      -1.940  23.138  -3.812  1.00  0.00     0.004 C 
ENDBRANCH  30  31
ENDBRANCH  29  30
ENDBRANCH  28  29
ENDBRANCH  27  28
ENDBRANCH  26  27
ENDBRANCH  25  26
ENDBRANCH  24  25
ENDBRANCH  23  24
ENDBRANCH  22  23
ENDBRANCH  21  22
ENDBRANCH  20  21
ENDBRANCH  19  20
ENDBRANCH  18  19
ENDBRANCH   1  18
TORSDOF 28
ENDMDL
MODEL 7
REMARK VINA RESULT:    -3.563      1.998      5.003
REMARK INTER + INTRA:         -15.083
REMARK INTER:                  -9.093
REMARK INTRA:                  -5.990
REMARK UNBOUND:                -5.688
REMARK SMILES CCCCCCCCCCCCCCCCCCCCCCCCCCCCCC(=O)[O-]
REMARK SMILES IDX 16 1 17 2 18 3 19 4 20 5 21 6 22 7 23 8 24 9 25 10 26 11
REMARK SMILES IDX 27 12 28 13 29 14 30 15 31 16 32 17 15 18 14 19 13 20 12 21
REMARK SMILES IDX 11 22 10 23 9 24 8 25 7 26 6 27 5 28 4 29 3 30 2 31 1 32
REMARK H PARENT
REMARK Flexibility Score: inf
ROOT
ATOM      1  C   UNL     1      -4.766  23.749  -0.801  1.00  0.00     0.000 C 
ENDROOT
BRANCH   1   2
ATOM      2  C   UNL     1      -3.915  22.537  -1.224  1.00  0.00     0.000 C 
BRANCH   2   3
ATOM      3  C   UNL     1      -3.359  21.695  -0.059  1.00  0.00     0.000 C 
BRANCH   3   4
ATOM      4  C   UNL     1      -1.844  21.413  -0.113  1.00  0.00     0.000 C 
BRANCH   4   5
ATOM      5  C   UNL     1      -1.018  22.539  -0.768  1.00  0.00     0.000 C 
BRANCH   5   6
ATOM      6  C   UNL     1      -0.637  23.654   0.223  1.00  0.00     0.000 C 
BRANCH   6   7
ATOM      7  C   UNL     1      -0.651  25.047  -0.442  1.00  0.00     0.000 C 
BRANCH   7   8
ATOM      8  C   UNL     1      -1.177  25.037  -1.887  1.00  0.00     0.000 C 
BRANCH   8   9
ATOM      9  C   UNL     1      -1.648  26.422  -2.360  1.00  0.00     0.000 C 
BRANCH   9  10
ATOM     10  C   UNL     1      -3.181  26.534  -2.435  1.00  0.00     0.000 C 
BRANCH  10  11
ATOM     11  C   UNL     1      -3.786  27.780  -1.754  1.00  0.00     0.000 C 
BRANCH  11  12
ATOM     12  C   UNL     1      -4.740  28.608  -2.633  1.00  0.00     0.000 C 
BRANCH  12  13
ATOM     13  C   UNL     1      -4.019  29.725  -3.406  1.00  0.00     0.006 C 
BRANCH  13  14
ATOM     14  C   UNL     1      -4.977  30.842  -3.840  1.00  0.00     0.053 C 
BRANCH  14  15
ATOM     15  C   UNL     1      -4.414  31.643  -4.972  1.00  0.00     0.041 C 
ATOM     16  O   UNL     1      -4.287  32.891  -4.862  1.00  0.00    -0.550 OA
ATOM     17  O   UNL     1      -3.995  31.010  -6.136  1.00  0.00    -0.550 OA
ENDBRANCH  14  15
ENDBRANCH  13  14
ENDBRANCH  12  13
ENDBRANCH  11  12
ENDBRANCH  10  11
ENDBRANCH   9  10
ENDBRANCH   8   9
ENDBRANCH   7   8
ENDBRANCH   6   7
ENDBRANCH   5   6
ENDBRANCH   4   5
ENDBRANCH   3   4
ENDBRANCH   2   3
ENDBRANCH   1   2
BRANCH   1  18
ATOM     18  C   UNL     1      -4.688  24.031   0.709  1.00  0.00     0.000 C 
BRANCH  18  19
ATOM     19  C   UNL     1      -3.898  25.311   1.037  1.00  0.00     0.000 C 
BRANCH  19  20
ATOM     20  C   UNL     1      -3.278  25.347   2.446  1.00  0.00     0.000 C 
BRANCH  20  21
ATOM     21  C   UNL     1      -3.743  26.513   3.340  1.00  0.00     0.000 C 
BRANCH  21  22
ATOM     22  C   UNL     1      -3.448  27.911   2.756  1.00  0.00     0.000 C 
BRANCH  22  23
ATOM     23  C   UNL     1      -2.386  28.682   3.560  1.00  0.00     0.000 C 
BRANCH  23  24
ATOM     24  C   UNL     1      -1.180  29.094   2.687  1.00  0.00    -0.000 C 
BRANCH  24  25
ATOM     25  C   UNL     1      -1.014  28.232   1.425  1.00  0.00    -0.000 C 
BRANCH  25  26
ATOM     26  C   UNL     1      -1.011  29.065   0.131  1.00  0.00    -0.000 C 
BRANCH  26  27
ATOM     27  C   UNL     1      -1.343  30.544   0.379  1.00  0.00    -0.000 C 
BRANCH  27  28
ATOM     28  C   UNL     1      -1.921  31.241  -0.866  1.00  0.00    -0.000 C 
BRANCH  28  29
ATOM     29  C   UNL     1      -3.232  31.994  -0.561  1.00  0.00    -0.000 C 
BRANCH  29  30
ATOM     30  C   UNL     1      -3.948  31.504   0.710  1.00  0.00    -0.000 C 
BRANCH  30  31
ATOM     31  C   UNL     1      -5.071  30.502   0.414  1.00  0.00    -0.003 C 
ATOM     32  C   UNL     1      -6.283  31.197  -0.203  1.00  0.00     0.004 C 
ENDBRANCH  30  31
ENDBRANCH  29  30
ENDBRANCH  28  29
ENDBRANCH  27  28
ENDBRANCH  26  27
ENDBRANCH  25  26
ENDBRANCH  24  25
ENDBRANCH  23  24
ENDBRANCH  22  23
ENDBRANCH  21  22
ENDBRANCH  20  21
ENDBRANCH  19  20
ENDBRANCH  18  19
ENDBRANCH   1  18
TORSDOF 28
ENDMDL
MODEL 8
REMARK VINA RESULT:    -3.546      1.747      4.726
REMARK INTER + INTRA:         -15.039
REMARK INTER:                  -9.107
REMARK INTRA:                  -5.932
REMARK UNBOUND:                -5.688
REMARK SMILES CCCCCCCCCCCCCCCCCCCCCCCCCCCCCC(=O)[O-]
REMARK SMILES IDX 16 1 17 2 18 3 19 4 20 5 21 6 22 7 23 8 24 9 25 10 26 11
REMARK SMILES IDX 27 12 28 13 29 14 30 15 31 16 32 17 15 18 14 19 13 20 12 21
REMARK SMILES IDX 11 22 10 23 9 24 8 25 7 26 6 27 5 28 4 29 3 30 2 31 1 32
REMARK H PARENT
REMARK Flexibility Score: inf
ROOT
ATOM      1  C   UNL     1      -2.582  26.666   2.575  1.00  0.00     0.000 C 
ENDROOT
BRANCH   1   2
ATOM      2  C   UNL     1      -2.919  27.314   1.218  1.00  0.00     0.000 C 
BRANCH   2   3
ATOM      3  C   UNL     1      -3.406  28.774   1.297  1.00  0.00     0.000 C 
BRANCH   3   4
ATOM      4  C   UNL     1      -3.036  29.524   2.592  1.00  0.00     0.000 C 
BRANCH   4   5
ATOM      5  C   UNL     1      -1.754  30.376   2.481  1.00  0.00     0.000 C 
BRANCH   5   6
ATOM      6  C   UNL     1      -0.477  29.578   2.801  1.00  0.00     0.000 C 
BRANCH   6   7
ATOM      7  C   UNL     1       0.747  30.113   2.028  1.00  0.00     0.000 C 
BRANCH   7   8
ATOM      8  C   UNL     1       0.419  30.584   0.601  1.00  0.00     0.000 C 
BRANCH   8   9
ATOM      9  C   UNL     1       0.041  29.426  -0.337  1.00  0.00     0.000 C 
BRANCH   9  10
ATOM     10  C   UNL     1      -1.106  29.790  -1.298  1.00  0.00     0.000 C 
BRANCH  10  11
ATOM     11  C   UNL     1      -1.755  31.169  -1.057  1.00  0.00     0.000 C 
BRANCH  11  12
ATOM     12  C   UNL     1      -3.220  31.290  -1.515  1.00  0.00     0.000 C 
BRANCH  12  13
ATOM     13  C   UNL     1      -4.050  32.218  -0.612  1.00  0.00     0.006 C 
BRANCH  13  14
ATOM     14  C   UNL     1      -5.287  31.515  -0.039  1.00  0.00     0.053 C 
BRANCH  14  15
ATOM     15  C   UNL     1      -6.129  30.911  -1.120  1.00  0.00     0.041 C 
ATOM     16  O   UNL     1      -6.379  29.676  -1.112  1.00  0.00    -0.550 OA
ATOM     17  O   UNL     1      -6.669  31.715  -2.117  1.00  0.00    -0.550 OA
ENDBRANCH  14  15
ENDBRANCH  13  14
ENDBRANCH  12  13
ENDBRANCH  11  12
ENDBRANCH  10  11
ENDBRANCH   9  10
ENDBRANCH   8   9
ENDBRANCH   7   8
ENDBRANCH   6   7
ENDBRANCH   5   6
ENDBRANCH   4   5
ENDBRANCH   3   4
ENDBRANCH   2   3
ENDBRANCH   1   2
BRANCH   1  18
ATOM     18  C   UNL     1      -3.638  25.641   3.019  1.00  0.00     0.000 C 
BRANCH  18  19
ATOM     19  C   UNL     1      -4.926  26.300   3.546  1.00  0.00     0.000 C 
BRANCH  19  20
ATOM     20  C   UNL     1      -6.221  25.843   2.849  1.00  0.00     0.000 C 
BRANCH  20  21
ATOM     21  C   UNL     1      -6.231  25.995   1.315  1.00  0.00     0.000 C 
BRANCH  21  22
ATOM     22  C   UNL     1      -6.231  24.654   0.550  1.00  0.00     0.000 C 
BRANCH  22  23
ATOM     23  C   UNL     1      -4.909  24.390  -0.193  1.00  0.00     0.000 C 
BRANCH  23  24
ATOM     24  C   UNL     1      -4.142  23.186   0.394  1.00  0.00    -0.000 C 
BRANCH  24  25
ATOM     25  C   UNL     1      -2.768  22.956  -0.259  1.00  0.00    -0.000 C 
BRANCH  25  26
ATOM     26  C   UNL     1      -1.673  23.866   0.325  1.00  0.00    -0.000 C 
BRANCH  26  27
ATOM     27  C   UNL     1      -0.298  23.623  -0.315  1.00  0.00    -0.000 C 
BRANCH  27  28
ATOM     28  C   UNL     1       0.301  24.897  -0.939  1.00  0.00    -0.000 C 
BRANCH  28  29
ATOM     29  C   UNL     1      -0.786  25.906  -1.368  1.00  0.00    -0.000 C 
BRANCH  29  30
ATOM     30  C   UNL     1      -1.270  25.718  -2.816  1.00  0.00    -0.000 C 
BRANCH  30  31
ATOM     31  C   UNL     1      -2.197  26.845  -3.287  1.00  0.00    -0.003 C 
ATOM     32  C   UNL     1      -3.395  27.003  -2.353  1.00  0.00     0.004 C 
ENDBRANCH  30  31
ENDBRANCH  29  30
ENDBRANCH  28  29
ENDBRANCH  27  28
ENDBRANCH  26  27
ENDBRANCH  25  26
ENDBRANCH  24  25
ENDBRANCH  23  24
ENDBRANCH  22  23
ENDBRANCH  21  22
ENDBRANCH  20  21
ENDBRANCH  19  20
ENDBRANCH  18  19
ENDBRANCH   1  18
TORSDOF 28
ENDMDL
MODEL 9
REMARK VINA RESULT:    -3.534      2.320      4.516
REMARK INTER + INTRA:         -15.007
REMARK INTER:                  -8.737
REMARK INTRA:                  -6.269
REMARK UNBOUND:                -5.688
REMARK SMILES CCCCCCCCCCCCCCCCCCCCCCCCCCCCCC(=O)[O-]
REMARK SMILES IDX 16 1 17 2 18 3 19 4 20 5 21 6 22 7 23 8 24 9 25 10 26 11
REMARK SMILES IDX 27 12 28 13 29 14 30 15 31 16 32 17 15 18 14 19 13 20 12 21
REMARK SMILES IDX 11 22 10 23 9 24 8 25 7 26 6 27 5 28 4 29 3 30 2 31 1 32
REMARK H PARENT
REMARK Flexibility Score: inf
ROOT
ATOM      1  C   UNL     1      -1.296  25.831  -0.762  1.00  0.00     0.000 C 
ENDROOT
BRANCH   1   2
ATOM      2  C   UNL     1      -2.735  26.360  -0.915  1.00  0.00     0.000 C 
BRANCH   2   3
ATOM      3  C   UNL     1      -2.942  27.356  -2.073  1.00  0.00     0.000 C 
BRANCH   3   4
ATOM      4  C   UNL     1      -3.563  28.710  -1.675  1.00  0.00     0.000 C 
BRANCH   4   5
ATOM      5  C   UNL     1      -4.877  28.587  -0.875  1.00  0.00     0.000 C 
BRANCH   5   6
ATOM      6  C   UNL     1      -4.843  29.366   0.452  1.00  0.00     0.000 C 
BRANCH   6   7
ATOM      7  C   UNL     1      -3.415  29.828   0.814  1.00  0.00     0.000 C 
BRANCH   7   8
ATOM      8  C   UNL     1      -2.964  29.397   2.219  1.00  0.00     0.000 C 
BRANCH   8   9
ATOM      9  C   UNL     1      -1.988  28.209   2.193  1.00  0.00     0.000 C 
BRANCH   9  10
ATOM     10  C   UNL     1      -2.636  26.897   2.672  1.00  0.00     0.000 C 
BRANCH  10  11
ATOM     11  C   UNL     1      -3.812  27.063   3.658  1.00  0.00     0.000 C 
BRANCH  11  12
ATOM     12  C   UNL     1      -5.041  26.185   3.364  1.00  0.00     0.000 C 
BRANCH  12  13
ATOM     13  C   UNL     1      -5.063  25.655   1.920  1.00  0.00     0.006 C 
BRANCH  13  14
ATOM     14  C   UNL     1      -6.368  26.004   1.194  1.00  0.00     0.053 C 
BRANCH  14  15
ATOM     15  C   UNL     1      -7.465  25.045   1.539  1.00  0.00     0.041 C 
ATOM     16  O   UNL     1      -7.374  23.834   1.205  1.00  0.00    -0.550 OA
ATOM     17  O   UNL     1      -8.571  25.477   2.260  1.00  0.00    -0.550 OA
ENDBRANCH  14  15
ENDBRANCH  13  14
ENDBRANCH  12  13
ENDBRANCH  11  12
ENDBRANCH  10  11
ENDBRANCH   9  10
ENDBRANCH   8   9
ENDBRANCH   7   8
ENDBRANCH   6   7
ENDBRANCH   5   6
ENDBRANCH   4   5
ENDBRANCH   3   4
ENDBRANCH   2   3
ENDBRANCH   1   2
BRANCH   1  18
ATOM     18  C   UNL     1      -1.170  24.770   0.344  1.00  0.00     0.000 C 
BRANCH  18  19
ATOM     19  C   UNL     1      -0.238  23.608  -0.048  1.00  0.00     0.000 C 
BRANCH  19  20
ATOM     20  C   UNL     1      -0.263  23.231  -1.541  1.00  0.00     0.000 C 
BRANCH  20  21
ATOM     21  C   UNL     1       0.214  21.803  -1.867  1.00  0.00     0.000 C 
BRANCH  21  22
ATOM     22  C   UNL     1      -0.910  20.858  -2.343  1.00  0.00     0.000 C 
BRANCH  22  23
ATOM     23  C   UNL     1      -1.667  20.196  -1.178  1.00  0.00     0.000 C 
BRANCH  23  24
ATOM     24  C   UNL     1      -3.135  20.669  -1.094  1.00  0.00    -0.000 C 
BRANCH  24  25
ATOM     25  C   UNL     1      -3.384  21.702   0.018  1.00  0.00    -0.000 C 
BRANCH  25  26
ATOM     26  C   UNL     1      -4.128  22.951  -0.486  1.00  0.00    -0.000 C 
BRANCH  26  27
ATOM     27  C   UNL     1      -4.007  23.140  -2.006  1.00  0.00    -0.000 C 
BRANCH  27  28
ATOM     28  C   UNL     1      -5.358  23.444  -2.678  1.00  0.00    -0.000 C 
BRANCH  28  29
ATOM     29  C   UNL     1      -6.054  24.676  -2.062  1.00  0.00    -0.000 C 
BRANCH  29  30
ATOM     30  C   UNL     1      -6.277  25.826  -3.059  1.00  0.00    -0.000 C 
BRANCH  30  31
ATOM     31  C   UNL     1      -5.349  25.749  -4.278  1.00  0.00    -0.003 C 
ATOM     32  C   UNL     1      -6.149  25.673  -5.577  1.00  0.00     0.004 C 
ENDBRANCH  30  31
ENDBRANCH  29  30
ENDBRANCH  28  29
ENDBRANCH  27  28
ENDBRANCH  26  27
ENDBRANCH  25  26
ENDBRANCH  24  25
ENDBRANCH  23  24
ENDBRANCH  22  23
ENDBRANCH  21  22
ENDBRANCH  20  21
ENDBRANCH  19  20
ENDBRANCH  18  19
ENDBRANCH   1  18
TORSDOF 28
ENDMDL
