MODEL 1
REMARK VINA RESULT:    -5.134      0.000      0.000
REMARK INTER + INTRA:          -5.284
REMARK INTER:                  -5.284
REMARK INTRA:                   0.000
REMARK UNBOUND:                 0.000
REMARK SMILES O=c1ccc2ccc(O)cc2o1
REMARK SMILES IDX 6 1 7 2 8 3 10 4 11 5 5 6 4 7 3 8 2 9 1 10 12 11 9 12
REMARK H PARENT 9 13
REMARK Flexibility Score: inf
ROOT
ATOM      1  C   UNL     1      20.631  22.711  40.015  1.00  0.00     0.016 A 
ATOM      2  C   UNL     1      20.754  21.490  39.346  1.00  0.00     0.047 A 
ATOM      3  C   UNL     1      20.361  21.373  38.006  1.00  0.00     0.119 A 
ATOM      4  C   UNL     1      19.841  22.487  37.331  1.00  0.00     0.094 A 
ATOM      5  C   UNL     1      19.713  23.714  37.993  1.00  0.00     0.142 A 
ATOM      6  C   UNL     1      20.111  23.827  39.344  1.00  0.00     0.018 A 
ATOM      7  C   UNL     1      19.972  25.065  39.978  1.00  0.00     0.019 A 
ATOM      8  C   UNL     1      19.449  26.144  39.265  1.00  0.00     0.094 A 
ATOM      9  C   UNL     1      19.077  25.958  37.929  1.00  0.00     0.336 A 
ATOM     10  O   UNL     1      18.603  26.920  37.269  1.00  0.00    -0.246 OA
ATOM     11  O   UNL     1      19.220  24.769  37.349  1.00  0.00    -0.423 OA
ENDROOT
BRANCH   3  12
ATOM     12  O   UNL     1      20.492  20.148  37.357  1.00  0.00    -0.508 OA
ATOM     13  H   UNL     1      20.297  20.049  36.367  1.00  0.00     0.293 HD
ENDBRANCH   3  12
TORSDOF 1
ENDMDL
MODEL 2
REMARK VINA RESULT:    -5.069      1.922      4.886
REMARK INTER + INTRA:          -5.218
REMARK INTER:                  -5.218
REMARK INTRA:                   0.000
REMARK UNBOUND:                 0.000
REMARK SMILES O=c1ccc2ccc(O)cc2o1
REMARK SMILES IDX 6 1 7 2 8 3 10 4 11 5 5 6 4 7 3 8 2 9 1 10 12 11 9 12
REMARK H PARENT 9 13
REMARK Flexibility Score: inf
ROOT
ATOM      1  C   UNL     1      19.242  25.263  37.990  1.00  0.00     0.016 A 
ATOM      2  C   UNL     1      19.209  26.468  38.697  1.00  0.00     0.047 A 
ATOM      3  C   UNL     1      19.701  26.533  40.007  1.00  0.00     0.119 A 
ATOM      4  C   UNL     1      20.229  25.384  40.613  1.00  0.00     0.094 A 
ATOM      5  C   UNL     1      20.265  24.173  39.913  1.00  0.00     0.142 A 
ATOM      6  C   UNL     1      19.768  24.112  38.592  1.00  0.00     0.018 A 
ATOM      7  C   UNL     1      19.818  22.888  37.917  1.00  0.00     0.019 A 
ATOM      8  C   UNL     1      20.352  21.773  38.561  1.00  0.00     0.094 A 
ATOM      9  C   UNL     1      20.826  21.908  39.871  1.00  0.00     0.336 A 
ATOM     10  O   UNL     1      21.312  20.913  40.469  1.00  0.00    -0.246 OA
ATOM     11  O   UNL     1      20.768  23.084  40.490  1.00  0.00    -0.423 OA
ENDROOT
BRANCH   3  12
ATOM     12  O   UNL     1      19.660  27.743  40.696  1.00  0.00    -0.508 OA
ATOM     13  H   UNL     1      20.403  28.427  40.609  1.00  0.00     0.293 HD
ENDBRANCH   3  12
TORSDOF 1
ENDMDL
MODEL 3
REMARK VINA RESULT:    -4.888      5.140      7.182
REMARK INTER + INTRA:          -5.031
REMARK INTER:                  -5.031
REMARK INTRA:                   0.000
REMARK UNBOUND:                 0.000
REMARK SMILES O=c1ccc2ccc(O)cc2o1
REMARK SMILES IDX 6 1 7 2 8 3 10 4 11 5 5 6 4 7 3 8 2 9 1 10 12 11 9 12
REMARK H PARENT 9 13
REMARK Flexibility Score: inf
ROOT
ATOM      1  C   UNL     1      17.369  27.418  44.698  1.00  0.00     0.016 A 
ATOM      2  C   UNL     1      18.234  28.278  45.381  1.00  0.00     0.047 A 
ATOM      3  C   UNL     1      19.580  28.374  45.004  1.00  0.00     0.119 A 
ATOM      4  C   UNL     1      20.063  27.605  43.936  1.00  0.00     0.094 A 
ATOM      5  C   UNL     1      19.205  26.741  43.247  1.00  0.00     0.142 A 
ATOM      6  C   UNL     1      17.849  26.646  43.630  1.00  0.00     0.018 A 
ATOM      7  C   UNL     1      17.015  25.775  42.922  1.00  0.00     0.019 A 
ATOM      8  C   UNL     1      17.542  25.030  41.868  1.00  0.00     0.094 A 
ATOM      9  C   UNL     1      18.896  25.175  41.544  1.00  0.00     0.336 A 
ATOM     10  O   UNL     1      19.390  24.512  40.595  1.00  0.00    -0.246 OA
ATOM     11  O   UNL     1      19.667  26.012  42.233  1.00  0.00    -0.423 OA
ENDROOT
BRANCH   3  12
ATOM     12  O   UNL     1      20.425  29.237  45.697  1.00  0.00    -0.508 OA
ATOM     13  H   UNL     1      21.271  29.603  45.274  1.00  0.00     0.293 HD
ENDBRANCH   3  12
TORSDOF 1
ENDMDL
MODEL 4
REMARK VINA RESULT:    -4.759      6.042      7.946
REMARK INTER + INTRA:          -4.898
REMARK INTER:                  -4.898
REMARK INTRA:                   0.000
REMARK UNBOUND:                 0.000
REMARK SMILES O=c1ccc2ccc(O)cc2o1
REMARK SMILES IDX 6 1 7 2 8 3 10 4 11 5 5 6 4 7 3 8 2 9 1 10 12 11 9 12
REMARK H PARENT 9 13
REMARK Flexibility Score: inf
ROOT
ATOM      1  C   UNL     1      16.597  26.072  46.126  1.00  0.00     0.016 A 
ATOM      2  C   UNL     1      16.976  27.369  46.486  1.00  0.00     0.047 A 
ATOM      3  C   UNL     1      17.877  28.090  45.692  1.00  0.00     0.119 A 
ATOM      4  C   UNL     1      18.403  27.509  44.529  1.00  0.00     0.094 A 
ATOM      5  C   UNL     1      18.031  26.211  44.161  1.00  0.00     0.142 A 
ATOM      6  C   UNL     1      17.122  25.487  44.965  1.00  0.00     0.018 A 
ATOM      7  C   UNL     1      16.768  24.193  44.571  1.00  0.00     0.019 A 
ATOM      8  C   UNL     1      17.318  23.658  43.407  1.00  0.00     0.094 A 
ATOM      9  C   UNL     1      18.212  24.433  42.660  1.00  0.00     0.336 A 
ATOM     10  O   UNL     1      18.719  23.968  41.606  1.00  0.00    -0.246 OA
ATOM     11  O   UNL     1      18.532  25.662  43.057  1.00  0.00    -0.423 OA
ENDROOT
BRANCH   3  12
ATOM     12  O   UNL     1      18.241  29.381  46.068  1.00  0.00    -0.508 OA
ATOM     13  H   UNL     1      19.123  29.569  46.531  1.00  0.00     0.293 HD
ENDBRANCH   3  12
TORSDOF 1
ENDMDL
MODEL 5
REMARK VINA RESULT:    -4.714      5.522      7.078
REMARK INTER + INTRA:          -4.852
REMARK INTER:                  -4.852
REMARK INTRA:                   0.000
REMARK UNBOUND:                 0.000
REMARK SMILES O=c1ccc2ccc(O)cc2o1
REMARK SMILES IDX 6 1 7 2 8 3 10 4 11 5 5 6 4 7 3 8 2 9 1 10 12 11 9 12
REMARK H PARENT 9 13
REMARK Flexibility Score: inf
ROOT
ATOM      1  C   UNL     1      18.433  26.112  41.674  1.00  0.00     0.016 A 
ATOM      2  C   UNL     1      19.695  26.624  41.362  1.00  0.00     0.047 A 
ATOM      3  C   UNL     1      20.521  27.135  42.371  1.00  0.00     0.119 A 
ATOM      4  C   UNL     1      20.081  27.132  43.703  1.00  0.00     0.094 A 
ATOM      5  C   UNL     1      18.818  26.621  44.025  1.00  0.00     0.142 A 
ATOM      6  C   UNL     1      17.988  26.108  43.004  1.00  0.00     0.018 A 
ATOM      7  C   UNL     1      16.733  25.603  43.356  1.00  0.00     0.019 A 
ATOM      8  C   UNL     1      16.339  25.623  44.694  1.00  0.00     0.094 A 
ATOM      9  C   UNL     1      17.214  26.147  45.652  1.00  0.00     0.336 A 
ATOM     10  O   UNL     1      16.876  26.172  46.864  1.00  0.00    -0.246 OA
ATOM     11  O   UNL     1      18.404  26.620  45.289  1.00  0.00    -0.423 OA
ENDROOT
BRANCH   3  12
ATOM     12  O   UNL     1      21.776  27.641  42.040  1.00  0.00    -0.508 OA
ATOM     13  H   UNL     1      22.486  27.801  42.746  1.00  0.00     0.293 HD
ENDBRANCH   3  12
TORSDOF 1
ENDMDL
MODEL 6
REMARK VINA RESULT:    -4.670      4.083      6.075
REMARK INTER + INTRA:          -4.807
REMARK INTER:                  -4.807
REMARK INTRA:                   0.000
REMARK UNBOUND:                 0.000
REMARK SMILES O=c1ccc2ccc(O)cc2o1
REMARK SMILES IDX 6 1 7 2 8 3 10 4 11 5 5 6 4 7 3 8 2 9 1 10 12 11 9 12
REMARK H PARENT 9 13
REMARK Flexibility Score: inf
ROOT
ATOM      1  C   UNL     1      17.909  25.679  44.032  1.00  0.00     0.016 A 
ATOM      2  C   UNL     1      18.493  26.722  44.755  1.00  0.00     0.047 A 
ATOM      3  C   UNL     1      19.601  27.408  44.240  1.00  0.00     0.119 A 
ATOM      4  C   UNL     1      20.127  27.047  42.991  1.00  0.00     0.094 A 
ATOM      5  C   UNL     1      19.549  26.004  42.260  1.00  0.00     0.142 A 
ATOM      6  C   UNL     1      18.432  25.315  42.783  1.00  0.00     0.018 A 
ATOM      7  C   UNL     1      17.876  24.277  42.029  1.00  0.00     0.019 A 
ATOM      8  C   UNL     1      18.434  23.955  40.792  1.00  0.00     0.094 A 
ATOM      9  C   UNL     1      19.541  24.681  40.337  1.00  0.00     0.336 A 
ATOM     10  O   UNL     1      20.058  24.405  39.224  1.00  0.00    -0.246 OA
ATOM     11  O   UNL     1      20.050  25.664  41.075  1.00  0.00    -0.423 OA
ENDROOT
BRANCH   3  12
ATOM     12  O   UNL     1      20.168  28.445  44.977  1.00  0.00    -0.508 OA
ATOM     13  H   UNL     1      20.988  28.297  45.554  1.00  0.00     0.293 HD
ENDBRANCH   3  12
TORSDOF 1
ENDMDL
MODEL 7
REMARK VINA RESULT:    -4.669      6.282      7.777
REMARK INTER + INTRA:          -4.806
REMARK INTER:                  -4.806
REMARK INTRA:                   0.000
REMARK UNBOUND:                 0.000
REMARK SMILES O=c1ccc2ccc(O)cc2o1
REMARK SMILES IDX 6 1 7 2 8 3 10 4 11 5 5 6 4 7 3 8 2 9 1 10 12 11 9 12
REMARK H PARENT 9 13
REMARK Flexibility Score: inf
ROOT
ATOM      1  C   UNL     1      17.795  25.754  42.505  1.00  0.00     0.016 A 
ATOM      2  C   UNL     1      18.993  26.375  42.142  1.00  0.00     0.047 A 
ATOM      3  C   UNL     1      19.746  27.073  43.096  1.00  0.00     0.119 A 
ATOM      4  C   UNL     1      19.296  27.149  44.422  1.00  0.00     0.094 A 
ATOM      5  C   UNL     1      18.098  26.531  44.795  1.00  0.00     0.142 A 
ATOM      6  C   UNL     1      17.341  25.829  43.830  1.00  0.00     0.018 A 
ATOM      7  C   UNL     1      16.148  25.221  44.232  1.00  0.00     0.019 A 
ATOM      8  C   UNL     1      15.742  25.325  45.562  1.00  0.00     0.094 A 
ATOM      9  C   UNL     1      16.542  26.037  46.463  1.00  0.00     0.336 A 
ATOM     10  O   UNL     1      16.193  26.141  47.668  1.00  0.00    -0.246 OA
ATOM     11  O   UNL     1      17.674  26.605  46.054  1.00  0.00    -0.423 OA
ENDROOT
BRANCH   3  12
ATOM     12  O   UNL     1      20.938  27.685  42.714  1.00  0.00    -0.508 OA
ATOM     13  H   UNL     1      21.650  27.182  42.198  1.00  0.00     0.293 HD
ENDBRANCH   3  12
TORSDOF 1
ENDMDL
MODEL 8
REMARK VINA RESULT:    -4.640      4.977      6.644
REMARK INTER + INTRA:          -4.776
REMARK INTER:                  -4.776
REMARK INTRA:                   0.000
REMARK UNBOUND:                 0.000
REMARK SMILES O=c1ccc2ccc(O)cc2o1
REMARK SMILES IDX 6 1 7 2 8 3 10 4 11 5 5 6 4 7 3 8 2 9 1 10 12 11 9 12
REMARK H PARENT 9 13
REMARK Flexibility Score: inf
ROOT
ATOM      1  C   UNL     1      17.026  26.000  42.798  1.00  0.00     0.016 A 
ATOM      2  C   UNL     1      16.700  26.002  44.157  1.00  0.00     0.047 A 
ATOM      3  C   UNL     1      17.655  26.367  45.114  1.00  0.00     0.119 A 
ATOM      4  C   UNL     1      18.947  26.733  44.708  1.00  0.00     0.094 A 
ATOM      5  C   UNL     1      19.283  26.733  43.349  1.00  0.00     0.142 A 
ATOM      6  C   UNL     1      18.316  26.364  42.388  1.00  0.00     0.018 A 
ATOM      7  C   UNL     1      18.680  26.375  41.038  1.00  0.00     0.019 A 
ATOM      8  C   UNL     1      19.977  26.745  40.682  1.00  0.00     0.094 A 
ATOM      9  C   UNL     1      20.882  27.099  41.690  1.00  0.00     0.336 A 
ATOM     10  O   UNL     1      22.057  27.437  41.388  1.00  0.00    -0.246 OA
ATOM     11  O   UNL     1      20.509  27.081  42.967  1.00  0.00    -0.423 OA
ENDROOT
BRANCH   3  12
ATOM     12  O   UNL     1      17.311  26.363  46.464  1.00  0.00    -0.508 OA
ATOM     13  H   UNL     1      17.994  26.160  47.184  1.00  0.00     0.293 HD
ENDBRANCH   3  12
TORSDOF 1
ENDMDL
MODEL 9
REMARK VINA RESULT:    -4.624      4.213      5.912
REMARK INTER + INTRA:          -4.759
REMARK INTER:                  -4.759
REMARK INTRA:                   0.000
REMARK UNBOUND:                 0.000
REMARK SMILES O=c1ccc2ccc(O)cc2o1
REMARK SMILES IDX 6 1 7 2 8 3 10 4 11 5 5 6 4 7 3 8 2 9 1 10 12 11 9 12
REMARK H PARENT 9 13
REMARK Flexibility Score: inf
ROOT
ATOM      1  C   UNL     1      19.804  26.995  44.203  1.00  0.00     0.016 A 
ATOM      2  C   UNL     1      18.679  26.682  44.971  1.00  0.00     0.047 A 
ATOM      3  C   UNL     1      17.493  26.264  44.352  1.00  0.00     0.119 A 
ATOM      4  C   UNL     1      17.434  26.159  42.955  1.00  0.00     0.094 A 
ATOM      5  C   UNL     1      18.555  26.471  42.178  1.00  0.00     0.142 A 
ATOM      6  C   UNL     1      19.749  26.892  42.806  1.00  0.00     0.018 A 
ATOM      7  C   UNL     1      20.853  27.196  42.004  1.00  0.00     0.019 A 
ATOM      8  C   UNL     1      20.745  27.077  40.618  1.00  0.00     0.094 A 
ATOM      9  C   UNL     1      19.531  26.654  40.066  1.00  0.00     0.336 A 
ATOM     10  O   UNL     1      19.415  26.540  38.818  1.00  0.00    -0.246 OA
ATOM     11  O   UNL     1      18.496  26.370  40.852  1.00  0.00    -0.423 OA
ENDROOT
BRANCH   3  12
ATOM     12  O   UNL     1      16.383  25.956  45.134  1.00  0.00    -0.508 OA
ATOM     13  H   UNL     1      16.475  25.462  46.014  1.00  0.00     0.293 HD
ENDBRANCH   3  12
TORSDOF 1
ENDMDL
