MODEL 1
REMARK VINA RESULT:    33.070      0.000      0.000
REMARK INTER + INTRA:          82.690
REMARK INTER:                  83.336
REMARK INTRA:                  -0.646
REMARK UNBOUND:                -0.646
REMARK SMILES CCCCCCCCCCCCCCCCCCCCCCCCCCCC(=O)[O-]
REMARK SMILES IDX 15 1 16 2 17 3 18 4 19 5 20 6 21 7 22 8 23 9 24 10 25 11
REMARK SMILES IDX 26 12 27 13 28 14 29 15 30 16 14 17 13 18 12 19 11 20 10 21
REMARK SMILES IDX 9 22 8 23 7 24 6 25 5 26 4 27 3 28 2 29 1 30
REMARK H PARENT
REMARK Flexibility Score: inf
ROOT
ATOM      1  C   UNL     1      17.297   7.453  13.774  1.00  0.00     0.000 C 
ENDROOT
BRANCH   1   2
ATOM      2  C   UNL     1      18.071   7.260  15.090  1.00  0.00     0.000 C 
BRANCH   2   3
ATOM      3  C   UNL     1      17.156   6.924  16.278  1.00  0.00     0.000 C 
BRANCH   3   4
ATOM      4  C   UNL     1      17.956   6.306  17.433  1.00  0.00     0.000 C 
BRANCH   4   5
ATOM      5  C   UNL     1      17.058   5.736  18.547  1.00  0.00     0.000 C 
BRANCH   5   6
ATOM      6  C   UNL     1      15.558   6.068  18.411  1.00  0.00     0.000 C 
BRANCH   6   7
ATOM      7  C   UNL     1      14.600   4.885  18.653  1.00  0.00     0.000 C 
BRANCH   7   8
ATOM      8  C   UNL     1      13.193   5.282  19.140  1.00  0.00     0.000 C 
BRANCH   8   9
ATOM      9  C   UNL     1      12.257   4.097  19.442  1.00  0.00     0.000 C 
BRANCH   9  10
ATOM     10  C   UNL     1      12.499   3.400  20.798  1.00  0.00     0.000 C 
BRANCH  10  11
ATOM     11  C   UNL     1      12.767   1.886  20.715  1.00  0.00     0.000 C 
BRANCH  11  12
ATOM     12  C   UNL     1      11.548   1.090  20.219  1.00  0.00     0.006 C 
BRANCH  12  13
ATOM     13  C   UNL     1      10.329   1.991  19.979  1.00  0.00     0.053 C 
BRANCH  13  14
ATOM     14  C   UNL     1       9.342   1.906  21.104  1.00  0.00     0.041 C 
ATOM     15  O   UNL     1       9.660   1.342  22.185  1.00  0.00    -0.550 OA
ATOM     16  O   UNL     1       8.075   2.456  20.958  1.00  0.00    -0.550 OA
ENDBRANCH  13  14
ENDBRANCH  12  13
ENDBRANCH  11  12
ENDBRANCH  10  11
ENDBRANCH   9  10
ENDBRANCH   8   9
ENDBRANCH   7   8
ENDBRANCH   6   7
ENDBRANCH   5   6
ENDBRANCH   4   5
ENDBRANCH   3   4
ENDBRANCH   2   3
ENDBRANCH   1   2
BRANCH   1  17
ATOM     17  C   UNL     1      18.109   8.217  12.714  1.00  0.00     0.000 C 
BRANCH  17  18
ATOM     18  C   UNL     1      18.103   7.522  11.341  1.00  0.00     0.000 C 
BRANCH  18  19
ATOM     19  C   UNL     1      17.473   8.341  10.200  1.00  0.00     0.000 C 
BRANCH  19  20
ATOM     20  C   UNL     1      16.333   7.592   9.485  1.00  0.00     0.000 C 
BRANCH  20  21
ATOM     21  C   UNL     1      16.847   6.510   8.524  1.00  0.00     0.000 C 
BRANCH  21  22
ATOM     22  C   UNL     1      15.784   6.074   7.499  1.00  0.00    -0.000 C 
BRANCH  22  23
ATOM     23  C   UNL     1      14.446   6.823   7.678  1.00  0.00    -0.000 C 
BRANCH  23  24
ATOM     24  C   UNL     1      13.249   5.904   7.989  1.00  0.00    -0.000 C 
BRANCH  24  25
ATOM     25  C   UNL     1      11.915   6.625   8.260  1.00  0.00    -0.000 C 
BRANCH  25  26
ATOM     26  C   UNL     1      10.766   6.265   7.300  1.00  0.00    -0.000 C 
BRANCH  26  27
ATOM     27  C   UNL     1       9.972   5.027   7.748  1.00  0.00    -0.000 C 
BRANCH  27  28
ATOM     28  C   UNL     1      10.572   3.711   7.217  1.00  0.00    -0.000 C 
BRANCH  28  29
ATOM     29  C   UNL     1      10.536   2.533   8.207  1.00  0.00    -0.003 C 
ATOM     30  C   UNL     1      10.681   2.970   9.664  1.00  0.00     0.004 C 
ENDBRANCH  28  29
ENDBRANCH  27  28
ENDBRANCH  26  27
ENDBRANCH  25  26
ENDBRANCH  24  25
ENDBRANCH  23  24
ENDBRANCH  22  23
ENDBRANCH  21  22
ENDBRANCH  20  21
ENDBRANCH  19  20
ENDBRANCH  18  19
ENDBRANCH  17  18
ENDBRANCH   1  17
TORSDOF 26
ENDMDL
MODEL 2
REMARK VINA RESULT:    33.655      1.808      2.005
REMARK INTER + INTRA:          84.163
REMARK INTER:                  85.152
REMARK INTRA:                  -0.989
REMARK UNBOUND:                -0.646
REMARK SMILES CCCCCCCCCCCCCCCCCCCCCCCCCCCC(=O)[O-]
REMARK SMILES IDX 15 1 16 2 17 3 18 4 19 5 20 6 21 7 22 8 23 9 24 10 25 11
REMARK SMILES IDX 26 12 27 13 28 14 29 15 30 16 14 17 13 18 12 19 11 20 10 21
REMARK SMILES IDX 9 22 8 23 7 24 6 25 5 26 4 27 3 28 2 29 1 30
REMARK H PARENT
REMARK Flexibility Score: inf
ROOT
ATOM      1  C   UNL     1      17.194   7.314  13.954  1.00  0.00     0.000 C 
ENDROOT
BRANCH   1   2
ATOM      2  C   UNL     1      17.878   7.150  15.322  1.00  0.00     0.000 C 
BRANCH   2   3
ATOM      3  C   UNL     1      16.894   6.783  16.443  1.00  0.00     0.000 C 
BRANCH   3   4
ATOM      4  C   UNL     1      17.640   6.338  17.708  1.00  0.00     0.000 C 
BRANCH   4   5
ATOM      5  C   UNL     1      16.697   5.815  18.808  1.00  0.00     0.000 C 
BRANCH   5   6
ATOM      6  C   UNL     1      15.192   5.986  18.514  1.00  0.00     0.000 C 
BRANCH   6   7
ATOM      7  C   UNL     1      14.298   4.816  18.970  1.00  0.00     0.000 C 
BRANCH   7   8
ATOM      8  C   UNL     1      12.828   5.193  19.236  1.00  0.00     0.000 C 
BRANCH   8   9
ATOM      9  C   UNL     1      11.905   4.002  19.558  1.00  0.00     0.000 C 
BRANCH   9  10
ATOM     10  C   UNL     1      12.601   2.626  19.594  1.00  0.00     0.000 C 
BRANCH  10  11
ATOM     11  C   UNL     1      12.868   1.993  18.215  1.00  0.00     0.000 C 
BRANCH  11  12
ATOM     12  C   UNL     1      12.817   0.456  18.244  1.00  0.00     0.006 C 
BRANCH  12  13
ATOM     13  C   UNL     1      12.322  -0.080  19.593  1.00  0.00     0.053 C 
BRANCH  13  14
ATOM     14  C   UNL     1      13.446  -0.620  20.425  1.00  0.00     0.041 C 
ATOM     15  O   UNL     1      13.503  -1.850  20.691  1.00  0.00    -0.550 OA
ATOM     16  O   UNL     1      14.432   0.236  20.899  1.00  0.00    -0.550 OA
ENDBRANCH  13  14
ENDBRANCH  12  13
ENDBRANCH  11  12
ENDBRANCH  10  11
ENDBRANCH   9  10
ENDBRANCH   8   9
ENDBRANCH   7   8
ENDBRANCH   6   7
ENDBRANCH   5   6
ENDBRANCH   4   5
ENDBRANCH   3   4
ENDBRANCH   2   3
ENDBRANCH   1   2
BRANCH   1  17
ATOM     17  C   UNL     1      18.064   8.079  12.941  1.00  0.00     0.000 C 
BRANCH  17  18
ATOM     18  C   UNL     1      18.124   7.393  11.565  1.00  0.00     0.000 C 
BRANCH  18  19
ATOM     19  C   UNL     1      17.556   8.223  10.399  1.00  0.00     0.000 C 
BRANCH  19  20
ATOM     20  C   UNL     1      16.414   7.506   9.657  1.00  0.00     0.000 C 
BRANCH  20  21
ATOM     21  C   UNL     1      16.924   6.449   8.667  1.00  0.00     0.000 C 
BRANCH  21  22
ATOM     22  C   UNL     1      15.860   6.047   7.628  1.00  0.00    -0.000 C 
BRANCH  22  23
ATOM     23  C   UNL     1      14.518   6.779   7.841  1.00  0.00    -0.000 C 
BRANCH  23  24
ATOM     24  C   UNL     1      13.322   5.839   8.089  1.00  0.00    -0.000 C 
BRANCH  24  25
ATOM     25  C   UNL     1      11.977   6.539   8.360  1.00  0.00    -0.000 C 
BRANCH  25  26
ATOM     26  C   UNL     1      10.845   6.194   7.374  1.00  0.00    -0.000 C 
BRANCH  26  27
ATOM     27  C   UNL     1      10.017   4.974   7.809  1.00  0.00    -0.000 C 
BRANCH  27  28
ATOM     28  C   UNL     1      10.607   3.643   7.303  1.00  0.00    -0.000 C 
BRANCH  28  29
ATOM     29  C   UNL     1      10.555   2.483   8.312  1.00  0.00    -0.003 C 
ATOM     30  C   UNL     1      10.736   2.939   9.759  1.00  0.00     0.004 C 
ENDBRANCH  28  29
ENDBRANCH  27  28
ENDBRANCH  26  27
ENDBRANCH  25  26
ENDBRANCH  24  25
ENDBRANCH  23  24
ENDBRANCH  22  23
ENDBRANCH  21  22
ENDBRANCH  20  21
ENDBRANCH  19  20
ENDBRANCH  18  19
ENDBRANCH  17  18
ENDBRANCH   1  17
TORSDOF 26
ENDMDL
MODEL 3
REMARK VINA RESULT:    35.067      4.165     10.995
REMARK INTER + INTRA:          87.721
REMARK INTER:                  89.124
REMARK INTRA:                  -1.403
REMARK UNBOUND:                -0.646
REMARK SMILES CCCCCCCCCCCCCCCCCCCCCCCCCCCC(=O)[O-]
REMARK SMILES IDX 15 1 16 2 17 3 18 4 19 5 20 6 21 7 22 8 23 9 24 10 25 11
REMARK SMILES IDX 26 12 27 13 28 14 29 15 30 16 14 17 13 18 12 19 11 20 10 21
REMARK SMILES IDX 9 22 8 23 7 24 6 25 5 26 4 27 3 28 2 29 1 30
REMARK H PARENT
REMARK Flexibility Score: inf
ROOT
ATOM      1  C   UNL     1      16.993   7.867  15.096  1.00  0.00     0.000 C 
ENDROOT
BRANCH   1   2
ATOM      2  C   UNL     1      17.535   8.407  13.761  1.00  0.00     0.000 C 
BRANCH   2   3
ATOM      3  C   UNL     1      17.079   7.577  12.551  1.00  0.00     0.000 C 
BRANCH   3   4
ATOM      4  C   UNL     1      18.122   7.623  11.427  1.00  0.00     0.000 C 
BRANCH   4   5
ATOM      5  C   UNL     1      17.734   8.584  10.287  1.00  0.00     0.000 C 
BRANCH   5   6
ATOM      6  C   UNL     1      17.121   7.907   9.043  1.00  0.00     0.000 C 
BRANCH   6   7
ATOM      7  C   UNL     1      16.427   6.557   9.307  1.00  0.00     0.000 C 
BRANCH   7   8
ATOM      8  C   UNL     1      16.146   5.717   8.046  1.00  0.00     0.000 C 
BRANCH   8   9
ATOM      9  C   UNL     1      14.743   5.912   7.441  1.00  0.00     0.000 C 
BRANCH   9  10
ATOM     10  C   UNL     1      13.858   6.952   8.160  1.00  0.00     0.000 C 
BRANCH  10  11
ATOM     11  C   UNL     1      12.416   7.061   7.631  1.00  0.00     0.000 C 
BRANCH  11  12
ATOM     12  C   UNL     1      11.900   5.742   7.031  1.00  0.00     0.006 C 
BRANCH  12  13
ATOM     13  C   UNL     1      10.412   5.516   7.328  1.00  0.00     0.053 C 
BRANCH  13  14
ATOM     14  C   UNL     1       9.844   4.394   6.514  1.00  0.00     0.041 C 
ATOM     15  O   UNL     1       8.596   4.263   6.397  1.00  0.00    -0.550 OA
ATOM     16  O   UNL     1      10.694   3.498   5.878  1.00  0.00    -0.550 OA
ENDBRANCH  13  14
ENDBRANCH  12  13
ENDBRANCH  11  12
ENDBRANCH  10  11
ENDBRANCH   9  10
ENDBRANCH   8   9
ENDBRANCH   7   8
ENDBRANCH   6   7
ENDBRANCH   5   6
ENDBRANCH   4   5
ENDBRANCH   3   4
ENDBRANCH   2   3
ENDBRANCH   1   2
BRANCH   1  17
ATOM     17  C   UNL     1      18.111   7.423  16.055  1.00  0.00     0.000 C 
BRANCH  17  18
ATOM     18  C   UNL     1      18.057   5.920  16.381  1.00  0.00     0.000 C 
BRANCH  18  19
ATOM     19  C   UNL     1      17.675   5.583  17.834  1.00  0.00     0.000 C 
BRANCH  19  20
ATOM     20  C   UNL     1      17.311   6.829  18.661  1.00  0.00     0.000 C 
BRANCH  20  21
ATOM     21  C   UNL     1      15.797   6.982  18.866  1.00  0.00     0.000 C 
BRANCH  21  22
ATOM     22  C   UNL     1      15.046   5.641  18.765  1.00  0.00    -0.000 C 
BRANCH  22  23
ATOM     23  C   UNL     1      13.553   5.822  18.415  1.00  0.00    -0.000 C 
BRANCH  23  24
ATOM     24  C   UNL     1      12.611   4.868  19.174  1.00  0.00    -0.000 C 
BRANCH  24  25
ATOM     25  C   UNL     1      13.307   3.753  19.978  1.00  0.00    -0.000 C 
BRANCH  25  26
ATOM     26  C   UNL     1      12.477   3.158  21.132  1.00  0.00    -0.000 C 
BRANCH  26  27
ATOM     27  C   UNL     1      11.656   1.928  20.712  1.00  0.00    -0.000 C 
BRANCH  27  28
ATOM     28  C   UNL     1      11.736   1.647  19.199  1.00  0.00    -0.000 C 
BRANCH  28  29
ATOM     29  C   UNL     1      12.319   0.274  18.822  1.00  0.00    -0.003 C 
ATOM     30  C   UNL     1      13.782   0.344  18.383  1.00  0.00     0.004 C 
ENDBRANCH  28  29
ENDBRANCH  27  28
ENDBRANCH  26  27
ENDBRANCH  25  26
ENDBRANCH  24  25
ENDBRANCH  23  24
ENDBRANCH  22  23
ENDBRANCH  21  22
ENDBRANCH  20  21
ENDBRANCH  19  20
ENDBRANCH  18  19
ENDBRANCH  17  18
ENDBRANCH   1  17
TORSDOF 26
ENDMDL
MODEL 4
REMARK VINA RESULT:    35.380      6.979     10.307
REMARK INTER + INTRA:          88.509
REMARK INTER:                  88.997
REMARK INTRA:                  -0.488
REMARK UNBOUND:                -0.646
REMARK SMILES CCCCCCCCCCCCCCCCCCCCCCCCCCCC(=O)[O-]
REMARK SMILES IDX 15 1 16 2 17 3 18 4 19 5 20 6 21 7 22 8 23 9 24 10 25 11
REMARK SMILES IDX 26 12 27 13 28 14 29 15 30 16 14 17 13 18 12 19 11 20 10 21
REMARK SMILES IDX 9 22 8 23 7 24 6 25 5 26 4 27 3 28 2 29 1 30
REMARK H PARENT
REMARK Flexibility Score: inf
ROOT
ATOM      1  C   UNL     1      13.219   1.717  21.078  1.00  0.00     0.000 C 
ENDROOT
BRANCH   1   2
ATOM      2  C   UNL     1      12.660   1.220  19.734  1.00  0.00     0.000 C 
BRANCH   2   3
ATOM      3  C   UNL     1      11.129   1.090  19.734  1.00  0.00     0.000 C 
BRANCH   3   4
ATOM      4  C   UNL     1      10.489   2.108  20.688  1.00  0.00     0.000 C 
BRANCH   4   5
ATOM      5  C   UNL     1       9.063   1.714  21.117  1.00  0.00     0.000 C 
BRANCH   5   6
ATOM      6  C   UNL     1       7.943   2.625  20.574  1.00  0.00     0.000 C 
BRANCH   6   7
ATOM      7  C   UNL     1       6.874   3.035  21.606  1.00  0.00     0.000 C 
BRANCH   7   8
ATOM      8  C   UNL     1       7.423   3.366  23.007  1.00  0.00     0.000 C 
BRANCH   8   9
ATOM      9  C   UNL     1       6.807   4.616  23.663  1.00  0.00     0.000 C 
BRANCH   9  10
ATOM     10  C   UNL     1       7.647   5.243  24.796  1.00  0.00     0.000 C 
BRANCH  10  11
ATOM     11  C   UNL     1       9.170   5.061  24.656  1.00  0.00     0.000 C 
BRANCH  11  12
ATOM     12  C   UNL     1       9.913   6.391  24.448  1.00  0.00     0.006 C 
BRANCH  12  13
ATOM     13  C   UNL     1      10.588   6.883  25.735  1.00  0.00     0.053 C 
BRANCH  13  14
ATOM     14  C   UNL     1      10.809   8.365  25.718  1.00  0.00     0.041 C 
ATOM     15  O   UNL     1      11.904   8.847  26.115  1.00  0.00    -0.550 OA
ATOM     16  O   UNL     1       9.809   9.211  25.257  1.00  0.00    -0.550 OA
ENDBRANCH  13  14
ENDBRANCH  12  13
ENDBRANCH  11  12
ENDBRANCH  10  11
ENDBRANCH   9  10
ENDBRANCH   8   9
ENDBRANCH   7   8
ENDBRANCH   6   7
ENDBRANCH   5   6
ENDBRANCH   4   5
ENDBRANCH   3   4
ENDBRANCH   2   3
ENDBRANCH   1   2
BRANCH   1  17
ATOM     17  C   UNL     1      13.245   3.252  21.181  1.00  0.00     0.000 C 
BRANCH  17  18
ATOM     18  C   UNL     1      13.290   3.943  19.807  1.00  0.00     0.000 C 
BRANCH  18  19
ATOM     19  C   UNL     1      11.921   4.367  19.246  1.00  0.00     0.000 C 
BRANCH  19  20
ATOM     20  C   UNL     1      11.494   5.771  19.711  1.00  0.00     0.000 C 
BRANCH  20  21
ATOM     21  C   UNL     1      10.654   6.512  18.660  1.00  0.00     0.000 C 
BRANCH  21  22
ATOM     22  C   UNL     1      11.510   7.095  17.520  1.00  0.00    -0.000 C 
BRANCH  22  23
ATOM     23  C   UNL     1      12.433   8.237  17.997  1.00  0.00    -0.000 C 
BRANCH  23  24
ATOM     24  C   UNL     1      13.615   7.767  18.866  1.00  0.00    -0.000 C 
BRANCH  24  25
ATOM     25  C   UNL     1      14.881   8.642  18.789  1.00  0.00    -0.000 C 
BRANCH  25  26
ATOM     26  C   UNL     1      16.176   7.894  18.418  1.00  0.00    -0.000 C 
BRANCH  26  27
ATOM     27  C   UNL     1      16.388   6.613  19.242  1.00  0.00    -0.000 C 
BRANCH  27  28
ATOM     28  C   UNL     1      17.843   6.447  19.720  1.00  0.00    -0.000 C 
BRANCH  28  29
ATOM     29  C   UNL     1      18.039   6.507  21.245  1.00  0.00    -0.003 C 
ATOM     30  C   UNL     1      17.716   5.186  21.943  1.00  0.00     0.004 C 
ENDBRANCH  28  29
ENDBRANCH  27  28
ENDBRANCH  26  27
ENDBRANCH  25  26
ENDBRANCH  24  25
ENDBRANCH  23  24
ENDBRANCH  22  23
ENDBRANCH  21  22
ENDBRANCH  20  21
ENDBRANCH  19  20
ENDBRANCH  18  19
ENDBRANCH  17  18
ENDBRANCH   1  17
TORSDOF 26
ENDMDL
MODEL 5
REMARK VINA RESULT:    35.672      8.201     12.213
REMARK INTER + INTRA:          89.247
REMARK INTER:                  89.734
REMARK INTRA:                  -0.487
REMARK UNBOUND:                -0.646
REMARK SMILES CCCCCCCCCCCCCCCCCCCCCCCCCCCC(=O)[O-]
REMARK SMILES IDX 15 1 16 2 17 3 18 4 19 5 20 6 21 7 22 8 23 9 24 10 25 11
REMARK SMILES IDX 26 12 27 13 28 14 29 15 30 16 14 17 13 18 12 19 11 20 10 21
REMARK SMILES IDX 9 22 8 23 7 24 6 25 5 26 4 27 3 28 2 29 1 30
REMARK H PARENT
REMARK Flexibility Score: inf
ROOT
ATOM      1  C   UNL     1      12.671   7.479  25.201  1.00  0.00     0.000 C 
ENDROOT
BRANCH   1   2
ATOM      2  C   UNL     1      13.947   7.100  25.972  1.00  0.00     0.000 C 
BRANCH   2   3
ATOM      3  C   UNL     1      14.589   5.800  25.463  1.00  0.00     0.000 C 
BRANCH   3   4
ATOM      4  C   UNL     1      16.109   5.817  25.673  1.00  0.00     0.000 C 
BRANCH   4   5
ATOM      5  C   UNL     1      16.668   4.454  26.123  1.00  0.00     0.000 C 
BRANCH   5   6
ATOM      6  C   UNL     1      16.803   3.402  25.002  1.00  0.00     0.000 C 
BRANCH   6   7
ATOM      7  C   UNL     1      16.493   3.915  23.582  1.00  0.00     0.000 C 
BRANCH   7   8
ATOM      8  C   UNL     1      15.707   2.928  22.697  1.00  0.00     0.000 C 
BRANCH   8   9
ATOM      9  C   UNL     1      14.202   3.234  22.570  1.00  0.00     0.000 C 
BRANCH   9  10
ATOM     10  C   UNL     1      13.784   3.929  21.258  1.00  0.00     0.000 C 
BRANCH  10  11
ATOM     11  C   UNL     1      12.295   3.786  20.889  1.00  0.00     0.000 C 
BRANCH  11  12
ATOM     12  C   UNL     1      12.041   3.911  19.377  1.00  0.00     0.006 C 
BRANCH  12  13
ATOM     13  C   UNL     1      12.577   2.702  18.599  1.00  0.00     0.053 C 
BRANCH  13  14
ATOM     14  C   UNL     1      12.381   1.422  19.353  1.00  0.00     0.041 C 
ATOM     15  O   UNL     1      12.308   0.327  18.734  1.00  0.00    -0.550 OA
ATOM     16  O   UNL     1      12.286   1.439  20.739  1.00  0.00    -0.550 OA
ENDBRANCH  13  14
ENDBRANCH  12  13
ENDBRANCH  11  12
ENDBRANCH  10  11
ENDBRANCH   9  10
ENDBRANCH   8   9
ENDBRANCH   7   8
ENDBRANCH   6   7
ENDBRANCH   5   6
ENDBRANCH   4   5
ENDBRANCH   3   4
ENDBRANCH   2   3
ENDBRANCH   1   2
BRANCH   1  17
ATOM     17  C   UNL     1      11.686   8.302  26.048  1.00  0.00     0.000 C 
BRANCH  17  18
ATOM     18  C   UNL     1      10.292   8.416  25.406  1.00  0.00     0.000 C 
BRANCH  18  19
ATOM     19  C   UNL     1       9.944   7.297  24.407  1.00  0.00     0.000 C 
BRANCH  19  20
ATOM     20  C   UNL     1       8.653   6.545  24.778  1.00  0.00     0.000 C 
BRANCH  20  21
ATOM     21  C   UNL     1       8.715   5.052  24.424  1.00  0.00     0.000 C 
BRANCH  21  22
ATOM     22  C   UNL     1       8.115   4.156  25.522  1.00  0.00    -0.000 C 
BRANCH  22  23
ATOM     23  C   UNL     1       9.151   3.182  26.125  1.00  0.00    -0.000 C 
BRANCH  23  24
ATOM     24  C   UNL     1       9.225   1.822  25.406  1.00  0.00    -0.000 C 
BRANCH  24  25
ATOM     25  C   UNL     1       8.174   1.600  24.301  1.00  0.00    -0.000 C 
BRANCH  25  26
ATOM     26  C   UNL     1       8.701   0.932  23.017  1.00  0.00    -0.000 C 
BRANCH  26  27
ATOM     27  C   UNL     1       8.959   1.934  21.879  1.00  0.00    -0.000 C 
BRANCH  27  28
ATOM     28  C   UNL     1       7.881   1.875  20.780  1.00  0.00    -0.000 C 
BRANCH  28  29
ATOM     29  C   UNL     1       7.106   3.186  20.558  1.00  0.00    -0.003 C 
ATOM     30  C   UNL     1       6.316   3.631  21.788  1.00  0.00     0.004 C 
ENDBRANCH  28  29
ENDBRANCH  27  28
ENDBRANCH  26  27
ENDBRANCH  25  26
ENDBRANCH  24  25
ENDBRANCH  23  24
ENDBRANCH  22  23
ENDBRANCH  21  22
ENDBRANCH  20  21
ENDBRANCH  19  20
ENDBRANCH  18  19
ENDBRANCH  17  18
ENDBRANCH   1  17
TORSDOF 26
ENDMDL
MODEL 6
REMARK VINA RESULT:    35.870      1.702      2.299
REMARK INTER + INTRA:          89.746
REMARK INTER:                  91.296
REMARK INTRA:                  -1.550
REMARK UNBOUND:                -0.646
REMARK SMILES CCCCCCCCCCCCCCCCCCCCCCCCCCCC(=O)[O-]
REMARK SMILES IDX 15 1 16 2 17 3 18 4 19 5 20 6 21 7 22 8 23 9 24 10 25 11
REMARK SMILES IDX 26 12 27 13 28 14 29 15 30 16 14 17 13 18 12 19 11 20 10 21
REMARK SMILES IDX 9 22 8 23 7 24 6 25 5 26 4 27 3 28 2 29 1 30
REMARK H PARENT
REMARK Flexibility Score: inf
ROOT
ATOM      1  C   UNL     1      18.068   8.075  13.099  1.00  0.00     0.000 C 
ENDROOT
BRANCH   1   2
ATOM      2  C   UNL     1      18.125   8.313  14.619  1.00  0.00     0.000 C 
BRANCH   2   3
ATOM      3  C   UNL     1      17.152   7.417  15.401  1.00  0.00     0.000 C 
BRANCH   3   4
ATOM      4  C   UNL     1      17.904   6.524  16.397  1.00  0.00     0.000 C 
BRANCH   4   5
ATOM      5  C   UNL     1      17.683   6.943  17.863  1.00  0.00     0.000 C 
BRANCH   5   6
ATOM      6  C   UNL     1      16.532   6.213  18.584  1.00  0.00     0.000 C 
BRANCH   6   7
ATOM      7  C   UNL     1      15.811   5.138  17.747  1.00  0.00     0.000 C 
BRANCH   7   8
ATOM      8  C   UNL     1      14.725   4.350  18.504  1.00  0.00     0.000 C 
BRANCH   8   9
ATOM      9  C   UNL     1      13.427   4.114  17.709  1.00  0.00     0.000 C 
BRANCH   9  10
ATOM     10  C   UNL     1      12.124   4.266  18.522  1.00  0.00     0.000 C 
BRANCH  10  11
ATOM     11  C   UNL     1      12.321   4.506  20.031  1.00  0.00     0.000 C 
BRANCH  11  12
ATOM     12  C   UNL     1      12.846   3.262  20.769  1.00  0.00     0.006 C 
BRANCH  12  13
ATOM     13  C   UNL     1      11.995   2.019  20.482  1.00  0.00     0.053 C 
BRANCH  13  14
ATOM     14  C   UNL     1      12.773   0.967  19.749  1.00  0.00     0.041 C 
ATOM     15  O   UNL     1      12.383   0.560  18.622  1.00  0.00    -0.550 OA
ATOM     16  O   UNL     1      13.931   0.444  20.310  1.00  0.00    -0.550 OA
ENDBRANCH  13  14
ENDBRANCH  12  13
ENDBRANCH  11  12
ENDBRANCH  10  11
ENDBRANCH   9  10
ENDBRANCH   8   9
ENDBRANCH   7   8
ENDBRANCH   6   7
ENDBRANCH   5   6
ENDBRANCH   4   5
ENDBRANCH   3   4
ENDBRANCH   2   3
ENDBRANCH   1   2
BRANCH   1  17
ATOM     17  C   UNL     1      16.958   7.091  12.692  1.00  0.00     0.000 C 
BRANCH  17  18
ATOM     18  C   UNL     1      17.192   6.466  11.306  1.00  0.00     0.000 C 
BRANCH  18  19
ATOM     19  C   UNL     1      17.262   7.472  10.142  1.00  0.00     0.000 C 
BRANCH  19  20
ATOM     20  C   UNL     1      16.770   6.880   8.810  1.00  0.00     0.000 C 
BRANCH  20  21
ATOM     21  C   UNL     1      15.498   7.565   8.291  1.00  0.00     0.000 C 
BRANCH  21  22
ATOM     22  C   UNL     1      14.361   6.566   8.003  1.00  0.00    -0.000 C 
BRANCH  22  23
ATOM     23  C   UNL     1      13.355   7.098   6.959  1.00  0.00    -0.000 C 
BRANCH  23  24
ATOM     24  C   UNL     1      11.966   7.426   7.538  1.00  0.00    -0.000 C 
BRANCH  24  25
ATOM     25  C   UNL     1      11.542   6.584   8.756  1.00  0.00    -0.000 C 
BRANCH  25  26
ATOM     26  C   UNL     1      10.028   6.328   8.884  1.00  0.00    -0.000 C 
BRANCH  26  27
ATOM     27  C   UNL     1       9.625   4.894   8.505  1.00  0.00    -0.000 C 
BRANCH  27  28
ATOM     28  C   UNL     1      10.837   3.952   8.369  1.00  0.00    -0.000 C 
BRANCH  28  29
ATOM     29  C   UNL     1      11.158   3.509   6.930  1.00  0.00    -0.003 C 
ATOM     30  C   UNL     1      10.346   4.261   5.876  1.00  0.00     0.004 C 
ENDBRANCH  28  29
ENDBRANCH  27  28
ENDBRANCH  26  27
ENDBRANCH  25  26
ENDBRANCH  24  25
ENDBRANCH  23  24
ENDBRANCH  22  23
ENDBRANCH  21  22
ENDBRANCH  20  21
ENDBRANCH  19  20
ENDBRANCH  18  19
ENDBRANCH  17  18
ENDBRANCH   1  17
TORSDOF 26
ENDMDL
