MODEL 1
REMARK VINA RESULT:    -6.974      0.000      0.000
REMARK INTER + INTRA:          -8.718
REMARK INTER:                  -8.401
REMARK INTRA:                  -0.316
REMARK UNBOUND:                -0.316
REMARK SMILES O=c1c(O)c(-c2ccc(O)c(O)c2)oc2cc(O)cc(O)c12
REMARK SMILES IDX 5 1 3 2 2 3 1 4 22 5 20 6 19 7 17 8 16 9 15 10 14 11 6 12
REMARK SMILES IDX 7 13 8 14 9 15 13 16 11 17 10 18 12 20 4 22 21 24 18 26
REMARK H PARENT 10 19 12 21 4 23 21 25 18 27
REMARK Flexibility Score: inf
ROOT
ATOM      1  C   UNL     1      13.016   9.804  12.985  1.00  0.00     0.180 A 
ATOM      2  C   UNL     1      12.859  10.208  14.324  1.00  0.00     0.208 A 
ATOM      3  C   UNL     1      11.570  10.235  14.878  1.00  0.00     0.238 A 
ATOM      4  O   UNL     1      11.416  10.607  16.074  1.00  0.00    -0.285 OA
ATOM      5  C   UNL     1      10.466   9.842  14.095  1.00  0.00     0.111 A 
ATOM      6  C   UNL     1       9.135   9.836  14.578  1.00  0.00     0.134 A 
ATOM      7  C   UNL     1       8.091   9.421  13.738  1.00  0.00     0.093 A 
ATOM      8  C   UNL     1       8.351   9.010  12.429  1.00  0.00     0.123 A 
ATOM      9  C   UNL     1       9.663   9.014  11.945  1.00  0.00     0.094 A 
ATOM     10  C   UNL     1      10.717   9.426  12.766  1.00  0.00     0.146 A 
ATOM     11  O   UNL     1      11.953   9.424  12.281  1.00  0.00    -0.452 OA
ENDROOT
BRANCH   1  12
ATOM     12  C   UNL     1      14.341   9.766  12.324  1.00  0.00     0.025 A 
ATOM     13  C   UNL     1      14.930  10.930  11.800  1.00  0.00     0.016 A 
ATOM     14  C   UNL     1      16.170  10.867  11.159  1.00  0.00     0.051 A 
ATOM     15  C   UNL     1      16.832   9.639  11.019  1.00  0.00     0.157 A 
ATOM     16  C   UNL     1      14.997   8.535  12.162  1.00  0.00     0.062 A 
ATOM     17  C   UNL     1      16.239   8.469  11.521  1.00  0.00     0.158 A 
BRANCH  15  18
ATOM     18  O   UNL     1      18.069   9.579  10.380  1.00  0.00    -0.504 OA
ATOM     19  H   UNL     1      18.761   8.882  10.628  1.00  0.00     0.293 HD
ENDBRANCH  15  18
BRANCH  17  20
ATOM     20  O   UNL     1      16.869   7.231  11.391  1.00  0.00    -0.504 OA
ATOM     21  H   UNL     1      17.330   6.948  10.536  1.00  0.00     0.293 HD
ENDBRANCH  17  20
ENDBRANCH   1  12
BRANCH   2  22
ATOM     22  O   UNL     1      13.974  10.548  15.095  1.00  0.00    -0.502 OA
ATOM     23  H   UNL     1      14.408  11.462  15.051  1.00  0.00     0.293 HD
ENDBRANCH   2  22
BRANCH   6  24
ATOM     24  O   UNL     1       8.843  10.239  15.882  1.00  0.00    -0.507 OA
ATOM     25  H   UNL     1       9.570  10.353  16.580  1.00  0.00     0.293 HD
ENDBRANCH   6  24
BRANCH   8  26
ATOM     26  O   UNL     1       7.297   8.601  11.615  1.00  0.00    -0.508 OA
ATOM     27  H   UNL     1       7.141   9.013  10.702  1.00  0.00     0.293 HD
ENDBRANCH   8  26
TORSDOF 6
ENDMDL
MODEL 2
REMARK VINA RESULT:    -6.782      1.583      6.994
REMARK INTER + INTRA:          -8.485
REMARK INTER:                  -8.258
REMARK INTRA:                  -0.228
REMARK UNBOUND:                -0.316
REMARK SMILES O=c1c(O)c(-c2ccc(O)c(O)c2)oc2cc(O)cc(O)c12
REMARK SMILES IDX 5 1 3 2 2 3 1 4 22 5 20 6 19 7 17 8 16 9 15 10 14 11 6 12
REMARK SMILES IDX 7 13 8 14 9 15 13 16 11 17 10 18 12 20 4 22 21 24 18 26
REMARK H PARENT 10 19 12 21 4 23 21 25 18 27
REMARK Flexibility Score: inf
ROOT
ATOM      1  C   UNL     1      12.313  10.313  12.501  1.00  0.00     0.180 A 
ATOM      2  C   UNL     1      12.719  11.577  12.035  1.00  0.00     0.208 A 
ATOM      3  C   UNL     1      13.996  11.714  11.470  1.00  0.00     0.238 A 
ATOM      4  O   UNL     1      14.376  12.845  11.059  1.00  0.00    -0.285 OA
ATOM      5  C   UNL     1      14.836  10.587  11.363  1.00  0.00     0.111 A 
ATOM      6  C   UNL     1      16.136  10.638  10.803  1.00  0.00     0.134 A 
ATOM      7  C   UNL     1      16.906   9.469  10.724  1.00  0.00     0.093 A 
ATOM      8  C   UNL     1      16.404   8.252  11.190  1.00  0.00     0.123 A 
ATOM      9  C   UNL     1      15.121   8.194  11.745  1.00  0.00     0.094 A 
ATOM     10  C   UNL     1      14.339   9.349  11.835  1.00  0.00     0.146 A 
ATOM     11  O   UNL     1      13.126   9.267  12.370  1.00  0.00    -0.452 OA
ENDROOT
BRANCH   1  12
ATOM     12  C   UNL     1      10.988  10.091  13.125  1.00  0.00     0.025 A 
ATOM     13  C   UNL     1       9.965   9.407  12.446  1.00  0.00     0.016 A 
ATOM     14  C   UNL     1       8.715   9.230  13.045  1.00  0.00     0.051 A 
ATOM     15  C   UNL     1       8.464   9.747  14.324  1.00  0.00     0.157 A 
ATOM     16  C   UNL     1      10.726  10.626  14.397  1.00  0.00     0.062 A 
ATOM     17  C   UNL     1       9.474  10.451  15.000  1.00  0.00     0.158 A 
BRANCH  15  18
ATOM     18  O   UNL     1       7.217   9.568  14.919  1.00  0.00    -0.504 OA
ATOM     19  H   UNL     1       7.016   9.923  15.847  1.00  0.00     0.293 HD
ENDBRANCH  15  18
BRANCH  17  20
ATOM     20  O   UNL     1       9.254  10.983  16.270  1.00  0.00    -0.504 OA
ATOM     21  H   UNL     1       9.809  11.746  16.638  1.00  0.00     0.293 HD
ENDBRANCH  17  20
ENDBRANCH   1  12
BRANCH   2  22
ATOM     22  O   UNL     1      11.850  12.669  12.108  1.00  0.00    -0.502 OA
ATOM     23  H   UNL     1      10.858  12.589  11.920  1.00  0.00     0.293 HD
ENDBRANCH   2  22
BRANCH   6  24
ATOM     24  O   UNL     1      16.665  11.838  10.327  1.00  0.00    -0.507 OA
ATOM     25  H   UNL     1      16.270  12.735  10.586  1.00  0.00     0.293 HD
ENDBRANCH   6  24
BRANCH   8  26
ATOM     26  O   UNL     1      17.189   7.104  11.099  1.00  0.00    -0.508 OA
ATOM     27  H   UNL     1      17.545   6.774  10.209  1.00  0.00     0.293 HD
ENDBRANCH   8  26
TORSDOF 6
ENDMDL
MODEL 3
REMARK VINA RESULT:    -6.321      2.029      7.003
REMARK INTER + INTRA:          -7.931
REMARK INTER:                  -7.695
REMARK INTRA:                  -0.237
REMARK UNBOUND:                -0.316
REMARK SMILES O=c1c(O)c(-c2ccc(O)c(O)c2)oc2cc(O)cc(O)c12
REMARK SMILES IDX 5 1 3 2 2 3 1 4 22 5 20 6 19 7 17 8 16 9 15 10 14 11 6 12
REMARK SMILES IDX 7 13 8 14 9 15 13 16 11 17 10 18 12 20 4 22 21 24 18 26
REMARK H PARENT 10 19 12 21 4 23 21 25 18 27
REMARK Flexibility Score: inf
ROOT
ATOM      1  C   UNL     1      14.002   9.515  12.709  1.00  0.00     0.180 A 
ATOM      2  C   UNL     1      14.773  10.295  11.827  1.00  0.00     0.208 A 
ATOM      3  C   UNL     1      15.858   9.697  11.167  1.00  0.00     0.238 A 
ATOM      4  O   UNL     1      16.564  10.389  10.383  1.00  0.00    -0.285 OA
ATOM      5  C   UNL     1      16.141   8.334  11.382  1.00  0.00     0.111 A 
ATOM      6  C   UNL     1      17.213   7.655  10.753  1.00  0.00     0.134 A 
ATOM      7  C   UNL     1      17.423   6.293  11.014  1.00  0.00     0.093 A 
ATOM      8  C   UNL     1      16.584   5.597  11.886  1.00  0.00     0.123 A 
ATOM      9  C   UNL     1      15.524   6.261  12.512  1.00  0.00     0.094 A 
ATOM     10  C   UNL     1      15.299   7.619  12.267  1.00  0.00     0.146 A 
ATOM     11  O   UNL     1      14.288   8.227  12.877  1.00  0.00    -0.452 OA
ENDROOT
BRANCH   1  12
ATOM     12  C   UNL     1      12.852  10.077  13.457  1.00  0.00     0.025 A 
ATOM     13  C   UNL     1      11.527   9.769  13.100  1.00  0.00     0.016 A 
ATOM     14  C   UNL     1      10.458  10.329  13.804  1.00  0.00     0.051 A 
ATOM     15  C   UNL     1      10.696  11.215  14.864  1.00  0.00     0.157 A 
ATOM     16  C   UNL     1      13.086  10.981  14.506  1.00  0.00     0.062 A 
ATOM     17  C   UNL     1      12.017  11.543  15.213  1.00  0.00     0.158 A 
BRANCH  15  18
ATOM     18  O   UNL     1       9.628  11.770  15.566  1.00  0.00    -0.504 OA
ATOM     19  H   UNL     1       9.775  12.399  16.346  1.00  0.00     0.293 HD
ENDBRANCH  15  18
BRANCH  17  20
ATOM     20  O   UNL     1      12.287  12.426  16.259  1.00  0.00    -0.504 OA
ATOM     21  H   UNL     1      12.095  12.192  17.225  1.00  0.00     0.293 HD
ENDBRANCH  17  20
ENDBRANCH   1  12
BRANCH   2  22
ATOM     22  O   UNL     1      14.444  11.632  11.593  1.00  0.00    -0.502 OA
ATOM     23  H   UNL     1      13.632  12.073  12.009  1.00  0.00     0.293 HD
ENDBRANCH   2  22
BRANCH   6  24
ATOM     24  O   UNL     1      18.068   8.322   9.875  1.00  0.00    -0.507 OA
ATOM     25  H   UNL     1      18.785   7.831   9.353  1.00  0.00     0.293 HD
ENDBRANCH   6  24
BRANCH   8  26
ATOM     26  O   UNL     1      16.813   4.244  12.127  1.00  0.00    -0.508 OA
ATOM     27  H   UNL     1      17.742   3.891  12.326  1.00  0.00     0.293 HD
ENDBRANCH   8  26
TORSDOF 6
ENDMDL
MODEL 4
REMARK VINA RESULT:    -6.260      1.625      3.195
REMARK INTER + INTRA:          -7.857
REMARK INTER:                  -7.614
REMARK INTRA:                  -0.243
REMARK UNBOUND:                -0.316
REMARK SMILES O=c1c(O)c(-c2ccc(O)c(O)c2)oc2cc(O)cc(O)c12
REMARK SMILES IDX 5 1 3 2 2 3 1 4 22 5 20 6 19 7 17 8 16 9 15 10 14 11 6 12
REMARK SMILES IDX 7 13 8 14 9 15 13 16 11 17 10 18 12 20 4 22 21 24 18 26
REMARK H PARENT 10 19 12 21 4 23 21 25 18 27
REMARK Flexibility Score: inf
ROOT
ATOM      1  C   UNL     1      12.670  10.648  12.365  1.00  0.00     0.180 A 
ATOM      2  C   UNL     1      11.713  10.091  11.497  1.00  0.00     0.208 A 
ATOM      3  C   UNL     1      10.521   9.583  12.037  1.00  0.00     0.238 A 
ATOM      4  O   UNL     1       9.661   9.071  11.269  1.00  0.00    -0.285 OA
ATOM      5  C   UNL     1      10.298   9.658  13.426  1.00  0.00     0.111 A 
ATOM      6  C   UNL     1       9.122   9.173  14.050  1.00  0.00     0.134 A 
ATOM      7  C   UNL     1       8.972   9.293  15.439  1.00  0.00     0.093 A 
ATOM      8  C   UNL     1       9.969   9.887  16.215  1.00  0.00     0.123 A 
ATOM      9  C   UNL     1      11.133  10.367  15.606  1.00  0.00     0.094 A 
ATOM     10  C   UNL     1      11.303  10.255  14.223  1.00  0.00     0.146 A 
ATOM     11  O   UNL     1      12.420  10.715  13.670  1.00  0.00    -0.452 OA
ENDROOT
BRANCH   1  12
ATOM     12  C   UNL     1      13.960  11.188  11.875  1.00  0.00     0.025 A 
ATOM     13  C   UNL     1      14.021  12.397  11.158  1.00  0.00     0.016 A 
ATOM     14  C   UNL     1      15.245  12.875  10.684  1.00  0.00     0.051 A 
ATOM     15  C   UNL     1      16.422  12.147  10.906  1.00  0.00     0.157 A 
ATOM     16  C   UNL     1      15.138  10.452  12.075  1.00  0.00     0.062 A 
ATOM     17  C   UNL     1      16.366  10.928  11.601  1.00  0.00     0.158 A 
BRANCH  15  18
ATOM     18  O   UNL     1      17.642  12.628  10.433  1.00  0.00    -0.504 OA
ATOM     19  H   UNL     1      17.694  13.440   9.829  1.00  0.00     0.293 HD
ENDBRANCH  15  18
BRANCH  17  20
ATOM     20  O   UNL     1      17.519  10.177  11.832  1.00  0.00    -0.504 OA
ATOM     21  H   UNL     1      17.550   9.177  11.676  1.00  0.00     0.293 HD
ENDBRANCH  17  20
ENDBRANCH   1  12
BRANCH   2  22
ATOM     22  O   UNL     1      11.936  10.073  10.117  1.00  0.00    -0.502 OA
ATOM     23  H   UNL     1      11.211  10.294   9.446  1.00  0.00     0.293 HD
ENDBRANCH   2  22
BRANCH   6  24
ATOM     24  O   UNL     1       8.107   8.576  13.302  1.00  0.00    -0.507 OA
ATOM     25  H   UNL     1       8.213   8.392  12.310  1.00  0.00     0.293 HD
ENDBRANCH   6  24
BRANCH   8  26
ATOM     26  O   UNL     1       9.794   9.995  17.594  1.00  0.00    -0.508 OA
ATOM     27  H   UNL     1      10.569   9.879  18.237  1.00  0.00     0.293 HD
ENDBRANCH   8  26
TORSDOF 6
ENDMDL
MODEL 5
REMARK VINA RESULT:    -6.118      1.835      6.859
REMARK INTER + INTRA:          -7.686
REMARK INTER:                  -7.834
REMARK INTRA:                   0.147
REMARK UNBOUND:                -0.316
REMARK SMILES O=c1c(O)c(-c2ccc(O)c(O)c2)oc2cc(O)cc(O)c12
REMARK SMILES IDX 5 1 3 2 2 3 1 4 22 5 20 6 19 7 17 8 16 9 15 10 14 11 6 12
REMARK SMILES IDX 7 13 8 14 9 15 13 16 11 17 10 18 12 20 4 22 21 24 18 26
REMARK H PARENT 10 19 12 21 4 23 21 25 18 27
REMARK Flexibility Score: inf
ROOT
ATOM      1  C   UNL     1      13.354   9.969  12.946  1.00  0.00     0.180 A 
ATOM      2  C   UNL     1      13.977  10.872  12.065  1.00  0.00     0.208 A 
ATOM      3  C   UNL     1      15.092  10.440  11.328  1.00  0.00     0.238 A 
ATOM      4  O   UNL     1      15.666  11.244  10.544  1.00  0.00    -0.285 OA
ATOM      5  C   UNL     1      15.550   9.115  11.470  1.00  0.00     0.111 A 
ATOM      6  C   UNL     1      16.663   8.599  10.762  1.00  0.00     0.134 A 
ATOM      7  C   UNL     1      17.051   7.265  10.951  1.00  0.00     0.093 A 
ATOM      8  C   UNL     1      16.349   6.437  11.830  1.00  0.00     0.123 A 
ATOM      9  C   UNL     1      15.250   6.939  12.533  1.00  0.00     0.094 A 
ATOM     10  C   UNL     1      14.849   8.267  12.360  1.00  0.00     0.146 A 
ATOM     11  O   UNL     1      13.804   8.721  13.043  1.00  0.00    -0.452 OA
ENDROOT
BRANCH   1  12
ATOM     12  C   UNL     1      12.185  10.354  13.771  1.00  0.00     0.025 A 
ATOM     13  C   UNL     1      12.082  11.636  14.340  1.00  0.00     0.016 A 
ATOM     14  C   UNL     1      10.982  11.970  15.134  1.00  0.00     0.051 A 
ATOM     15  C   UNL     1       9.977  11.025  15.383  1.00  0.00     0.157 A 
ATOM     16  C   UNL     1      11.187   9.404  14.041  1.00  0.00     0.062 A 
ATOM     17  C   UNL     1      10.084   9.736  14.836  1.00  0.00     0.158 A 
BRANCH  15  18
ATOM     18  O   UNL     1       8.880  11.361  16.175  1.00  0.00    -0.504 OA
ATOM     19  H   UNL     1       7.935  11.122  15.901  1.00  0.00     0.293 HD
ENDBRANCH  15  18
BRANCH  17  20
ATOM     20  O   UNL     1       9.104   8.771  15.071  1.00  0.00    -0.504 OA
ATOM     21  H   UNL     1       8.227   8.759  14.564  1.00  0.00     0.293 HD
ENDBRANCH  17  20
ENDBRANCH   1  12
BRANCH   2  22
ATOM     22  O   UNL     1      13.475  12.166  11.906  1.00  0.00    -0.502 OA
ATOM     23  H   UNL     1      13.802  12.791  11.179  1.00  0.00     0.293 HD
ENDBRANCH   2  22
BRANCH   6  24
ATOM     24  O   UNL     1      17.383   9.401   9.875  1.00  0.00    -0.507 OA
ATOM     25  H   UNL     1      17.437   9.186   8.886  1.00  0.00     0.293 HD
ENDBRANCH   6  24
BRANCH   8  26
ATOM     26  O   UNL     1      16.755   5.115  11.999  1.00  0.00    -0.508 OA
ATOM     27  H   UNL     1      16.880   4.492  11.209  1.00  0.00     0.293 HD
ENDBRANCH   8  26
TORSDOF 6
ENDMDL
MODEL 6
REMARK VINA RESULT:    -5.938      3.237      6.074
REMARK INTER + INTRA:          -7.469
REMARK INTER:                  -7.149
REMARK INTRA:                  -0.320
REMARK UNBOUND:                -0.316
REMARK SMILES O=c1c(O)c(-c2ccc(O)c(O)c2)oc2cc(O)cc(O)c12
REMARK SMILES IDX 5 1 3 2 2 3 1 4 22 5 20 6 19 7 17 8 16 9 15 10 14 11 6 12
REMARK SMILES IDX 7 13 8 14 9 15 13 16 11 17 10 18 12 20 4 22 21 24 18 26
REMARK H PARENT 10 19 12 21 4 23 21 25 18 27
REMARK Flexibility Score: inf
ROOT
ATOM      1  C   UNL     1      15.509   7.078  12.241  1.00  0.00     0.180 A 
ATOM      2  C   UNL     1      16.446   7.664  11.371  1.00  0.00     0.208 A 
ATOM      3  C   UNL     1      16.278   9.007  10.998  1.00  0.00     0.238 A 
ATOM      4  O   UNL     1      17.105   9.540  10.209  1.00  0.00    -0.285 OA
ATOM      5  C   UNL     1      15.191   9.743  11.513  1.00  0.00     0.111 A 
ATOM      6  C   UNL     1      14.951  11.101  11.190  1.00  0.00     0.134 A 
ATOM      7  C   UNL     1      13.852  11.766  11.752  1.00  0.00     0.093 A 
ATOM      8  C   UNL     1      12.991  11.104  12.630  1.00  0.00     0.123 A 
ATOM      9  C   UNL     1      13.222   9.763  12.952  1.00  0.00     0.094 A 
ATOM     10  C   UNL     1      14.311   9.081  12.401  1.00  0.00     0.146 A 
ATOM     11  O   UNL     1      14.504   7.807  12.720  1.00  0.00    -0.452 OA
ENDROOT
BRANCH   1  12
ATOM     12  C   UNL     1      15.608   5.662  12.668  1.00  0.00     0.025 A 
ATOM     13  C   UNL     1      15.135   4.619  11.852  1.00  0.00     0.016 A 
ATOM     14  C   UNL     1      15.217   3.292  12.285  1.00  0.00     0.051 A 
ATOM     15  C   UNL     1      15.758   2.991  13.542  1.00  0.00     0.157 A 
ATOM     16  C   UNL     1      16.129   5.357  13.935  1.00  0.00     0.062 A 
ATOM     17  C   UNL     1      16.212   4.030  14.371  1.00  0.00     0.158 A 
BRANCH  15  18
ATOM     18  O   UNL     1      15.840   1.667  13.970  1.00  0.00    -0.504 OA
ATOM     19  H   UNL     1      15.010   1.105  14.117  1.00  0.00     0.293 HD
ENDBRANCH  15  18
BRANCH  17  20
ATOM     20  O   UNL     1      16.750   3.763  15.631  1.00  0.00    -0.504 OA
ATOM     21  H   UNL     1      17.522   3.122  15.762  1.00  0.00     0.293 HD
ENDBRANCH  17  20
ENDBRANCH   1  12
BRANCH   2  22
ATOM     22  O   UNL     1      17.542   6.929  10.912  1.00  0.00    -0.502 OA
ATOM     23  H   UNL     1      17.486   6.314  10.109  1.00  0.00     0.293 HD
ENDBRANCH   2  22
BRANCH   6  24
ATOM     24  O   UNL     1      15.794  11.790  10.317  1.00  0.00    -0.507 OA
ATOM     25  H   UNL     1      16.152  12.713  10.539  1.00  0.00     0.293 HD
ENDBRANCH   6  24
BRANCH   8  26
ATOM     26  O   UNL     1      11.907  11.788  13.175  1.00  0.00    -0.508 OA
ATOM     27  H   UNL     1      11.978  12.762  13.449  1.00  0.00     0.293 HD
ENDBRANCH   8  26
TORSDOF 6
ENDMDL
MODEL 7
REMARK VINA RESULT:    -5.763      3.662      6.238
REMARK INTER + INTRA:          -7.258
REMARK INTER:                  -7.010
REMARK INTRA:                  -0.248
REMARK UNBOUND:                -0.316
REMARK SMILES O=c1c(O)c(-c2ccc(O)c(O)c2)oc2cc(O)cc(O)c12
REMARK SMILES IDX 5 1 3 2 2 3 1 4 22 5 20 6 19 7 17 8 16 9 15 10 14 11 6 12
REMARK SMILES IDX 7 13 8 14 9 15 13 16 11 17 10 18 12 20 4 22 21 24 18 26
REMARK H PARENT 10 19 12 21 4 23 21 25 18 27
REMARK Flexibility Score: inf
ROOT
ATOM      1  C   UNL     1      15.985   6.266  12.653  1.00  0.00     0.180 A 
ATOM      2  C   UNL     1      15.712   6.624  11.320  1.00  0.00     0.208 A 
ATOM      3  C   UNL     1      14.980   7.796  11.069  1.00  0.00     0.238 A 
ATOM      4  O   UNL     1      14.719   8.120   9.879  1.00  0.00    -0.285 OA
ATOM      5  C   UNL     1      14.554   8.596  12.148  1.00  0.00     0.111 A 
ATOM      6  C   UNL     1      13.816   9.793  11.981  1.00  0.00     0.134 A 
ATOM      7  C   UNL     1      13.436  10.539  13.106  1.00  0.00     0.093 A 
ATOM      8  C   UNL     1      13.779  10.114  14.392  1.00  0.00     0.123 A 
ATOM      9  C   UNL     1      14.507   8.932  14.564  1.00  0.00     0.094 A 
ATOM     10  C   UNL     1      14.893   8.173  13.455  1.00  0.00     0.146 A 
ATOM     11  O   UNL     1      15.580   7.053  13.646  1.00  0.00    -0.452 OA
ENDROOT
BRANCH   1  12
ATOM     12  C   UNL     1      16.735   5.036  13.000  1.00  0.00     0.025 A 
ATOM     13  C   UNL     1      18.121   4.939  12.785  1.00  0.00     0.016 A 
ATOM     14  C   UNL     1      18.803   3.761  13.098  1.00  0.00     0.051 A 
ATOM     15  C   UNL     1      18.110   2.658  13.616  1.00  0.00     0.157 A 
ATOM     16  C   UNL     1      16.041   3.922  13.500  1.00  0.00     0.062 A 
ATOM     17  C   UNL     1      16.722   2.740  13.814  1.00  0.00     0.158 A 
BRANCH  15  18
ATOM     18  O   UNL     1      18.795   1.485  13.928  1.00  0.00    -0.504 OA
ATOM     19  H   UNL     1      18.841   1.135  14.878  1.00  0.00     0.293 HD
ENDBRANCH  15  18
BRANCH  17  20
ATOM     20  O   UNL     1      16.003   1.658  14.322  1.00  0.00    -0.504 OA
ATOM     21  H   UNL     1      16.093   0.724  13.941  1.00  0.00     0.293 HD
ENDBRANCH  17  20
ENDBRANCH   1  12
BRANCH   2  22
ATOM     22  O   UNL     1      16.187   5.840  10.266  1.00  0.00    -0.502 OA
ATOM     23  H   UNL     1      15.569   5.369   9.616  1.00  0.00     0.293 HD
ENDBRANCH   2  22
BRANCH   6  24
ATOM     24  O   UNL     1      13.459  10.245  10.710  1.00  0.00    -0.507 OA
ATOM     25  H   UNL     1      13.502  11.227  10.462  1.00  0.00     0.293 HD
ENDBRANCH   6  24
BRANCH   8  26
ATOM     26  O   UNL     1      13.390  10.874  15.493  1.00  0.00    -0.508 OA
ATOM     27  H   UNL     1      13.966  11.630  15.846  1.00  0.00     0.293 HD
ENDBRANCH   8  26
TORSDOF 6
ENDMDL
MODEL 8
REMARK VINA RESULT:    -5.659      3.264      7.496
REMARK INTER + INTRA:          -7.134
REMARK INTER:                  -7.141
REMARK INTRA:                   0.008
REMARK UNBOUND:                -0.316
REMARK SMILES O=c1c(O)c(-c2ccc(O)c(O)c2)oc2cc(O)cc(O)c12
REMARK SMILES IDX 5 1 3 2 2 3 1 4 22 5 20 6 19 7 17 8 16 9 15 10 14 11 6 12
REMARK SMILES IDX 7 13 8 14 9 15 13 16 11 17 10 18 12 20 4 22 21 24 18 26
REMARK H PARENT 10 19 12 21 4 23 21 25 18 27
REMARK Flexibility Score: inf
ROOT
ATOM      1  C   UNL     1      15.408   7.318  12.165  1.00  0.00     0.180 A 
ATOM      2  C   UNL     1      16.373   7.347  11.141  1.00  0.00     0.208 A 
ATOM      3  C   UNL     1      17.146   6.199  10.904  1.00  0.00     0.238 A 
ATOM      4  O   UNL     1      18.022   6.217   9.997  1.00  0.00    -0.285 OA
ATOM      5  C   UNL     1      16.929   5.041  11.678  1.00  0.00     0.111 A 
ATOM      6  C   UNL     1      17.662   3.842  11.502  1.00  0.00     0.134 A 
ATOM      7  C   UNL     1      17.379   2.729  12.307  1.00  0.00     0.093 A 
ATOM      8  C   UNL     1      16.381   2.789  13.281  1.00  0.00     0.123 A 
ATOM      9  C   UNL     1      15.654   3.971  13.462  1.00  0.00     0.094 A 
ATOM     10  C   UNL     1      15.922   5.092  12.671  1.00  0.00     0.146 A 
ATOM     11  O   UNL     1      15.220   6.203  12.866  1.00  0.00    -0.452 OA
ENDROOT
BRANCH   1  12
ATOM     12  C   UNL     1      14.567   8.493  12.487  1.00  0.00     0.025 A 
ATOM     13  C   UNL     1      13.866   9.188  11.485  1.00  0.00     0.016 A 
ATOM     14  C   UNL     1      13.097  10.309  11.809  1.00  0.00     0.051 A 
ATOM     15  C   UNL     1      13.028  10.761  13.134  1.00  0.00     0.157 A 
ATOM     16  C   UNL     1      14.512   8.962  13.810  1.00  0.00     0.062 A 
ATOM     17  C   UNL     1      13.742  10.085  14.137  1.00  0.00     0.158 A 
BRANCH  15  18
ATOM     18  O   UNL     1      12.259  11.878  13.454  1.00  0.00    -0.504 OA
ATOM     19  H   UNL     1      11.876  12.010  14.382  1.00  0.00     0.293 HD
ENDBRANCH  15  18
BRANCH  17  20
ATOM     20  O   UNL     1      13.700  10.513  15.464  1.00  0.00    -0.504 OA
ATOM     21  H   UNL     1      12.862  10.903  15.877  1.00  0.00     0.293 HD
ENDBRANCH  17  20
ENDBRANCH   1  12
BRANCH   2  22
ATOM     22  O   UNL     1      16.536   8.490  10.355  1.00  0.00    -0.502 OA
ATOM     23  H   UNL     1      15.753   9.054  10.046  1.00  0.00     0.293 HD
ENDBRANCH   2  22
BRANCH   6  24
ATOM     24  O   UNL     1      18.664   3.749  10.536  1.00  0.00    -0.507 OA
ATOM     25  H   UNL     1      19.174   4.565  10.216  1.00  0.00     0.293 HD
ENDBRANCH   6  24
BRANCH   8  26
ATOM     26  O   UNL     1      16.119   1.669  14.068  1.00  0.00    -0.508 OA
ATOM     27  H   UNL     1      16.773   0.897  14.125  1.00  0.00     0.293 HD
ENDBRANCH   8  26
TORSDOF 6
ENDMDL
MODEL 9
REMARK VINA RESULT:    -5.600      2.689      4.651
REMARK INTER + INTRA:          -7.061
REMARK INTER:                  -6.872
REMARK INTRA:                  -0.189
REMARK UNBOUND:                -0.316
REMARK SMILES O=c1c(O)c(-c2ccc(O)c(O)c2)oc2cc(O)cc(O)c12
REMARK SMILES IDX 5 1 3 2 2 3 1 4 22 5 20 6 19 7 17 8 16 9 15 10 14 11 6 12
REMARK SMILES IDX 7 13 8 14 9 15 13 16 11 17 10 18 12 20 4 22 21 24 18 26
REMARK H PARENT 10 19 12 21 4 23 21 25 18 27
REMARK Flexibility Score: inf
ROOT
ATOM      1  C   UNL     1      14.868   8.254  12.639  1.00  0.00     0.180 A 
ATOM      2  C   UNL     1      15.507   9.238  11.861  1.00  0.00     0.208 A 
ATOM      3  C   UNL     1      14.922  10.510  11.761  1.00  0.00     0.238 A 
ATOM      4  O   UNL     1      15.480  11.396  11.057  1.00  0.00    -0.285 OA
ATOM      5  C   UNL     1      13.724  10.782  12.452  1.00  0.00     0.111 A 
ATOM      6  C   UNL     1      13.072  12.039  12.407  1.00  0.00     0.134 A 
ATOM      7  C   UNL     1      11.886  12.233  13.131  1.00  0.00     0.093 A 
ATOM      8  C   UNL     1      11.342  11.201  13.899  1.00  0.00     0.123 A 
ATOM      9  C   UNL     1      11.981   9.958  13.946  1.00  0.00     0.094 A 
ATOM     10  C   UNL     1      13.162   9.743  13.230  1.00  0.00     0.146 A 
ATOM     11  O   UNL     1      13.746   8.551  13.289  1.00  0.00    -0.452 OA
ENDROOT
BRANCH   1  12
ATOM     12  C   UNL     1      15.413   6.884  12.779  1.00  0.00     0.025 A 
ATOM     13  C   UNL     1      15.944   6.430  13.999  1.00  0.00     0.016 A 
ATOM     14  C   UNL     1      16.474   5.141  14.102  1.00  0.00     0.051 A 
ATOM     15  C   UNL     1      16.496   4.294  12.986  1.00  0.00     0.157 A 
ATOM     16  C   UNL     1      15.457   6.040  11.658  1.00  0.00     0.062 A 
ATOM     17  C   UNL     1      15.988   4.749  11.758  1.00  0.00     0.158 A 
BRANCH  15  18
ATOM     18  O   UNL     1      17.025   3.009  13.092  1.00  0.00    -0.504 OA
ATOM     19  H   UNL     1      17.250   2.600  13.992  1.00  0.00     0.293 HD
ENDBRANCH  15  18
BRANCH  17  20
ATOM     20  O   UNL     1      16.001   3.932  10.627  1.00  0.00    -0.504 OA
ATOM     21  H   UNL     1      16.323   4.265   9.726  1.00  0.00     0.293 HD
ENDBRANCH  17  20
ENDBRANCH   1  12
BRANCH   2  22
ATOM     22  O   UNL     1      16.720   8.958  11.225  1.00  0.00    -0.502 OA
ATOM     23  H   UNL     1      17.293   8.161  11.473  1.00  0.00     0.293 HD
ENDBRANCH   2  22
BRANCH   6  24
ATOM     24  O   UNL     1      13.591  13.090  11.651  1.00  0.00    -0.507 OA
ATOM     25  H   UNL     1      13.759  14.005  12.055  1.00  0.00     0.293 HD
ENDBRANCH   6  24
BRANCH   8  26
ATOM     26  O   UNL     1      10.164  11.421  14.609  1.00  0.00    -0.508 OA
ATOM     27  H   UNL     1       9.258  11.390  14.156  1.00  0.00     0.293 HD
ENDBRANCH   8  26
TORSDOF 6
ENDMDL
