MODEL 1
REMARK VINA RESULT:    -3.387      0.000      0.000
REMARK INTER + INTRA:          -7.930
REMARK INTER:                  -6.556
REMARK INTRA:                  -1.374
REMARK UNBOUND:                -1.374
REMARK SMILES CCCCCCCCCCCCCCCCCC(=O)[O-]
REMARK SMILES IDX 10 1 11 2 12 3 13 4 14 5 15 6 16 7 17 8 18 9 19 10 20 11
REMARK SMILES IDX 9 12 8 13 7 14 6 15 5 16 4 17 3 18 2 19 1 20
REMARK H PARENT
REMARK Flexibility Score: inf
ROOT
ATOM      1  C   UNL     1      -9.977   4.764  -5.478  1.00  0.00     0.000 C 
ENDROOT
BRANCH   1   2
ATOM      2  C   UNL     1      -9.356   6.106  -5.057  1.00  0.00     0.000 C 
BRANCH   2   3
ATOM      3  C   UNL     1      -8.356   6.603  -6.111  1.00  0.00     0.000 C 
BRANCH   3   4
ATOM      4  C   UNL     1      -8.094   5.567  -7.215  1.00  0.00     0.000 C 
BRANCH   4   5
ATOM      5  C   UNL     1      -8.480   6.079  -8.613  1.00  0.00     0.000 C 
BRANCH   5   6
ATOM      6  C   UNL     1      -8.922   4.935  -9.553  1.00  0.00     0.000 C 
BRANCH   6   7
ATOM      7  C   UNL     1      -9.089   3.582  -8.837  1.00  0.00     0.006 C 
BRANCH   7   8
ATOM      8  C   UNL     1      -8.759   2.365  -9.715  1.00  0.00     0.053 C 
BRANCH   8   9
ATOM      9  C   UNL     1      -7.797   1.435  -9.042  1.00  0.00     0.041 C 
ATOM     10  O   UNL     1      -6.615   1.331  -9.466  1.00  0.00    -0.550 OA
ATOM     11  O   UNL     1      -8.207   0.664  -7.963  1.00  0.00    -0.550 OA
ENDBRANCH   8   9
ENDBRANCH   7   8
ENDBRANCH   6   7
ENDBRANCH   5   6
ENDBRANCH   4   5
ENDBRANCH   3   4
ENDBRANCH   2   3
ENDBRANCH   1   2
BRANCH   1  12
ATOM     12  C   UNL     1      -9.640   3.626  -4.501  1.00  0.00     0.000 C 
BRANCH  12  13
ATOM     13  C   UNL     1      -9.168   2.350  -5.220  1.00  0.00    -0.000 C 
BRANCH  13  14
ATOM     14  C   UNL     1      -8.408   1.395  -4.288  1.00  0.00    -0.000 C 
BRANCH  14  15
ATOM     15  C   UNL     1      -7.490   2.137  -3.301  1.00  0.00    -0.000 C 
BRANCH  15  16
ATOM     16  C   UNL     1      -6.059   1.557  -3.287  1.00  0.00    -0.000 C 
BRANCH  16  17
ATOM     17  C   UNL     1      -5.299   1.825  -1.977  1.00  0.00    -0.000 C 
BRANCH  17  18
ATOM     18  C   UNL     1      -6.045   2.786  -1.039  1.00  0.00    -0.000 C 
BRANCH  18  19
ATOM     19  C   UNL     1      -5.180   3.239   0.149  1.00  0.00    -0.003 C 
ATOM     20  C   UNL     1      -5.455   2.437   1.421  1.00  0.00     0.004 C 
ENDBRANCH  18  19
ENDBRANCH  17  18
ENDBRANCH  16  17
ENDBRANCH  15  16
ENDBRANCH  14  15
ENDBRANCH  13  14
ENDBRANCH  12  13
ENDBRANCH   1  12
TORSDOF 16
ENDMDL
MODEL 2
REMARK VINA RESULT:    -3.183     15.333     17.908
REMARK INTER + INTRA:          -7.535
REMARK INTER:                  -5.502
REMARK INTRA:                  -2.033
REMARK UNBOUND:                -1.374
REMARK SMILES CCCCCCCCCCCCCCCCCC(=O)[O-]
REMARK SMILES IDX 10 1 11 2 12 3 13 4 14 5 15 6 16 7 17 8 18 9 19 10 20 11
REMARK SMILES IDX 9 12 8 13 7 14 6 15 5 16 4 17 3 18 2 19 1 20
REMARK H PARENT
REMARK Flexibility Score: inf
ROOT
ATOM      1  C   UNL     1       4.908   7.144  -2.980  1.00  0.00     0.000 C 
ENDROOT
BRANCH   1   2
ATOM      2  C   UNL     1       6.255   7.752  -2.557  1.00  0.00     0.000 C 
BRANCH   2   3
ATOM      3  C   UNL     1       7.424   6.874  -3.027  1.00  0.00     0.000 C 
BRANCH   3   4
ATOM      4  C   UNL     1       8.738   7.658  -3.160  1.00  0.00     0.000 C 
BRANCH   4   5
ATOM      5  C   UNL     1       8.748   8.948  -2.322  1.00  0.00     0.000 C 
BRANCH   5   6
ATOM      6  C   UNL     1       9.464   8.758  -0.966  1.00  0.00     0.000 C 
BRANCH   6   7
ATOM      7  C   UNL     1       8.989   9.741   0.121  1.00  0.00     0.006 C 
BRANCH   7   8
ATOM      8  C   UNL     1       7.644   9.361   0.761  1.00  0.00     0.053 C 
BRANCH   8   9
ATOM      9  C   UNL     1       7.702   9.420   2.257  1.00  0.00     0.041 C 
ATOM     10  O   UNL     1       8.761   9.782   2.836  1.00  0.00    -0.550 OA
ATOM     11  O   UNL     1       6.598   9.053   3.015  1.00  0.00    -0.550 OA
ENDBRANCH   8   9
ENDBRANCH   7   8
ENDBRANCH   6   7
ENDBRANCH   5   6
ENDBRANCH   4   5
ENDBRANCH   3   4
ENDBRANCH   2   3
ENDBRANCH   1   2
BRANCH   1  12
ATOM     12  C   UNL     1       4.012   8.151  -3.719  1.00  0.00     0.000 C 
BRANCH  12  13
ATOM     13  C   UNL     1       4.820   9.238  -4.448  1.00  0.00    -0.000 C 
BRANCH  13  14
ATOM     14  C   UNL     1       4.798   9.067  -5.974  1.00  0.00    -0.000 C 
BRANCH  14  15
ATOM     15  C   UNL     1       6.207   8.918  -6.573  1.00  0.00    -0.000 C 
BRANCH  15  16
ATOM     16  C   UNL     1       7.260   9.735  -5.794  1.00  0.00    -0.000 C 
BRANCH  16  17
ATOM     17  C   UNL     1       8.684   9.604  -6.360  1.00  0.00    -0.000 C 
BRANCH  17  18
ATOM     18  C   UNL     1       8.829   8.434  -7.347  1.00  0.00    -0.000 C 
BRANCH  18  19
ATOM     19  C   UNL     1       9.148   8.906  -8.776  1.00  0.00    -0.003 C 
ATOM     20  C   UNL     1       8.513   8.019  -9.847  1.00  0.00     0.004 C 
ENDBRANCH  18  19
ENDBRANCH  17  18
ENDBRANCH  16  17
ENDBRANCH  15  16
ENDBRANCH  14  15
ENDBRANCH  13  14
ENDBRANCH  12  13
ENDBRANCH   1  12
TORSDOF 16
ENDMDL
MODEL 3
REMARK VINA RESULT:    -3.124     14.876     17.706
REMARK INTER + INTRA:          -7.420
REMARK INTER:                  -5.311
REMARK INTRA:                  -2.109
REMARK UNBOUND:                -1.374
REMARK SMILES CCCCCCCCCCCCCCCCCC(=O)[O-]
REMARK SMILES IDX 10 1 11 2 12 3 13 4 14 5 15 6 16 7 17 8 18 9 19 10 20 11
REMARK SMILES IDX 9 12 8 13 7 14 6 15 5 16 4 17 3 18 2 19 1 20
REMARK H PARENT
REMARK Flexibility Score: inf
ROOT
ATOM      1  C   UNL     1       5.292   7.280  -2.997  1.00  0.00     0.000 C 
ENDROOT
BRANCH   1   2
ATOM      2  C   UNL     1       6.433   7.851  -2.141  1.00  0.00     0.000 C 
BRANCH   2   3
ATOM      3  C   UNL     1       7.765   7.163  -2.472  1.00  0.00     0.000 C 
BRANCH   3   4
ATOM      4  C   UNL     1       8.904   8.164  -2.722  1.00  0.00     0.000 C 
BRANCH   4   5
ATOM      5  C   UNL     1       8.848   9.376  -1.776  1.00  0.00     0.000 C 
BRANCH   5   6
ATOM      6  C   UNL     1       9.684   9.156  -0.495  1.00  0.00     0.000 C 
BRANCH   6   7
ATOM      7  C   UNL     1       9.082   9.827   0.754  1.00  0.00     0.006 C 
BRANCH   7   8
ATOM      8  C   UNL     1       7.663   9.347   1.098  1.00  0.00     0.053 C 
BRANCH   8   9
ATOM      9  C   UNL     1       7.401   9.394   2.573  1.00  0.00     0.041 C 
ATOM     10  O   UNL     1       8.361   9.360   3.387  1.00  0.00    -0.550 OA
ATOM     11  O   UNL     1       6.099   9.450   3.050  1.00  0.00    -0.550 OA
ENDBRANCH   8   9
ENDBRANCH   7   8
ENDBRANCH   6   7
ENDBRANCH   5   6
ENDBRANCH   4   5
ENDBRANCH   3   4
ENDBRANCH   2   3
ENDBRANCH   1   2
BRANCH   1  12
ATOM     12  C   UNL     1       4.837   8.250  -4.099  1.00  0.00     0.000 C 
BRANCH  12  13
ATOM     13  C   UNL     1       5.365   9.679  -3.883  1.00  0.00    -0.000 C 
BRANCH  13  14
ATOM     14  C   UNL     1       6.431  10.077  -4.914  1.00  0.00    -0.000 C 
BRANCH  14  15
ATOM     15  C   UNL     1       6.926   8.881  -5.745  1.00  0.00    -0.000 C 
BRANCH  15  16
ATOM     16  C   UNL     1       7.515   9.319  -7.104  1.00  0.00    -0.000 C 
BRANCH  16  17
ATOM     17  C   UNL     1       6.616   8.978  -8.304  1.00  0.00    -0.000 C 
BRANCH  17  18
ATOM     18  C   UNL     1       5.478   9.992  -8.506  1.00  0.00    -0.000 C 
BRANCH  18  19
ATOM     19  C   UNL     1       4.120   9.312  -8.744  1.00  0.00    -0.003 C 
ATOM     20  C   UNL     1       3.387   8.981  -7.443  1.00  0.00     0.004 C 
ENDBRANCH  18  19
ENDBRANCH  17  18
ENDBRANCH  16  17
ENDBRANCH  15  16
ENDBRANCH  14  15
ENDBRANCH  13  14
ENDBRANCH  12  13
ENDBRANCH   1  12
TORSDOF 16
ENDMDL
MODEL 4
REMARK VINA RESULT:    -3.085      2.794      4.218
REMARK INTER + INTRA:          -7.344
REMARK INTER:                  -5.843
REMARK INTRA:                  -1.501
REMARK UNBOUND:                -1.374
REMARK SMILES CCCCCCCCCCCCCCCCCC(=O)[O-]
REMARK SMILES IDX 10 1 11 2 12 3 13 4 14 5 15 6 16 7 17 8 18 9 19 10 20 11
REMARK SMILES IDX 9 12 8 13 7 14 6 15 5 16 4 17 3 18 2 19 1 20
REMARK H PARENT
REMARK Flexibility Score: inf
ROOT
ATOM      1  C   UNL     1      -9.080   0.443  -7.215  1.00  0.00     0.000 C 
ENDROOT
BRANCH   1   2
ATOM      2  C   UNL     1      -8.659   1.164  -8.505  1.00  0.00     0.000 C 
BRANCH   2   3
ATOM      3  C   UNL     1      -9.661   2.270  -8.867  1.00  0.00     0.000 C 
BRANCH   3   4
ATOM      4  C   UNL     1      -8.982   3.516  -9.456  1.00  0.00     0.000 C 
BRANCH   4   5
ATOM      5  C   UNL     1      -7.844   4.048  -8.570  1.00  0.00     0.000 C 
BRANCH   5   6
ATOM      6  C   UNL     1      -8.329   4.403  -7.146  1.00  0.00     0.000 C 
BRANCH   6   7
ATOM      7  C   UNL     1      -9.339   5.565  -7.113  1.00  0.00     0.006 C 
BRANCH   7   8
ATOM      8  C   UNL     1      -9.610   6.117  -5.705  1.00  0.00     0.053 C 
BRANCH   8   9
ATOM      9  C   UNL     1      -9.287   7.576  -5.606  1.00  0.00     0.041 C 
ATOM     10  O   UNL     1      -9.869   8.297  -4.752  1.00  0.00    -0.550 OA
ATOM     11  O   UNL     1      -8.363   8.148  -6.469  1.00  0.00    -0.550 OA
ENDBRANCH   8   9
ENDBRANCH   7   8
ENDBRANCH   6   7
ENDBRANCH   5   6
ENDBRANCH   4   5
ENDBRANCH   3   4
ENDBRANCH   2   3
ENDBRANCH   1   2
BRANCH   1  12
ATOM     12  C   UNL     1     -10.125   1.232  -6.411  1.00  0.00     0.000 C 
BRANCH  12  13
ATOM     13  C   UNL     1      -9.926   1.099  -4.891  1.00  0.00    -0.000 C 
BRANCH  13  14
ATOM     14  C   UNL     1      -8.924   2.122  -4.335  1.00  0.00    -0.000 C 
BRANCH  14  15
ATOM     15  C   UNL     1      -7.547   1.501  -4.040  1.00  0.00    -0.000 C 
BRANCH  15  16
ATOM     16  C   UNL     1      -6.807   2.239  -2.904  1.00  0.00    -0.000 C 
BRANCH  16  17
ATOM     17  C   UNL     1      -5.406   1.674  -2.613  1.00  0.00    -0.000 C 
BRANCH  17  18
ATOM     18  C   UNL     1      -5.094   1.594  -1.110  1.00  0.00    -0.000 C 
BRANCH  18  19
ATOM     19  C   UNL     1      -5.644   2.799  -0.329  1.00  0.00    -0.003 C 
ATOM     20  C   UNL     1      -5.497   2.641   1.185  1.00  0.00     0.004 C 
ENDBRANCH  18  19
ENDBRANCH  17  18
ENDBRANCH  16  17
ENDBRANCH  15  16
ENDBRANCH  14  15
ENDBRANCH  13  14
ENDBRANCH  12  13
ENDBRANCH   1  12
TORSDOF 16
ENDMDL
MODEL 5
REMARK VINA RESULT:    -3.083      1.224      1.700
REMARK INTER + INTRA:          -7.341
REMARK INTER:                  -6.123
REMARK INTRA:                  -1.217
REMARK UNBOUND:                -1.374
REMARK SMILES CCCCCCCCCCCCCCCCCC(=O)[O-]
REMARK SMILES IDX 10 1 11 2 12 3 13 4 14 5 15 6 16 7 17 8 18 9 19 10 20 11
REMARK SMILES IDX 9 12 8 13 7 14 6 15 5 16 4 17 3 18 2 19 1 20
REMARK H PARENT
REMARK Flexibility Score: inf
ROOT
ATOM      1  C   UNL     1     -10.125   4.129  -6.114  1.00  0.00     0.000 C 
ENDROOT
BRANCH   1   2
ATOM      2  C   UNL     1      -9.671   4.965  -4.906  1.00  0.00     0.000 C 
BRANCH   2   3
ATOM      3  C   UNL     1      -9.301   6.392  -5.335  1.00  0.00     0.000 C 
BRANCH   3   4
ATOM      4  C   UNL     1      -8.133   6.428  -6.333  1.00  0.00     0.000 C 
BRANCH   4   5
ATOM      5  C   UNL     1      -8.402   7.356  -7.529  1.00  0.00     0.000 C 
BRANCH   5   6
ATOM      6  C   UNL     1      -8.094   6.672  -8.880  1.00  0.00     0.000 C 
BRANCH   6   7
ATOM      7  C   UNL     1      -9.193   5.694  -9.337  1.00  0.00     0.006 C 
BRANCH   7   8
ATOM      8  C   UNL     1      -8.664   4.479 -10.115  1.00  0.00     0.053 C 
BRANCH   8   9
ATOM      9  C   UNL     1      -7.441   3.897  -9.475  1.00  0.00     0.041 C 
ATOM     10  O   UNL     1      -7.548   2.950  -8.651  1.00  0.00    -0.550 OA
ATOM     11  O   UNL     1      -6.185   4.412  -9.768  1.00  0.00    -0.550 OA
ENDBRANCH   8   9
ENDBRANCH   7   8
ENDBRANCH   6   7
ENDBRANCH   5   6
ENDBRANCH   4   5
ENDBRANCH   3   4
ENDBRANCH   2   3
ENDBRANCH   1   2
BRANCH   1  12
ATOM     12  C   UNL     1      -9.867   2.626  -5.922  1.00  0.00     0.000 C 
BRANCH  12  13
ATOM     13  C   UNL     1      -9.687   2.241  -4.444  1.00  0.00    -0.000 C 
BRANCH  13  14
ATOM     14  C   UNL     1      -8.380   1.476  -4.188  1.00  0.00    -0.000 C 
BRANCH  14  15
ATOM     15  C   UNL     1      -7.423   2.236  -3.254  1.00  0.00    -0.000 C 
BRANCH  15  16
ATOM     16  C   UNL     1      -6.079   1.498  -3.071  1.00  0.00    -0.000 C 
BRANCH  16  17
ATOM     17  C   UNL     1      -5.190   2.099  -1.970  1.00  0.00    -0.000 C 
BRANCH  17  18
ATOM     18  C   UNL     1      -5.986   2.919  -0.941  1.00  0.00    -0.000 C 
BRANCH  18  19
ATOM     19  C   UNL     1      -5.173   3.217   0.329  1.00  0.00    -0.003 C 
ATOM     20  C   UNL     1      -5.480   2.246   1.470  1.00  0.00     0.004 C 
ENDBRANCH  18  19
ENDBRANCH  17  18
ENDBRANCH  16  17
ENDBRANCH  15  16
ENDBRANCH  14  15
ENDBRANCH  13  14
ENDBRANCH  12  13
ENDBRANCH   1  12
TORSDOF 16
ENDMDL
MODEL 6
REMARK VINA RESULT:    -3.065      2.299      3.317
REMARK INTER + INTRA:          -7.306
REMARK INTER:                  -6.004
REMARK INTRA:                  -1.301
REMARK UNBOUND:                -1.374
REMARK SMILES CCCCCCCCCCCCCCCCCC(=O)[O-]
REMARK SMILES IDX 10 1 11 2 12 3 13 4 14 5 15 6 16 7 17 8 18 9 19 10 20 11
REMARK SMILES IDX 9 12 8 13 7 14 6 15 5 16 4 17 3 18 2 19 1 20
REMARK H PARENT
REMARK Flexibility Score: inf
ROOT
ATOM      1  C   UNL     1      -9.792   5.291  -4.758  1.00  0.00     0.000 C 
ENDROOT
BRANCH   1   2
ATOM      2  C   UNL     1     -10.051   6.703  -5.307  1.00  0.00     0.000 C 
BRANCH   2   3
ATOM      3  C   UNL     1      -9.349   7.764  -4.448  1.00  0.00     0.000 C 
BRANCH   3   4
ATOM      4  C   UNL     1      -9.159   9.097  -5.188  1.00  0.00     0.000 C 
BRANCH   4   5
ATOM      5  C   UNL     1      -9.989   9.183  -6.480  1.00  0.00     0.000 C 
BRANCH   5   6
ATOM      6  C   UNL     1      -9.131   9.582  -7.701  1.00  0.00     0.000 C 
BRANCH   6   7
ATOM      7  C   UNL     1      -7.750   8.900  -7.730  1.00  0.00     0.006 C 
BRANCH   7   8
ATOM      8  C   UNL     1      -7.592   7.856  -8.846  1.00  0.00     0.053 C 
BRANCH   8   9
ATOM      9  C   UNL     1      -8.168   6.529  -8.455  1.00  0.00     0.041 C 
ATOM     10  O   UNL     1      -9.342   6.223  -8.796  1.00  0.00    -0.550 OA
ATOM     11  O   UNL     1      -7.422   5.640  -7.694  1.00  0.00    -0.550 OA
ENDBRANCH   8   9
ENDBRANCH   7   8
ENDBRANCH   6   7
ENDBRANCH   5   6
ENDBRANCH   4   5
ENDBRANCH   3   4
ENDBRANCH   2   3
ENDBRANCH   1   2
BRANCH   1  12
ATOM     12  C   UNL     1      -9.990   4.198  -5.821  1.00  0.00     0.000 C 
BRANCH  12  13
ATOM     13  C   UNL     1      -8.865   3.149  -5.806  1.00  0.00    -0.000 C 
BRANCH  13  14
ATOM     14  C   UNL     1      -8.989   2.166  -4.633  1.00  0.00    -0.000 C 
BRANCH  14  15
ATOM     15  C   UNL     1      -8.057   2.521  -3.462  1.00  0.00    -0.000 C 
BRANCH  15  16
ATOM     16  C   UNL     1      -6.847   1.566  -3.370  1.00  0.00    -0.000 C 
BRANCH  16  17
ATOM     17  C   UNL     1      -5.764   2.037  -2.386  1.00  0.00    -0.000 C 
BRANCH  17  18
ATOM     18  C   UNL     1      -6.319   2.940  -1.273  1.00  0.00    -0.000 C 
BRANCH  18  19
ATOM     19  C   UNL     1      -5.299   3.185  -0.149  1.00  0.00    -0.003 C 
ATOM     20  C   UNL     1      -5.202   2.013   0.829  1.00  0.00     0.004 C 
ENDBRANCH  18  19
ENDBRANCH  17  18
ENDBRANCH  16  17
ENDBRANCH  15  16
ENDBRANCH  14  15
ENDBRANCH  13  14
ENDBRANCH  12  13
ENDBRANCH   1  12
TORSDOF 16
ENDMDL
MODEL 7
REMARK VINA RESULT:    -3.057      2.938      3.794
REMARK INTER + INTRA:          -7.291
REMARK INTER:                  -6.173
REMARK INTRA:                  -1.118
REMARK UNBOUND:                -1.374
REMARK SMILES CCCCCCCCCCCCCCCCCC(=O)[O-]
REMARK SMILES IDX 10 1 11 2 12 3 13 4 14 5 15 6 16 7 17 8 18 9 19 10 20 11
REMARK SMILES IDX 9 12 8 13 7 14 6 15 5 16 4 17 3 18 2 19 1 20
REMARK H PARENT
REMARK Flexibility Score: inf
ROOT
ATOM      1  C   UNL     1      -9.417   4.468  -5.583  1.00  0.00     0.000 C 
ENDROOT
BRANCH   1   2
ATOM      2  C   UNL     1      -8.627   5.065  -6.759  1.00  0.00     0.000 C 
BRANCH   2   3
ATOM      3  C   UNL     1      -8.220   3.972  -7.757  1.00  0.00     0.000 C 
BRANCH   3   4
ATOM      4  C   UNL     1      -8.178   4.479  -9.207  1.00  0.00     0.000 C 
BRANCH   4   5
ATOM      5  C   UNL     1      -6.745   4.678  -9.727  1.00  0.00     0.000 C 
BRANCH   5   6
ATOM      6  C   UNL     1      -6.466   6.145 -10.124  1.00  0.00     0.000 C 
BRANCH   6   7
ATOM      7  C   UNL     1      -7.606   7.110  -9.749  1.00  0.00     0.006 C 
BRANCH   7   8
ATOM      8  C   UNL     1      -7.159   8.570  -9.581  1.00  0.00     0.053 C 
BRANCH   8   9
ATOM      9  C   UNL     1      -7.114   8.978  -8.140  1.00  0.00     0.041 C 
ATOM     10  O   UNL     1      -6.111   9.590  -7.687  1.00  0.00    -0.550 OA
ATOM     11  O   UNL     1      -8.167   8.664  -7.291  1.00  0.00    -0.550 OA
ENDBRANCH   8   9
ENDBRANCH   7   8
ENDBRANCH   6   7
ENDBRANCH   5   6
ENDBRANCH   4   5
ENDBRANCH   3   4
ENDBRANCH   2   3
ENDBRANCH   1   2
BRANCH   1  12
ATOM     12  C   UNL     1      -9.739   2.978  -5.784  1.00  0.00     0.000 C 
BRANCH  12  13
ATOM     13  C   UNL     1      -9.544   2.153  -4.500  1.00  0.00    -0.000 C 
BRANCH  13  14
ATOM     14  C   UNL     1      -8.122   1.587  -4.372  1.00  0.00    -0.000 C 
BRANCH  14  15
ATOM     15  C   UNL     1      -7.345   2.201  -3.195  1.00  0.00    -0.000 C 
BRANCH  15  16
ATOM     16  C   UNL     1      -5.922   1.616  -3.069  1.00  0.00    -0.000 C 
BRANCH  16  17
ATOM     17  C   UNL     1      -5.276   1.857  -1.694  1.00  0.00    -0.000 C 
BRANCH  17  18
ATOM     18  C   UNL     1      -5.934   3.011  -0.919  1.00  0.00    -0.000 C 
BRANCH  18  19
ATOM     19  C   UNL     1      -5.166   3.372   0.363  1.00  0.00    -0.003 C 
ATOM     20  C   UNL     1      -5.211   2.261   1.413  1.00  0.00     0.004 C 
ENDBRANCH  18  19
ENDBRANCH  17  18
ENDBRANCH  16  17
ENDBRANCH  15  16
ENDBRANCH  14  15
ENDBRANCH  13  14
ENDBRANCH  12  13
ENDBRANCH   1  12
TORSDOF 16
ENDMDL
MODEL 8
REMARK VINA RESULT:    -3.040      2.716      7.005
REMARK INTER + INTRA:          -7.258
REMARK INTER:                  -5.556
REMARK INTRA:                  -1.701
REMARK UNBOUND:                -1.374
REMARK SMILES CCCCCCCCCCCCCCCCCC(=O)[O-]
REMARK SMILES IDX 10 1 11 2 12 3 13 4 14 5 15 6 16 7 17 8 18 9 19 10 20 11
REMARK SMILES IDX 9 12 8 13 7 14 6 15 5 16 4 17 3 18 2 19 1 20
REMARK H PARENT
REMARK Flexibility Score: inf
ROOT
ATOM      1  C   UNL     1      -8.381   1.804  -8.727  1.00  0.00     0.000 C 
ENDROOT
BRANCH   1   2
ATOM      2  C   UNL     1      -9.490   1.226  -7.833  1.00  0.00     0.000 C 
BRANCH   2   3
ATOM      3  C   UNL     1      -8.918   0.201  -6.843  1.00  0.00     0.000 C 
BRANCH   3   4
ATOM      4  C   UNL     1      -9.296   0.509  -5.386  1.00  0.00     0.000 C 
BRANCH   4   5
ATOM      5  C   UNL     1      -9.533   2.008  -5.137  1.00  0.00     0.000 C 
BRANCH   5   6
ATOM      6  C   UNL     1      -8.525   2.600  -4.126  1.00  0.00     0.000 C 
BRANCH   6   7
ATOM      7  C   UNL     1      -7.419   1.611  -3.712  1.00  0.00     0.006 C 
BRANCH   7   8
ATOM      8  C   UNL     1      -6.448   2.165  -2.658  1.00  0.00     0.053 C 
BRANCH   8   9
ATOM      9  C   UNL     1      -5.143   1.429  -2.659  1.00  0.00     0.041 C 
ATOM     10  O   UNL     1      -4.699   0.926  -1.593  1.00  0.00    -0.550 OA
ATOM     11  O   UNL     1      -4.405   1.316  -3.830  1.00  0.00    -0.550 OA
ENDBRANCH   8   9
ENDBRANCH   7   8
ENDBRANCH   6   7
ENDBRANCH   5   6
ENDBRANCH   4   5
ENDBRANCH   3   4
ENDBRANCH   2   3
ENDBRANCH   1   2
BRANCH   1  12
ATOM     12  C   UNL     1      -8.625   3.277  -9.093  1.00  0.00     0.000 C 
BRANCH  12  13
ATOM     13  C   UNL     1      -9.972   3.802  -8.568  1.00  0.00    -0.000 C 
BRANCH  13  14
ATOM     14  C   UNL     1      -9.806   4.876  -7.484  1.00  0.00    -0.000 C 
BRANCH  14  15
ATOM     15  C   UNL     1      -8.354   4.998  -6.989  1.00  0.00    -0.000 C 
BRANCH  15  16
ATOM     16  C   UNL     1      -7.962   6.461  -6.690  1.00  0.00    -0.000 C 
BRANCH  16  17
ATOM     17  C   UNL     1      -7.802   7.326  -7.952  1.00  0.00    -0.000 C 
BRANCH  17  18
ATOM     18  C   UNL     1      -7.546   8.808  -7.633  1.00  0.00    -0.000 C 
BRANCH  18  19
ATOM     19  C   UNL     1      -6.565   9.461  -8.620  1.00  0.00    -0.003 C 
ATOM     20  C   UNL     1      -6.186   8.537  -9.778  1.00  0.00     0.004 C 
ENDBRANCH  18  19
ENDBRANCH  17  18
ENDBRANCH  16  17
ENDBRANCH  15  16
ENDBRANCH  14  15
ENDBRANCH  13  14
ENDBRANCH  12  13
ENDBRANCH   1  12
TORSDOF 16
ENDMDL
MODEL 9
REMARK VINA RESULT:    -3.024     14.890     16.629
REMARK INTER + INTRA:          -7.227
REMARK INTER:                  -5.754
REMARK INTRA:                  -1.473
REMARK UNBOUND:                -1.374
REMARK SMILES CCCCCCCCCCCCCCCCCC(=O)[O-]
REMARK SMILES IDX 10 1 11 2 12 3 13 4 14 5 15 6 16 7 17 8 18 9 19 10 20 11
REMARK SMILES IDX 9 12 8 13 7 14 6 15 5 16 4 17 3 18 2 19 1 20
REMARK H PARENT
REMARK Flexibility Score: inf
ROOT
ATOM      1  C   UNL     1       4.970   7.533  -3.171  1.00  0.00     0.000 C 
ENDROOT
BRANCH   1   2
ATOM      2  C   UNL     1       4.138   8.824  -3.228  1.00  0.00     0.000 C 
BRANCH   2   3
ATOM      3  C   UNL     1       4.629   9.744  -4.356  1.00  0.00     0.000 C 
BRANCH   3   4
ATOM      4  C   UNL     1       4.899   8.986  -5.665  1.00  0.00     0.000 C 
BRANCH   4   5
ATOM      5  C   UNL     1       5.803   9.771  -6.630  1.00  0.00     0.000 C 
BRANCH   5   6
ATOM      6  C   UNL     1       7.298   9.433  -6.437  1.00  0.00     0.000 C 
BRANCH   6   7
ATOM      7  C   UNL     1       8.025   9.091  -7.752  1.00  0.00     0.006 C 
BRANCH   7   8
ATOM      8  C   UNL     1       9.540   8.891  -7.594  1.00  0.00     0.053 C 
BRANCH   8   9
ATOM      9  C   UNL     1       9.868   7.552  -7.007  1.00  0.00     0.041 C 
ATOM     10  O   UNL     1      10.125   7.445  -5.778  1.00  0.00    -0.550 OA
ATOM     11  O   UNL     1       9.913   6.425  -7.817  1.00  0.00    -0.550 OA
ENDBRANCH   8   9
ENDBRANCH   7   8
ENDBRANCH   6   7
ENDBRANCH   5   6
ENDBRANCH   4   5
ENDBRANCH   3   4
ENDBRANCH   2   3
ENDBRANCH   1   2
BRANCH   1  12
ATOM     12  C   UNL     1       6.290   7.715  -2.406  1.00  0.00     0.000 C 
BRANCH  12  13
ATOM     13  C   UNL     1       7.492   7.105  -3.147  1.00  0.00    -0.000 C 
BRANCH  13  14
ATOM     14  C   UNL     1       8.730   6.963  -2.248  1.00  0.00    -0.000 C 
BRANCH  14  15
ATOM     15  C   UNL     1       9.519   8.277  -2.116  1.00  0.00    -0.000 C 
BRANCH  15  16
ATOM     16  C   UNL     1       9.586   8.772  -0.655  1.00  0.00    -0.000 C 
BRANCH  16  17
ATOM     17  C   UNL     1       8.510   9.814  -0.308  1.00  0.00    -0.000 C 
BRANCH  17  18
ATOM     18  C   UNL     1       7.602   9.374   0.852  1.00  0.00    -0.000 C 
BRANCH  18  19
ATOM     19  C   UNL     1       8.254   9.595   2.226  1.00  0.00    -0.003 C 
ATOM     20  C   UNL     1       7.328   9.230   3.387  1.00  0.00     0.004 C 
ENDBRANCH  18  19
ENDBRANCH  17  18
ENDBRANCH  16  17
ENDBRANCH  15  16
ENDBRANCH  14  15
ENDBRANCH  13  14
ENDBRANCH  12  13
ENDBRANCH   1  12
TORSDOF 16
ENDMDL
