MODEL 1
REMARK VINA RESULT:    -4.321      0.000      0.000
REMARK INTER + INTRA:          -7.314
REMARK INTER:                  -6.846
REMARK INTRA:                  -0.468
REMARK UNBOUND:                -0.468
REMARK SMILES CCCCCCCCCCCC(=O)[O-]
REMARK SMILES IDX 7 1 8 2 9 3 10 4 11 5 12 6 13 7 14 8 6 9 5 10 4 11 3 12 2 13
REMARK SMILES IDX 1 14
REMARK H PARENT
REMARK Flexibility Score: inf
ROOT
ATOM      1  C   UNL     1       3.319 -37.467  19.871  1.00  0.00     0.000 C 
ENDROOT
BRANCH   1   2
ATOM      2  C   UNL     1       4.398 -36.393  19.666  1.00  0.00     0.000 C 
BRANCH   2   3
ATOM      3  C   UNL     1       5.117 -36.021  20.974  1.00  0.00     0.000 C 
BRANCH   3   4
ATOM      4  C   UNL     1       4.963 -37.099  22.060  1.00  0.00     0.006 C 
BRANCH   4   5
ATOM      5  C   UNL     1       5.125 -36.537  23.478  1.00  0.00     0.053 C 
BRANCH   5   6
ATOM      6  C   UNL     1       5.019 -37.635  24.488  1.00  0.00     0.041 C 
ATOM      7  O   UNL     1       5.017 -38.839  24.118  1.00  0.00    -0.550 OA
ATOM      8  O   UNL     1       4.973 -37.333  25.843  1.00  0.00    -0.550 OA
ENDBRANCH   5   6
ENDBRANCH   4   5
ENDBRANCH   3   4
ENDBRANCH   2   3
ENDBRANCH   1   2
BRANCH   1   9
ATOM      9  C   UNL     1       2.348 -37.568  18.684  1.00  0.00     0.000 C 
BRANCH   9  10
ATOM     10  C   UNL     1       2.910 -36.845  17.453  1.00  0.00    -0.000 C 
BRANCH  10  11
ATOM     11  C   UNL     1       1.855 -36.743  16.343  1.00  0.00    -0.000 C 
BRANCH  11  12
ATOM     12  C   UNL     1       2.419 -36.103  15.057  1.00  0.00    -0.000 C 
BRANCH  12  13
ATOM     13  C   UNL     1       3.881 -36.486  14.770  1.00  0.00    -0.003 C 
ATOM     14  C   UNL     1       4.033 -37.911  14.241  1.00  0.00     0.004 C 
ENDBRANCH  12  13
ENDBRANCH  11  12
ENDBRANCH  10  11
ENDBRANCH   9  10
ENDBRANCH   1   9
TORSDOF 10
ENDMDL
MODEL 2
REMARK VINA RESULT:    -4.156      4.061      7.903
REMARK INTER + INTRA:          -7.053
REMARK INTER:                  -6.634
REMARK INTRA:                  -0.419
REMARK UNBOUND:                -0.468
REMARK SMILES CCCCCCCCCCCC(=O)[O-]
REMARK SMILES IDX 7 1 8 2 9 3 10 4 11 5 12 6 13 7 14 8 6 9 5 10 4 11 3 12 2 13
REMARK SMILES IDX 1 14
REMARK H PARENT
REMARK Flexibility Score: inf
ROOT
ATOM      1  C   UNL     1       3.329 -37.018  20.496  1.00  0.00     0.000 C 
ENDROOT
BRANCH   1   2
ATOM      2  C   UNL     1       3.425 -37.288  18.986  1.00  0.00     0.000 C 
BRANCH   2   3
ATOM      3  C   UNL     1       2.048 -37.505  18.336  1.00  0.00     0.000 C 
BRANCH   3   4
ATOM      4  C   UNL     1       1.922 -36.806  16.972  1.00  0.00     0.006 C 
BRANCH   4   5
ATOM      5  C   UNL     1       3.284 -36.453  16.360  1.00  0.00     0.053 C 
BRANCH   5   6
ATOM      6  C   UNL     1       3.356 -36.925  14.942  1.00  0.00     0.041 C 
ATOM      7  O   UNL     1       2.870 -36.224  14.016  1.00  0.00    -0.550 OA
ATOM      8  O   UNL     1       4.002 -38.115  14.637  1.00  0.00    -0.550 OA
ENDBRANCH   5   6
ENDBRANCH   4   5
ENDBRANCH   3   4
ENDBRANCH   2   3
ENDBRANCH   1   2
BRANCH   1   9
ATOM      9  C   UNL     1       4.690 -36.685  21.127  1.00  0.00     0.000 C 
BRANCH   9  10
ATOM     10  C   UNL     1       4.740 -35.221  21.582  1.00  0.00    -0.000 C 
BRANCH  10  11
ATOM     11  C   UNL     1       5.072 -35.118  23.078  1.00  0.00    -0.000 C 
BRANCH  11  12
ATOM     12  C   UNL     1       5.024 -36.491  23.782  1.00  0.00    -0.000 C 
BRANCH  12  13
ATOM     13  C   UNL     1       5.125 -36.400  25.315  1.00  0.00    -0.003 C 
ATOM     14  C   UNL     1       4.693 -37.683  26.020  1.00  0.00     0.004 C 
ENDBRANCH  12  13
ENDBRANCH  11  12
ENDBRANCH  10  11
ENDBRANCH   9  10
ENDBRANCH   1   9
TORSDOF 10
ENDMDL
MODEL 3
REMARK VINA RESULT:    -3.866      1.470      2.045
REMARK INTER + INTRA:          -6.594
REMARK INTER:                  -5.830
REMARK INTRA:                  -0.764
REMARK UNBOUND:                -0.468
REMARK SMILES CCCCCCCCCCCC(=O)[O-]
REMARK SMILES IDX 7 1 8 2 9 3 10 4 11 5 12 6 13 7 14 8 6 9 5 10 4 11 3 12 2 13
REMARK SMILES IDX 1 14
REMARK H PARENT
REMARK Flexibility Score: inf
ROOT
ATOM      1  C   UNL     1       1.529 -37.733  18.845  1.00  0.00     0.000 C 
ENDROOT
BRANCH   1   2
ATOM      2  C   UNL     1       2.612 -37.488  19.907  1.00  0.00     0.000 C 
BRANCH   2   3
ATOM      3  C   UNL     1       3.875 -36.834  19.322  1.00  0.00     0.000 C 
BRANCH   3   4
ATOM      4  C   UNL     1       5.125 -37.091  20.181  1.00  0.00     0.006 C 
BRANCH   4   5
ATOM      5  C   UNL     1       4.781 -37.519  21.613  1.00  0.00     0.053 C 
BRANCH   5   6
ATOM      6  C   UNL     1       4.916 -36.361  22.550  1.00  0.00     0.041 C 
ATOM      7  O   UNL     1       4.826 -35.182  22.118  1.00  0.00    -0.550 OA
ATOM      8  O   UNL     1       5.094 -36.583  23.909  1.00  0.00    -0.550 OA
ENDBRANCH   5   6
ENDBRANCH   4   5
ENDBRANCH   3   4
ENDBRANCH   2   3
ENDBRANCH   1   2
BRANCH   1   9
ATOM      9  C   UNL     1       2.048 -37.541  17.412  1.00  0.00     0.000 C 
BRANCH   9  10
ATOM     10  C   UNL     1       1.318 -36.386  16.714  1.00  0.00    -0.000 C 
BRANCH  10  11
ATOM     11  C   UNL     1       2.221 -35.711  15.672  1.00  0.00    -0.000 C 
BRANCH  11  12
ATOM     12  C   UNL     1       3.576 -36.434  15.517  1.00  0.00    -0.000 C 
BRANCH  12  13
ATOM     13  C   UNL     1       3.761 -37.107  14.146  1.00  0.00    -0.003 C 
ATOM     14  C   UNL     1       4.461 -38.461  14.234  1.00  0.00     0.004 C 
ENDBRANCH  12  13
ENDBRANCH  11  12
ENDBRANCH  10  11
ENDBRANCH   9  10
ENDBRANCH   1   9
TORSDOF 10
ENDMDL
MODEL 4
REMARK VINA RESULT:    -3.737      3.983      7.736
REMARK INTER + INTRA:          -6.390
REMARK INTER:                  -6.019
REMARK INTRA:                  -0.370
REMARK UNBOUND:                -0.468
REMARK SMILES CCCCCCCCCCCC(=O)[O-]
REMARK SMILES IDX 7 1 8 2 9 3 10 4 11 5 12 6 13 7 14 8 6 9 5 10 4 11 3 12 2 13
REMARK SMILES IDX 1 14
REMARK H PARENT
REMARK Flexibility Score: inf
ROOT
ATOM      1  C   UNL     1       4.627 -35.410  20.472  1.00  0.00     0.000 C 
ENDROOT
BRANCH   1   2
ATOM      2  C   UNL     1       4.526 -36.921  20.206  1.00  0.00     0.000 C 
BRANCH   2   3
ATOM      3  C   UNL     1       3.220 -37.309  19.490  1.00  0.00     0.000 C 
BRANCH   3   4
ATOM      4  C   UNL     1       3.391 -37.407  17.965  1.00  0.00     0.006 C 
BRANCH   4   5
ATOM      5  C   UNL     1       2.076 -37.183  17.207  1.00  0.00     0.053 C 
BRANCH   5   6
ATOM      6  C   UNL     1       2.283 -36.222  16.079  1.00  0.00     0.041 C 
ATOM      7  O   UNL     1       1.385 -35.391  15.782  1.00  0.00    -0.550 OA
ATOM      8  O   UNL     1       3.486 -36.211  15.386  1.00  0.00    -0.550 OA
ENDBRANCH   5   6
ENDBRANCH   4   5
ENDBRANCH   3   4
ENDBRANCH   2   3
ENDBRANCH   1   2
BRANCH   1   9
ATOM      9  C   UNL     1       3.914 -34.986  21.765  1.00  0.00     0.000 C 
BRANCH   9  10
ATOM     10  C   UNL     1       4.909 -34.861  22.925  1.00  0.00    -0.000 C 
BRANCH  10  11
ATOM     11  C   UNL     1       5.122 -36.214  23.619  1.00  0.00    -0.000 C 
BRANCH  11  12
ATOM     12  C   UNL     1       4.923 -36.125  25.147  1.00  0.00    -0.000 C 
BRANCH  12  13
ATOM     13  C   UNL     1       4.864 -37.497  25.841  1.00  0.00    -0.003 C 
ATOM     14  C   UNL     1       5.023 -38.665  24.871  1.00  0.00     0.004 C 
ENDBRANCH  12  13
ENDBRANCH  11  12
ENDBRANCH  10  11
ENDBRANCH   9  10
ENDBRANCH   1   9
TORSDOF 10
ENDMDL
MODEL 5
REMARK VINA RESULT:    -3.390      4.082      7.869
REMARK INTER + INTRA:          -5.840
REMARK INTER:                  -5.666
REMARK INTRA:                  -0.173
REMARK UNBOUND:                -0.468
REMARK SMILES CCCCCCCCCCCC(=O)[O-]
REMARK SMILES IDX 7 1 8 2 9 3 10 4 11 5 12 6 13 7 14 8 6 9 5 10 4 11 3 12 2 13
REMARK SMILES IDX 1 14
REMARK H PARENT
REMARK Flexibility Score: inf
ROOT
ATOM      1  C   UNL     1       4.102 -35.982  21.050  1.00  0.00     0.000 C 
ENDROOT
BRANCH   1   2
ATOM      2  C   UNL     1       4.298 -36.104  19.531  1.00  0.00     0.000 C 
BRANCH   2   3
ATOM      3  C   UNL     1       3.338 -37.122  18.891  1.00  0.00     0.000 C 
BRANCH   3   4
ATOM      4  C   UNL     1       3.548 -37.257  17.373  1.00  0.00     0.006 C 
BRANCH   4   5
ATOM      5  C   UNL     1       2.526 -36.453  16.560  1.00  0.00     0.053 C 
BRANCH   5   6
ATOM      6  C   UNL     1       2.787 -36.607  15.096  1.00  0.00     0.041 C 
ATOM      7  O   UNL     1       2.071 -36.000  14.257  1.00  0.00    -0.550 OA
ATOM      8  O   UNL     1       3.853 -37.381  14.656  1.00  0.00    -0.550 OA
ENDBRANCH   5   6
ENDBRANCH   4   5
ENDBRANCH   3   4
ENDBRANCH   2   3
ENDBRANCH   1   2
BRANCH   1   9
ATOM      9  C   UNL     1       5.125 -36.804  21.849  1.00  0.00     0.000 C 
BRANCH   9  10
ATOM     10  C   UNL     1       4.685 -38.269  21.960  1.00  0.00    -0.000 C 
BRANCH  10  11
ATOM     11  C   UNL     1       4.024 -38.546  23.318  1.00  0.00    -0.000 C 
BRANCH  11  12
ATOM     12  C   UNL     1       5.061 -38.803  24.431  1.00  0.00    -0.000 C 
BRANCH  12  13
ATOM     13  C   UNL     1       5.058 -37.731  25.535  1.00  0.00    -0.003 C 
ATOM     14  C   UNL     1       5.125 -36.308  24.986  1.00  0.00     0.004 C 
ENDBRANCH  12  13
ENDBRANCH  11  12
ENDBRANCH  10  11
ENDBRANCH   9  10
ENDBRANCH   1   9
TORSDOF 10
ENDMDL
MODEL 6
REMARK VINA RESULT:    -3.212      3.827      7.155
REMARK INTER + INTRA:          -5.557
REMARK INTER:                  -5.293
REMARK INTRA:                  -0.265
REMARK UNBOUND:                -0.468
REMARK SMILES CCCCCCCCCCCC(=O)[O-]
REMARK SMILES IDX 7 1 8 2 9 3 10 4 11 5 12 6 13 7 14 8 6 9 5 10 4 11 3 12 2 13
REMARK SMILES IDX 1 14
REMARK H PARENT
REMARK Flexibility Score: inf
ROOT
ATOM      1  C   UNL     1       3.928 -35.277  21.541  1.00  0.00     0.000 C 
ENDROOT
BRANCH   1   2
ATOM      2  C   UNL     1       5.057 -35.433  20.509  1.00  0.00     0.000 C 
BRANCH   2   3
ATOM      3  C   UNL     1       4.868 -36.666  19.609  1.00  0.00     0.000 C 
BRANCH   3   4
ATOM      4  C   UNL     1       4.189 -36.323  18.273  1.00  0.00     0.006 C 
BRANCH   4   5
ATOM      5  C   UNL     1       3.196 -37.400  17.819  1.00  0.00     0.053 C 
BRANCH   5   6
ATOM      6  C   UNL     1       2.612 -37.045  16.489  1.00  0.00     0.041 C 
ATOM      7  O   UNL     1       3.171 -37.428  15.428  1.00  0.00    -0.550 OA
ATOM      8  O   UNL     1       1.422 -36.332  16.420  1.00  0.00    -0.550 OA
ENDBRANCH   5   6
ENDBRANCH   4   5
ENDBRANCH   3   4
ENDBRANCH   2   3
ENDBRANCH   1   2
BRANCH   1   9
ATOM      9  C   UNL     1       4.369 -34.500  22.790  1.00  0.00     0.000 C 
BRANCH   9  10
ATOM     10  C   UNL     1       5.103 -35.417  23.777  1.00  0.00    -0.000 C 
BRANCH  10  11
ATOM     11  C   UNL     1       5.125 -36.867  23.272  1.00  0.00    -0.000 C 
BRANCH  11  12
ATOM     12  C   UNL     1       5.083 -37.889  24.427  1.00  0.00    -0.000 C 
BRANCH  12  13
ATOM     13  C   UNL     1       4.836 -39.335  23.962  1.00  0.00    -0.003 C 
ATOM     14  C   UNL     1       5.086 -39.533  22.469  1.00  0.00     0.004 C 
ENDBRANCH  12  13
ENDBRANCH  11  12
ENDBRANCH  10  11
ENDBRANCH   9  10
ENDBRANCH   1   9
TORSDOF 10
ENDMDL
MODEL 7
REMARK VINA RESULT:    -1.663      3.589      7.029
REMARK INTER + INTRA:          -3.103
REMARK INTER:                  -4.356
REMARK INTRA:                   1.253
REMARK UNBOUND:                -0.468
REMARK SMILES CCCCCCCCCCCC(=O)[O-]
REMARK SMILES IDX 7 1 8 2 9 3 10 4 11 5 12 6 13 7 14 8 6 9 5 10 4 11 3 12 2 13
REMARK SMILES IDX 1 14
REMARK H PARENT
REMARK Flexibility Score: inf
ROOT
ATOM      1  C   UNL     1       4.341 -38.049  21.878  1.00  0.00     0.000 C 
ENDROOT
BRANCH   1   2
ATOM      2  C   UNL     1       5.069 -38.249  20.539  1.00  0.00     0.000 C 
BRANCH   2   3
ATOM      3  C   UNL     1       4.794 -37.112  19.541  1.00  0.00     0.000 C 
BRANCH   3   4
ATOM      4  C   UNL     1       3.347 -37.122  19.020  1.00  0.00     0.006 C 
BRANCH   4   5
ATOM      5  C   UNL     1       3.264 -37.361  17.507  1.00  0.00     0.053 C 
BRANCH   5   6
ATOM      6  C   UNL     1       2.001 -36.779  16.955  1.00  0.00     0.041 C 
ATOM      7  O   UNL     1       0.926 -36.867  17.605  1.00  0.00    -0.550 OA
ATOM      8  O   UNL     1       2.020 -36.096  15.746  1.00  0.00    -0.550 OA
ENDBRANCH   5   6
ENDBRANCH   4   5
ENDBRANCH   3   4
ENDBRANCH   2   3
ENDBRANCH   1   2
BRANCH   1   9
ATOM      9  C   UNL     1       4.552 -39.221  22.849  1.00  0.00     0.000 C 
BRANCH   9  10
ATOM     10  C   UNL     1       5.119 -38.730  24.187  1.00  0.00    -0.000 C 
BRANCH  10  11
ATOM     11  C   UNL     1       4.758 -37.258  24.433  1.00  0.00    -0.000 C 
BRANCH  11  12
ATOM     12  C   UNL     1       5.125 -36.358  23.233  1.00  0.00    -0.000 C 
BRANCH  12  13
ATOM     13  C   UNL     1       4.829 -34.867  23.469  1.00  0.00    -0.003 C 
ATOM     14  C   UNL     1       4.111 -34.207  22.295  1.00  0.00     0.004 C 
ENDBRANCH  12  13
ENDBRANCH  11  12
ENDBRANCH  10  11
ENDBRANCH   9  10
ENDBRANCH   1   9
TORSDOF 10
ENDMDL
MODEL 8
REMARK VINA RESULT:    -1.580      2.816      6.578
REMARK INTER + INTRA:          -2.972
REMARK INTER:                  -2.951
REMARK INTRA:                  -0.021
REMARK UNBOUND:                -0.468
REMARK SMILES CCCCCCCCCCCC(=O)[O-]
REMARK SMILES IDX 7 1 8 2 9 3 10 4 11 5 12 6 13 7 14 8 6 9 5 10 4 11 3 12 2 13
REMARK SMILES IDX 1 14
REMARK H PARENT
REMARK Flexibility Score: inf
ROOT
ATOM      1  C   UNL     1       4.395 -36.290  18.717  1.00  0.00     0.000 C 
ENDROOT
BRANCH   1   2
ATOM      2  C   UNL     1       3.868 -35.306  17.661  1.00  0.00     0.000 C 
BRANCH   2   3
ATOM      3  C   UNL     1       3.470 -36.003  16.349  1.00  0.00     0.000 C 
BRANCH   3   4
ATOM      4  C   UNL     1       2.087 -36.672  16.432  1.00  0.00     0.006 C 
BRANCH   4   5
ATOM      5  C   UNL     1       2.089 -37.929  17.310  1.00  0.00     0.053 C 
BRANCH   5   6
ATOM      6  C   UNL     1       1.236 -37.721  18.521  1.00  0.00     0.041 C 
ATOM      7  O   UNL     1       1.752 -37.729  19.670  1.00  0.00    -0.550 OA
ATOM      8  O   UNL     1      -0.122 -37.470  18.380  1.00  0.00    -0.550 OA
ENDBRANCH   5   6
ENDBRANCH   4   5
ENDBRANCH   3   4
ENDBRANCH   2   3
ENDBRANCH   1   2
BRANCH   1   9
ATOM      9  C   UNL     1       5.069 -35.583  19.903  1.00  0.00     0.000 C 
BRANCH   9  10
ATOM     10  C   UNL     1       4.405 -35.979  21.228  1.00  0.00    -0.000 C 
BRANCH  10  11
ATOM     11  C   UNL     1       5.125 -37.173  21.871  1.00  0.00    -0.000 C 
BRANCH  11  12
ATOM     12  C   UNL     1       4.166 -38.348  22.157  1.00  0.00    -0.000 C 
BRANCH  12  13
ATOM     13  C   UNL     1       4.582 -39.202  23.368  1.00  0.00    -0.003 C 
ATOM     14  C   UNL     1       5.008 -38.364  24.571  1.00  0.00     0.004 C 
ENDBRANCH  12  13
ENDBRANCH  11  12
ENDBRANCH  10  11
ENDBRANCH   9  10
ENDBRANCH   1   9
TORSDOF 10
ENDMDL
