MODEL 1
REMARK VINA RESULT:    -6.410      0.000      0.000
REMARK INTER + INTRA:         -14.470
REMARK INTER:                 -12.030
REMARK INTRA:                  -2.439
REMARK UNBOUND:                -2.439
REMARK SMILES CCCCCCCCC=CCCCCCCCC(=O)[O-]
REMARK SMILES IDX 10 1 9 2 11 3 12 4 13 5 14 6 15 7 16 8 17 9 18 10 19 11
REMARK SMILES IDX 20 12 8 13 7 14 6 15 5 16 4 17 3 18 2 19 1 20
REMARK H PARENT
REMARK Flexibility Score: inf
ROOT
ATOM      1  C   UNL     1     104.803 104.936 109.640  1.00  0.00    -0.031 C 
ATOM      2  C   UNL     1     104.129 104.422 110.679  1.00  0.00    -0.031 C 
ENDROOT
BRANCH   1   3
ATOM      3  C   UNL     1     106.201 105.474 109.795  1.00  0.00     0.027 C 
BRANCH   3   4
ATOM      4  C   UNL     1     107.258 104.382 109.577  1.00  0.00     0.004 C 
BRANCH   4   5
ATOM      5  C   UNL     1     108.215 104.654 108.398  1.00  0.00     0.000 C 
BRANCH   5   6
ATOM      6  C   UNL     1     107.581 105.491 107.267  1.00  0.00     0.000 C 
BRANCH   6   7
ATOM      7  C   UNL     1     107.989 104.987 105.871  1.00  0.00     0.000 C 
BRANCH   7   8
ATOM      8  C   UNL     1     107.939 106.090 104.802  1.00  0.00     0.006 C 
BRANCH   8   9
ATOM      9  C   UNL     1     106.803 105.878 103.790  1.00  0.00     0.053 C 
BRANCH   9  10
ATOM     10  C   UNL     1     106.095 107.168 103.514  1.00  0.00     0.041 C 
ATOM     11  O   UNL     1     104.932 107.161 103.034  1.00  0.00    -0.550 OA
ATOM     12  O   UNL     1     106.709 108.377 103.815  1.00  0.00    -0.550 OA
ENDBRANCH   9  10
ENDBRANCH   8   9
ENDBRANCH   7   8
ENDBRANCH   6   7
ENDBRANCH   5   6
ENDBRANCH   4   5
ENDBRANCH   3   4
ENDBRANCH   1   3
BRANCH   2  13
ATOM     13  C   UNL     1     102.737 103.873 110.519  1.00  0.00     0.027 C 
BRANCH  13  14
ATOM     14  C   UNL     1     101.925 104.616 109.441  1.00  0.00     0.004 C 
BRANCH  14  15
ATOM     15  C   UNL     1     101.127 103.685 108.510  1.00  0.00     0.000 C 
BRANCH  15  16
ATOM     16  C   UNL     1     101.603 103.745 107.049  1.00  0.00     0.000 C 
BRANCH  16  17
ATOM     17  C   UNL     1     102.456 104.991 106.744  1.00  0.00    -0.000 C 
BRANCH  17  18
ATOM     18  C   UNL     1     103.882 104.703 106.239  1.00  0.00    -0.000 C 
BRANCH  18  19
ATOM     19  C   UNL     1     104.128 103.215 105.947  1.00  0.00    -0.003 C 
ATOM     20  C   UNL     1     105.187 102.638 106.883  1.00  0.00     0.004 C 
ENDBRANCH  18  19
ENDBRANCH  17  18
ENDBRANCH  16  17
ENDBRANCH  15  16
ENDBRANCH  14  15
ENDBRANCH  13  14
ENDBRANCH   2  13
TORSDOF 15
ENDMDL
MODEL 2
REMARK VINA RESULT:    -6.372      2.641      3.446
REMARK INTER + INTRA:         -14.399
REMARK INTER:                 -12.563
REMARK INTRA:                  -1.836
REMARK UNBOUND:                -2.439
REMARK SMILES CCCCCCCCC=CCCCCCCCC(=O)[O-]
REMARK SMILES IDX 10 1 9 2 11 3 12 4 13 5 14 6 15 7 16 8 17 9 18 10 19 11
REMARK SMILES IDX 20 12 8 13 7 14 6 15 5 16 4 17 3 18 2 19 1 20
REMARK H PARENT
REMARK Flexibility Score: inf
ROOT
ATOM      1  C   UNL     1     104.674 104.545 109.764  1.00  0.00    -0.031 C 
ATOM      2  C   UNL     1     103.765 103.925 110.531  1.00  0.00    -0.031 C 
ENDROOT
BRANCH   1   3
ATOM      3  C   UNL     1     106.018 104.953 110.307  1.00  0.00     0.027 C 
BRANCH   3   4
ATOM      4  C   UNL     1     107.169 104.301 109.528  1.00  0.00     0.004 C 
BRANCH   4   5
ATOM      5  C   UNL     1     107.993 105.285 108.673  1.00  0.00     0.000 C 
BRANCH   5   6
ATOM      6  C   UNL     1     107.998 104.943 107.168  1.00  0.00     0.000 C 
BRANCH   6   7
ATOM      7  C   UNL     1     106.581 104.674 106.628  1.00  0.00     0.000 C 
BRANCH   7   8
ATOM      8  C   UNL     1     106.538 103.512 105.623  1.00  0.00     0.006 C 
BRANCH   8   9
ATOM      9  C   UNL     1     105.481 102.458 105.986  1.00  0.00     0.053 C 
BRANCH   9  10
ATOM     10  C   UNL     1     105.525 101.315 105.021  1.00  0.00     0.041 C 
ATOM     11  O   UNL     1     106.627 100.910 104.569  1.00  0.00    -0.550 OA
ATOM     12  O   UNL     1     104.350 100.677 104.644  1.00  0.00    -0.550 OA
ENDBRANCH   9  10
ENDBRANCH   8   9
ENDBRANCH   7   8
ENDBRANCH   6   7
ENDBRANCH   5   6
ENDBRANCH   4   5
ENDBRANCH   3   4
ENDBRANCH   1   3
BRANCH   2  13
ATOM     13  C   UNL     1     102.428 103.505 109.982  1.00  0.00     0.027 C 
BRANCH  13  14
ATOM     14  C   UNL     1     101.674 104.665 109.303  1.00  0.00     0.004 C 
BRANCH  14  15
ATOM     15  C   UNL     1     100.679 104.211 108.219  1.00  0.00     0.000 C 
BRANCH  15  16
ATOM     16  C   UNL     1     101.335 104.027 106.840  1.00  0.00     0.000 C 
BRANCH  16  17
ATOM     17  C   UNL     1     102.689 104.751 106.716  1.00  0.00    -0.000 C 
BRANCH  17  18
ATOM     18  C   UNL     1     102.914 105.500 105.389  1.00  0.00    -0.000 C 
BRANCH  18  19
ATOM     19  C   UNL     1     103.224 106.992 105.586  1.00  0.00    -0.003 C 
ATOM     20  C   UNL     1     102.631 107.831 104.456  1.00  0.00     0.004 C 
ENDBRANCH  18  19
ENDBRANCH  17  18
ENDBRANCH  16  17
ENDBRANCH  15  16
ENDBRANCH  14  15
ENDBRANCH  13  14
ENDBRANCH   2  13
TORSDOF 15
ENDMDL
MODEL 3
REMARK VINA RESULT:    -6.321      5.212      7.761
REMARK INTER + INTRA:         -14.304
REMARK INTER:                 -13.440
REMARK INTRA:                  -0.863
REMARK UNBOUND:                -2.439
REMARK SMILES CCCCCCCCC=CCCCCCCCC(=O)[O-]
REMARK SMILES IDX 10 1 9 2 11 3 12 4 13 5 14 6 15 7 16 8 17 9 18 10 19 11
REMARK SMILES IDX 20 12 8 13 7 14 6 15 5 16 4 17 3 18 2 19 1 20
REMARK H PARENT
REMARK Flexibility Score: inf
ROOT
ATOM      1  C   UNL     1     101.352 102.123 104.805  1.00  0.00    -0.031 C 
ATOM      2  C   UNL     1     102.530 101.890 104.209  1.00  0.00    -0.031 C 
ENDROOT
BRANCH   1   3
ATOM      3  C   UNL     1     100.833 103.522 105.008  1.00  0.00     0.027 C 
BRANCH   3   4
ATOM      4  C   UNL     1     101.551 104.233 106.164  1.00  0.00     0.004 C 
BRANCH   4   5
ATOM      5  C   UNL     1     100.768 104.227 107.494  1.00  0.00     0.000 C 
BRANCH   5   6
ATOM      6  C   UNL     1     101.471 103.440 108.621  1.00  0.00     0.000 C 
BRANCH   6   7
ATOM      7  C   UNL     1     101.952 104.359 109.759  1.00  0.00     0.000 C 
BRANCH   7   8
ATOM      8  C   UNL     1     103.202 103.819 110.472  1.00  0.00     0.006 C 
BRANCH   8   9
ATOM      9  C   UNL     1     104.477 104.586 110.089  1.00  0.00     0.053 C 
BRANCH   9  10
ATOM     10  C   UNL     1     104.890 104.256 108.689  1.00  0.00     0.041 C 
ATOM     11  O   UNL     1     105.061 103.058 108.345  1.00  0.00    -0.550 OA
ATOM     12  O   UNL     1     105.059 105.271 107.756  1.00  0.00    -0.550 OA
ENDBRANCH   9  10
ENDBRANCH   8   9
ENDBRANCH   7   8
ENDBRANCH   6   7
ENDBRANCH   5   6
ENDBRANCH   4   5
ENDBRANCH   3   4
ENDBRANCH   1   3
BRANCH   2  13
ATOM     13  C   UNL     1     103.040 100.490 103.995  1.00  0.00     0.027 C 
BRANCH  13  14
ATOM     14  C   UNL     1     102.635  99.913 102.624  1.00  0.00     0.004 C 
BRANCH  14  15
ATOM     15  C   UNL     1     102.924 100.854 101.441  1.00  0.00     0.000 C 
BRANCH  15  16
ATOM     16  C   UNL     1     102.690 100.191 100.074  1.00  0.00     0.000 C 
BRANCH  16  17
ATOM     17  C   UNL     1     103.912 100.287  99.142  1.00  0.00    -0.000 C 
BRANCH  17  18
ATOM     18  C   UNL     1     103.652  99.896  97.675  1.00  0.00    -0.000 C 
BRANCH  18  19
ATOM     19  C   UNL     1     104.243  98.527  97.303  1.00  0.00    -0.003 C 
ATOM     20  C   UNL     1     103.192  97.425  97.415  1.00  0.00     0.004 C 
ENDBRANCH  18  19
ENDBRANCH  17  18
ENDBRANCH  16  17
ENDBRANCH  15  16
ENDBRANCH  14  15
ENDBRANCH  13  14
ENDBRANCH   2  13
TORSDOF 15
ENDMDL
MODEL 4
REMARK VINA RESULT:    -6.316      2.523      5.390
REMARK INTER + INTRA:         -14.295
REMARK INTER:                 -12.515
REMARK INTRA:                  -1.780
REMARK UNBOUND:                -2.439
REMARK SMILES CCCCCCCCC=CCCCCCCCC(=O)[O-]
REMARK SMILES IDX 10 1 9 2 11 3 12 4 13 5 14 6 15 7 16 8 17 9 18 10 19 11
REMARK SMILES IDX 20 12 8 13 7 14 6 15 5 16 4 17 3 18 2 19 1 20
REMARK H PARENT
REMARK Flexibility Score: inf
ROOT
ATOM      1  C   UNL     1     104.153 104.304 109.928  1.00  0.00    -0.031 C 
ATOM      2  C   UNL     1     105.050 104.653 110.862  1.00  0.00    -0.031 C 
ENDROOT
BRANCH   1   3
ATOM      3  C   UNL     1     102.756 103.877 110.295  1.00  0.00     0.027 C 
BRANCH   3   4
ATOM      4  C   UNL     1     101.696 104.681 109.530  1.00  0.00     0.004 C 
BRANCH   4   5
ATOM      5  C   UNL     1     101.094 103.941 108.317  1.00  0.00     0.000 C 
BRANCH   5   6
ATOM      6  C   UNL     1     101.828 104.231 106.990  1.00  0.00     0.000 C 
BRANCH   6   7
ATOM      7  C   UNL     1     100.898 104.096 105.770  1.00  0.00     0.000 C 
BRANCH   7   8
ATOM      8  C   UNL     1     101.166 102.820 104.957  1.00  0.00     0.006 C 
BRANCH   8   9
ATOM      9  C   UNL     1     102.227 103.029 103.866  1.00  0.00     0.053 C 
BRANCH   9  10
ATOM     10  C   UNL     1     102.817 101.719 103.447  1.00  0.00     0.041 C 
ATOM     11  O   UNL     1     102.366 100.642 103.917  1.00  0.00    -0.550 OA
ATOM     12  O   UNL     1     103.845 101.686 102.514  1.00  0.00    -0.550 OA
ENDBRANCH   9  10
ENDBRANCH   8   9
ENDBRANCH   7   8
ENDBRANCH   6   7
ENDBRANCH   5   6
ENDBRANCH   4   5
ENDBRANCH   3   4
ENDBRANCH   1   3
BRANCH   2  13
ATOM     13  C   UNL     1     106.440 105.092 110.491  1.00  0.00     0.027 C 
BRANCH  13  14
ATOM     14  C   UNL     1     106.985 104.358 109.250  1.00  0.00     0.004 C 
BRANCH  14  15
ATOM     15  C   UNL     1     108.119 105.109 108.529  1.00  0.00     0.000 C 
BRANCH  15  16
ATOM     16  C   UNL     1     108.048 104.979 106.998  1.00  0.00     0.000 C 
BRANCH  16  17
ATOM     17  C   UNL     1     106.640 104.617 106.490  1.00  0.00    -0.000 C 
BRANCH  17  18
ATOM     18  C   UNL     1     106.604 103.714 105.243  1.00  0.00    -0.000 C 
BRANCH  18  19
ATOM     19  C   UNL     1     105.828 102.407 105.469  1.00  0.00    -0.003 C 
ATOM     20  C   UNL     1     105.044 102.453 106.779  1.00  0.00     0.004 C 
ENDBRANCH  18  19
ENDBRANCH  17  18
ENDBRANCH  16  17
ENDBRANCH  15  16
ENDBRANCH  14  15
ENDBRANCH  13  14
ENDBRANCH   2  13
TORSDOF 15
ENDMDL
MODEL 5
REMARK VINA RESULT:    -6.297      2.335      5.378
REMARK INTER + INTRA:         -14.258
REMARK INTER:                 -12.431
REMARK INTRA:                  -1.827
REMARK UNBOUND:                -2.439
REMARK SMILES CCCCCCCCC=CCCCCCCCC(=O)[O-]
REMARK SMILES IDX 10 1 9 2 11 3 12 4 13 5 14 6 15 7 16 8 17 9 18 10 19 11
REMARK SMILES IDX 20 12 8 13 7 14 6 15 5 16 4 17 3 18 2 19 1 20
REMARK H PARENT
REMARK Flexibility Score: inf
ROOT
ATOM      1  C   UNL     1     105.608 104.729 109.446  1.00  0.00    -0.031 C 
ATOM      2  C   UNL     1     106.922 104.616 109.688  1.00  0.00    -0.031 C 
ENDROOT
BRANCH   1   3
ATOM      3  C   UNL     1     104.586 104.561 110.539  1.00  0.00     0.027 C 
BRANCH   3   4
ATOM      4  C   UNL     1     103.386 103.725 110.074  1.00  0.00     0.004 C 
BRANCH   4   5
ATOM      5  C   UNL     1     102.198 104.559 109.553  1.00  0.00     0.000 C 
BRANCH   5   6
ATOM      6  C   UNL     1     101.110 103.715 108.854  1.00  0.00     0.000 C 
BRANCH   6   7
ATOM      7  C   UNL     1     100.947 104.090 107.369  1.00  0.00     0.000 C 
BRANCH   7   8
ATOM      8  C   UNL     1     101.800 103.214 106.438  1.00  0.00     0.006 C 
BRANCH   8   9
ATOM      9  C   UNL     1     101.372 103.326 104.968  1.00  0.00     0.053 C 
BRANCH   9  10
ATOM     10  C   UNL     1     102.118 102.341 104.124  1.00  0.00     0.041 C 
ATOM     11  O   UNL     1     102.102 101.117 104.416  1.00  0.00    -0.550 OA
ATOM     12  O   UNL     1     102.809 102.771 102.998  1.00  0.00    -0.550 OA
ENDBRANCH   9  10
ENDBRANCH   8   9
ENDBRANCH   7   8
ENDBRANCH   6   7
ENDBRANCH   5   6
ENDBRANCH   4   5
ENDBRANCH   3   4
ENDBRANCH   1   3
BRANCH   2  13
ATOM     13  C   UNL     1     107.941 104.797 108.596  1.00  0.00     0.027 C 
BRANCH  13  14
ATOM     14  C   UNL     1     107.339 105.408 107.316  1.00  0.00     0.004 C 
BRANCH  14  15
ATOM     15  C   UNL     1     107.960 104.866 106.015  1.00  0.00     0.000 C 
BRANCH  15  16
ATOM     16  C   UNL     1     107.003 103.958 105.225  1.00  0.00     0.000 C 
BRANCH  16  17
ATOM     17  C   UNL     1     105.687 103.674 105.974  1.00  0.00    -0.000 C 
BRANCH  17  18
ATOM     18  C   UNL     1     105.352 102.184 106.171  1.00  0.00    -0.000 C 
BRANCH  18  19
ATOM     19  C   UNL     1     105.816 101.304 105.000  1.00  0.00    -0.003 C 
ATOM     20  C   UNL     1     105.712  99.821 105.352  1.00  0.00     0.004 C 
ENDBRANCH  18  19
ENDBRANCH  17  18
ENDBRANCH  16  17
ENDBRANCH  15  16
ENDBRANCH  14  15
ENDBRANCH  13  14
ENDBRANCH   2  13
TORSDOF 15
ENDMDL
MODEL 6
REMARK VINA RESULT:    -6.277      1.566      4.696
REMARK INTER + INTRA:         -14.220
REMARK INTER:                 -12.130
REMARK INTRA:                  -2.089
REMARK UNBOUND:                -2.439
REMARK SMILES CCCCCCCCC=CCCCCCCCC(=O)[O-]
REMARK SMILES IDX 10 1 9 2 11 3 12 4 13 5 14 6 15 7 16 8 17 9 18 10 19 11
REMARK SMILES IDX 20 12 8 13 7 14 6 15 5 16 4 17 3 18 2 19 1 20
REMARK H PARENT
REMARK Flexibility Score: inf
ROOT
ATOM      1  C   UNL     1     104.199 104.442 109.860  1.00  0.00    -0.031 C 
ATOM      2  C   UNL     1     105.132 104.786 110.760  1.00  0.00    -0.031 C 
ENDROOT
BRANCH   1   3
ATOM      3  C   UNL     1     102.818 104.010 110.280  1.00  0.00     0.027 C 
BRANCH   3   4
ATOM      4  C   UNL     1     101.730 104.681 109.431  1.00  0.00     0.004 C 
BRANCH   4   5
ATOM      5  C   UNL     1     100.927 103.707 108.545  1.00  0.00     0.000 C 
BRANCH   5   6
ATOM      6  C   UNL     1     100.808 104.164 107.075  1.00  0.00     0.000 C 
BRANCH   6   7
ATOM      7  C   UNL     1     101.809 103.438 106.157  1.00  0.00     0.000 C 
BRANCH   7   8
ATOM      8  C   UNL     1     102.607 104.403 105.267  1.00  0.00     0.006 C 
BRANCH   8   9
ATOM      9  C   UNL     1     103.055 105.665 106.020  1.00  0.00     0.053 C 
BRANCH   9  10
ATOM     10  C   UNL     1     103.245 106.806 105.070  1.00  0.00     0.041 C 
ATOM     11  O   UNL     1     103.083 107.991 105.464  1.00  0.00    -0.550 OA
ATOM     12  O   UNL     1     103.629 106.563 103.758  1.00  0.00    -0.550 OA
ENDBRANCH   9  10
ENDBRANCH   8   9
ENDBRANCH   7   8
ENDBRANCH   6   7
ENDBRANCH   5   6
ENDBRANCH   4   5
ENDBRANCH   3   4
ENDBRANCH   1   3
BRANCH   2  13
ATOM     13  C   UNL     1     106.506 105.231 110.338  1.00  0.00     0.027 C 
BRANCH  13  14
ATOM     14  C   UNL     1     107.152 104.275 109.315  1.00  0.00     0.004 C 
BRANCH  14  15
ATOM     15  C   UNL     1     108.228 104.937 108.437  1.00  0.00     0.000 C 
BRANCH  15  16
ATOM     16  C   UNL     1     107.761 105.177 106.992  1.00  0.00     0.000 C 
BRANCH  16  17
ATOM     17  C   UNL     1     106.585 104.270 106.581  1.00  0.00    -0.000 C 
BRANCH  17  18
ATOM     18  C   UNL     1     106.496 103.951 105.077  1.00  0.00    -0.000 C 
BRANCH  18  19
ATOM     19  C   UNL     1     106.002 102.524 104.793  1.00  0.00    -0.003 C 
ATOM     20  C   UNL     1     105.331 101.919 106.025  1.00  0.00     0.004 C 
ENDBRANCH  18  19
ENDBRANCH  17  18
ENDBRANCH  16  17
ENDBRANCH  15  16
ENDBRANCH  14  15
ENDBRANCH  13  14
ENDBRANCH   2  13
TORSDOF 15
ENDMDL
MODEL 7
REMARK VINA RESULT:    -6.256      3.279      5.254
REMARK INTER + INTRA:         -14.181
REMARK INTER:                 -13.186
REMARK INTRA:                  -0.995
REMARK UNBOUND:                -2.439
REMARK SMILES CCCCCCCCC=CCCCCCCCC(=O)[O-]
REMARK SMILES IDX 10 1 9 2 11 3 12 4 13 5 14 6 15 7 16 8 17 9 18 10 19 11
REMARK SMILES IDX 20 12 8 13 7 14 6 15 5 16 4 17 3 18 2 19 1 20
REMARK H PARENT
REMARK Flexibility Score: inf
ROOT
ATOM      1  C   UNL     1     100.979 104.234 107.947  1.00  0.00    -0.031 C 
ATOM      2  C   UNL     1     101.614 104.041 106.782  1.00  0.00    -0.031 C 
ENDROOT
BRANCH   1   3
ATOM      3  C   UNL     1     101.731 104.542 109.216  1.00  0.00     0.027 C 
BRANCH   3   4
ATOM      4  C   UNL     1     102.718 103.423 109.577  1.00  0.00     0.004 C 
BRANCH   4   5
ATOM      5  C   UNL     1     104.201 103.843 109.512  1.00  0.00     0.000 C 
BRANCH   5   6
ATOM      6  C   UNL     1     104.666 104.660 110.737  1.00  0.00     0.000 C 
BRANCH   6   7
ATOM      7  C   UNL     1     106.130 105.120 110.607  1.00  0.00     0.000 C 
BRANCH   7   8
ATOM      8  C   UNL     1     106.910 104.327 109.547  1.00  0.00     0.006 C 
BRANCH   8   9
ATOM      9  C   UNL     1     107.833 105.220 108.703  1.00  0.00     0.053 C 
BRANCH   9  10
ATOM     10  C   UNL     1     107.419 105.197 107.265  1.00  0.00     0.041 C 
ATOM     11  O   UNL     1     108.231 104.821 106.380  1.00  0.00    -0.550 OA
ATOM     12  O   UNL     1     106.128 105.562 106.906  1.00  0.00    -0.550 OA
ENDBRANCH   9  10
ENDBRANCH   8   9
ENDBRANCH   7   8
ENDBRANCH   6   7
ENDBRANCH   5   6
ENDBRANCH   4   5
ENDBRANCH   3   4
ENDBRANCH   1   3
BRANCH   2  13
ATOM     13  C   UNL     1     100.860 103.748 105.514  1.00  0.00     0.027 C 
BRANCH  13  14
ATOM     14  C   UNL     1     101.283 102.416 104.864  1.00  0.00     0.004 C 
BRANCH  14  15
ATOM     15  C   UNL     1     102.119 102.586 103.583  1.00  0.00     0.000 C 
BRANCH  15  16
ATOM     16  C   UNL     1     103.276 101.578 103.482  1.00  0.00     0.000 C 
BRANCH  16  17
ATOM     17  C   UNL     1     102.796 100.133 103.251  1.00  0.00    -0.000 C 
BRANCH  17  18
ATOM     18  C   UNL     1     102.328  99.816 101.819  1.00  0.00    -0.000 C 
BRANCH  18  19
ATOM     19  C   UNL     1     103.157 100.537 100.743  1.00  0.00    -0.003 C 
ATOM     20  C   UNL     1     103.000  99.860  99.383  1.00  0.00     0.004 C 
ENDBRANCH  18  19
ENDBRANCH  17  18
ENDBRANCH  16  17
ENDBRANCH  15  16
ENDBRANCH  14  15
ENDBRANCH  13  14
ENDBRANCH   2  13
TORSDOF 15
ENDMDL
MODEL 8
REMARK VINA RESULT:    -6.244      1.292      2.781
REMARK INTER + INTRA:         -14.159
REMARK INTER:                 -12.056
REMARK INTRA:                  -2.103
REMARK UNBOUND:                -2.439
REMARK SMILES CCCCCCCCC=CCCCCCCCC(=O)[O-]
REMARK SMILES IDX 10 1 9 2 11 3 12 4 13 5 14 6 15 7 16 8 17 9 18 10 19 11
REMARK SMILES IDX 20 12 8 13 7 14 6 15 5 16 4 17 3 18 2 19 1 20
REMARK H PARENT
REMARK Flexibility Score: inf
ROOT
ATOM      1  C   UNL     1     102.497 104.417 109.333  1.00  0.00    -0.031 C 
ATOM      2  C   UNL     1     101.470 103.697 108.858  1.00  0.00    -0.031 C 
ENDROOT
BRANCH   1   3
ATOM      3  C   UNL     1     103.469 103.844 110.330  1.00  0.00     0.027 C 
BRANCH   3   4
ATOM      4  C   UNL     1     104.742 104.695 110.438  1.00  0.00     0.004 C 
BRANCH   4   5
ATOM      5  C   UNL     1     105.695 104.564 109.232  1.00  0.00     0.000 C 
BRANCH   5   6
ATOM      6  C   UNL     1     107.187 104.521 109.625  1.00  0.00     0.000 C 
BRANCH   6   7
ATOM      7  C   UNL     1     108.114 104.575 108.397  1.00  0.00     0.000 C 
BRANCH   7   8
ATOM      8  C   UNL     1     107.583 105.500 107.292  1.00  0.00     0.006 C 
BRANCH   8   9
ATOM      9  C   UNL     1     107.979 105.027 105.885  1.00  0.00     0.053 C 
BRANCH   9  10
ATOM     10  C   UNL     1     107.271 105.828 104.839  1.00  0.00     0.041 C 
ATOM     11  O   UNL     1     107.398 107.080 104.807  1.00  0.00    -0.550 OA
ATOM     12  O   UNL     1     106.493 105.190 103.882  1.00  0.00    -0.550 OA
ENDBRANCH   9  10
ENDBRANCH   8   9
ENDBRANCH   7   8
ENDBRANCH   6   7
ENDBRANCH   5   6
ENDBRANCH   4   5
ENDBRANCH   3   4
ENDBRANCH   1   3
BRANCH   2  13
ATOM     13  C   UNL     1     100.508 104.267 107.852  1.00  0.00     0.027 C 
BRANCH  13  14
ATOM     14  C   UNL     1     101.095 104.312 106.427  1.00  0.00     0.004 C 
BRANCH  14  15
ATOM     15  C   UNL     1     101.688 102.973 105.954  1.00  0.00     0.000 C 
BRANCH  15  16
ATOM     16  C   UNL     1     103.030 103.134 105.222  1.00  0.00     0.000 C 
BRANCH  16  17
ATOM     17  C   UNL     1     104.193 103.487 106.167  1.00  0.00    -0.000 C 
BRANCH  17  18
ATOM     18  C   UNL     1     105.252 102.384 106.346  1.00  0.00    -0.000 C 
BRANCH  18  19
ATOM     19  C   UNL     1     105.665 101.726 105.020  1.00  0.00    -0.003 C 
ATOM     20  C   UNL     1     105.908 100.229 105.201  1.00  0.00     0.004 C 
ENDBRANCH  18  19
ENDBRANCH  17  18
ENDBRANCH  16  17
ENDBRANCH  15  16
ENDBRANCH  14  15
ENDBRANCH  13  14
ENDBRANCH   2  13
TORSDOF 15
ENDMDL
MODEL 9
REMARK VINA RESULT:    -6.230      1.426      3.167
REMARK INTER + INTRA:         -14.133
REMARK INTER:                 -11.853
REMARK INTRA:                  -2.280
REMARK UNBOUND:                -2.439
REMARK SMILES CCCCCCCCC=CCCCCCCCC(=O)[O-]
REMARK SMILES IDX 10 1 9 2 11 3 12 4 13 5 14 6 15 7 16 8 17 9 18 10 19 11
REMARK SMILES IDX 20 12 8 13 7 14 6 15 5 16 4 17 3 18 2 19 1 20
REMARK H PARENT
REMARK Flexibility Score: inf
ROOT
ATOM      1  C   UNL     1     107.533 105.359 108.807  1.00  0.00    -0.031 C 
ATOM      2  C   UNL     1     106.872 104.576 109.672  1.00  0.00    -0.031 C 
ENDROOT
BRANCH   1   3
ATOM      3  C   UNL     1     108.374 104.780 107.701  1.00  0.00     0.027 C 
BRANCH   3   4
ATOM      4  C   UNL     1     107.583 104.652 106.392  1.00  0.00     0.004 C 
BRANCH   4   5
ATOM      5  C   UNL     1     106.481 105.717 106.212  1.00  0.00     0.000 C 
BRANCH   5   6
ATOM      6  C   UNL     1     105.049 105.149 106.315  1.00  0.00     0.000 C 
BRANCH   6   7
ATOM      7  C   UNL     1     104.030 106.217 106.754  1.00  0.00     0.000 C 
BRANCH   7   8
ATOM      8  C   UNL     1     103.383 106.944 105.566  1.00  0.00     0.006 C 
BRANCH   8   9
ATOM      9  C   UNL     1     103.719 106.288 104.219  1.00  0.00     0.053 C 
BRANCH   9  10
ATOM     10  C   UNL     1     104.382 107.269 103.304  1.00  0.00     0.041 C 
ATOM     11  O   UNL     1     104.152 107.236 102.067  1.00  0.00    -0.550 OA
ATOM     12  O   UNL     1     105.230 108.240 103.821  1.00  0.00    -0.550 OA
ENDBRANCH   9  10
ENDBRANCH   8   9
ENDBRANCH   7   8
ENDBRANCH   6   7
ENDBRANCH   5   6
ENDBRANCH   4   5
ENDBRANCH   3   4
ENDBRANCH   1   3
BRANCH   2  13
ATOM     13  C   UNL     1     106.022 105.157 110.768  1.00  0.00     0.027 C 
BRANCH  13  14
ATOM     14  C   UNL     1     104.575 104.627 110.744  1.00  0.00     0.004 C 
BRANCH  14  15
ATOM     15  C   UNL     1     104.248 103.764 109.512  1.00  0.00     0.000 C 
BRANCH  15  16
ATOM     16  C   UNL     1     102.790 103.275 109.490  1.00  0.00     0.000 C 
BRANCH  16  17
ATOM     17  C   UNL     1     101.774 104.419 109.315  1.00  0.00    -0.000 C 
BRANCH  17  18
ATOM     18  C   UNL     1     100.793 104.253 108.140  1.00  0.00    -0.000 C 
BRANCH  18  19
ATOM     19  C   UNL     1     101.414 103.525 106.937  1.00  0.00    -0.003 C 
ATOM     20  C   UNL     1     100.912 104.113 105.619  1.00  0.00     0.004 C 
ENDBRANCH  18  19
ENDBRANCH  17  18
ENDBRANCH  16  17
ENDBRANCH  15  16
ENDBRANCH  14  15
ENDBRANCH  13  14
ENDBRANCH   2  13
TORSDOF 15
ENDMDL
