MODEL 1
REMARK VINA RESULT:    -4.863      0.000      0.000
REMARK INTER + INTRA:          -5.148
REMARK INTER:                  -5.148
REMARK INTRA:                   0.000
REMARK UNBOUND:                 0.000
REMARK SMILES O=c1ccc2cc(O)c(O)cc2o1
REMARK SMILES IDX 4 1 3 2 2 3 1 4 13 5 12 6 11 7 9 8 7 9 6 10 5 11 8 12 10 14
REMARK H PARENT 8 13 10 15
REMARK Flexibility Score: inf
ROOT
ATOM      1  C   UNL     1      43.694  20.883  -5.121  1.00  0.00     0.019 A 
ATOM      2  C   UNL     1      44.359  20.075  -6.043  1.00  0.00     0.094 A 
ATOM      3  C   UNL     1      44.509  18.713  -5.765  1.00  0.00     0.336 A 
ATOM      4  O   UNL     1      45.106  17.967  -6.585  1.00  0.00    -0.246 OA
ATOM      5  O   UNL     1      44.025  18.198  -4.638  1.00  0.00    -0.423 OA
ATOM      6  C   UNL     1      43.384  18.934  -3.732  1.00  0.00     0.142 A 
ATOM      7  C   UNL     1      42.896  18.337  -2.565  1.00  0.00     0.098 A 
ATOM      8  C   UNL     1      42.222  19.103  -1.608  1.00  0.00     0.161 A 
ATOM      9  C   UNL     1      42.032  20.482  -1.818  1.00  0.00     0.158 A 
ATOM     10  C   UNL     1      42.521  21.085  -2.987  1.00  0.00     0.062 A 
ATOM     11  C   UNL     1      43.195  20.316  -3.945  1.00  0.00     0.022 A 
ENDROOT
BRANCH   9  12
ATOM     12  O   UNL     1      41.361  21.246  -0.865  1.00  0.00    -0.504 OA
ATOM     13  H   UNL     1      40.571  20.876  -0.348  1.00  0.00     0.293 HD
ENDBRANCH   9  12
BRANCH   8  14
ATOM     14  O   UNL     1      41.747  18.479  -0.454  1.00  0.00    -0.504 OA
ATOM     15  H   UNL     1      41.644  18.976   0.423  1.00  0.00     0.293 HD
ENDBRANCH   8  14
TORSDOF 2
ENDMDL
MODEL 2
REMARK VINA RESULT:    -4.765      1.285      2.318
REMARK INTER + INTRA:          -5.043
REMARK INTER:                  -5.043
REMARK INTRA:                   0.000
REMARK UNBOUND:                 0.000
REMARK SMILES O=c1ccc2cc(O)c(O)cc2o1
REMARK SMILES IDX 4 1 3 2 2 3 1 4 13 5 12 6 11 7 9 8 7 9 6 10 5 11 8 12 10 14
REMARK H PARENT 8 13 10 15
REMARK Flexibility Score: inf
ROOT
ATOM      1  C   UNL     1      44.093  18.359  -4.967  1.00  0.00     0.019 A 
ATOM      2  C   UNL     1      44.572  19.114  -6.037  1.00  0.00     0.094 A 
ATOM      3  C   UNL     1      44.378  20.499  -6.030  1.00  0.00     0.336 A 
ATOM      4  O   UNL     1      44.803  21.198  -6.987  1.00  0.00    -0.246 OA
ATOM      5  O   UNL     1      43.744  21.085  -5.017  1.00  0.00    -0.423 OA
ATOM      6  C   UNL     1      43.271  20.401  -3.977  1.00  0.00     0.142 A 
ATOM      7  C   UNL     1      42.614  21.072  -2.941  1.00  0.00     0.098 A 
ATOM      8  C   UNL     1      42.114  20.361  -1.844  1.00  0.00     0.161 A 
ATOM      9  C   UNL     1      42.272  18.964  -1.781  1.00  0.00     0.158 A 
ATOM     10  C   UNL     1      42.931  18.287  -2.819  1.00  0.00     0.062 A 
ATOM     11  C   UNL     1      43.432  19.001  -3.917  1.00  0.00     0.022 A 
ENDROOT
BRANCH   9  12
ATOM     12  O   UNL     1      41.774  18.255  -0.690  1.00  0.00    -0.504 OA
ATOM     13  H   UNL     1      41.267  17.385  -0.809  1.00  0.00     0.293 HD
ENDBRANCH   9  12
BRANCH   8  14
ATOM     14  O   UNL     1      41.463  21.058  -0.827  1.00  0.00    -0.504 OA
ATOM     15  H   UNL     1      40.620  21.593  -0.995  1.00  0.00     0.293 HD
ENDBRANCH   8  14
TORSDOF 2
ENDMDL
MODEL 3
REMARK VINA RESULT:    -4.315      7.664      9.287
REMARK INTER + INTRA:          -4.567
REMARK INTER:                  -4.567
REMARK INTRA:                   0.000
REMARK UNBOUND:                 0.000
REMARK SMILES O=c1ccc2cc(O)c(O)cc2o1
REMARK SMILES IDX 4 1 3 2 2 3 1 4 13 5 12 6 11 7 9 8 7 9 6 10 5 11 8 12 10 14
REMARK H PARENT 8 13 10 15
REMARK Flexibility Score: inf
ROOT
ATOM      1  C   UNL     1      51.976  15.793  -6.421  1.00  0.00     0.019 A 
ATOM      2  C   UNL     1      53.008  14.948  -6.825  1.00  0.00     0.094 A 
ATOM      3  C   UNL     1      52.964  13.600  -6.456  1.00  0.00     0.336 A 
ATOM      4  O   UNL     1      53.887  12.820  -6.810  1.00  0.00    -0.246 OA
ATOM      5  O   UNL     1      51.952  13.133  -5.730  1.00  0.00    -0.423 OA
ATOM      6  C   UNL     1      50.946  13.905  -5.324  1.00  0.00     0.142 A 
ATOM      7  C   UNL     1      49.908  13.359  -4.563  1.00  0.00     0.098 A 
ATOM      8  C   UNL     1      48.847  14.164  -4.132  1.00  0.00     0.161 A 
ATOM      9  C   UNL     1      48.823  15.531  -4.466  1.00  0.00     0.158 A 
ATOM     10  C   UNL     1      49.863  16.084  -5.229  1.00  0.00     0.062 A 
ATOM     11  C   UNL     1      50.924  15.276  -5.660  1.00  0.00     0.022 A 
ENDROOT
BRANCH   9  12
ATOM     12  O   UNL     1      47.767  16.334  -4.037  1.00  0.00    -0.504 OA
ATOM     13  H   UNL     1      47.500  16.382  -3.060  1.00  0.00     0.293 HD
ENDBRANCH   9  12
BRANCH   8  14
ATOM     14  O   UNL     1      47.827  13.589  -3.375  1.00  0.00    -0.504 OA
ATOM     15  H   UNL     1      47.590  12.607  -3.448  1.00  0.00     0.293 HD
ENDBRANCH   8  14
TORSDOF 2
ENDMDL
MODEL 4
REMARK VINA RESULT:    -4.233      6.700      9.239
REMARK INTER + INTRA:          -4.481
REMARK INTER:                  -4.481
REMARK INTRA:                   0.000
REMARK UNBOUND:                 0.000
REMARK SMILES O=c1ccc2cc(O)c(O)cc2o1
REMARK SMILES IDX 4 1 3 2 2 3 1 4 13 5 12 6 11 7 9 8 7 9 6 10 5 11 8 12 10 14
REMARK H PARENT 8 13 10 15
REMARK Flexibility Score: inf
ROOT
ATOM      1  C   UNL     1      48.174  16.448  -5.195  1.00  0.00     0.019 A 
ATOM      2  C   UNL     1      47.267  15.706  -4.438  1.00  0.00     0.094 A 
ATOM      3  C   UNL     1      47.669  14.471  -3.919  1.00  0.00     0.336 A 
ATOM      4  O   UNL     1      46.865  13.787  -3.234  1.00  0.00    -0.246 OA
ATOM      5  O   UNL     1      48.897  14.013  -4.145  1.00  0.00    -0.423 OA
ATOM      6  C   UNL     1      49.793  14.689  -4.862  1.00  0.00     0.142 A 
ATOM      7  C   UNL     1      51.070  14.157  -5.066  1.00  0.00     0.098 A 
ATOM      8  C   UNL     1      52.018  14.861  -5.818  1.00  0.00     0.161 A 
ATOM      9  C   UNL     1      51.686  16.112  -6.372  1.00  0.00     0.158 A 
ATOM     10  C   UNL     1      50.405  16.649  -6.170  1.00  0.00     0.062 A 
ATOM     11  C   UNL     1      49.458  15.943  -5.416  1.00  0.00     0.022 A 
ENDROOT
BRANCH   9  12
ATOM     12  O   UNL     1      52.628  16.814  -7.122  1.00  0.00    -0.504 OA
ATOM     13  H   UNL     1      53.499  17.134  -6.713  1.00  0.00     0.293 HD
ENDBRANCH   9  12
BRANCH   8  14
ATOM     14  O   UNL     1      53.282  14.304  -6.004  1.00  0.00    -0.504 OA
ATOM     15  H   UNL     1      54.132  14.834  -5.848  1.00  0.00     0.293 HD
ENDBRANCH   8  14
TORSDOF 2
ENDMDL
MODEL 5
REMARK VINA RESULT:    -4.228      2.100      3.193
REMARK INTER + INTRA:          -4.475
REMARK INTER:                  -4.475
REMARK INTRA:                   0.000
REMARK UNBOUND:                 0.000
REMARK SMILES O=c1ccc2cc(O)c(O)cc2o1
REMARK SMILES IDX 4 1 3 2 2 3 1 4 13 5 12 6 11 7 9 8 7 9 6 10 5 11 8 12 10 14
REMARK H PARENT 8 13 10 15
REMARK Flexibility Score: inf
ROOT
ATOM      1  C   UNL     1      41.843  20.089  -3.327  1.00  0.00     0.019 A 
ATOM      2  C   UNL     1      42.555  20.930  -4.182  1.00  0.00     0.094 A 
ATOM      3  C   UNL     1      43.669  20.423  -4.859  1.00  0.00     0.336 A 
ATOM      4  O   UNL     1      44.325  21.167  -5.635  1.00  0.00    -0.246 OA
ATOM      5  O   UNL     1      44.042  19.157  -4.689  1.00  0.00    -0.423 OA
ATOM      6  C   UNL     1      43.391  18.321  -3.884  1.00  0.00     0.142 A 
ATOM      7  C   UNL     1      43.829  17.001  -3.745  1.00  0.00     0.098 A 
ATOM      8  C   UNL     1      43.150  16.115  -2.901  1.00  0.00     0.161 A 
ATOM      9  C   UNL     1      42.019  16.553  -2.186  1.00  0.00     0.158 A 
ATOM     10  C   UNL     1      41.576  17.878  -2.322  1.00  0.00     0.062 A 
ATOM     11  C   UNL     1      42.257  18.763  -3.168  1.00  0.00     0.022 A 
ENDROOT
BRANCH   9  12
ATOM     12  O   UNL     1      41.342  15.673  -1.344  1.00  0.00    -0.504 OA
ATOM     13  H   UNL     1      41.832  15.127  -0.643  1.00  0.00     0.293 HD
ENDBRANCH   9  12
BRANCH   8  14
ATOM     14  O   UNL     1      43.611  14.804  -2.784  1.00  0.00    -0.504 OA
ATOM     15  H   UNL     1      44.490  14.582  -2.331  1.00  0.00     0.293 HD
ENDBRANCH   8  14
TORSDOF 2
ENDMDL
MODEL 6
REMARK VINA RESULT:    -4.175      6.973      9.749
REMARK INTER + INTRA:          -4.419
REMARK INTER:                  -4.419
REMARK INTRA:                   0.000
REMARK UNBOUND:                 0.000
REMARK SMILES O=c1ccc2cc(O)c(O)cc2o1
REMARK SMILES IDX 4 1 3 2 2 3 1 4 13 5 12 6 11 7 9 8 7 9 6 10 5 11 8 12 10 14
REMARK H PARENT 8 13 10 15
REMARK Flexibility Score: inf
ROOT
ATOM      1  C   UNL     1      49.260  13.592  -4.279  1.00  0.00     0.019 A 
ATOM      2  C   UNL     1      48.003  14.114  -3.976  1.00  0.00     0.094 A 
ATOM      3  C   UNL     1      47.690  15.413  -4.392  1.00  0.00     0.336 A 
ATOM      4  O   UNL     1      46.561  15.902  -4.128  1.00  0.00    -0.246 OA
ATOM      5  O   UNL     1      48.581  16.137  -5.065  1.00  0.00    -0.423 OA
ATOM      6  C   UNL     1      49.791  15.676  -5.375  1.00  0.00     0.142 A 
ATOM      7  C   UNL     1      50.684  16.483  -6.086  1.00  0.00     0.098 A 
ATOM      8  C   UNL     1      51.959  16.007  -6.416  1.00  0.00     0.161 A 
ATOM      9  C   UNL     1      52.345  14.709  -6.031  1.00  0.00     0.158 A 
ATOM     10  C   UNL     1      51.451  13.896  -5.317  1.00  0.00     0.062 A 
ATOM     11  C   UNL     1      50.175  14.375  -4.988  1.00  0.00     0.022 A 
ENDROOT
BRANCH   9  12
ATOM     12  O   UNL     1      53.614  14.234  -6.358  1.00  0.00    -0.504 OA
ATOM     13  H   UNL     1      54.281  13.966  -5.642  1.00  0.00     0.293 HD
ENDBRANCH   9  12
BRANCH   8  14
ATOM     14  O   UNL     1      52.828  16.836  -7.125  1.00  0.00    -0.504 OA
ATOM     15  H   UNL     1      52.686  17.051  -8.105  1.00  0.00     0.293 HD
ENDBRANCH   8  14
TORSDOF 2
ENDMDL
MODEL 7
REMARK VINA RESULT:    -4.101      5.885      7.821
REMARK INTER + INTRA:          -4.341
REMARK INTER:                  -4.341
REMARK INTRA:                   0.000
REMARK UNBOUND:                 0.000
REMARK SMILES O=c1ccc2cc(O)c(O)cc2o1
REMARK SMILES IDX 4 1 3 2 2 3 1 4 13 5 12 6 11 7 9 8 7 9 6 10 5 11 8 12 10 14
REMARK H PARENT 8 13 10 15
REMARK Flexibility Score: inf
ROOT
ATOM      1  C   UNL     1      46.828  16.270  -4.511  1.00  0.00     0.019 A 
ATOM      2  C   UNL     1      45.508  16.410  -4.081  1.00  0.00     0.094 A 
ATOM      3  C   UNL     1      44.941  15.400  -3.297  1.00  0.00     0.336 A 
ATOM      4  O   UNL     1      43.751  15.507  -2.899  1.00  0.00    -0.246 OA
ATOM      5  O   UNL     1      45.650  14.324  -2.968  1.00  0.00    -0.423 OA
ATOM      6  C   UNL     1      46.912  14.152  -3.357  1.00  0.00     0.142 A 
ATOM      7  C   UNL     1      47.608  13.000  -2.979  1.00  0.00     0.098 A 
ATOM      8  C   UNL     1      48.935  12.811  -3.384  1.00  0.00     0.161 A 
ATOM      9  C   UNL     1      49.574  13.785  -4.175  1.00  0.00     0.158 A 
ATOM     10  C   UNL     1      48.878  14.942  -4.556  1.00  0.00     0.062 A 
ATOM     11  C   UNL     1      47.550  15.130  -4.150  1.00  0.00     0.022 A 
ENDROOT
BRANCH   9  12
ATOM     12  O   UNL     1      50.894  13.598  -4.579  1.00  0.00    -0.504 OA
ATOM     13  H   UNL     1      51.294  14.126  -5.346  1.00  0.00     0.293 HD
ENDBRANCH   9  12
BRANCH   8  14
ATOM     14  O   UNL     1      49.603  11.651  -2.992  1.00  0.00    -0.504 OA
ATOM     15  H   UNL     1      49.374  11.162  -2.135  1.00  0.00     0.293 HD
ENDBRANCH   8  14
TORSDOF 2
ENDMDL
MODEL 8
REMARK VINA RESULT:    -4.070      1.852      4.538
REMARK INTER + INTRA:          -4.308
REMARK INTER:                  -4.308
REMARK INTRA:                   0.000
REMARK UNBOUND:                 0.000
REMARK SMILES O=c1ccc2cc(O)c(O)cc2o1
REMARK SMILES IDX 4 1 3 2 2 3 1 4 13 5 12 6 11 7 9 8 7 9 6 10 5 11 8 12 10 14
REMARK H PARENT 8 13 10 15
REMARK Flexibility Score: inf
ROOT
ATOM      1  C   UNL     1      43.154  20.098  -3.374  1.00  0.00     0.019 A 
ATOM      2  C   UNL     1      42.355  20.834  -2.500  1.00  0.00     0.094 A 
ATOM      3  C   UNL     1      41.572  20.153  -1.561  1.00  0.00     0.336 A 
ATOM      4  O   UNL     1      40.843  20.799  -0.764  1.00  0.00    -0.246 OA
ATOM      5  O   UNL     1      41.591  18.824  -1.506  1.00  0.00    -0.423 OA
ATOM      6  C   UNL     1      42.340  18.084  -2.321  1.00  0.00     0.142 A 
ATOM      7  C   UNL     1      42.319  16.690  -2.215  1.00  0.00     0.098 A 
ATOM      8  C   UNL     1      43.103  15.904  -3.068  1.00  0.00     0.161 A 
ATOM      9  C   UNL     1      43.917  16.519  -4.038  1.00  0.00     0.158 A 
ATOM     10  C   UNL     1      43.941  17.918  -4.148  1.00  0.00     0.062 A 
ATOM     11  C   UNL     1      43.155  18.702  -3.292  1.00  0.00     0.022 A 
ENDROOT
BRANCH   9  12
ATOM     12  O   UNL     1      44.698  15.738  -4.889  1.00  0.00    -0.504 OA
ATOM     13  H   UNL     1      45.676  15.557  -4.694  1.00  0.00     0.293 HD
ENDBRANCH   9  12
BRANCH   8  14
ATOM     14  O   UNL     1      43.061  14.516  -2.938  1.00  0.00    -0.504 OA
ATOM     15  H   UNL     1      43.822  13.924  -3.247  1.00  0.00     0.293 HD
ENDBRANCH   8  14
TORSDOF 2
ENDMDL
MODEL 9
REMARK VINA RESULT:    -3.997      6.627      8.390
REMARK INTER + INTRA:          -4.231
REMARK INTER:                  -4.231
REMARK INTRA:                   0.000
REMARK UNBOUND:                 0.000
REMARK SMILES O=c1ccc2cc(O)c(O)cc2o1
REMARK SMILES IDX 4 1 3 2 2 3 1 4 13 5 12 6 11 7 9 8 7 9 6 10 5 11 8 12 10 14
REMARK H PARENT 8 13 10 15
REMARK Flexibility Score: inf
ROOT
ATOM      1  C   UNL     1      51.133  13.526  -5.280  1.00  0.00     0.019 A 
ATOM      2  C   UNL     1      52.044  14.238  -6.059  1.00  0.00     0.094 A 
ATOM      3  C   UNL     1      51.747  15.559  -6.410  1.00  0.00     0.336 A 
ATOM      4  O   UNL     1      52.556  16.219  -7.113  1.00  0.00    -0.246 OA
ATOM      5  O   UNL     1      50.613  16.125  -6.005  1.00  0.00    -0.423 OA
ATOM      6  C   UNL     1      49.718  15.481  -5.260  1.00  0.00     0.142 A 
ATOM      7  C   UNL     1      48.543  16.128  -4.863  1.00  0.00     0.098 A 
ATOM      8  C   UNL     1      47.597  15.458  -4.080  1.00  0.00     0.161 A 
ATOM      9  C   UNL     1      47.826  14.125  -3.688  1.00  0.00     0.158 A 
ATOM     10  C   UNL     1      49.003  13.472  -4.084  1.00  0.00     0.062 A 
ATOM     11  C   UNL     1      49.950  14.145  -4.868  1.00  0.00     0.022 A 
ENDROOT
BRANCH   9  12
ATOM     12  O   UNL     1      46.884  13.456  -2.908  1.00  0.00    -0.504 OA
ATOM     13  H   UNL     1      46.631  13.785  -1.983  1.00  0.00     0.293 HD
ENDBRANCH   9  12
BRANCH   8  14
ATOM     14  O   UNL     1      46.435  16.130  -3.701  1.00  0.00    -0.504 OA
ATOM     15  H   UNL     1      45.905  16.697  -4.351  1.00  0.00     0.293 HD
ENDBRANCH   8  14
TORSDOF 2
ENDMDL
