MODEL 1
REMARK VINA RESULT:    21.052      0.000      0.000
REMARK INTER + INTRA:          44.978
REMARK INTER:                  45.667
REMARK INTRA:                  -0.688
REMARK UNBOUND:                -0.688
REMARK SMILES CCCCCCCCCCCCCCCCCCCCCC(=O)[O-]
REMARK SMILES IDX 12 1 11 2 10 3 9 4 8 5 7 6 6 7 5 8 4 9 3 10 2 11 1 12 13 13
REMARK SMILES IDX 14 14 15 15 16 16 17 17 18 18 19 19 20 20 21 21 22 22 23 23
REMARK SMILES IDX 24 24
REMARK H PARENT
REMARK Flexibility Score: inf
ROOT
ATOM      1  C   UNL     1      -8.784  14.226 -19.865  1.00  0.00     0.000 C 
ENDROOT
BRANCH   1   2
ATOM      2  C   UNL     1      -8.926  13.636 -18.451  1.00  0.00     0.000 C 
BRANCH   2   3
ATOM      3  C   UNL     1      -9.655  14.587 -17.488  1.00  0.00     0.000 C 
BRANCH   3   4
ATOM      4  C   UNL     1      -9.127  16.028 -17.571  1.00  0.00    -0.000 C 
BRANCH   4   5
ATOM      5  C   UNL     1     -10.187  16.964 -18.172  1.00  0.00    -0.000 C 
BRANCH   5   6
ATOM      6  C   UNL     1     -10.288  18.300 -17.414  1.00  0.00    -0.000 C 
BRANCH   6   7
ATOM      7  C   UNL     1      -8.954  19.073 -17.339  1.00  0.00    -0.000 C 
BRANCH   7   8
ATOM      8  C   UNL     1      -8.124  18.780 -16.072  1.00  0.00    -0.000 C 
BRANCH   8   9
ATOM      9  C   UNL     1      -6.825  19.605 -15.968  1.00  0.00    -0.000 C 
BRANCH   9  10
ATOM     10  C   UNL     1      -6.777  20.463 -14.692  1.00  0.00    -0.000 C 
BRANCH  10  11
ATOM     11  C   UNL     1      -5.859  19.867 -13.614  1.00  0.00    -0.003 C 
ATOM     12  C   UNL     1      -6.521  18.732 -12.834  1.00  0.00     0.004 C 
ENDBRANCH  10  11
ENDBRANCH   9  10
ENDBRANCH   8   9
ENDBRANCH   7   8
ENDBRANCH   6   7
ENDBRANCH   5   6
ENDBRANCH   4   5
ENDBRANCH   3   4
ENDBRANCH   2   3
ENDBRANCH   1   2
BRANCH   1  13
ATOM     13  C   UNL     1      -8.719  13.139 -20.951  1.00  0.00     0.000 C 
BRANCH  13  14
ATOM     14  C   UNL     1      -7.571  13.373 -21.949  1.00  0.00     0.000 C 
BRANCH  14  15
ATOM     15  C   UNL     1      -7.487  12.268 -23.013  1.00  0.00     0.000 C 
BRANCH  15  16
ATOM     16  C   UNL     1      -6.180  12.328 -23.822  1.00  0.00     0.000 C 
BRANCH  16  17
ATOM     17  C   UNL     1      -6.308  13.209 -25.074  1.00  0.00     0.000 C 
BRANCH  17  18
ATOM     18  C   UNL     1      -5.196  14.269 -25.158  1.00  0.00     0.000 C 
BRANCH  18  19
ATOM     19  C   UNL     1      -5.218  15.056 -26.480  1.00  0.00     0.000 C 
BRANCH  19  20
ATOM     20  C   UNL     1      -4.739  16.518 -26.380  1.00  0.00     0.006 C 
BRANCH  20  21
ATOM     21  C   UNL     1      -5.827  17.505 -25.918  1.00  0.00     0.053 C 
BRANCH  21  22
ATOM     22  C   UNL     1      -5.516  18.121 -24.586  1.00  0.00     0.041 C 
ATOM     23  O   UNL     1      -6.063  19.203 -24.245  1.00  0.00    -0.550 OA
ATOM     24  O   UNL     1      -4.588  17.526 -23.741  1.00  0.00    -0.550 OA
ENDBRANCH  21  22
ENDBRANCH  20  21
ENDBRANCH  19  20
ENDBRANCH  18  19
ENDBRANCH  17  18
ENDBRANCH  16  17
ENDBRANCH  15  16
ENDBRANCH  14  15
ENDBRANCH  13  14
ENDBRANCH   1  13
TORSDOF 20
ENDMDL
MODEL 2
REMARK VINA RESULT:    21.103      0.778      1.408
REMARK INTER + INTRA:          45.088
REMARK INTER:                  46.137
REMARK INTRA:                  -1.049
REMARK UNBOUND:                -0.688
REMARK SMILES CCCCCCCCCCCCCCCCCCCCCC(=O)[O-]
REMARK SMILES IDX 12 1 11 2 10 3 9 4 8 5 7 6 6 7 5 8 4 9 3 10 2 11 1 12 13 13
REMARK SMILES IDX 14 14 15 15 16 16 17 17 18 18 19 19 20 20 21 21 22 22 23 23
REMARK SMILES IDX 24 24
REMARK H PARENT
REMARK Flexibility Score: inf
ROOT
ATOM      1  C   UNL     1      -9.087  13.056 -21.296  1.00  0.00     0.000 C 
ENDROOT
BRANCH   1   2
ATOM      2  C   UNL     1      -8.543  14.008 -20.216  1.00  0.00     0.000 C 
BRANCH   2   3
ATOM      3  C   UNL     1      -8.666  13.421 -18.800  1.00  0.00     0.000 C 
BRANCH   3   4
ATOM      4  C   UNL     1      -9.114  14.465 -17.766  1.00  0.00    -0.000 C 
BRANCH   4   5
ATOM      5  C   UNL     1      -9.558  15.763 -18.458  1.00  0.00    -0.000 C 
BRANCH   5   6
ATOM      6  C   UNL     1     -10.180  16.770 -17.474  1.00  0.00    -0.000 C 
BRANCH   6   7
ATOM      7  C   UNL     1     -10.002  18.244 -17.899  1.00  0.00    -0.000 C 
BRANCH   7   8
ATOM      8  C   UNL     1      -9.460  19.162 -16.785  1.00  0.00    -0.000 C 
BRANCH   8   9
ATOM      9  C   UNL     1      -8.031  18.811 -16.321  1.00  0.00    -0.000 C 
BRANCH   9  10
ATOM     10  C   UNL     1      -7.710  19.383 -14.930  1.00  0.00    -0.000 C 
BRANCH  10  11
ATOM     11  C   UNL     1      -6.384  20.159 -14.903  1.00  0.00    -0.003 C 
ATOM     12  C   UNL     1      -5.825  20.328 -13.491  1.00  0.00     0.004 C 
ENDBRANCH  10  11
ENDBRANCH   9  10
ENDBRANCH   8   9
ENDBRANCH   7   8
ENDBRANCH   6   7
ENDBRANCH   5   6
ENDBRANCH   4   5
ENDBRANCH   3   4
ENDBRANCH   2   3
ENDBRANCH   1   2
BRANCH   1  13
ATOM     13  C   UNL     1      -7.987  12.170 -21.905  1.00  0.00     0.000 C 
BRANCH  13  14
ATOM     14  C   UNL     1      -7.071  12.947 -22.867  1.00  0.00     0.000 C 
BRANCH  14  15
ATOM     15  C   UNL     1      -6.609  12.091 -24.055  1.00  0.00     0.000 C 
BRANCH  15  16
ATOM     16  C   UNL     1      -6.342  12.929 -25.317  1.00  0.00     0.000 C 
BRANCH  16  17
ATOM     17  C   UNL     1      -5.322  14.052 -25.067  1.00  0.00     0.000 C 
BRANCH  17  18
ATOM     18  C   UNL     1      -4.904  14.761 -26.367  1.00  0.00     0.000 C 
BRANCH  18  19
ATOM     19  C   UNL     1      -5.701  16.051 -26.626  1.00  0.00     0.000 C 
BRANCH  19  20
ATOM     20  C   UNL     1      -4.912  17.360 -26.424  1.00  0.00     0.006 C 
BRANCH  20  21
ATOM     21  C   UNL     1      -5.721  18.485 -25.753  1.00  0.00     0.053 C 
BRANCH  21  22
ATOM     22  C   UNL     1      -5.694  18.400 -24.256  1.00  0.00     0.041 C 
ATOM     23  O   UNL     1      -6.474  19.108 -23.566  1.00  0.00    -0.550 OA
ATOM     24  O   UNL     1      -4.776  17.573 -23.619  1.00  0.00    -0.550 OA
ENDBRANCH  21  22
ENDBRANCH  20  21
ENDBRANCH  19  20
ENDBRANCH  18  19
ENDBRANCH  17  18
ENDBRANCH  16  17
ENDBRANCH  15  16
ENDBRANCH  14  15
ENDBRANCH  13  14
ENDBRANCH   1  13
TORSDOF 20
ENDMDL
MODEL 3
REMARK VINA RESULT:    21.763      4.178      5.422
REMARK INTER + INTRA:          46.520
REMARK INTER:                  47.353
REMARK INTRA:                  -0.833
REMARK UNBOUND:                -0.688
REMARK SMILES CCCCCCCCCCCCCCCCCCCCCC(=O)[O-]
REMARK SMILES IDX 12 1 11 2 10 3 9 4 8 5 7 6 6 7 5 8 4 9 3 10 2 11 1 12 13 13
REMARK SMILES IDX 14 14 15 15 16 16 17 17 18 18 19 19 20 20 21 21 22 22 23 23
REMARK SMILES IDX 24 24
REMARK H PARENT
REMARK Flexibility Score: inf
ROOT
ATOM      1  C   UNL     1      -8.572  12.890 -21.338  1.00  0.00     0.000 C 
ENDROOT
BRANCH   1   2
ATOM      2  C   UNL     1      -8.383  13.984 -20.273  1.00  0.00     0.000 C 
BRANCH   2   3
ATOM      3  C   UNL     1      -8.820  13.523 -18.873  1.00  0.00     0.000 C 
BRANCH   3   4
ATOM      4  C   UNL     1      -8.602  14.602 -17.802  1.00  0.00    -0.000 C 
BRANCH   4   5
ATOM      5  C   UNL     1      -9.852  15.484 -17.654  1.00  0.00    -0.000 C 
BRANCH   5   6
ATOM      6  C   UNL     1      -9.672  16.871 -18.299  1.00  0.00    -0.000 C 
BRANCH   6   7
ATOM      7  C   UNL     1     -10.398  18.005 -17.545  1.00  0.00    -0.000 C 
BRANCH   7   8
ATOM      8  C   UNL     1      -9.472  19.144 -17.071  1.00  0.00    -0.000 C 
BRANCH   8   9
ATOM      9  C   UNL     1      -8.283  18.670 -16.210  1.00  0.00    -0.000 C 
BRANCH   9  10
ATOM     10  C   UNL     1      -7.915  19.681 -15.111  1.00  0.00    -0.000 C 
BRANCH  10  11
ATOM     11  C   UNL     1      -6.410  19.695 -14.802  1.00  0.00    -0.003 C 
ATOM     12  C   UNL     1      -5.950  20.999 -14.153  1.00  0.00     0.004 C 
ENDBRANCH  10  11
ENDBRANCH   9  10
ENDBRANCH   8   9
ENDBRANCH   7   8
ENDBRANCH   6   7
ENDBRANCH   5   6
ENDBRANCH   4   5
ENDBRANCH   3   4
ENDBRANCH   2   3
ENDBRANCH   1   2
BRANCH   1  13
ATOM     13  C   UNL     1      -7.266  12.557 -22.078  1.00  0.00     0.000 C 
BRANCH  13  14
ATOM     14  C   UNL     1      -7.509  12.110 -23.530  1.00  0.00     0.000 C 
BRANCH  14  15
ATOM     15  C   UNL     1      -6.204  11.991 -24.331  1.00  0.00     0.000 C 
BRANCH  15  16
ATOM     16  C   UNL     1      -5.345  10.796 -23.882  1.00  0.00     0.000 C 
BRANCH  16  17
ATOM     17  C   UNL     1      -5.406   9.626 -24.877  1.00  0.00     0.000 C 
BRANCH  17  18
ATOM     18  C   UNL     1      -4.008   9.107 -25.255  1.00  0.00     0.000 C 
BRANCH  18  19
ATOM     19  C   UNL     1      -3.040   9.074 -24.061  1.00  0.00     0.000 C 
BRANCH  19  20
ATOM     20  C   UNL     1      -1.601   8.632 -24.395  1.00  0.00     0.006 C 
BRANCH  20  21
ATOM     21  C   UNL     1      -0.832   9.623 -25.289  1.00  0.00     0.053 C 
BRANCH  21  22
ATOM     22  C   UNL     1       0.208   8.947 -26.133  1.00  0.00     0.041 C 
ATOM     23  O   UNL     1       0.494   7.736 -25.937  1.00  0.00    -0.550 OA
ATOM     24  O   UNL     1       0.896   9.665 -27.103  1.00  0.00    -0.550 OA
ENDBRANCH  21  22
ENDBRANCH  20  21
ENDBRANCH  19  20
ENDBRANCH  18  19
ENDBRANCH  17  18
ENDBRANCH  16  17
ENDBRANCH  15  16
ENDBRANCH  14  15
ENDBRANCH  13  14
ENDBRANCH   1  13
TORSDOF 20
ENDMDL
MODEL 4
REMARK VINA RESULT:    22.089      2.882      8.807
REMARK INTER + INTRA:          47.227
REMARK INTER:                  48.329
REMARK INTRA:                  -1.102
REMARK UNBOUND:                -0.688
REMARK SMILES CCCCCCCCCCCCCCCCCCCCCC(=O)[O-]
REMARK SMILES IDX 12 1 11 2 10 3 9 4 8 5 7 6 6 7 5 8 4 9 3 10 2 11 1 12 13 13
REMARK SMILES IDX 14 14 15 15 16 16 17 17 18 18 19 19 20 20 21 21 22 22 23 23
REMARK SMILES IDX 24 24
REMARK H PARENT
REMARK Flexibility Score: inf
ROOT
ATOM      1  C   UNL     1      -8.464  12.621 -21.189  1.00  0.00     0.000 C 
ENDROOT
BRANCH   1   2
ATOM      2  C   UNL     1      -7.588  13.126 -22.348  1.00  0.00     0.000 C 
BRANCH   2   3
ATOM      3  C   UNL     1      -6.812  11.990 -23.036  1.00  0.00     0.000 C 
BRANCH   3   4
ATOM      4  C   UNL     1      -6.477  12.309 -24.501  1.00  0.00    -0.000 C 
BRANCH   4   5
ATOM      5  C   UNL     1      -5.635  13.590 -24.602  1.00  0.00    -0.000 C 
BRANCH   5   6
ATOM      6  C   UNL     1      -5.694  14.222 -26.005  1.00  0.00    -0.000 C 
BRANCH   6   7
ATOM      7  C   UNL     1      -4.627  15.314 -26.238  1.00  0.00    -0.000 C 
BRANCH   7   8
ATOM      8  C   UNL     1      -5.183  16.625 -26.831  1.00  0.00    -0.000 C 
BRANCH   8   9
ATOM      9  C   UNL     1      -5.434  17.730 -25.786  1.00  0.00    -0.000 C 
BRANCH   9  10
ATOM     10  C   UNL     1      -4.793  17.407 -24.425  1.00  0.00    -0.000 C 
BRANCH  10  11
ATOM     11  C   UNL     1      -5.606  17.959 -23.244  1.00  0.00    -0.003 C 
ATOM     12  C   UNL     1      -6.668  18.968 -23.676  1.00  0.00     0.004 C 
ENDBRANCH  10  11
ENDBRANCH   9  10
ENDBRANCH   8   9
ENDBRANCH   7   8
ENDBRANCH   6   7
ENDBRANCH   5   6
ENDBRANCH   4   5
ENDBRANCH   3   4
ENDBRANCH   2   3
ENDBRANCH   1   2
BRANCH   1  13
ATOM     13  C   UNL     1      -9.122  13.769 -20.406  1.00  0.00     0.000 C 
BRANCH  13  14
ATOM     14  C   UNL     1      -8.356  14.116 -19.117  1.00  0.00     0.000 C 
BRANCH  14  15
ATOM     15  C   UNL     1      -9.135  13.728 -17.851  1.00  0.00     0.000 C 
BRANCH  15  16
ATOM     16  C   UNL     1      -9.893  14.918 -17.238  1.00  0.00     0.000 C 
BRANCH  16  17
ATOM     17  C   UNL     1      -9.281  16.270 -17.639  1.00  0.00     0.000 C 
BRANCH  17  18
ATOM     18  C   UNL     1     -10.351  17.292 -18.061  1.00  0.00     0.000 C 
BRANCH  18  19
ATOM     19  C   UNL     1      -9.994  18.732 -17.654  1.00  0.00     0.000 C 
BRANCH  19  20
ATOM     20  C   UNL     1      -9.220  18.866 -16.328  1.00  0.00     0.006 C 
BRANCH  20  21
ATOM     21  C   UNL     1      -7.699  19.031 -16.502  1.00  0.00     0.053 C 
BRANCH  21  22
ATOM     22  C   UNL     1      -7.044  19.633 -15.295  1.00  0.00     0.041 C 
ATOM     23  O   UNL     1      -6.175  20.535 -15.428  1.00  0.00    -0.550 OA
ATOM     24  O   UNL     1      -7.357  19.167 -14.024  1.00  0.00    -0.550 OA
ENDBRANCH  21  22
ENDBRANCH  20  21
ENDBRANCH  19  20
ENDBRANCH  18  19
ENDBRANCH  17  18
ENDBRANCH  16  17
ENDBRANCH  15  16
ENDBRANCH  14  15
ENDBRANCH  13  14
ENDBRANCH   1  13
TORSDOF 20
ENDMDL
MODEL 5
REMARK VINA RESULT:    22.196      5.586      9.118
REMARK INTER + INTRA:          47.458
REMARK INTER:                  48.708
REMARK INTRA:                  -1.249
REMARK UNBOUND:                -0.688
REMARK SMILES CCCCCCCCCCCCCCCCCCCCCC(=O)[O-]
REMARK SMILES IDX 12 1 11 2 10 3 9 4 8 5 7 6 6 7 5 8 4 9 3 10 2 11 1 12 13 13
REMARK SMILES IDX 14 14 15 15 16 16 17 17 18 18 19 19 20 20 21 21 22 22 23 23
REMARK SMILES IDX 24 24
REMARK H PARENT
REMARK Flexibility Score: inf
ROOT
ATOM      1  C   UNL     1      -5.674  10.885 -23.590  1.00  0.00     0.000 C 
ENDROOT
BRANCH   1   2
ATOM      2  C   UNL     1      -6.027   9.753 -24.570  1.00  0.00     0.000 C 
BRANCH   2   3
ATOM      3  C   UNL     1      -4.807   9.269 -25.372  1.00  0.00     0.000 C 
BRANCH   3   4
ATOM      4  C   UNL     1      -3.609   8.925 -24.473  1.00  0.00    -0.000 C 
BRANCH   4   5
ATOM      5  C   UNL     1      -2.359   9.705 -24.908  1.00  0.00    -0.000 C 
BRANCH   5   6
ATOM      6  C   UNL     1      -1.112   9.320 -24.091  1.00  0.00    -0.000 C 
BRANCH   6   7
ATOM      7  C   UNL     1      -1.194   7.913 -23.461  1.00  0.00    -0.000 C 
BRANCH   7   8
ATOM      8  C   UNL     1      -0.560   7.810 -22.059  1.00  0.00    -0.000 C 
BRANCH   8   9
ATOM      9  C   UNL     1      -1.517   8.182 -20.908  1.00  0.00    -0.000 C 
BRANCH   9  10
ATOM     10  C   UNL     1      -2.654   7.159 -20.737  1.00  0.00    -0.000 C 
BRANCH  10  11
ATOM     11  C   UNL     1      -3.436   7.360 -19.430  1.00  0.00    -0.003 C 
ATOM     12  C   UNL     1      -2.944   8.561 -18.624  1.00  0.00     0.004 C 
ENDBRANCH  10  11
ENDBRANCH   9  10
ENDBRANCH   8   9
ENDBRANCH   7   8
ENDBRANCH   6   7
ENDBRANCH   5   6
ENDBRANCH   4   5
ENDBRANCH   3   4
ENDBRANCH   2   3
ENDBRANCH   1   2
BRANCH   1  13
ATOM     13  C   UNL     1      -6.641  12.075 -23.695  1.00  0.00     0.000 C 
BRANCH  13  14
ATOM     14  C   UNL     1      -6.022  13.273 -24.438  1.00  0.00     0.000 C 
BRANCH  14  15
ATOM     15  C   UNL     1      -6.176  13.158 -25.962  1.00  0.00     0.000 C 
BRANCH  15  16
ATOM     16  C   UNL     1      -5.605  14.378 -26.705  1.00  0.00     0.000 C 
BRANCH  16  17
ATOM     17  C   UNL     1      -4.731  15.258 -25.797  1.00  0.00     0.000 C 
BRANCH  17  18
ATOM     18  C   UNL     1      -4.613  16.700 -26.320  1.00  0.00     0.000 C 
BRANCH  18  19
ATOM     19  C   UNL     1      -5.907  17.511 -26.134  1.00  0.00     0.000 C 
BRANCH  19  20
ATOM     20  C   UNL     1      -5.707  18.974 -25.692  1.00  0.00     0.006 C 
BRANCH  20  21
ATOM     21  C   UNL     1      -6.095  19.247 -24.227  1.00  0.00     0.053 C 
BRANCH  21  22
ATOM     22  C   UNL     1      -5.638  18.162 -23.299  1.00  0.00     0.041 C 
ATOM     23  O   UNL     1      -4.430  17.804 -23.288  1.00  0.00    -0.550 OA
ATOM     24  O   UNL     1      -6.552  17.512 -22.478  1.00  0.00    -0.550 OA
ENDBRANCH  21  22
ENDBRANCH  20  21
ENDBRANCH  19  20
ENDBRANCH  18  19
ENDBRANCH  17  18
ENDBRANCH  16  17
ENDBRANCH  15  16
ENDBRANCH  14  15
ENDBRANCH  13  14
ENDBRANCH   1  13
TORSDOF 20
ENDMDL
MODEL 6
REMARK VINA RESULT:    22.289      4.676     11.123
REMARK INTER + INTRA:          47.661
REMARK INTER:                  48.269
REMARK INTRA:                  -0.608
REMARK UNBOUND:                -0.688
REMARK SMILES CCCCCCCCCCCCCCCCCCCCCC(=O)[O-]
REMARK SMILES IDX 12 1 11 2 10 3 9 4 8 5 7 6 6 7 5 8 4 9 3 10 2 11 1 12 13 13
REMARK SMILES IDX 14 14 15 15 16 16 17 17 18 18 19 19 20 20 21 21 22 22 23 23
REMARK SMILES IDX 24 24
REMARK H PARENT
REMARK Flexibility Score: inf
ROOT
ATOM      1  C   UNL     1      -7.262  12.999 -22.364  1.00  0.00     0.000 C 
ENDROOT
BRANCH   1   2
ATOM      2  C   UNL     1      -7.210  12.106 -23.617  1.00  0.00     0.000 C 
BRANCH   2   3
ATOM      3  C   UNL     1      -5.820  11.486 -23.838  1.00  0.00     0.000 C 
BRANCH   3   4
ATOM      4  C   UNL     1      -5.831  10.382 -24.906  1.00  0.00    -0.000 C 
BRANCH   4   5
ATOM      5  C   UNL     1      -5.090   9.132 -24.405  1.00  0.00    -0.000 C 
BRANCH   5   6
ATOM      6  C   UNL     1      -3.694   8.983 -25.040  1.00  0.00    -0.000 C 
BRANCH   6   7
ATOM      7  C   UNL     1      -2.584   8.644 -24.023  1.00  0.00    -0.000 C 
BRANCH   7   8
ATOM      8  C   UNL     1      -1.186   9.162 -24.417  1.00  0.00    -0.000 C 
BRANCH   8   9
ATOM      9  C   UNL     1      -0.084   8.083 -24.386  1.00  0.00    -0.000 C 
BRANCH   9  10
ATOM     10  C   UNL     1       0.199   7.495 -25.780  1.00  0.00    -0.000 C 
BRANCH  10  11
ATOM     11  C   UNL     1       1.217   8.327 -26.575  1.00  0.00    -0.003 C 
ATOM     12  C   UNL     1       0.652   9.669 -27.039  1.00  0.00     0.004 C 
ENDBRANCH  10  11
ENDBRANCH   9  10
ENDBRANCH   8   9
ENDBRANCH   7   8
ENDBRANCH   6   7
ENDBRANCH   5   6
ENDBRANCH   4   5
ENDBRANCH   3   4
ENDBRANCH   2   3
ENDBRANCH   1   2
BRANCH   1  13
ATOM     13  C   UNL     1      -8.302  12.514 -21.341  1.00  0.00     0.000 C 
BRANCH  13  14
ATOM     14  C   UNL     1      -9.062  13.677 -20.679  1.00  0.00     0.000 C 
BRANCH  14  15
ATOM     15  C   UNL     1      -8.439  14.095 -19.338  1.00  0.00     0.000 C 
BRANCH  15  16
ATOM     16  C   UNL     1      -9.359  13.796 -18.142  1.00  0.00     0.000 C 
BRANCH  16  17
ATOM     17  C   UNL     1      -9.698  15.060 -17.336  1.00  0.00     0.000 C 
BRANCH  17  18
ATOM     18  C   UNL     1      -9.259  16.346 -18.056  1.00  0.00     0.000 C 
BRANCH  18  19
ATOM     19  C   UNL     1     -10.133  17.560 -17.696  1.00  0.00     0.000 C 
BRANCH  19  20
ATOM     20  C   UNL     1      -9.377  18.749 -17.070  1.00  0.00     0.006 C 
BRANCH  20  21
ATOM     21  C   UNL     1      -7.928  18.428 -16.660  1.00  0.00     0.053 C 
BRANCH  21  22
ATOM     22  C   UNL     1      -7.328  19.489 -15.787  1.00  0.00     0.041 C 
ATOM     23  O   UNL     1      -7.434  19.414 -14.534  1.00  0.00    -0.550 OA
ATOM     24  O   UNL     1      -6.693  20.586 -16.356  1.00  0.00    -0.550 OA
ENDBRANCH  21  22
ENDBRANCH  20  21
ENDBRANCH  19  20
ENDBRANCH  18  19
ENDBRANCH  17  18
ENDBRANCH  16  17
ENDBRANCH  15  16
ENDBRANCH  14  15
ENDBRANCH  13  14
ENDBRANCH   1  13
TORSDOF 20
ENDMDL
MODEL 7
REMARK VINA RESULT:    22.389      4.383      5.956
REMARK INTER + INTRA:          47.878
REMARK INTER:                  48.768
REMARK INTRA:                  -0.890
REMARK UNBOUND:                -0.688
REMARK SMILES CCCCCCCCCCCCCCCCCCCCCC(=O)[O-]
REMARK SMILES IDX 12 1 11 2 10 3 9 4 8 5 7 6 6 7 5 8 4 9 3 10 2 11 1 12 13 13
REMARK SMILES IDX 14 14 15 15 16 16 17 17 18 18 19 19 20 20 21 21 22 22 23 23
REMARK SMILES IDX 24 24
REMARK H PARENT
REMARK Flexibility Score: inf
ROOT
ATOM      1  C   UNL     1      -7.321  12.165 -22.322  1.00  0.00     0.000 C 
ENDROOT
BRANCH   1   2
ATOM      2  C   UNL     1      -8.384  13.121 -21.755  1.00  0.00     0.000 C 
BRANCH   2   3
ATOM      3  C   UNL     1      -8.561  12.967 -20.235  1.00  0.00     0.000 C 
BRANCH   3   4
ATOM      4  C   UNL     1      -9.072  14.253 -19.567  1.00  0.00    -0.000 C 
BRANCH   4   5
ATOM      5  C   UNL     1      -8.812  14.222 -18.053  1.00  0.00    -0.000 C 
BRANCH   5   6
ATOM      6  C   UNL     1      -9.421  15.435 -17.327  1.00  0.00    -0.000 C 
BRANCH   6   7
ATOM      7  C   UNL     1      -9.823  16.587 -18.274  1.00  0.00    -0.000 C 
BRANCH   7   8
ATOM      8  C   UNL     1     -10.165  17.907 -17.554  1.00  0.00    -0.000 C 
BRANCH   8   9
ATOM      9  C   UNL     1      -8.988  18.901 -17.471  1.00  0.00    -0.000 C 
BRANCH   9  10
ATOM     10  C   UNL     1      -8.478  19.085 -16.032  1.00  0.00    -0.000 C 
BRANCH  10  11
ATOM     11  C   UNL     1      -7.000  19.501 -15.979  1.00  0.00    -0.003 C 
ATOM     12  C   UNL     1      -6.570  19.986 -14.595  1.00  0.00     0.004 C 
ENDBRANCH  10  11
ENDBRANCH   9  10
ENDBRANCH   8   9
ENDBRANCH   7   8
ENDBRANCH   6   7
ENDBRANCH   5   6
ENDBRANCH   4   5
ENDBRANCH   3   4
ENDBRANCH   2   3
ENDBRANCH   1   2
BRANCH   1  13
ATOM     13  C   UNL     1      -6.492  12.808 -23.447  1.00  0.00     0.000 C 
BRANCH  13  14
ATOM     14  C   UNL     1      -6.322  11.876 -24.659  1.00  0.00     0.000 C 
BRANCH  14  15
ATOM     15  C   UNL     1      -5.746  10.506 -24.267  1.00  0.00     0.000 C 
BRANCH  15  16
ATOM     16  C   UNL     1      -5.295   9.686 -25.488  1.00  0.00     0.000 C 
BRANCH  16  17
ATOM     17  C   UNL     1      -4.052   8.832 -25.190  1.00  0.00     0.000 C 
BRANCH  17  18
ATOM     18  C   UNL     1      -3.454   9.133 -23.805  1.00  0.00     0.000 C 
BRANCH  18  19
ATOM     19  C   UNL     1      -2.350   8.142 -23.402  1.00  0.00     0.000 C 
BRANCH  19  20
ATOM     20  C   UNL     1      -1.281   7.878 -24.481  1.00  0.00     0.006 C 
BRANCH  20  21
ATOM     21  C   UNL     1      -0.476   9.126 -24.888  1.00  0.00     0.053 C 
BRANCH  21  22
ATOM     22  C   UNL     1       0.322   8.913 -26.140  1.00  0.00     0.041 C 
ATOM     23  O   UNL     1       1.003   7.864 -26.286  1.00  0.00    -0.550 OA
ATOM     24  O   UNL     1       0.351   9.892 -27.125  1.00  0.00    -0.550 OA
ENDBRANCH  21  22
ENDBRANCH  20  21
ENDBRANCH  19  20
ENDBRANCH  18  19
ENDBRANCH  17  18
ENDBRANCH  16  17
ENDBRANCH  15  16
ENDBRANCH  14  15
ENDBRANCH  13  14
ENDBRANCH   1  13
TORSDOF 20
ENDMDL
MODEL 8
REMARK VINA RESULT:    22.631      5.722     10.020
REMARK INTER + INTRA:          48.404
REMARK INTER:                  47.911
REMARK INTRA:                   0.492
REMARK UNBOUND:                -0.688
REMARK SMILES CCCCCCCCCCCCCCCCCCCCCC(=O)[O-]
REMARK SMILES IDX 12 1 11 2 10 3 9 4 8 5 7 6 6 7 5 8 4 9 3 10 2 11 1 12 13 13
REMARK SMILES IDX 14 14 15 15 16 16 17 17 18 18 19 19 20 20 21 21 22 22 23 23
REMARK SMILES IDX 24 24
REMARK H PARENT
REMARK Flexibility Score: inf
ROOT
ATOM      1  C   UNL     1      -5.702  11.370 -23.376  1.00  0.00     0.000 C 
ENDROOT
BRANCH   1   2
ATOM      2  C   UNL     1      -6.016  10.058 -24.117  1.00  0.00     0.000 C 
BRANCH   2   3
ATOM      3  C   UNL     1      -5.056   9.802 -25.290  1.00  0.00     0.000 C 
BRANCH   3   4
ATOM      4  C   UNL     1      -4.079   8.650 -25.011  1.00  0.00    -0.000 C 
BRANCH   4   5
ATOM      5  C   UNL     1      -4.174   8.195 -23.547  1.00  0.00    -0.000 C 
BRANCH   5   6
ATOM      6  C   UNL     1      -2.884   7.512 -23.058  1.00  0.00    -0.000 C 
BRANCH   6   7
ATOM      7  C   UNL     1      -1.609   8.011 -23.772  1.00  0.00    -0.000 C 
BRANCH   7   8
ATOM      8  C   UNL     1      -1.664   9.490 -24.203  1.00  0.00    -0.000 C 
BRANCH   8   9
ATOM      9  C   UNL     1      -0.467   9.937 -25.067  1.00  0.00    -0.000 C 
BRANCH   9  10
ATOM     10  C   UNL     1      -0.315   9.089 -26.341  1.00  0.00    -0.000 C 
BRANCH  10  11
ATOM     11  C   UNL     1       1.043   8.373 -26.415  1.00  0.00    -0.003 C 
ATOM     12  C   UNL     1       0.985   6.937 -25.897  1.00  0.00     0.004 C 
ENDBRANCH  10  11
ENDBRANCH   9  10
ENDBRANCH   8   9
ENDBRANCH   7   8
ENDBRANCH   6   7
ENDBRANCH   5   6
ENDBRANCH   4   5
ENDBRANCH   3   4
ENDBRANCH   2   3
ENDBRANCH   1   2
BRANCH   1  13
ATOM     13  C   UNL     1      -6.695  12.492 -23.723  1.00  0.00     0.000 C 
BRANCH  13  14
ATOM     14  C   UNL     1      -6.964  12.593 -25.235  1.00  0.00     0.000 C 
BRANCH  14  15
ATOM     15  C   UNL     1      -5.736  13.083 -26.016  1.00  0.00     0.000 C 
BRANCH  15  16
ATOM     16  C   UNL     1      -5.311  14.505 -25.612  1.00  0.00     0.000 C 
BRANCH  16  17
ATOM     17  C   UNL     1      -5.050  15.405 -26.831  1.00  0.00     0.000 C 
BRANCH  17  18
ATOM     18  C   UNL     1      -5.900  16.687 -26.802  1.00  0.00     0.000 C 
BRANCH  18  19
ATOM     19  C   UNL     1      -5.084  17.937 -26.431  1.00  0.00     0.000 C 
BRANCH  19  20
ATOM     20  C   UNL     1      -5.859  19.017 -25.650  1.00  0.00     0.006 C 
BRANCH  20  21
ATOM     21  C   UNL     1      -6.320  18.572 -24.250  1.00  0.00     0.053 C 
BRANCH  21  22
ATOM     22  C   UNL     1      -5.208  17.969 -23.444  1.00  0.00     0.041 C 
ATOM     23  O   UNL     1      -4.266  17.362 -24.018  1.00  0.00    -0.550 OA
ATOM     24  O   UNL     1      -5.236  18.035 -22.056  1.00  0.00    -0.550 OA
ENDBRANCH  21  22
ENDBRANCH  20  21
ENDBRANCH  19  20
ENDBRANCH  18  19
ENDBRANCH  17  18
ENDBRANCH  16  17
ENDBRANCH  15  16
ENDBRANCH  14  15
ENDBRANCH  13  14
ENDBRANCH   1  13
TORSDOF 20
ENDMDL
MODEL 9
REMARK VINA RESULT:    22.722      4.685      7.136
REMARK INTER + INTRA:          48.600
REMARK INTER:                  49.800
REMARK INTRA:                  -1.200
REMARK UNBOUND:                -0.688
REMARK SMILES CCCCCCCCCCCCCCCCCCCCCC(=O)[O-]
REMARK SMILES IDX 12 1 11 2 10 3 9 4 8 5 7 6 6 7 5 8 4 9 3 10 2 11 1 12 13 13
REMARK SMILES IDX 14 14 15 15 16 16 17 17 18 18 19 19 20 20 21 21 22 22 23 23
REMARK SMILES IDX 24 24
REMARK H PARENT
REMARK Flexibility Score: inf
ROOT
ATOM      1  C   UNL     1      -6.545  12.203 -24.196  1.00  0.00     0.000 C 
ENDROOT
BRANCH   1   2
ATOM      2  C   UNL     1      -6.958  12.953 -22.918  1.00  0.00     0.000 C 
BRANCH   2   3
ATOM      3  C   UNL     1      -7.908  12.128 -22.034  1.00  0.00     0.000 C 
BRANCH   3   4
ATOM      4  C   UNL     1      -9.072  12.963 -21.479  1.00  0.00    -0.000 C 
BRANCH   4   5
ATOM      5  C   UNL     1      -8.561  14.012 -20.479  1.00  0.00    -0.000 C 
BRANCH   5   6
ATOM      6  C   UNL     1      -8.146  13.389 -19.134  1.00  0.00    -0.000 C 
BRANCH   6   7
ATOM      7  C   UNL     1      -8.341  14.331 -17.927  1.00  0.00    -0.000 C 
BRANCH   7   8
ATOM      8  C   UNL     1      -9.771  14.892 -17.787  1.00  0.00    -0.000 C 
BRANCH   8   9
ATOM      9  C   UNL     1      -9.834  16.304 -17.171  1.00  0.00    -0.000 C 
BRANCH   9  10
ATOM     10  C   UNL     1     -10.209  17.379 -18.207  1.00  0.00    -0.000 C 
BRANCH  10  11
ATOM     11  C   UNL     1     -10.028  18.806 -17.668  1.00  0.00    -0.003 C 
ATOM     12  C   UNL     1      -8.972  18.894 -16.568  1.00  0.00     0.004 C 
ENDBRANCH  10  11
ENDBRANCH   9  10
ENDBRANCH   8   9
ENDBRANCH   7   8
ENDBRANCH   6   7
ENDBRANCH   5   6
ENDBRANCH   4   5
ENDBRANCH   3   4
ENDBRANCH   2   3
ENDBRANCH   1   2
BRANCH   1  13
ATOM     13  C   UNL     1      -5.801  10.892 -23.893  1.00  0.00     0.000 C 
BRANCH  13  14
ATOM     14  C   UNL     1      -5.976   9.845 -25.008  1.00  0.00     0.000 C 
BRANCH  14  15
ATOM     15  C   UNL     1      -4.635   9.415 -25.622  1.00  0.00     0.000 C 
BRANCH  15  16
ATOM     16  C   UNL     1      -3.696   8.768 -24.589  1.00  0.00     0.000 C 
BRANCH  16  17
ATOM     17  C   UNL     1      -2.381   9.547 -24.426  1.00  0.00     0.000 C 
BRANCH  17  18
ATOM     18  C   UNL     1      -1.242   8.664 -23.888  1.00  0.00     0.000 C 
BRANCH  18  19
ATOM     19  C   UNL     1      -1.748   7.498 -23.022  1.00  0.00     0.000 C 
BRANCH  19  20
ATOM     20  C   UNL     1      -1.642   7.717 -21.500  1.00  0.00     0.006 C 
BRANCH  20  21
ATOM     21  C   UNL     1      -2.784   7.075 -20.691  1.00  0.00     0.053 C 
BRANCH  21  22
ATOM     22  C   UNL     1      -3.100   7.836 -19.438  1.00  0.00     0.041 C 
ATOM     23  O   UNL     1      -4.250   7.769 -18.929  1.00  0.00    -0.550 OA
ATOM     24  O   UNL     1      -2.140   8.655 -18.857  1.00  0.00    -0.550 OA
ENDBRANCH  21  22
ENDBRANCH  20  21
ENDBRANCH  19  20
ENDBRANCH  18  19
ENDBRANCH  17  18
ENDBRANCH  16  17
ENDBRANCH  15  16
ENDBRANCH  14  15
ENDBRANCH  13  14
ENDBRANCH   1  13
TORSDOF 20
ENDMDL
