MODEL 1
REMARK VINA RESULT:     6.621      0.000      0.000
REMARK INTER + INTRA:          10.099
REMARK INTER:                  10.492
REMARK INTRA:                  -0.393
REMARK UNBOUND:                -0.393
REMARK SMILES CCCCCCCCCCCC(=O)[O-]
REMARK SMILES IDX 7 1 8 2 9 3 10 4 11 5 12 6 13 7 14 8 6 9 5 10 4 11 3 12 2 13
REMARK SMILES IDX 1 14
REMARK H PARENT
REMARK Flexibility Score: inf
ROOT
ATOM      1  C   UNL     1      12.023  11.411  17.424  1.00  0.00     0.000 C 
ENDROOT
BRANCH   1   2
ATOM      2  C   UNL     1      13.105  12.313  18.043  1.00  0.00     0.000 C 
BRANCH   2   3
ATOM      3  C   UNL     1      14.261  12.602  17.072  1.00  0.00     0.000 C 
BRANCH   3   4
ATOM      4  C   UNL     1      14.681  14.083  17.072  1.00  0.00     0.006 C 
BRANCH   4   5
ATOM      5  C   UNL     1      13.531  15.010  16.656  1.00  0.00     0.053 C 
BRANCH   5   6
ATOM      6  C   UNL     1      13.899  16.454  16.808  1.00  0.00     0.041 C 
ATOM      7  O   UNL     1      13.440  17.313  16.010  1.00  0.00    -0.550 OA
ATOM      8  O   UNL     1      14.725  16.855  17.850  1.00  0.00    -0.550 OA
ENDBRANCH   5   6
ENDBRANCH   4   5
ENDBRANCH   3   4
ENDBRANCH   2   3
ENDBRANCH   1   2
BRANCH   1   9
ATOM      9  C   UNL     1      10.947  12.213  16.672  1.00  0.00     0.000 C 
BRANCH   9  10
ATOM     10  C   UNL     1       9.789  11.327  16.179  1.00  0.00    -0.000 C 
BRANCH  10  11
ATOM     11  C   UNL     1       8.922  12.016  15.110  1.00  0.00    -0.000 C 
BRANCH  11  12
ATOM     12  C   UNL     1       7.936  13.070  15.647  1.00  0.00    -0.000 C 
BRANCH  12  13
ATOM     13  C   UNL     1       7.876  13.104  17.182  1.00  0.00    -0.003 C 
ATOM     14  C   UNL     1       7.988  14.534  17.703  1.00  0.00     0.004 C 
ENDBRANCH  12  13
ENDBRANCH  11  12
ENDBRANCH  10  11
ENDBRANCH   9  10
ENDBRANCH   1   9
TORSDOF 10
ENDMDL
MODEL 2
REMARK VINA RESULT:     6.989      0.854      1.975
REMARK INTER + INTRA:          10.682
REMARK INTER:                  10.813
REMARK INTRA:                  -0.130
REMARK UNBOUND:                -0.393
REMARK SMILES CCCCCCCCCCCC(=O)[O-]
REMARK SMILES IDX 7 1 8 2 9 3 10 4 11 5 12 6 13 7 14 8 6 9 5 10 4 11 3 12 2 13
REMARK SMILES IDX 1 14
REMARK H PARENT
REMARK Flexibility Score: inf
ROOT
ATOM      1  C   UNL     1      12.509  12.034  17.869  1.00  0.00     0.000 C 
ENDROOT
BRANCH   1   2
ATOM      2  C   UNL     1      13.871  11.616  17.288  1.00  0.00     0.000 C 
BRANCH   2   3
ATOM      3  C   UNL     1      14.510  12.718  16.426  1.00  0.00     0.000 C 
BRANCH   3   4
ATOM      4  C   UNL     1      14.587  14.071  17.156  1.00  0.00     0.006 C 
BRANCH   4   5
ATOM      5  C   UNL     1      13.537  15.065  16.643  1.00  0.00     0.053 C 
BRANCH   5   6
ATOM      6  C   UNL     1      13.929  16.483  16.923  1.00  0.00     0.041 C 
ATOM      7  O   UNL     1      14.690  16.752  17.890  1.00  0.00    -0.550 OA
ATOM      8  O   UNL     1      13.476  17.505  16.100  1.00  0.00    -0.550 OA
ENDBRANCH   5   6
ENDBRANCH   4   5
ENDBRANCH   3   4
ENDBRANCH   2   3
ENDBRANCH   1   2
BRANCH   1   9
ATOM      9  C   UNL     1      11.480  12.368  16.777  1.00  0.00     0.000 C 
BRANCH   9  10
ATOM     10  C   UNL     1      10.125  11.677  17.013  1.00  0.00    -0.000 C 
BRANCH  10  11
ATOM     11  C   UNL     1       8.944  12.665  17.032  1.00  0.00    -0.000 C 
BRANCH  11  12
ATOM     12  C   UNL     1       8.121  12.724  15.733  1.00  0.00    -0.000 C 
BRANCH  12  13
ATOM     13  C   UNL     1       8.983  12.575  14.471  1.00  0.00    -0.003 C 
ATOM     14  C   UNL     1       8.726  11.237  13.785  1.00  0.00     0.004 C 
ENDBRANCH  12  13
ENDBRANCH  11  12
ENDBRANCH  10  11
ENDBRANCH   9  10
ENDBRANCH   1   9
TORSDOF 10
ENDMDL
MODEL 3
REMARK VINA RESULT:     7.210      3.620      7.172
REMARK INTER + INTRA:          11.032
REMARK INTER:                  11.267
REMARK INTRA:                  -0.236
REMARK UNBOUND:                -0.393
REMARK SMILES CCCCCCCCCCCC(=O)[O-]
REMARK SMILES IDX 7 1 8 2 9 3 10 4 11 5 12 6 13 7 14 8 6 9 5 10 4 11 3 12 2 13
REMARK SMILES IDX 1 14
REMARK H PARENT
REMARK Flexibility Score: inf
ROOT
ATOM      1  C   UNL     1      13.897  14.198  16.810  1.00  0.00     0.000 C 
ENDROOT
BRANCH   1   2
ATOM      2  C   UNL     1      13.731  12.693  17.085  1.00  0.00     0.000 C 
BRANCH   2   3
ATOM      3  C   UNL     1      12.287  12.313  17.447  1.00  0.00     0.000 C 
BRANCH   3   4
ATOM      4  C   UNL     1      11.276  12.721  16.361  1.00  0.00     0.006 C 
BRANCH   4   5
ATOM      5  C   UNL     1      10.146  11.693  16.207  1.00  0.00     0.053 C 
BRANCH   5   6
ATOM      6  C   UNL     1       8.934  12.291  15.563  1.00  0.00     0.041 C 
ATOM      7  O   UNL     1       8.699  12.090  14.342  1.00  0.00    -0.550 OA
ATOM      8  O   UNL     1       8.048  13.048  16.318  1.00  0.00    -0.550 OA
ENDBRANCH   5   6
ENDBRANCH   4   5
ENDBRANCH   3   4
ENDBRANCH   2   3
ENDBRANCH   1   2
BRANCH   1   9
ATOM      9  C   UNL     1      14.847  14.879  17.810  1.00  0.00     0.000 C 
BRANCH   9  10
ATOM     10  C   UNL     1      14.822  16.413  17.695  1.00  0.00    -0.000 C 
BRANCH  10  11
ATOM     11  C   UNL     1      16.066  17.079  18.311  1.00  0.00    -0.000 C 
BRANCH  11  12
ATOM     12  C   UNL     1      15.940  18.593  18.561  1.00  0.00    -0.000 C 
BRANCH  12  13
ATOM     13  C   UNL     1      16.828  19.085  19.714  1.00  0.00    -0.003 C 
ATOM     14  C   UNL     1      16.828  20.609  19.795  1.00  0.00     0.004 C 
ENDBRANCH  12  13
ENDBRANCH  11  12
ENDBRANCH  10  11
ENDBRANCH   9  10
ENDBRANCH   1   9
TORSDOF 10
ENDMDL
MODEL 4
REMARK VINA RESULT:     7.421      2.885      5.932
REMARK INTER + INTRA:          11.366
REMARK INTER:                  11.719
REMARK INTRA:                  -0.353
REMARK UNBOUND:                -0.393
REMARK SMILES CCCCCCCCCCCC(=O)[O-]
REMARK SMILES IDX 7 1 8 2 9 3 10 4 11 5 12 6 13 7 14 8 6 9 5 10 4 11 3 12 2 13
REMARK SMILES IDX 1 14
REMARK H PARENT
REMARK Flexibility Score: inf
ROOT
ATOM      1  C   UNL     1      12.536  11.689  17.492  1.00  0.00     0.000 C 
ENDROOT
BRANCH   1   2
ATOM      2  C   UNL     1      11.439  12.472  16.750  1.00  0.00     0.000 C 
BRANCH   2   3
ATOM      3  C   UNL     1      10.095  11.726  16.723  1.00  0.00     0.000 C 
BRANCH   3   4
ATOM      4  C   UNL     1       8.893  12.662  16.938  1.00  0.00     0.006 C 
BRANCH   4   5
ATOM      5  C   UNL     1       7.967  12.704  15.714  1.00  0.00     0.053 C 
BRANCH   5   6
ATOM      6  C   UNL     1       8.673  12.272  14.467  1.00  0.00     0.041 C 
ATOM      7  O   UNL     1       9.401  13.082  13.835  1.00  0.00    -0.550 OA
ATOM      8  O   UNL     1       8.550  10.964  14.017  1.00  0.00    -0.550 OA
ENDBRANCH   5   6
ENDBRANCH   4   5
ENDBRANCH   3   4
ENDBRANCH   2   3
ENDBRANCH   1   2
BRANCH   1   9
ATOM      9  C   UNL     1      13.947  12.219  17.186  1.00  0.00     0.000 C 
BRANCH   9  10
ATOM     10  C   UNL     1      13.939  13.690  16.733  1.00  0.00    -0.000 C 
BRANCH  10  11
ATOM     11  C   UNL     1      14.586  14.637  17.759  1.00  0.00    -0.000 C 
BRANCH  11  12
ATOM     12  C   UNL     1      14.433  16.138  17.452  1.00  0.00    -0.000 C 
BRANCH  12  13
ATOM     13  C   UNL     1      13.427  16.418  16.326  1.00  0.00    -0.003 C 
ATOM     14  C   UNL     1      13.457  17.887  15.916  1.00  0.00     0.004 C 
ENDBRANCH  12  13
ENDBRANCH  11  12
ENDBRANCH  10  11
ENDBRANCH   9  10
ENDBRANCH   1   9
TORSDOF 10
ENDMDL
MODEL 5
REMARK VINA RESULT:     7.459      3.405      6.925
REMARK INTER + INTRA:          11.426
REMARK INTER:                  11.733
REMARK INTRA:                  -0.307
REMARK UNBOUND:                -0.393
REMARK SMILES CCCCCCCCCCCC(=O)[O-]
REMARK SMILES IDX 7 1 8 2 9 3 10 4 11 5 12 6 13 7 14 8 6 9 5 10 4 11 3 12 2 13
REMARK SMILES IDX 1 14
REMARK H PARENT
REMARK Flexibility Score: inf
ROOT
ATOM      1  C   UNL     1      13.695  13.745  16.735  1.00  0.00     0.000 C 
ENDROOT
BRANCH   1   2
ATOM      2  C   UNL     1      13.527  12.420  17.499  1.00  0.00     0.000 C 
BRANCH   2   3
ATOM      3  C   UNL     1      12.053  12.018  17.669  1.00  0.00     0.000 C 
BRANCH   3   4
ATOM      4  C   UNL     1      11.190  12.396  16.453  1.00  0.00     0.006 C 
BRANCH   4   5
ATOM      5  C   UNL     1       9.891  11.581  16.389  1.00  0.00     0.053 C 
BRANCH   5   6
ATOM      6  C   UNL     1       8.813  12.311  15.649  1.00  0.00     0.041 C 
ATOM      7  O   UNL     1       8.017  13.066  16.267  1.00  0.00    -0.550 OA
ATOM      8  O   UNL     1       8.704  12.178  14.271  1.00  0.00    -0.550 OA
ENDBRANCH   5   6
ENDBRANCH   4   5
ENDBRANCH   3   4
ENDBRANCH   2   3
ENDBRANCH   1   2
BRANCH   1   9
ATOM      9  C   UNL     1      14.753  14.662  17.370  1.00  0.00     0.000 C 
BRANCH   9  10
ATOM     10  C   UNL     1      14.312  16.136  17.404  1.00  0.00    -0.000 C 
BRANCH  10  11
ATOM     11  C   UNL     1      14.903  16.911  18.595  1.00  0.00    -0.000 C 
BRANCH  11  12
ATOM     12  C   UNL     1      16.062  17.863  18.246  1.00  0.00    -0.000 C 
BRANCH  12  13
ATOM     13  C   UNL     1      16.670  18.544  19.481  1.00  0.00    -0.003 C 
ATOM     14  C   UNL     1      16.589  20.063  19.367  1.00  0.00     0.004 C 
ENDBRANCH  12  13
ENDBRANCH  11  12
ENDBRANCH  10  11
ENDBRANCH   9  10
ENDBRANCH   1   9
TORSDOF 10
ENDMDL
MODEL 6
REMARK VINA RESULT:     7.777      2.650      5.698
REMARK INTER + INTRA:          11.930
REMARK INTER:                  12.142
REMARK INTRA:                  -0.212
REMARK UNBOUND:                -0.393
REMARK SMILES CCCCCCCCCCCC(=O)[O-]
REMARK SMILES IDX 7 1 8 2 9 3 10 4 11 5 12 6 13 7 14 8 6 9 5 10 4 11 3 12 2 13
REMARK SMILES IDX 1 14
REMARK H PARENT
REMARK Flexibility Score: inf
ROOT
ATOM      1  C   UNL     1      12.352  12.020  17.599  1.00  0.00     0.000 C 
ENDROOT
BRANCH   1   2
ATOM      2  C   UNL     1      11.378  12.605  16.561  1.00  0.00     0.000 C 
BRANCH   2   3
ATOM      3  C   UNL     1      10.143  11.716  16.340  1.00  0.00     0.000 C 
BRANCH   3   4
ATOM      4  C   UNL     1       9.212  12.256  15.241  1.00  0.00     0.006 C 
BRANCH   4   5
ATOM      5  C   UNL     1       7.875  12.754  15.807  1.00  0.00     0.053 C 
BRANCH   5   6
ATOM      6  C   UNL     1       8.053  13.456  17.118  1.00  0.00     0.041 C 
ATOM      7  O   UNL     1       8.011  14.713  17.175  1.00  0.00    -0.550 OA
ATOM      8  O   UNL     1       8.237  12.720  18.281  1.00  0.00    -0.550 OA
ENDBRANCH   5   6
ENDBRANCH   4   5
ENDBRANCH   3   4
ENDBRANCH   2   3
ENDBRANCH   1   2
BRANCH   1   9
ATOM      9  C   UNL     1      13.812  12.053  17.120  1.00  0.00     0.000 C 
BRANCH   9  10
ATOM     10  C   UNL     1      14.256  13.458  16.674  1.00  0.00    -0.000 C 
BRANCH  10  11
ATOM     11  C   UNL     1      14.577  14.387  17.859  1.00  0.00    -0.000 C 
BRANCH  11  12
ATOM     12  C   UNL     1      14.383  15.889  17.581  1.00  0.00    -0.000 C 
BRANCH  12  13
ATOM     13  C   UNL     1      13.476  16.163  16.372  1.00  0.00    -0.003 C 
ATOM     14  C   UNL     1      13.497  17.640  15.993  1.00  0.00     0.004 C 
ENDBRANCH  12  13
ENDBRANCH  11  12
ENDBRANCH  10  11
ENDBRANCH   9  10
ENDBRANCH   1   9
TORSDOF 10
ENDMDL
MODEL 7
REMARK VINA RESULT:     8.777      2.591      3.966
REMARK INTER + INTRA:          13.515
REMARK INTER:                  13.763
REMARK INTRA:                  -0.248
REMARK UNBOUND:                -0.393
REMARK SMILES CCCCCCCCCCCC(=O)[O-]
REMARK SMILES IDX 7 1 8 2 9 3 10 4 11 5 12 6 13 7 14 8 6 9 5 10 4 11 3 12 2 13
REMARK SMILES IDX 1 14
REMARK H PARENT
REMARK Flexibility Score: inf
ROOT
ATOM      1  C   UNL     1      13.865  14.558  16.766  1.00  0.00     0.000 C 
ENDROOT
BRANCH   1   2
ATOM      2  C   UNL     1      14.705  15.218  17.873  1.00  0.00     0.000 C 
BRANCH   2   3
ATOM      3  C   UNL     1      14.938  16.717  17.625  1.00  0.00     0.000 C 
BRANCH   3   4
ATOM      4  C   UNL     1      15.336  17.475  18.904  1.00  0.00     0.006 C 
BRANCH   4   5
ATOM      5  C   UNL     1      16.517  18.427  18.668  1.00  0.00     0.053 C 
BRANCH   5   6
ATOM      6  C   UNL     1      16.522  19.560  19.647  1.00  0.00     0.041 C 
ATOM      7  O   UNL     1      15.891  19.465  20.732  1.00  0.00    -0.550 OA
ATOM      8  O   UNL     1      17.247  20.712  19.372  1.00  0.00    -0.550 OA
ENDBRANCH   5   6
ENDBRANCH   4   5
ENDBRANCH   3   4
ENDBRANCH   2   3
ENDBRANCH   1   2
BRANCH   1   9
ATOM      9  C   UNL     1      13.947  13.023  16.801  1.00  0.00     0.000 C 
BRANCH   9  10
ATOM     10  C   UNL     1      12.635  12.373  17.276  1.00  0.00    -0.000 C 
BRANCH  10  11
ATOM     11  C   UNL     1      11.424  12.765  16.409  1.00  0.00    -0.000 C 
BRANCH  11  12
ATOM     12  C   UNL     1      10.205  11.833  16.529  1.00  0.00    -0.000 C 
BRANCH  12  13
ATOM     13  C   UNL     1       8.932  12.430  15.912  1.00  0.00    -0.003 C 
ATOM     14  C   UNL     1       8.773  12.001  14.457  1.00  0.00     0.004 C 
ENDBRANCH  12  13
ENDBRANCH  11  12
ENDBRANCH  10  11
ENDBRANCH   9  10
ENDBRANCH   1   9
TORSDOF 10
ENDMDL
