MODEL 1
REMARK VINA RESULT:    -7.623      0.000      0.000
REMARK INTER + INTRA:          -9.660
REMARK INTER:                  -9.183
REMARK INTRA:                  -0.478
REMARK UNBOUND:                -0.478
REMARK SMILES O=c1c(O)c(-c2ccc(O)cc2O)oc2cc(O)cc(O)c12
REMARK SMILES IDX 5 1 3 2 2 3 1 4 22 5 20 6 19 7 17 8 16 9 15 10 14 11 6 12
REMARK SMILES IDX 8 13 7 14 9 15 11 16 12 17 10 18 13 20 4 22 21 24 18 26
REMARK H PARENT 10 19 13 21 4 23 21 25 18 27
REMARK Flexibility Score: inf
ROOT
ATOM      1  C   UNL     1      13.648  77.441 116.793  1.00  0.00     0.184 A 
ATOM      2  C   UNL     1      13.776  78.814 116.525  1.00  0.00     0.208 A 
ATOM      3  C   UNL     1      15.026  79.429 116.699  1.00  0.00     0.238 A 
ATOM      4  O   UNL     1      15.121  80.670 116.511  1.00  0.00    -0.285 OA
ATOM      5  C   UNL     1      16.137  78.658 117.119  1.00  0.00     0.111 A 
ATOM      6  C   UNL     1      17.460  79.169 117.290  1.00  0.00     0.134 A 
ATOM      7  C   UNL     1      18.453  78.344 117.833  1.00  0.00     0.093 A 
ATOM      8  C   UNL     1      18.188  77.010 118.151  1.00  0.00     0.123 A 
ATOM      9  C   UNL     1      16.916  76.487 117.932  1.00  0.00     0.094 A 
ATOM     10  C   UNL     1      15.895  77.294 117.425  1.00  0.00     0.146 A 
ATOM     11  O   UNL     1      14.693  76.758 117.244  1.00  0.00    -0.451 OA
ENDROOT
BRANCH   1  12
ATOM     12  C   UNL     1      12.365  76.725 116.608  1.00  0.00     0.063 A 
ATOM     13  C   UNL     1      10.693  75.737 115.139  1.00  0.00     0.047 A 
ATOM     14  C   UNL     1      11.890  76.437 115.315  1.00  0.00     0.020 A 
ATOM     15  C   UNL     1       9.961  75.306 116.251  1.00  0.00     0.119 A 
ATOM     16  C   UNL     1      10.431  75.575 117.538  1.00  0.00     0.093 A 
ATOM     17  C   UNL     1      11.630  76.279 117.725  1.00  0.00     0.130 A 
BRANCH  15  18
ATOM     18  O   UNL     1       8.767  74.606 116.087  1.00  0.00    -0.508 OA
ATOM     19  H   UNL     1       8.603  73.720 116.551  1.00  0.00     0.293 HD
ENDBRANCH  15  18
BRANCH  17  20
ATOM     20  O   UNL     1      12.084  76.546 119.017  1.00  0.00    -0.507 OA
ATOM     21  H   UNL     1      13.068  76.513 119.253  1.00  0.00     0.293 HD
ENDBRANCH  17  20
ENDBRANCH   1  12
BRANCH   2  22
ATOM     22  O   UNL     1      12.661  79.556 116.124  1.00  0.00    -0.502 OA
ATOM     23  H   UNL     1      12.073  79.275 115.348  1.00  0.00     0.293 HD
ENDBRANCH   2  22
BRANCH   6  24
ATOM     24  O   UNL     1      17.852  80.458 116.919  1.00  0.00    -0.507 OA
ATOM     25  H   UNL     1      18.806  80.781 116.881  1.00  0.00     0.293 HD
ENDBRANCH   6  24
BRANCH   8  26
ATOM     26  O   UNL     1      19.186  76.192 118.675  1.00  0.00    -0.508 OA
ATOM     27  H   UNL     1      19.852  75.718 118.076  1.00  0.00     0.293 HD
ENDBRANCH   8  26
TORSDOF 6
ENDMDL
MODEL 2
REMARK VINA RESULT:    -7.537      3.767      5.014
REMARK INTER + INTRA:          -9.557
REMARK INTER:                  -9.216
REMARK INTRA:                  -0.342
REMARK UNBOUND:                -0.478
REMARK SMILES O=c1c(O)c(-c2ccc(O)cc2O)oc2cc(O)cc(O)c12
REMARK SMILES IDX 5 1 3 2 2 3 1 4 22 5 20 6 19 7 17 8 16 9 15 10 14 11 6 12
REMARK SMILES IDX 8 13 7 14 9 15 11 16 12 17 10 18 13 20 4 22 21 24 18 26
REMARK H PARENT 10 19 13 21 4 23 21 25 18 27
REMARK Flexibility Score: inf
ROOT
ATOM      1  C   UNL     1      14.822  81.195 114.625  1.00  0.00     0.184 A 
ATOM      2  C   UNL     1      15.137  82.443 115.186  1.00  0.00     0.208 A 
ATOM      3  C   UNL     1      15.897  82.488 116.365  1.00  0.00     0.238 A 
ATOM      4  O   UNL     1      16.129  83.608 116.893  1.00  0.00    -0.285 OA
ATOM      5  C   UNL     1      16.350  81.284 116.957  1.00  0.00     0.111 A 
ATOM      6  C   UNL     1      17.161  81.213 118.131  1.00  0.00     0.134 A 
ATOM      7  C   UNL     1      17.442  79.965 118.701  1.00  0.00     0.093 A 
ATOM      8  C   UNL     1      16.995  78.783 118.103  1.00  0.00     0.123 A 
ATOM      9  C   UNL     1      16.255  78.841 116.925  1.00  0.00     0.094 A 
ATOM     10  C   UNL     1      15.927  80.072 116.353  1.00  0.00     0.146 A 
ATOM     11  O   UNL     1      15.208  80.082 115.237  1.00  0.00    -0.451 OA
ENDROOT
BRANCH   1  12
ATOM     12  C   UNL     1      14.044  81.075 113.370  1.00  0.00     0.063 A 
ATOM     13  C   UNL     1      13.773  81.567 111.001  1.00  0.00     0.047 A 
ATOM     14  C   UNL     1      14.492  81.701 112.192  1.00  0.00     0.020 A 
ATOM     15  C   UNL     1      12.605  80.796 110.967  1.00  0.00     0.119 A 
ATOM     16  C   UNL     1      12.160  80.160 112.128  1.00  0.00     0.093 A 
ATOM     17  C   UNL     1      12.873  80.291 113.329  1.00  0.00     0.130 A 
BRANCH  15  18
ATOM     18  O   UNL     1      11.883  80.655 109.784  1.00  0.00    -0.508 OA
ATOM     19  H   UNL     1      12.161  81.129 108.933  1.00  0.00     0.293 HD
ENDBRANCH  15  18
BRANCH  17  20
ATOM     20  O   UNL     1      12.413  79.654 114.482  1.00  0.00    -0.507 OA
ATOM     21  H   UNL     1      13.050  79.294 115.181  1.00  0.00     0.293 HD
ENDBRANCH  17  20
ENDBRANCH   1  12
BRANCH   2  22
ATOM     22  O   UNL     1      14.668  83.617 114.589  1.00  0.00    -0.502 OA
ATOM     23  H   UNL     1      14.765  83.798 113.597  1.00  0.00     0.293 HD
ENDBRANCH   2  22
BRANCH   6  24
ATOM     24  O   UNL     1      17.732  82.327 118.753  1.00  0.00    -0.507 OA
ATOM     25  H   UNL     1      17.417  83.277 118.635  1.00  0.00     0.293 HD
ENDBRANCH   6  24
BRANCH   8  26
ATOM     26  O   UNL     1      17.294  77.545 118.668  1.00  0.00    -0.508 OA
ATOM     27  H   UNL     1      17.395  76.713 118.099  1.00  0.00     0.293 HD
ENDBRANCH   8  26
TORSDOF 6
ENDMDL
MODEL 3
REMARK VINA RESULT:    -7.359      8.512     10.115
REMARK INTER + INTRA:          -9.342
REMARK INTER:                  -8.953
REMARK INTRA:                  -0.389
REMARK UNBOUND:                -0.478
REMARK SMILES O=c1c(O)c(-c2ccc(O)cc2O)oc2cc(O)cc(O)c12
REMARK SMILES IDX 5 1 3 2 2 3 1 4 22 5 20 6 19 7 17 8 16 9 15 10 14 11 6 12
REMARK SMILES IDX 8 13 7 14 9 15 11 16 12 17 10 18 13 20 4 22 21 24 18 26
REMARK H PARENT 10 19 13 21 4 23 21 25 18 27
REMARK Flexibility Score: inf
ROOT
ATOM      1  C   UNL     1      11.069  83.267 109.797  1.00  0.00     0.184 A 
ATOM      2  C   UNL     1      10.991  82.103 110.579  1.00  0.00     0.208 A 
ATOM      3  C   UNL     1      12.121  81.693 111.305  1.00  0.00     0.238 A 
ATOM      4  O   UNL     1      12.062  80.619 111.959  1.00  0.00    -0.285 OA
ATOM      5  C   UNL     1      13.307  82.464 111.255  1.00  0.00     0.111 A 
ATOM      6  C   UNL     1      14.499  82.165 111.982  1.00  0.00     0.134 A 
ATOM      7  C   UNL     1      15.654  82.925 111.757  1.00  0.00     0.093 A 
ATOM      8  C   UNL     1      15.641  84.013 110.881  1.00  0.00     0.123 A 
ATOM      9  C   UNL     1      14.466  84.349 110.213  1.00  0.00     0.094 A 
ATOM     10  C   UNL     1      13.308  83.587 110.388  1.00  0.00     0.146 A 
ATOM     11  O   UNL     1      12.214  83.935 109.722  1.00  0.00    -0.451 OA
ENDROOT
BRANCH   1  12
ATOM     12  C   UNL     1       9.908  83.769 109.025  1.00  0.00     0.063 A 
ATOM     13  C   UNL     1       8.282  83.483 107.236  1.00  0.00     0.047 A 
ATOM     14  C   UNL     1       9.394  83.024 107.947  1.00  0.00     0.020 A 
ATOM     15  C   UNL     1       7.662  84.684 107.598  1.00  0.00     0.119 A 
ATOM     16  C   UNL     1       8.156  85.423 108.675  1.00  0.00     0.093 A 
ATOM     17  C   UNL     1       9.273  84.972 109.393  1.00  0.00     0.130 A 
BRANCH  15  18
ATOM     18  O   UNL     1       6.552  85.149 106.895  1.00  0.00    -0.508 OA
ATOM     19  H   UNL     1       5.819  84.521 106.586  1.00  0.00     0.293 HD
ENDBRANCH  15  18
BRANCH  17  20
ATOM     20  O   UNL     1       9.759  85.725 110.463  1.00  0.00    -0.507 OA
ATOM     21  H   UNL     1      10.316  85.306 111.198  1.00  0.00     0.293 HD
ENDBRANCH  17  20
ENDBRANCH   1  12
BRANCH   2  22
ATOM     22  O   UNL     1       9.812  81.352 110.602  1.00  0.00    -0.502 OA
ATOM     23  H   UNL     1       9.073  81.521 111.274  1.00  0.00     0.293 HD
ENDBRANCH   2  22
BRANCH   6  24
ATOM     24  O   UNL     1      14.592  81.158 112.948  1.00  0.00    -0.507 OA
ATOM     25  H   UNL     1      15.215  80.367 112.896  1.00  0.00     0.293 HD
ENDBRANCH   6  24
BRANCH   8  26
ATOM     26  O   UNL     1      16.790  84.774 110.676  1.00  0.00    -0.508 OA
ATOM     27  H   UNL     1      17.429  84.575 109.914  1.00  0.00     0.293 HD
ENDBRANCH   8  26
TORSDOF 6
ENDMDL
MODEL 4
REMARK VINA RESULT:    -7.292      6.033      7.877
REMARK INTER + INTRA:          -9.262
REMARK INTER:                  -8.890
REMARK INTRA:                  -0.372
REMARK UNBOUND:                -0.478
REMARK SMILES O=c1c(O)c(-c2ccc(O)cc2O)oc2cc(O)cc(O)c12
REMARK SMILES IDX 5 1 3 2 2 3 1 4 22 5 20 6 19 7 17 8 16 9 15 10 14 11 6 12
REMARK SMILES IDX 8 13 7 14 9 15 11 16 12 17 10 18 13 20 4 22 21 24 18 26
REMARK H PARENT 10 19 13 21 4 23 21 25 18 27
REMARK Flexibility Score: inf
ROOT
ATOM      1  C   UNL     1      13.114  81.869 111.784  1.00  0.00     0.184 A 
ATOM      2  C   UNL     1      13.533  80.530 111.858  1.00  0.00     0.208 A 
ATOM      3  C   UNL     1      14.280  80.110 112.969  1.00  0.00     0.238 A 
ATOM      4  O   UNL     1      14.700  78.923 113.002  1.00  0.00    -0.285 OA
ATOM      5  C   UNL     1      14.582  81.029 114.003  1.00  0.00     0.111 A 
ATOM      6  C   UNL     1      15.298  80.703 115.194  1.00  0.00     0.134 A 
ATOM      7  C   UNL     1      15.650  81.722 116.089  1.00  0.00     0.093 A 
ATOM      8  C   UNL     1      15.256  83.044 115.867  1.00  0.00     0.123 A 
ATOM      9  C   UNL     1      14.505  83.361 114.737  1.00  0.00     0.094 A 
ATOM     10  C   UNL     1      14.170  82.373 113.808  1.00  0.00     0.146 A 
ATOM     11  O   UNL     1      13.465  82.722 112.739  1.00  0.00    -0.451 OA
ENDROOT
BRANCH   1  12
ATOM     12  C   UNL     1      12.303  82.373 110.651  1.00  0.00     0.063 A 
ATOM     13  C   UNL     1      10.268  82.301 109.317  1.00  0.00     0.047 A 
ATOM     14  C   UNL     1      11.046  81.808 110.368  1.00  0.00     0.020 A 
ATOM     15  C   UNL     1      10.729  83.372 108.543  1.00  0.00     0.119 A 
ATOM     16  C   UNL     1      11.969  83.948 108.825  1.00  0.00     0.093 A 
ATOM     17  C   UNL     1      12.759  83.459 109.876  1.00  0.00     0.130 A 
BRANCH  15  18
ATOM     18  O   UNL     1       9.960  83.871 107.494  1.00  0.00    -0.508 OA
ATOM     19  H   UNL     1       9.094  84.370 107.662  1.00  0.00     0.293 HD
ENDBRANCH  15  18
BRANCH  17  20
ATOM     20  O   UNL     1      13.998  84.041 110.142  1.00  0.00    -0.507 OA
ATOM     21  H   UNL     1      14.656  84.254 109.402  1.00  0.00     0.293 HD
ENDBRANCH  17  20
ENDBRANCH   1  12
BRANCH   2  22
ATOM     22  O   UNL     1      13.233  79.645 110.818  1.00  0.00    -0.502 OA
ATOM     23  H   UNL     1      13.626  78.712 110.769  1.00  0.00     0.293 HD
ENDBRANCH   2  22
BRANCH   6  24
ATOM     24  O   UNL     1      15.660  79.402 115.555  1.00  0.00    -0.507 OA
ATOM     25  H   UNL     1      15.369  78.568 115.070  1.00  0.00     0.293 HD
ENDBRANCH   6  24
BRANCH   8  26
ATOM     26  O   UNL     1      15.596  84.047 116.770  1.00  0.00    -0.508 OA
ATOM     27  H   UNL     1      16.172  83.857 117.582  1.00  0.00     0.293 HD
ENDBRANCH   8  26
TORSDOF 6
ENDMDL
MODEL 5
REMARK VINA RESULT:    -7.273      3.317      6.295
REMARK INTER + INTRA:          -9.239
REMARK INTER:                  -8.826
REMARK INTRA:                  -0.413
REMARK UNBOUND:                -0.478
REMARK SMILES O=c1c(O)c(-c2ccc(O)cc2O)oc2cc(O)cc(O)c12
REMARK SMILES IDX 5 1 3 2 2 3 1 4 22 5 20 6 19 7 17 8 16 9 15 10 14 11 6 12
REMARK SMILES IDX 8 13 7 14 9 15 11 16 12 17 10 18 13 20 4 22 21 24 18 26
REMARK H PARENT 10 19 13 21 4 23 21 25 18 27
REMARK Flexibility Score: inf
ROOT
ATOM      1  C   UNL     1      15.494  79.708 115.503  1.00  0.00     0.184 A 
ATOM      2  C   UNL     1      15.441  81.106 115.626  1.00  0.00     0.208 A 
ATOM      3  C   UNL     1      14.856  81.858 114.596  1.00  0.00     0.238 A 
ATOM      4  O   UNL     1      14.862  83.115 114.686  1.00  0.00    -0.285 OA
ATOM      5  C   UNL     1      14.312  81.202 113.466  1.00  0.00     0.111 A 
ATOM      6  C   UNL     1      13.659  81.862 112.381  1.00  0.00     0.134 A 
ATOM      7  C   UNL     1      13.274  81.124 111.254  1.00  0.00     0.093 A 
ATOM      8  C   UNL     1      13.460  79.740 111.202  1.00  0.00     0.123 A 
ATOM      9  C   UNL     1      14.042  79.079 112.281  1.00  0.00     0.094 A 
ATOM     10  C   UNL     1      14.470  79.793 113.403  1.00  0.00     0.146 A 
ATOM     11  O   UNL     1      15.031  79.125 114.403  1.00  0.00    -0.451 OA
ENDROOT
BRANCH   1  12
ATOM     12  C   UNL     1      16.076  78.851 116.562  1.00  0.00     0.063 A 
ATOM     13  C   UNL     1      18.023  77.910 117.681  1.00  0.00     0.047 A 
ATOM     14  C   UNL     1      17.471  78.695 116.665  1.00  0.00     0.020 A 
ATOM     15  C   UNL     1      17.191  77.280 118.614  1.00  0.00     0.119 A 
ATOM     16  C   UNL     1      15.807  77.441 118.529  1.00  0.00     0.093 A 
ATOM     17  C   UNL     1      15.243  78.224 117.511  1.00  0.00     0.130 A 
BRANCH  15  18
ATOM     18  O   UNL     1      17.732  76.496 119.631  1.00  0.00    -0.508 OA
ATOM     19  H   UNL     1      17.777  75.486 119.555  1.00  0.00     0.293 HD
ENDBRANCH  15  18
BRANCH  17  20
ATOM     20  O   UNL     1      13.857  78.370 117.435  1.00  0.00    -0.507 OA
ATOM     21  H   UNL     1      13.424  78.996 116.767  1.00  0.00     0.293 HD
ENDBRANCH  17  20
ENDBRANCH   1  12
BRANCH   2  22
ATOM     22  O   UNL     1      15.996  81.732 116.746  1.00  0.00    -0.502 OA
ATOM     23  H   UNL     1      16.633  82.516 116.670  1.00  0.00     0.293 HD
ENDBRANCH   2  22
BRANCH   6  24
ATOM     24  O   UNL     1      13.344  83.224 112.373  1.00  0.00    -0.507 OA
ATOM     25  H   UNL     1      13.693  83.900 113.034  1.00  0.00     0.293 HD
ENDBRANCH   6  24
BRANCH   8  26
ATOM     26  O   UNL     1      13.059  79.011 110.085  1.00  0.00    -0.508 OA
ATOM     27  H   UNL     1      13.390  78.068 109.920  1.00  0.00     0.293 HD
ENDBRANCH   8  26
TORSDOF 6
ENDMDL
MODEL 6
REMARK VINA RESULT:    -7.270      1.244      2.894
REMARK INTER + INTRA:          -9.236
REMARK INTER:                  -8.842
REMARK INTRA:                  -0.393
REMARK UNBOUND:                -0.478
REMARK SMILES O=c1c(O)c(-c2ccc(O)cc2O)oc2cc(O)cc(O)c12
REMARK SMILES IDX 5 1 3 2 2 3 1 4 22 5 20 6 19 7 17 8 16 9 15 10 14 11 6 12
REMARK SMILES IDX 8 13 7 14 9 15 11 16 12 17 10 18 13 20 4 22 21 24 18 26
REMARK H PARENT 10 19 13 21 4 23 21 25 18 27
REMARK Flexibility Score: inf
ROOT
ATOM      1  C   UNL     1      13.902  77.288 116.824  1.00  0.00     0.184 A 
ATOM      2  C   UNL     1      15.042  76.504 117.069  1.00  0.00     0.208 A 
ATOM      3  C   UNL     1      16.269  77.142 117.310  1.00  0.00     0.238 A 
ATOM      4  O   UNL     1      17.297  76.434 117.474  1.00  0.00    -0.285 OA
ATOM      5  C   UNL     1      16.336  78.556 117.322  1.00  0.00     0.111 A 
ATOM      6  C   UNL     1      17.519  79.309 117.596  1.00  0.00     0.134 A 
ATOM      7  C   UNL     1      17.497  80.703 117.455  1.00  0.00     0.093 A 
ATOM      8  C   UNL     1      16.321  81.375 117.114  1.00  0.00     0.123 A 
ATOM      9  C   UNL     1      15.148  80.653 116.905  1.00  0.00     0.094 A 
ATOM     10  C   UNL     1      15.146  79.260 117.002  1.00  0.00     0.146 A 
ATOM     11  O   UNL     1      14.010  78.610 116.781  1.00  0.00    -0.451 OA
ENDROOT
BRANCH   1  12
ATOM     12  C   UNL     1      12.572  76.680 116.585  1.00  0.00     0.063 A 
ATOM     13  C   UNL     1      10.895  75.811 115.050  1.00  0.00     0.047 A 
ATOM     14  C   UNL     1      12.138  76.409 115.275  1.00  0.00     0.020 A 
ATOM     15  C   UNL     1      10.075  75.464 116.130  1.00  0.00     0.119 A 
ATOM     16  C   UNL     1      10.504  75.716 117.435  1.00  0.00     0.093 A 
ATOM     17  C   UNL     1      11.748  76.319 117.671  1.00  0.00     0.130 A 
BRANCH  15  18
ATOM     18  O   UNL     1       8.835  74.866 115.916  1.00  0.00    -0.508 OA
ATOM     19  H   UNL     1       8.090  74.931 116.600  1.00  0.00     0.293 HD
ENDBRANCH  15  18
BRANCH  17  20
ATOM     20  O   UNL     1      12.160  76.571 118.980  1.00  0.00    -0.507 OA
ATOM     21  H   UNL     1      11.562  77.047 119.644  1.00  0.00     0.293 HD
ENDBRANCH  17  20
ENDBRANCH   1  12
BRANCH   2  22
ATOM     22  O   UNL     1      14.952  75.109 117.038  1.00  0.00    -0.502 OA
ATOM     23  H   UNL     1      15.535  74.515 117.617  1.00  0.00     0.293 HD
ENDBRANCH   2  22
BRANCH   6  24
ATOM     24  O   UNL     1      18.720  78.743 118.031  1.00  0.00    -0.507 OA
ATOM     25  H   UNL     1      19.133  77.906 117.651  1.00  0.00     0.293 HD
ENDBRANCH   6  24
BRANCH   8  26
ATOM     26  O   UNL     1      16.305  82.762 116.993  1.00  0.00    -0.508 OA
ATOM     27  H   UNL     1      16.341  83.216 116.087  1.00  0.00     0.293 HD
ENDBRANCH   8  26
TORSDOF 6
ENDMDL
MODEL 7
REMARK VINA RESULT:    -7.259      1.857      3.643
REMARK INTER + INTRA:          -9.223
REMARK INTER:                  -8.748
REMARK INTRA:                  -0.474
REMARK UNBOUND:                -0.478
REMARK SMILES O=c1c(O)c(-c2ccc(O)cc2O)oc2cc(O)cc(O)c12
REMARK SMILES IDX 5 1 3 2 2 3 1 4 22 5 20 6 19 7 17 8 16 9 15 10 14 11 6 12
REMARK SMILES IDX 8 13 7 14 9 15 11 16 12 17 10 18 13 20 4 22 21 24 18 26
REMARK H PARENT 10 19 13 21 4 23 21 25 18 27
REMARK Flexibility Score: inf
ROOT
ATOM      1  C   UNL     1      13.828  78.033 116.647  1.00  0.00     0.184 A 
ATOM      2  C   UNL     1      14.765  77.527 117.562  1.00  0.00     0.208 A 
ATOM      3  C   UNL     1      15.754  78.384 118.069  1.00  0.00     0.238 A 
ATOM      4  O   UNL     1      16.624  77.910 118.846  1.00  0.00    -0.285 OA
ATOM      5  C   UNL     1      15.782  79.741 117.668  1.00  0.00     0.111 A 
ATOM      6  C   UNL     1      16.716  80.709 118.148  1.00  0.00     0.134 A 
ATOM      7  C   UNL     1      16.730  81.992 117.586  1.00  0.00     0.093 A 
ATOM      8  C   UNL     1      15.804  82.361 116.607  1.00  0.00     0.123 A 
ATOM      9  C   UNL     1      14.851  81.441 116.176  1.00  0.00     0.094 A 
ATOM     10  C   UNL     1      14.834  80.143 116.692  1.00  0.00     0.146 A 
ATOM     11  O   UNL     1      13.917  79.294 116.243  1.00  0.00    -0.451 OA
ENDROOT
BRANCH   1  12
ATOM     12  C   UNL     1      12.743  77.190 116.091  1.00  0.00     0.063 A 
ATOM     13  C   UNL     1      10.614  76.042 116.364  1.00  0.00     0.047 A 
ATOM     14  C   UNL     1      11.651  76.814 116.894  1.00  0.00     0.020 A 
ATOM     15  C   UNL     1      10.648  75.645 115.022  1.00  0.00     0.119 A 
ATOM     16  C   UNL     1      11.721  76.025 114.213  1.00  0.00     0.093 A 
ATOM     17  C   UNL     1      12.768  76.797 114.737  1.00  0.00     0.130 A 
BRANCH  15  18
ATOM     18  O   UNL     1       9.618  74.877 114.484  1.00  0.00    -0.508 OA
ATOM     19  H   UNL     1       8.705  75.273 114.291  1.00  0.00     0.293 HD
ENDBRANCH  15  18
BRANCH  17  20
ATOM     20  O   UNL     1      13.837  77.164 113.918  1.00  0.00    -0.507 OA
ATOM     21  H   UNL     1      14.769  76.797 114.064  1.00  0.00     0.293 HD
ENDBRANCH  17  20
ENDBRANCH   1  12
BRANCH   2  22
ATOM     22  O   UNL     1      14.724  76.179 117.933  1.00  0.00    -0.502 OA
ATOM     23  H   UNL     1      14.870  75.429 117.268  1.00  0.00     0.293 HD
ENDBRANCH   2  22
BRANCH   6  24
ATOM     24  O   UNL     1      17.622  80.471 119.185  1.00  0.00    -0.507 OA
ATOM     25  H   UNL     1      18.530  80.902 119.267  1.00  0.00     0.293 HD
ENDBRANCH   6  24
BRANCH   8  26
ATOM     26  O   UNL     1      15.815  83.644 116.066  1.00  0.00    -0.508 OA
ATOM     27  H   UNL     1      14.965  84.188 115.972  1.00  0.00     0.293 HD
ENDBRANCH   8  26
TORSDOF 6
ENDMDL
MODEL 8
REMARK VINA RESULT:    -7.236      1.817      6.904
REMARK INTER + INTRA:          -9.195
REMARK INTER:                  -8.775
REMARK INTRA:                  -0.420
REMARK UNBOUND:                -0.478
REMARK SMILES O=c1c(O)c(-c2ccc(O)cc2O)oc2cc(O)cc(O)c12
REMARK SMILES IDX 5 1 3 2 2 3 1 4 22 5 20 6 19 7 17 8 16 9 15 10 14 11 6 12
REMARK SMILES IDX 8 13 7 14 9 15 11 16 12 17 10 18 13 20 4 22 21 24 18 26
REMARK H PARENT 10 19 13 21 4 23 21 25 18 27
REMARK Flexibility Score: inf
ROOT
ATOM      1  C   UNL     1      13.358  76.638 116.779  1.00  0.00     0.184 A 
ATOM      2  C   UNL     1      12.264  76.376 117.619  1.00  0.00     0.208 A 
ATOM      3  C   UNL     1      11.054  75.950 117.049  1.00  0.00     0.238 A 
ATOM      4  O   UNL     1      10.061  75.771 117.802  1.00  0.00    -0.285 OA
ATOM      5  C   UNL     1      10.960  75.772 115.647  1.00  0.00     0.111 A 
ATOM      6  C   UNL     1       9.795  75.305 114.966  1.00  0.00     0.134 A 
ATOM      7  C   UNL     1       9.775  75.289 113.565  1.00  0.00     0.093 A 
ATOM      8  C   UNL     1      10.900  75.662 112.824  1.00  0.00     0.123 A 
ATOM      9  C   UNL     1      12.060  76.061 113.482  1.00  0.00     0.094 A 
ATOM     10  C   UNL     1      12.099  76.122 114.877  1.00  0.00     0.146 A 
ATOM     11  O   UNL     1      13.222  76.521 115.463  1.00  0.00    -0.451 OA
ENDROOT
BRANCH   1  12
ATOM     12  C   UNL     1      14.671  77.068 117.316  1.00  0.00     0.063 A 
ATOM     13  C   UNL     1      16.100  78.799 118.257  1.00  0.00     0.047 A 
ATOM     14  C   UNL     1      14.871  78.399 117.724  1.00  0.00     0.020 A 
ATOM     15  C   UNL     1      17.140  77.874 118.399  1.00  0.00     0.119 A 
ATOM     16  C   UNL     1      16.946  76.547 118.009  1.00  0.00     0.093 A 
ATOM     17  C   UNL     1      15.717  76.136 117.471  1.00  0.00     0.130 A 
BRANCH  15  18
ATOM     18  O   UNL     1      18.368  78.263 118.930  1.00  0.00    -0.508 OA
ATOM     19  H   UNL     1      18.951  78.951 118.468  1.00  0.00     0.293 HD
ENDBRANCH  15  18
BRANCH  17  20
ATOM     20  O   UNL     1      15.541  74.808 117.080  1.00  0.00    -0.507 OA
ATOM     21  H   UNL     1      15.964  74.441 116.236  1.00  0.00     0.293 HD
ENDBRANCH  17  20
ENDBRANCH   1  12
BRANCH   2  22
ATOM     22  O   UNL     1      12.377  76.572 118.998  1.00  0.00    -0.502 OA
ATOM     23  H   UNL     1      11.572  76.578 119.614  1.00  0.00     0.293 HD
ENDBRANCH   2  22
BRANCH   6  24
ATOM     24  O   UNL     1       8.653  74.825 115.612  1.00  0.00    -0.507 OA
ATOM     25  H   UNL     1       7.983  74.192 115.203  1.00  0.00     0.293 HD
ENDBRANCH   6  24
BRANCH   8  26
ATOM     26  O   UNL     1      10.876  75.627 111.432  1.00  0.00    -0.508 OA
ATOM     27  H   UNL     1      11.405  74.938 110.909  1.00  0.00     0.293 HD
ENDBRANCH   8  26
TORSDOF 6
ENDMDL
MODEL 9
REMARK VINA RESULT:    -7.227      3.104      5.681
REMARK INTER + INTRA:          -9.183
REMARK INTER:                  -8.786
REMARK INTRA:                  -0.397
REMARK UNBOUND:                -0.478
REMARK SMILES O=c1c(O)c(-c2ccc(O)cc2O)oc2cc(O)cc(O)c12
REMARK SMILES IDX 5 1 3 2 2 3 1 4 22 5 20 6 19 7 17 8 16 9 15 10 14 11 6 12
REMARK SMILES IDX 8 13 7 14 9 15 11 16 12 17 10 18 13 20 4 22 21 24 18 26
REMARK H PARENT 10 19 13 21 4 23 21 25 18 27
REMARK Flexibility Score: inf
ROOT
ATOM      1  C   UNL     1      14.913  80.313 115.217  1.00  0.00     0.184 A 
ATOM      2  C   UNL     1      13.857  79.446 115.541  1.00  0.00     0.208 A 
ATOM      3  C   UNL     1      14.033  78.515 116.575  1.00  0.00     0.238 A 
ATOM      4  O   UNL     1      13.102  77.703 116.824  1.00  0.00    -0.285 OA
ATOM      5  C   UNL     1      15.256  78.475 117.287  1.00  0.00     0.111 A 
ATOM      6  C   UNL     1      15.530  77.599 118.380  1.00  0.00     0.134 A 
ATOM      7  C   UNL     1      16.820  77.558 118.926  1.00  0.00     0.093 A 
ATOM      8  C   UNL     1      17.826  78.407 118.460  1.00  0.00     0.123 A 
ATOM      9  C   UNL     1      17.551  79.307 117.434  1.00  0.00     0.094 A 
ATOM     10  C   UNL     1      16.285  79.346 116.845  1.00  0.00     0.146 A 
ATOM     11  O   UNL     1      16.070  80.211 115.861  1.00  0.00    -0.451 OA
ENDROOT
BRANCH   1  12
ATOM     12  C   UNL     1      14.787  81.336 114.152  1.00  0.00     0.063 A 
ATOM     13  C   UNL     1      14.510  81.912 111.803  1.00  0.00     0.047 A 
ATOM     14  C   UNL     1      14.657  80.949 112.806  1.00  0.00     0.020 A 
ATOM     15  C   UNL     1      14.480  83.272 112.133  1.00  0.00     0.119 A 
ATOM     16  C   UNL     1      14.594  83.665 113.468  1.00  0.00     0.093 A 
ATOM     17  C   UNL     1      14.745  82.706 114.481  1.00  0.00     0.130 A 
BRANCH  15  18
ATOM     18  O   UNL     1      14.333  84.240 111.141  1.00  0.00    -0.508 OA
ATOM     19  H   UNL     1      15.061  84.414 110.458  1.00  0.00     0.293 HD
ENDBRANCH  15  18
BRANCH  17  20
ATOM     20  O   UNL     1      14.864  83.114 115.810  1.00  0.00    -0.507 OA
ATOM     21  H   UNL     1      14.647  82.492 116.579  1.00  0.00     0.293 HD
ENDBRANCH  17  20
ENDBRANCH   1  12
BRANCH   2  22
ATOM     22  O   UNL     1      12.663  79.496 114.815  1.00  0.00    -0.502 OA
ATOM     23  H   UNL     1      12.499  78.919 113.998  1.00  0.00     0.293 HD
ENDBRANCH   2  22
BRANCH   6  24
ATOM     24  O   UNL     1      14.572  76.776 118.980  1.00  0.00    -0.507 OA
ATOM     25  H   UNL     1      14.214  75.923 118.579  1.00  0.00     0.293 HD
ENDBRANCH   6  24
BRANCH   8  26
ATOM     26  O   UNL     1      19.101  78.371 119.020  1.00  0.00    -0.508 OA
ATOM     27  H   UNL     1      19.653  79.213 119.137  1.00  0.00     0.293 HD
ENDBRANCH   8  26
TORSDOF 6
ENDMDL
