MODEL 1
REMARK VINA RESULT:    -5.618      0.000      0.000
REMARK INTER + INTRA:         -14.857
REMARK INTER:                 -12.187
REMARK INTRA:                  -2.670
REMARK UNBOUND:                -2.670
REMARK SMILES CCCCCCCCCCCCCCCCCCCCCC(=O)[O-]
REMARK SMILES IDX 12 1 11 2 10 3 9 4 8 5 7 6 6 7 5 8 4 9 3 10 2 11 1 12 13 13
REMARK SMILES IDX 14 14 15 15 16 16 17 17 18 18 19 19 20 20 21 21 22 22 23 23
REMARK SMILES IDX 24 24
REMARK H PARENT
REMARK Flexibility Score: inf
ROOT
ATOM      1  C   UNL     1      -0.141 -29.159   6.502  1.00  0.00     0.000 C 
ENDROOT
BRANCH   1   2
ATOM      2  C   UNL     1       0.089 -29.463   5.011  1.00  0.00     0.000 C 
BRANCH   2   3
ATOM      3  C   UNL     1       1.580 -29.504   4.638  1.00  0.00     0.000 C 
BRANCH   3   4
ATOM      4  C   UNL     1       1.805 -29.704   3.130  1.00  0.00    -0.000 C 
BRANCH   4   5
ATOM      5  C   UNL     1       0.586 -30.326   2.427  1.00  0.00    -0.000 C 
BRANCH   5   6
ATOM      6  C   UNL     1       0.076 -29.465   1.258  1.00  0.00    -0.000 C 
BRANCH   6   7
ATOM      7  C   UNL     1      -0.151 -27.999   1.663  1.00  0.00    -0.000 C 
BRANCH   7   8
ATOM      8  C   UNL     1      -1.555 -27.492   1.295  1.00  0.00    -0.000 C 
BRANCH   8   9
ATOM      9  C   UNL     1      -2.155 -26.562   2.365  1.00  0.00    -0.000 C 
BRANCH   9  10
ATOM     10  C   UNL     1      -1.217 -26.243   3.544  1.00  0.00    -0.000 C 
BRANCH  10  11
ATOM     11  C   UNL     1      -0.531 -24.875   3.408  1.00  0.00    -0.003 C 
ATOM     12  C   UNL     1       0.975 -25.033   3.215  1.00  0.00     0.004 C 
ENDBRANCH  10  11
ENDBRANCH   9  10
ENDBRANCH   8   9
ENDBRANCH   7   8
ENDBRANCH   6   7
ENDBRANCH   5   6
ENDBRANCH   4   5
ENDBRANCH   3   4
ENDBRANCH   2   3
ENDBRANCH   1   2
BRANCH   1  13
ATOM     13  C   UNL     1      -0.498 -27.685   6.754  1.00  0.00     0.000 C 
BRANCH  13  14
ATOM     14  C   UNL     1       0.739 -26.817   7.035  1.00  0.00     0.000 C 
BRANCH  14  15
ATOM     15  C   UNL     1       1.595 -27.426   8.152  1.00  0.00     0.000 C 
BRANCH  15  16
ATOM     16  C   UNL     1       1.864 -26.398   9.261  1.00  0.00     0.000 C 
BRANCH  16  17
ATOM     17  C   UNL     1       0.702 -26.290  10.262  1.00  0.00     0.000 C 
BRANCH  17  18
ATOM     18  C   UNL     1       0.049 -27.651  10.559  1.00  0.00     0.000 C 
BRANCH  18  19
ATOM     19  C   UNL     1      -1.461 -27.657  10.275  1.00  0.00     0.000 C 
BRANCH  19  20
ATOM     20  C   UNL     1      -1.985 -26.278   9.839  1.00  0.00     0.006 C 
BRANCH  20  21
ATOM     21  C   UNL     1      -2.709 -25.547  10.979  1.00  0.00     0.053 C 
BRANCH  21  22
ATOM     22  C   UNL     1      -4.125 -25.217  10.619  1.00  0.00     0.041 C 
ATOM     23  O   UNL     1      -4.628 -24.117  10.970  1.00  0.00    -0.550 OA
ATOM     24  O   UNL     1      -4.881 -26.111   9.871  1.00  0.00    -0.550 OA
ENDBRANCH  21  22
ENDBRANCH  20  21
ENDBRANCH  19  20
ENDBRANCH  18  19
ENDBRANCH  17  18
ENDBRANCH  16  17
ENDBRANCH  15  16
ENDBRANCH  14  15
ENDBRANCH  13  14
ENDBRANCH   1  13
TORSDOF 20
ENDMDL
MODEL 2
REMARK VINA RESULT:    -5.583      1.783      2.752
REMARK INTER + INTRA:         -14.780
REMARK INTER:                 -12.359
REMARK INTRA:                  -2.422
REMARK UNBOUND:                -2.670
REMARK SMILES CCCCCCCCCCCCCCCCCCCCCC(=O)[O-]
REMARK SMILES IDX 12 1 11 2 10 3 9 4 8 5 7 6 6 7 5 8 4 9 3 10 2 11 1 12 13 13
REMARK SMILES IDX 14 14 15 15 16 16 17 17 18 18 19 19 20 20 21 21 22 22 23 23
REMARK SMILES IDX 24 24
REMARK H PARENT
REMARK Flexibility Score: inf
ROOT
ATOM      1  C   UNL     1       1.558 -29.610   4.011  1.00  0.00     0.000 C 
ENDROOT
BRANCH   1   2
ATOM      2  C   UNL     1       1.848 -28.458   3.031  1.00  0.00     0.000 C 
BRANCH   2   3
ATOM      3  C   UNL     1       1.925 -27.091   3.730  1.00  0.00     0.000 C 
BRANCH   3   4
ATOM      4  C   UNL     1       0.967 -26.059   3.111  1.00  0.00    -0.000 C 
BRANCH   4   5
ATOM      5  C   UNL     1      -0.367 -25.959   3.872  1.00  0.00    -0.000 C 
BRANCH   5   6
ATOM      6  C   UNL     1      -1.564 -26.438   3.031  1.00  0.00    -0.000 C 
BRANCH   6   7
ATOM      7  C   UNL     1      -1.130 -27.061   1.695  1.00  0.00    -0.000 C 
BRANCH   7   8
ATOM      8  C   UNL     1      -1.935 -26.522   0.500  1.00  0.00    -0.000 C 
BRANCH   8   9
ATOM      9  C   UNL     1      -2.296 -25.032   0.646  1.00  0.00    -0.000 C 
BRANCH   9  10
ATOM     10  C   UNL     1      -2.292 -24.233  -0.670  1.00  0.00    -0.000 C 
BRANCH  10  11
ATOM     11  C   UNL     1      -0.893 -23.739  -1.065  1.00  0.00    -0.003 C 
ATOM     12  C   UNL     1      -0.084 -23.338   0.165  1.00  0.00     0.004 C 
ENDBRANCH  10  11
ENDBRANCH   9  10
ENDBRANCH   8   9
ENDBRANCH   7   8
ENDBRANCH   6   7
ENDBRANCH   5   6
ENDBRANCH   4   5
ENDBRANCH   3   4
ENDBRANCH   2   3
ENDBRANCH   1   2
BRANCH   1  13
ATOM     13  C   UNL     1       1.276 -29.113   5.438  1.00  0.00     0.000 C 
BRANCH  13  14
ATOM     14  C   UNL     1      -0.219 -29.144   5.791  1.00  0.00     0.000 C 
BRANCH  14  15
ATOM     15  C   UNL     1      -0.512 -28.275   7.019  1.00  0.00     0.000 C 
BRANCH  15  16
ATOM     16  C   UNL     1       0.563 -27.193   7.197  1.00  0.00     0.000 C 
BRANCH  16  17
ATOM     17  C   UNL     1       0.545 -26.568   8.601  1.00  0.00     0.000 C 
BRANCH  17  18
ATOM     18  C   UNL     1      -0.665 -27.022   9.436  1.00  0.00     0.000 C 
BRANCH  18  19
ATOM     19  C   UNL     1      -0.684 -26.394  10.839  1.00  0.00     0.000 C 
BRANCH  19  20
ATOM     20  C   UNL     1      -2.060 -25.814  11.207  1.00  0.00     0.006 C 
BRANCH  20  21
ATOM     21  C   UNL     1      -3.100 -26.040  10.100  1.00  0.00     0.053 C 
BRANCH  21  22
ATOM     22  C   UNL     1      -4.475 -25.635  10.535  1.00  0.00     0.041 C 
ATOM     23  O   UNL     1      -4.708 -24.445  10.873  1.00  0.00    -0.550 OA
ATOM     24  O   UNL     1      -5.506 -26.566  10.540  1.00  0.00    -0.550 OA
ENDBRANCH  21  22
ENDBRANCH  20  21
ENDBRANCH  19  20
ENDBRANCH  18  19
ENDBRANCH  17  18
ENDBRANCH  16  17
ENDBRANCH  15  16
ENDBRANCH  14  15
ENDBRANCH  13  14
ENDBRANCH   1  13
TORSDOF 20
ENDMDL
MODEL 3
REMARK VINA RESULT:    -5.494      3.209      7.969
REMARK INTER + INTRA:         -14.587
REMARK INTER:                 -12.562
REMARK INTRA:                  -2.025
REMARK UNBOUND:                -2.670
REMARK SMILES CCCCCCCCCCCCCCCCCCCCCC(=O)[O-]
REMARK SMILES IDX 12 1 11 2 10 3 9 4 8 5 7 6 6 7 5 8 4 9 3 10 2 11 1 12 13 13
REMARK SMILES IDX 14 14 15 15 16 16 17 17 18 18 19 19 20 20 21 21 22 22 23 23
REMARK SMILES IDX 24 24
REMARK H PARENT
REMARK Flexibility Score: inf
ROOT
ATOM      1  C   UNL     1      -0.107 -27.662   5.422  1.00  0.00     0.000 C 
ENDROOT
BRANCH   1   2
ATOM      2  C   UNL     1      -0.076 -27.161   6.877  1.00  0.00     0.000 C 
BRANCH   2   3
ATOM      3  C   UNL     1       1.352 -26.906   7.386  1.00  0.00     0.000 C 
BRANCH   3   4
ATOM      4  C   UNL     1       1.555 -27.386   8.833  1.00  0.00    -0.000 C 
BRANCH   4   5
ATOM      5  C   UNL     1       1.526 -26.232   9.849  1.00  0.00    -0.000 C 
BRANCH   5   6
ATOM      6  C   UNL     1       0.354 -26.346  10.839  1.00  0.00    -0.000 C 
BRANCH   6   7
ATOM      7  C   UNL     1      -0.491 -27.608  10.605  1.00  0.00    -0.000 C 
BRANCH   7   8
ATOM      8  C   UNL     1      -1.847 -27.302   9.947  1.00  0.00    -0.000 C 
BRANCH   8   9
ATOM      9  C   UNL     1      -2.463 -25.978  10.435  1.00  0.00    -0.000 C 
BRANCH   9  10
ATOM     10  C   UNL     1      -3.995 -25.892  10.310  1.00  0.00    -0.000 C 
BRANCH  10  11
ATOM     11  C   UNL     1      -4.551 -24.520  10.718  1.00  0.00    -0.003 C 
ATOM     12  C   UNL     1      -3.722 -23.902  11.841  1.00  0.00     0.004 C 
ENDBRANCH  10  11
ENDBRANCH   9  10
ENDBRANCH   8   9
ENDBRANCH   7   8
ENDBRANCH   6   7
ENDBRANCH   5   6
ENDBRANCH   4   5
ENDBRANCH   3   4
ENDBRANCH   2   3
ENDBRANCH   1   2
BRANCH   1  13
ATOM     13  C   UNL     1       0.161 -29.171   5.312  1.00  0.00     0.000 C 
BRANCH  13  14
ATOM     14  C   UNL     1       1.627 -29.489   4.975  1.00  0.00     0.000 C 
BRANCH  14  15
ATOM     15  C   UNL     1       1.808 -29.713   3.470  1.00  0.00     0.000 C 
BRANCH  15  16
ATOM     16  C   UNL     1       0.534 -30.298   2.843  1.00  0.00     0.000 C 
BRANCH  16  17
ATOM     17  C   UNL     1       0.205 -29.671   1.479  1.00  0.00     0.000 C 
BRANCH  17  18
ATOM     18  C   UNL     1      -0.149 -28.177   1.583  1.00  0.00     0.000 C 
BRANCH  18  19
ATOM     19  C   UNL     1      -1.596 -27.944   2.045  1.00  0.00     0.000 C 
BRANCH  19  20
ATOM     20  C   UNL     1      -2.015 -26.466   1.951  1.00  0.00     0.006 C 
BRANCH  20  21
ATOM     21  C   UNL     1      -0.805 -25.527   1.849  1.00  0.00     0.053 C 
BRANCH  21  22
ATOM     22  C   UNL     1      -0.955 -24.545   0.728  1.00  0.00     0.041 C 
ATOM     23  O   UNL     1      -0.787 -24.914  -0.465  1.00  0.00    -0.550 OA
ATOM     24  O   UNL     1      -1.309 -23.229   0.996  1.00  0.00    -0.550 OA
ENDBRANCH  21  22
ENDBRANCH  20  21
ENDBRANCH  19  20
ENDBRANCH  18  19
ENDBRANCH  17  18
ENDBRANCH  16  17
ENDBRANCH  15  16
ENDBRANCH  14  15
ENDBRANCH  13  14
ENDBRANCH   1  13
TORSDOF 20
ENDMDL
MODEL 4
REMARK VINA RESULT:    -5.486      1.144      2.952
REMARK INTER + INTRA:         -14.570
REMARK INTER:                 -11.775
REMARK INTRA:                  -2.796
REMARK UNBOUND:                -2.670
REMARK SMILES CCCCCCCCCCCCCCCCCCCCCC(=O)[O-]
REMARK SMILES IDX 12 1 11 2 10 3 9 4 8 5 7 6 6 7 5 8 4 9 3 10 2 11 1 12 13 13
REMARK SMILES IDX 14 14 15 15 16 16 17 17 18 18 19 19 20 20 21 21 22 22 23 23
REMARK SMILES IDX 24 24
REMARK H PARENT
REMARK Flexibility Score: inf
ROOT
ATOM      1  C   UNL     1      -0.070 -27.043   5.000  1.00  0.00     0.000 C 
ENDROOT
BRANCH   1   2
ATOM      2  C   UNL     1       1.449 -26.981   4.760  1.00  0.00     0.000 C 
BRANCH   2   3
ATOM      3  C   UNL     1       1.812 -26.286   3.438  1.00  0.00     0.000 C 
BRANCH   3   4
ATOM      4  C   UNL     1       1.075 -24.949   3.254  1.00  0.00    -0.000 C 
BRANCH   4   5
ATOM      5  C   UNL     1       0.220 -24.916   1.976  1.00  0.00    -0.000 C 
BRANCH   5   6
ATOM      6  C   UNL     1      -1.286 -24.812   2.276  1.00  0.00    -0.000 C 
BRANCH   6   7
ATOM      7  C   UNL     1      -2.063 -26.057   1.817  1.00  0.00    -0.000 C 
BRANCH   7   8
ATOM      8  C   UNL     1      -1.167 -27.087   1.108  1.00  0.00    -0.000 C 
BRANCH   8   9
ATOM      9  C   UNL     1      -1.060 -28.416   1.877  1.00  0.00    -0.000 C 
BRANCH   9  10
ATOM     10  C   UNL     1       0.171 -29.271   1.526  1.00  0.00    -0.000 C 
BRANCH  10  11
ATOM     11  C   UNL     1       0.458 -30.363   2.567  1.00  0.00    -0.003 C 
ATOM     12  C   UNL     1       1.853 -30.203   3.163  1.00  0.00     0.004 C 
ENDBRANCH  10  11
ENDBRANCH   9  10
ENDBRANCH   8   9
ENDBRANCH   7   8
ENDBRANCH   6   7
ENDBRANCH   5   6
ENDBRANCH   4   5
ENDBRANCH   3   4
ENDBRANCH   2   3
ENDBRANCH   1   2
BRANCH   1  13
ATOM     13  C   UNL     1      -0.471 -28.176   5.958  1.00  0.00     0.000 C 
BRANCH  13  14
ATOM     14  C   UNL     1       0.320 -28.143   7.275  1.00  0.00     0.000 C 
BRANCH  14  15
ATOM     15  C   UNL     1      -0.092 -26.942   8.134  1.00  0.00     0.000 C 
BRANCH  15  16
ATOM     16  C   UNL     1       1.087 -26.440   8.980  1.00  0.00     0.000 C 
BRANCH  16  17
ATOM     17  C   UNL     1       1.146 -27.106  10.365  1.00  0.00     0.000 C 
BRANCH  17  18
ATOM     18  C   UNL     1      -0.248 -27.464  10.910  1.00  0.00     0.000 C 
BRANCH  18  19
ATOM     19  C   UNL     1      -0.773 -26.429  11.916  1.00  0.00     0.000 C 
BRANCH  19  20
ATOM     20  C   UNL     1      -1.903 -25.562  11.335  1.00  0.00     0.006 C 
BRANCH  20  21
ATOM     21  C   UNL     1      -2.843 -26.367  10.426  1.00  0.00     0.053 C 
BRANCH  21  22
ATOM     22  C   UNL     1      -4.227 -25.794  10.408  1.00  0.00     0.041 C 
ATOM     23  O   UNL     1      -4.396 -24.548  10.333  1.00  0.00    -0.550 OA
ATOM     24  O   UNL     1      -5.331 -26.636  10.442  1.00  0.00    -0.550 OA
ENDBRANCH  21  22
ENDBRANCH  20  21
ENDBRANCH  19  20
ENDBRANCH  18  19
ENDBRANCH  17  18
ENDBRANCH  16  17
ENDBRANCH  15  16
ENDBRANCH  14  15
ENDBRANCH  13  14
ENDBRANCH   1  13
TORSDOF 20
ENDMDL
MODEL 5
REMARK VINA RESULT:    -5.426      3.455      7.813
REMARK INTER + INTRA:         -14.441
REMARK INTER:                 -11.894
REMARK INTRA:                  -2.547
REMARK UNBOUND:                -2.670
REMARK SMILES CCCCCCCCCCCCCCCCCCCCCC(=O)[O-]
REMARK SMILES IDX 12 1 11 2 10 3 9 4 8 5 7 6 6 7 5 8 4 9 3 10 2 11 1 12 13 13
REMARK SMILES IDX 14 14 15 15 16 16 17 17 18 18 19 19 20 20 21 21 22 22 23 23
REMARK SMILES IDX 24 24
REMARK H PARENT
REMARK Flexibility Score: inf
ROOT
ATOM      1  C   UNL     1       1.353 -29.466   5.870  1.00  0.00     0.000 C 
ENDROOT
BRANCH   1   2
ATOM      2  C   UNL     1      -0.149 -29.190   6.064  1.00  0.00     0.000 C 
BRANCH   2   3
ATOM      3  C   UNL     1      -0.448 -28.431   7.367  1.00  0.00     0.000 C 
BRANCH   3   4
ATOM      4  C   UNL     1      -0.087 -26.939   7.276  1.00  0.00    -0.000 C 
BRANCH   4   5
ATOM      5  C   UNL     1       1.274 -26.620   7.918  1.00  0.00    -0.000 C 
BRANCH   5   6
ATOM      6  C   UNL     1       1.465 -27.321   9.275  1.00  0.00    -0.000 C 
BRANCH   6   7
ATOM      7  C   UNL     1       0.877 -26.512  10.442  1.00  0.00    -0.000 C 
BRANCH   7   8
ATOM      8  C   UNL     1      -0.402 -27.144  11.017  1.00  0.00    -0.000 C 
BRANCH   8   9
ATOM      9  C   UNL     1      -1.587 -26.163  11.059  1.00  0.00    -0.000 C 
BRANCH   9  10
ATOM     10  C   UNL     1      -2.626 -26.355   9.938  1.00  0.00    -0.000 C 
BRANCH  10  11
ATOM     11  C   UNL     1      -4.067 -26.114  10.412  1.00  0.00    -0.003 C 
ATOM     12  C   UNL     1      -4.456 -24.646  10.264  1.00  0.00     0.004 C 
ENDBRANCH  10  11
ENDBRANCH   9  10
ENDBRANCH   8   9
ENDBRANCH   7   8
ENDBRANCH   6   7
ENDBRANCH   5   6
ENDBRANCH   4   5
ENDBRANCH   3   4
ENDBRANCH   2   3
ENDBRANCH   1   2
BRANCH   1  13
ATOM     13  C   UNL     1       1.806 -29.268   4.414  1.00  0.00     0.000 C 
BRANCH  13  14
ATOM     14  C   UNL     1       0.818 -28.418   3.599  1.00  0.00     0.000 C 
BRANCH  14  15
ATOM     15  C   UNL     1       1.445 -27.076   3.203  1.00  0.00     0.000 C 
BRANCH  15  16
ATOM     16  C   UNL     1       0.577 -25.902   3.682  1.00  0.00     0.000 C 
BRANCH  16  17
ATOM     17  C   UNL     1      -0.881 -26.312   3.940  1.00  0.00     0.000 C 
BRANCH  17  18
ATOM     18  C   UNL     1      -1.839 -25.821   2.839  1.00  0.00     0.000 C 
BRANCH  18  19
ATOM     19  C   UNL     1      -2.181 -26.918   1.820  1.00  0.00     0.000 C 
BRANCH  19  20
ATOM     20  C   UNL     1      -2.142 -26.409   0.369  1.00  0.00     0.006 C 
BRANCH  20  21
ATOM     21  C   UNL     1      -0.909 -25.537   0.094  1.00  0.00     0.053 C 
BRANCH  21  22
ATOM     22  C   UNL     1      -1.280 -24.108  -0.159  1.00  0.00     0.041 C 
ATOM     23  O   UNL     1      -2.343 -23.829  -0.775  1.00  0.00    -0.550 OA
ATOM     24  O   UNL     1      -0.469 -23.083   0.311  1.00  0.00    -0.550 OA
ENDBRANCH  21  22
ENDBRANCH  20  21
ENDBRANCH  19  20
ENDBRANCH  18  19
ENDBRANCH  17  18
ENDBRANCH  16  17
ENDBRANCH  15  16
ENDBRANCH  14  15
ENDBRANCH  13  14
ENDBRANCH   1  13
TORSDOF 20
ENDMDL
MODEL 6
REMARK VINA RESULT:    -5.327      1.293      2.147
REMARK INTER + INTRA:         -14.225
REMARK INTER:                 -11.779
REMARK INTRA:                  -2.446
REMARK UNBOUND:                -2.670
REMARK SMILES CCCCCCCCCCCCCCCCCCCCCC(=O)[O-]
REMARK SMILES IDX 12 1 11 2 10 3 9 4 8 5 7 6 6 7 5 8 4 9 3 10 2 11 1 12 13 13
REMARK SMILES IDX 14 14 15 15 16 16 17 17 18 18 19 19 20 20 21 21 22 22 23 23
REMARK SMILES IDX 24 24
REMARK H PARENT
REMARK Flexibility Score: inf
ROOT
ATOM      1  C   UNL     1       0.410 -26.876   6.334  1.00  0.00     0.000 C 
ENDROOT
BRANCH   1   2
ATOM      2  C   UNL     1      -0.446 -27.580   5.265  1.00  0.00     0.000 C 
BRANCH   2   3
ATOM      3  C   UNL     1      -0.140 -29.082   5.156  1.00  0.00     0.000 C 
BRANCH   3   4
ATOM      4  C   UNL     1       1.330 -29.360   4.800  1.00  0.00    -0.000 C 
BRANCH   4   5
ATOM      5  C   UNL     1       1.635 -29.114   3.313  1.00  0.00    -0.000 C 
BRANCH   5   6
ATOM      6  C   UNL     1       0.969 -30.154   2.394  1.00  0.00    -0.000 C 
BRANCH   6   7
ATOM      7  C   UNL     1      -0.047 -29.521   1.431  1.00  0.00    -0.000 C 
BRANCH   7   8
ATOM      8  C   UNL     1      -0.183 -28.002   1.626  1.00  0.00    -0.000 C 
BRANCH   8   9
ATOM      9  C   UNL     1      -1.649 -27.529   1.636  1.00  0.00    -0.000 C 
BRANCH   9  10
ATOM     10  C   UNL     1      -1.862 -26.090   2.139  1.00  0.00    -0.000 C 
BRANCH  10  11
ATOM     11  C   UNL     1      -1.975 -25.068   0.998  1.00  0.00    -0.003 C 
ATOM     12  C   UNL     1      -2.449 -25.734  -0.290  1.00  0.00     0.004 C 
ENDBRANCH  10  11
ENDBRANCH   9  10
ENDBRANCH   8   9
ENDBRANCH   7   8
ENDBRANCH   6   7
ENDBRANCH   5   6
ENDBRANCH   4   5
ENDBRANCH   3   4
ENDBRANCH   2   3
ENDBRANCH   1   2
BRANCH   1  13
ATOM     13  C   UNL     1      -0.086 -27.150   7.762  1.00  0.00     0.000 C 
BRANCH  13  14
ATOM     14  C   UNL     1       0.660 -28.313   8.435  1.00  0.00     0.000 C 
BRANCH  14  15
ATOM     15  C   UNL     1      -0.323 -29.356   8.979  1.00  0.00     0.000 C 
BRANCH  15  16
ATOM     16  C   UNL     1      -0.237 -29.446  10.510  1.00  0.00     0.000 C 
BRANCH  16  17
ATOM     17  C   UNL     1       0.920 -28.615  11.086  1.00  0.00     0.000 C 
BRANCH  17  18
ATOM     18  C   UNL     1       0.437 -27.514  12.048  1.00  0.00     0.000 C 
BRANCH  18  19
ATOM     19  C   UNL     1      -0.151 -26.301  11.311  1.00  0.00     0.000 C 
BRANCH  19  20
ATOM     20  C   UNL     1      -1.652 -26.110  11.591  1.00  0.00     0.006 C 
BRANCH  20  21
ATOM     21  C   UNL     1      -2.495 -26.198  10.311  1.00  0.00     0.053 C 
BRANCH  21  22
ATOM     22  C   UNL     1      -3.727 -25.351  10.396  1.00  0.00     0.041 C 
ATOM     23  O   UNL     1      -3.660 -24.178  10.849  1.00  0.00    -0.550 OA
ATOM     24  O   UNL     1      -4.946 -25.846   9.947  1.00  0.00    -0.550 OA
ENDBRANCH  21  22
ENDBRANCH  20  21
ENDBRANCH  19  20
ENDBRANCH  18  19
ENDBRANCH  17  18
ENDBRANCH  16  17
ENDBRANCH  15  16
ENDBRANCH  14  15
ENDBRANCH  13  14
ENDBRANCH   1  13
TORSDOF 20
ENDMDL
MODEL 7
REMARK VINA RESULT:    -5.323      2.961      7.793
REMARK INTER + INTRA:         -14.216
REMARK INTER:                 -11.936
REMARK INTRA:                  -2.280
REMARK UNBOUND:                -2.670
REMARK SMILES CCCCCCCCCCCCCCCCCCCCCC(=O)[O-]
REMARK SMILES IDX 12 1 11 2 10 3 9 4 8 5 7 6 6 7 5 8 4 9 3 10 2 11 1 12 13 13
REMARK SMILES IDX 14 14 15 15 16 16 17 17 18 18 19 19 20 20 21 21 22 22 23 23
REMARK SMILES IDX 24 24
REMARK H PARENT
REMARK Flexibility Score: inf
ROOT
ATOM      1  C   UNL     1      -0.258 -26.978   7.411  1.00  0.00     0.000 C 
ENDROOT
BRANCH   1   2
ATOM      2  C   UNL     1      -0.850 -28.246   8.054  1.00  0.00     0.000 C 
BRANCH   2   3
ATOM      3  C   UNL     1       0.169 -28.998   8.926  1.00  0.00     0.000 C 
BRANCH   3   4
ATOM      4  C   UNL     1       1.456 -28.189   9.158  1.00  0.00    -0.000 C 
BRANCH   4   5
ATOM      5  C   UNL     1       1.588 -27.692  10.608  1.00  0.00    -0.000 C 
BRANCH   5   6
ATOM      6  C   UNL     1       0.880 -26.345  10.837  1.00  0.00    -0.000 C 
BRANCH   6   7
ATOM      7  C   UNL     1       0.004 -26.349  12.100  1.00  0.00    -0.000 C 
BRANCH   7   8
ATOM      8  C   UNL     1      -1.410 -25.799  11.843  1.00  0.00    -0.000 C 
BRANCH   8   9
ATOM      9  C   UNL     1      -2.039 -26.347  10.549  1.00  0.00    -0.000 C 
BRANCH   9  10
ATOM     10  C   UNL     1      -3.564 -26.169  10.445  1.00  0.00    -0.000 C 
BRANCH  10  11
ATOM     11  C   UNL     1      -3.972 -24.762   9.982  1.00  0.00    -0.003 C 
ATOM     12  C   UNL     1      -4.410 -23.900  11.162  1.00  0.00     0.004 C 
ENDBRANCH  10  11
ENDBRANCH   9  10
ENDBRANCH   8   9
ENDBRANCH   7   8
ENDBRANCH   6   7
ENDBRANCH   5   6
ENDBRANCH   4   5
ENDBRANCH   3   4
ENDBRANCH   2   3
ENDBRANCH   1   2
BRANCH   1  13
ATOM     13  C   UNL     1       0.064 -27.169   5.920  1.00  0.00     0.000 C 
BRANCH  13  14
ATOM     14  C   UNL     1      -0.527 -28.467   5.349  1.00  0.00     0.000 C 
BRANCH  14  15
ATOM     15  C   UNL     1       0.569 -29.512   5.110  1.00  0.00     0.000 C 
BRANCH  15  16
ATOM     16  C   UNL     1       1.823 -28.865   4.505  1.00  0.00     0.000 C 
BRANCH  16  17
ATOM     17  C   UNL     1       1.770 -28.797   2.970  1.00  0.00     0.000 C 
BRANCH  17  18
ATOM     18  C   UNL     1       0.956 -29.949   2.354  1.00  0.00     0.000 C 
BRANCH  18  19
ATOM     19  C   UNL     1      -0.278 -29.455   1.584  1.00  0.00     0.000 C 
BRANCH  19  20
ATOM     20  C   UNL     1      -0.414 -27.923   1.607  1.00  0.00     0.006 C 
BRANCH  20  21
ATOM     21  C   UNL     1      -1.881 -27.472   1.651  1.00  0.00     0.053 C 
BRANCH  21  22
ATOM     22  C   UNL     1      -2.026 -26.014   1.340  1.00  0.00     0.041 C 
ATOM     23  O   UNL     1      -1.455 -25.152   2.059  1.00  0.00    -0.550 OA
ATOM     24  O   UNL     1      -2.768 -25.608   0.237  1.00  0.00    -0.550 OA
ENDBRANCH  21  22
ENDBRANCH  20  21
ENDBRANCH  19  20
ENDBRANCH  18  19
ENDBRANCH  17  18
ENDBRANCH  16  17
ENDBRANCH  15  16
ENDBRANCH  14  15
ENDBRANCH  13  14
ENDBRANCH   1  13
TORSDOF 20
ENDMDL
MODEL 8
REMARK VINA RESULT:    -5.309      1.285      2.257
REMARK INTER + INTRA:         -14.187
REMARK INTER:                 -11.717
REMARK INTRA:                  -2.469
REMARK UNBOUND:                -2.670
REMARK SMILES CCCCCCCCCCCCCCCCCCCCCC(=O)[O-]
REMARK SMILES IDX 12 1 11 2 10 3 9 4 8 5 7 6 6 7 5 8 4 9 3 10 2 11 1 12 13 13
REMARK SMILES IDX 14 14 15 15 16 16 17 17 18 18 19 19 20 20 21 21 22 22 23 23
REMARK SMILES IDX 24 24
REMARK H PARENT
REMARK Flexibility Score: inf
ROOT
ATOM      1  C   UNL     1       0.030 -29.489   5.371  1.00  0.00     0.000 C 
ENDROOT
BRANCH   1   2
ATOM      2  C   UNL     1       1.476 -29.433   4.846  1.00  0.00     0.000 C 
BRANCH   2   3
ATOM      3  C   UNL     1       1.545 -29.304   3.315  1.00  0.00     0.000 C 
BRANCH   3   4
ATOM      4  C   UNL     1       0.196 -29.598   2.638  1.00  0.00    -0.000 C 
BRANCH   4   5
ATOM      5  C   UNL     1      -0.433 -28.346   2.004  1.00  0.00    -0.000 C 
BRANCH   5   6
ATOM      6  C   UNL     1       0.139 -27.040   2.583  1.00  0.00    -0.000 C 
BRANCH   6   7
ATOM      7  C   UNL     1      -0.903 -26.249   3.389  1.00  0.00    -0.000 C 
BRANCH   7   8
ATOM      8  C   UNL     1      -0.963 -24.765   2.987  1.00  0.00    -0.000 C 
BRANCH   8   9
ATOM      9  C   UNL     1      -0.104 -24.447   1.749  1.00  0.00    -0.000 C 
BRANCH   9  10
ATOM     10  C   UNL     1      -0.903 -24.107   0.477  1.00  0.00    -0.000 C 
BRANCH  10  11
ATOM     11  C   UNL     1      -1.163 -25.334  -0.410  1.00  0.00    -0.003 C 
ATOM     12  C   UNL     1      -2.644 -25.700  -0.422  1.00  0.00     0.004 C 
ENDBRANCH  10  11
ENDBRANCH   9  10
ENDBRANCH   8   9
ENDBRANCH   7   8
ENDBRANCH   6   7
ENDBRANCH   5   6
ENDBRANCH   4   5
ENDBRANCH   3   4
ENDBRANCH   2   3
ENDBRANCH   1   2
BRANCH   1  13
ATOM     13  C   UNL     1      -0.305 -28.311   6.301  1.00  0.00     0.000 C 
BRANCH  13  14
ATOM     14  C   UNL     1       0.894 -27.376   6.526  1.00  0.00     0.000 C 
BRANCH  14  15
ATOM     15  C   UNL     1       1.481 -27.564   7.930  1.00  0.00     0.000 C 
BRANCH  15  16
ATOM     16  C   UNL     1       0.951 -26.493   8.895  1.00  0.00     0.000 C 
BRANCH  16  17
ATOM     17  C   UNL     1       0.373 -27.096  10.186  1.00  0.00     0.000 C 
BRANCH  17  18
ATOM     18  C   UNL     1      -1.016 -27.725   9.975  1.00  0.00     0.000 C 
BRANCH  18  19
ATOM     19  C   UNL     1      -2.096 -26.681   9.652  1.00  0.00     0.000 C 
BRANCH  19  20
ATOM     20  C   UNL     1      -2.484 -25.835  10.877  1.00  0.00     0.006 C 
BRANCH  20  21
ATOM     21  C   UNL     1      -3.727 -24.973  10.615  1.00  0.00     0.053 C 
BRANCH  21  22
ATOM     22  C   UNL     1      -4.924 -25.808  10.276  1.00  0.00     0.041 C 
ATOM     23  O   UNL     1      -5.519 -25.647   9.178  1.00  0.00    -0.550 OA
ATOM     24  O   UNL     1      -5.364 -26.786  11.159  1.00  0.00    -0.550 OA
ENDBRANCH  21  22
ENDBRANCH  20  21
ENDBRANCH  19  20
ENDBRANCH  18  19
ENDBRANCH  17  18
ENDBRANCH  16  17
ENDBRANCH  15  16
ENDBRANCH  14  15
ENDBRANCH  13  14
ENDBRANCH   1  13
TORSDOF 20
ENDMDL
MODEL 9
REMARK VINA RESULT:    -5.297      3.688      7.959
REMARK INTER + INTRA:         -14.161
REMARK INTER:                 -11.913
REMARK INTRA:                  -2.248
REMARK UNBOUND:                -2.670
REMARK SMILES CCCCCCCCCCCCCCCCCCCCCC(=O)[O-]
REMARK SMILES IDX 12 1 11 2 10 3 9 4 8 5 7 6 6 7 5 8 4 9 3 10 2 11 1 12 13 13
REMARK SMILES IDX 14 14 15 15 16 16 17 17 18 18 19 19 20 20 21 21 22 22 23 23
REMARK SMILES IDX 24 24
REMARK H PARENT
REMARK Flexibility Score: inf
ROOT
ATOM      1  C   UNL     1       0.337 -26.896   5.066  1.00  0.00     0.000 C 
ENDROOT
BRANCH   1   2
ATOM      2  C   UNL     1      -0.405 -27.414   6.311  1.00  0.00     0.000 C 
BRANCH   2   3
ATOM      3  C   UNL     1      -0.375 -28.947   6.424  1.00  0.00     0.000 C 
BRANCH   3   4
ATOM      4  C   UNL     1      -0.005 -29.426   7.838  1.00  0.00    -0.000 C 
BRANCH   4   5
ATOM      5  C   UNL     1       1.440 -29.067   8.226  1.00  0.00    -0.000 C 
BRANCH   5   6
ATOM      6  C   UNL     1       1.512 -27.871   9.191  1.00  0.00    -0.000 C 
BRANCH   6   7
ATOM      7  C   UNL     1       0.300 -27.804  10.134  1.00  0.00    -0.000 C 
BRANCH   7   8
ATOM      8  C   UNL     1      -0.365 -26.417  10.148  1.00  0.00    -0.000 C 
BRANCH   8   9
ATOM      9  C   UNL     1      -1.874 -26.475   9.850  1.00  0.00    -0.000 C 
BRANCH   9  10
ATOM     10  C   UNL     1      -2.759 -25.681  10.829  1.00  0.00    -0.000 C 
BRANCH  10  11
ATOM     11  C   UNL     1      -4.050 -25.161  10.181  1.00  0.00    -0.003 C 
ATOM     12  C   UNL     1      -5.093 -26.269  10.066  1.00  0.00     0.004 C 
ENDBRANCH  10  11
ENDBRANCH   9  10
ENDBRANCH   8   9
ENDBRANCH   7   8
ENDBRANCH   6   7
ENDBRANCH   5   6
ENDBRANCH   4   5
ENDBRANCH   3   4
ENDBRANCH   2   3
ENDBRANCH   1   2
BRANCH   1  13
ATOM     13  C   UNL     1       1.716 -27.551   4.887  1.00  0.00     0.000 C 
BRANCH  13  14
ATOM     14  C   UNL     1       2.024 -27.887   3.419  1.00  0.00     0.000 C 
BRANCH  14  15
ATOM     15  C   UNL     1       1.825 -29.382   3.144  1.00  0.00     0.000 C 
BRANCH  15  16
ATOM     16  C   UNL     1       0.373 -29.679   2.740  1.00  0.00     0.000 C 
BRANCH  16  17
ATOM     17  C   UNL     1      -0.036 -28.967   1.441  1.00  0.00     0.000 C 
BRANCH  17  18
ATOM     18  C   UNL     1      -1.063 -27.845   1.678  1.00  0.00     0.000 C 
BRANCH  18  19
ATOM     19  C   UNL     1      -0.487 -26.448   1.401  1.00  0.00     0.000 C 
BRANCH  19  20
ATOM     20  C   UNL     1      -1.559 -25.346   1.458  1.00  0.00     0.006 C 
BRANCH  20  21
ATOM     21  C   UNL     1      -2.821 -25.724   0.670  1.00  0.00     0.053 C 
BRANCH  21  22
ATOM     22  C   UNL     1      -2.722 -25.321  -0.769  1.00  0.00     0.041 C 
ATOM     23  O   UNL     1      -3.505 -25.818  -1.622  1.00  0.00    -0.550 OA
ATOM     24  O   UNL     1      -1.786 -24.374  -1.165  1.00  0.00    -0.550 OA
ENDBRANCH  21  22
ENDBRANCH  20  21
ENDBRANCH  19  20
ENDBRANCH  18  19
ENDBRANCH  17  18
ENDBRANCH  16  17
ENDBRANCH  15  16
ENDBRANCH  14  15
ENDBRANCH  13  14
ENDBRANCH   1  13
TORSDOF 20
ENDMDL
