MODEL 1
REMARK VINA RESULT:    -5.187      0.000      0.000
REMARK INTER + INTRA:          -6.570
REMARK INTER:                  -6.248
REMARK INTRA:                  -0.322
REMARK UNBOUND:                -0.322
REMARK SMILES O=c1c(O)c(-c2ccc(O)c(O)c2)oc2cc(O)cc(O)c12
REMARK SMILES IDX 5 1 3 2 2 3 1 4 22 5 20 6 19 7 17 8 16 9 15 10 14 11 6 12
REMARK SMILES IDX 7 13 8 14 9 15 13 16 11 17 10 18 12 20 4 22 21 24 18 26
REMARK H PARENT 10 19 12 21 4 23 21 25 18 27
REMARK Flexibility Score: inf
ROOT
ATOM      1  C   UNL     1     141.616 147.373 137.120  1.00  0.00     0.180 A 
ATOM      2  C   UNL     1     140.630 148.091 136.420  1.00  0.00     0.208 A 
ATOM      3  C   UNL     1     140.592 149.489 136.541  1.00  0.00     0.238 A 
ATOM      4  O   UNL     1     139.662 150.117 135.973  1.00  0.00    -0.285 OA
ATOM      5  C   UNL     1     141.573 150.158 137.314  1.00  0.00     0.111 A 
ATOM      6  C   UNL     1     141.657 151.574 137.470  1.00  0.00     0.134 A 
ATOM      7  C   UNL     1     142.607 152.117 138.345  1.00  0.00     0.093 A 
ATOM      8  C   UNL     1     143.516 151.299 139.019  1.00  0.00     0.123 A 
ATOM      9  C   UNL     1     143.477 149.921 138.831  1.00  0.00     0.094 A 
ATOM     10  C   UNL     1     142.517 149.345 137.995  1.00  0.00     0.146 A 
ATOM     11  O   UNL     1     142.503 148.024 137.862  1.00  0.00    -0.452 OA
ENDROOT
BRANCH   1  12
ATOM     12  C   UNL     1     141.712 145.896 137.054  1.00  0.00     0.025 A 
ATOM     13  C   UNL     1     142.506 145.258 136.088  1.00  0.00     0.016 A 
ATOM     14  C   UNL     1     142.562 143.864 136.031  1.00  0.00     0.051 A 
ATOM     15  C   UNL     1     141.820 143.081 136.922  1.00  0.00     0.157 A 
ATOM     16  C   UNL     1     140.948 145.114 137.934  1.00  0.00     0.062 A 
ATOM     17  C   UNL     1     140.998 143.716 137.885  1.00  0.00     0.158 A 
BRANCH  15  18
ATOM     18  O   UNL     1     141.922 141.694 136.815  1.00  0.00    -0.504 OA
ATOM     19  H   UNL     1     141.692 141.050 137.559  1.00  0.00     0.293 HD
ENDBRANCH  15  18
BRANCH  17  20
ATOM     20  O   UNL     1     140.221 143.003 138.800  1.00  0.00    -0.504 OA
ATOM     21  H   UNL     1     140.493 142.827 139.756  1.00  0.00     0.293 HD
ENDBRANCH  17  20
ENDBRANCH   1  12
BRANCH   2  22
ATOM     22  O   UNL     1     139.718 147.418 135.602  1.00  0.00    -0.502 OA
ATOM     23  H   UNL     1     138.904 147.873 135.208  1.00  0.00     0.293 HD
ENDBRANCH   2  22
BRANCH   6  24
ATOM     24  O   UNL     1     140.857 152.488 136.775  1.00  0.00    -0.507 OA
ATOM     25  H   UNL     1     140.619 152.421 135.798  1.00  0.00     0.293 HD
ENDBRANCH   6  24
BRANCH   8  26
ATOM     26  O   UNL     1     144.468 151.849 139.874  1.00  0.00    -0.508 OA
ATOM     27  H   UNL     1     144.287 152.702 140.391  1.00  0.00     0.293 HD
ENDBRANCH   8  26
TORSDOF 6
ENDMDL
MODEL 2
REMARK VINA RESULT:    -5.182      5.641      8.398
REMARK INTER + INTRA:          -6.564
REMARK INTER:                  -6.242
REMARK INTRA:                  -0.322
REMARK UNBOUND:                -0.322
REMARK SMILES O=c1c(O)c(-c2ccc(O)c(O)c2)oc2cc(O)cc(O)c12
REMARK SMILES IDX 5 1 3 2 2 3 1 4 22 5 20 6 19 7 17 8 16 9 15 10 14 11 6 12
REMARK SMILES IDX 7 13 8 14 9 15 13 16 11 17 10 18 12 20 4 22 21 24 18 26
REMARK H PARENT 10 19 12 21 4 23 21 25 18 27
REMARK Flexibility Score: inf
ROOT
ATOM      1  C   UNL     1     147.379 150.980 137.117  1.00  0.00     0.180 A 
ATOM      2  C   UNL     1     148.094 151.969 136.419  1.00  0.00     0.208 A 
ATOM      3  C   UNL     1     149.492 152.009 136.537  1.00  0.00     0.238 A 
ATOM      4  O   UNL     1     150.118 152.942 135.970  1.00  0.00    -0.285 OA
ATOM      5  C   UNL     1     150.164 151.028 137.305  1.00  0.00     0.111 A 
ATOM      6  C   UNL     1     151.581 150.945 137.458  1.00  0.00     0.134 A 
ATOM      7  C   UNL     1     152.127 149.994 138.329  1.00  0.00     0.093 A 
ATOM      8  C   UNL     1     151.313 149.081 139.003  1.00  0.00     0.123 A 
ATOM      9  C   UNL     1     149.934 149.119 138.818  1.00  0.00     0.094 A 
ATOM     10  C   UNL     1     149.355 150.080 137.986  1.00  0.00     0.146 A 
ATOM     11  O   UNL     1     148.034 150.092 137.856  1.00  0.00    -0.452 OA
ENDROOT
BRANCH   1  12
ATOM     12  C   UNL     1     145.903 150.882 137.054  1.00  0.00     0.025 A 
ATOM     13  C   UNL     1     145.263 150.089 136.088  1.00  0.00     0.016 A 
ATOM     14  C   UNL     1     143.869 150.031 136.033  1.00  0.00     0.051 A 
ATOM     15  C   UNL     1     143.087 150.770 136.928  1.00  0.00     0.157 A 
ATOM     16  C   UNL     1     145.121 151.641 137.939  1.00  0.00     0.062 A 
ATOM     17  C   UNL     1     143.723 151.590 137.892  1.00  0.00     0.158 A 
BRANCH  15  18
ATOM     18  O   UNL     1     141.700 150.665 136.824  1.00  0.00    -0.504 OA
ATOM     19  H   UNL     1     141.094 151.426 136.554  1.00  0.00     0.293 HD
ENDBRANCH  15  18
BRANCH  17  20
ATOM     20  O   UNL     1     143.010 152.362 138.811  1.00  0.00    -0.504 OA
ATOM     21  H   UNL     1     143.378 152.663 139.702  1.00  0.00     0.293 HD
ENDBRANCH  17  20
ENDBRANCH   1  12
BRANCH   2  22
ATOM     22  O   UNL     1     147.418 152.882 135.605  1.00  0.00    -0.502 OA
ATOM     23  H   UNL     1     147.770 153.166 134.699  1.00  0.00     0.293 HD
ENDBRANCH   2  22
BRANCH   6  24
ATOM     24  O   UNL     1     152.492 151.748 136.764  1.00  0.00    -0.507 OA
ATOM     25  H   UNL     1     152.500 151.882 135.765  1.00  0.00     0.293 HD
ENDBRANCH   6  24
BRANCH   8  26
ATOM     26  O   UNL     1     151.866 148.128 139.854  1.00  0.00    -0.508 OA
ATOM     27  H   UNL     1     151.722 148.164 140.856  1.00  0.00     0.293 HD
ENDBRANCH   8  26
TORSDOF 6
ENDMDL
MODEL 3
REMARK VINA RESULT:    -5.153      5.662      8.496
REMARK INTER + INTRA:          -6.529
REMARK INTER:                  -6.215
REMARK INTRA:                  -0.314
REMARK UNBOUND:                -0.322
REMARK SMILES O=c1c(O)c(-c2ccc(O)c(O)c2)oc2cc(O)cc(O)c12
REMARK SMILES IDX 5 1 3 2 2 3 1 4 22 5 20 6 19 7 17 8 16 9 15 10 14 11 6 12
REMARK SMILES IDX 7 13 8 14 9 15 13 16 11 17 10 18 12 20 4 22 21 24 18 26
REMARK H PARENT 10 19 12 21 4 23 21 25 18 27
REMARK Flexibility Score: inf
ROOT
ATOM      1  C   UNL     1     145.358 141.584 137.131  1.00  0.00     0.180 A 
ATOM      2  C   UNL     1     144.673 140.587 136.415  1.00  0.00     0.208 A 
ATOM      3  C   UNL     1     143.273 140.530 136.499  1.00  0.00     0.238 A 
ATOM      4  O   UNL     1     142.673 139.589 135.917  1.00  0.00    -0.285 OA
ATOM      5  C   UNL     1     142.570 141.503 137.250  1.00  0.00     0.111 A 
ATOM      6  C   UNL     1     141.149 141.568 137.368  1.00  0.00     0.134 A 
ATOM      7  C   UNL     1     140.570 142.513 138.225  1.00  0.00     0.093 A 
ATOM      8  C   UNL     1     141.357 143.435 138.919  1.00  0.00     0.123 A 
ATOM      9  C   UNL     1     142.740 143.414 138.768  1.00  0.00     0.094 A 
ATOM     10  C   UNL     1     143.351 142.460 137.950  1.00  0.00     0.146 A 
ATOM     11  O   UNL     1     144.675 142.464 137.853  1.00  0.00    -0.452 OA
ENDROOT
BRANCH   1  12
ATOM     12  C   UNL     1     146.835 141.700 137.105  1.00  0.00     0.025 A 
ATOM     13  C   UNL     1     147.485 142.543 136.190  1.00  0.00     0.016 A 
ATOM     14  C   UNL     1     148.879 142.617 136.168  1.00  0.00     0.051 A 
ATOM     15  C   UNL     1     149.650 141.846 137.045  1.00  0.00     0.157 A 
ATOM     16  C   UNL     1     147.606 140.908 137.969  1.00  0.00     0.062 A 
ATOM     17  C   UNL     1     149.004 140.975 137.955  1.00  0.00     0.158 A 
BRANCH  15  18
ATOM     18  O   UNL     1     151.039 141.969 136.975  1.00  0.00    -0.504 OA
ATOM     19  H   UNL     1     151.659 141.227 136.684  1.00  0.00     0.293 HD
ENDBRANCH  15  18
BRANCH  17  20
ATOM     20  O   UNL     1     149.705 140.168 138.853  1.00  0.00    -0.504 OA
ATOM     21  H   UNL     1     150.383 139.472 138.576  1.00  0.00     0.293 HD
ENDBRANCH  17  20
ENDBRANCH   1  12
BRANCH   2  22
ATOM     22  O   UNL     1     145.379 139.681 135.619  1.00  0.00    -0.502 OA
ATOM     23  H   UNL     1     145.526 138.717 135.891  1.00  0.00     0.293 HD
ENDBRANCH   2  22
BRANCH   6  24
ATOM     24  O   UNL     1     140.265 140.755 136.652  1.00  0.00    -0.507 OA
ATOM     25  H   UNL     1     140.404 139.774 136.466  1.00  0.00     0.293 HD
ENDBRANCH   6  24
BRANCH   8  26
ATOM     26  O   UNL     1     140.771 144.382 139.756  1.00  0.00    -0.508 OA
ATOM     27  H   UNL     1     140.588 144.185 140.733  1.00  0.00     0.293 HD
ENDBRANCH   8  26
TORSDOF 6
ENDMDL
MODEL 4
REMARK VINA RESULT:    -5.125      8.516     11.853
REMARK INTER + INTRA:          -6.496
REMARK INTER:                  -6.174
REMARK INTRA:                  -0.322
REMARK UNBOUND:                -0.322
REMARK SMILES O=c1c(O)c(-c2ccc(O)c(O)c2)oc2cc(O)cc(O)c12
REMARK SMILES IDX 5 1 3 2 2 3 1 4 22 5 20 6 19 7 17 8 16 9 15 10 14 11 6 12
REMARK SMILES IDX 7 13 8 14 9 15 13 16 11 17 10 18 12 20 4 22 21 24 18 26
REMARK H PARENT 10 19 12 21 4 23 21 25 18 27
REMARK Flexibility Score: inf
ROOT
ATOM      1  C   UNL     1     150.974 145.306 137.104  1.00  0.00     0.180 A 
ATOM      2  C   UNL     1     151.982 144.612 136.413  1.00  0.00     0.208 A 
ATOM      3  C   UNL     1     152.036 143.213 136.514  1.00  0.00     0.238 A 
ATOM      4  O   UNL     1     152.986 142.606 135.954  1.00  0.00    -0.285 OA
ATOM      5  C   UNL     1     151.050 142.520 137.257  1.00  0.00     0.111 A 
ATOM      6  C   UNL     1     150.981 141.100 137.389  1.00  0.00     0.134 A 
ATOM      7  C   UNL     1     150.022 140.532 138.236  1.00  0.00     0.093 A 
ATOM      8  C   UNL     1     149.089 141.327 138.906  1.00  0.00     0.123 A 
ATOM      9  C   UNL     1     149.113 142.708 138.739  1.00  0.00     0.094 A 
ATOM     10  C   UNL     1     150.082 143.309 137.931  1.00  0.00     0.146 A 
ATOM     11  O   UNL     1     150.081 144.632 137.819  1.00  0.00    -0.452 OA
ENDROOT
BRANCH   1  12
ATOM     12  C   UNL     1     150.859 146.782 137.059  1.00  0.00     0.025 A 
ATOM     13  C   UNL     1     150.075 147.426 136.088  1.00  0.00     0.016 A 
ATOM     14  C   UNL     1     150.002 148.819 136.051  1.00  0.00     0.051 A 
ATOM     15  C   UNL     1     150.717 149.598 136.968  1.00  0.00     0.157 A 
ATOM     16  C   UNL     1     151.596 147.561 137.966  1.00  0.00     0.062 A 
ATOM     17  C   UNL     1     151.529 148.959 137.937  1.00  0.00     0.158 A 
BRANCH  15  18
ATOM     18  O   UNL     1     150.598 150.985 136.880  1.00  0.00    -0.504 OA
ATOM     19  H   UNL     1     150.310 151.578 137.646  1.00  0.00     0.293 HD
ENDBRANCH  15  18
BRANCH  17  20
ATOM     20  O   UNL     1     152.279 149.668 138.877  1.00  0.00    -0.504 OA
ATOM     21  H   UNL     1     152.546 150.636 138.773  1.00  0.00     0.293 HD
ENDBRANCH  17  20
ENDBRANCH   1  12
BRANCH   2  22
ATOM     22  O   UNL     1     152.901 145.309 135.624  1.00  0.00    -0.502 OA
ATOM     23  H   UNL     1     153.143 145.016 134.686  1.00  0.00     0.293 HD
ENDBRANCH   2  22
BRANCH   6  24
ATOM     24  O   UNL     1     151.806 140.207 136.697  1.00  0.00    -0.507 OA
ATOM     25  H   UNL     1     152.638 139.780 137.073  1.00  0.00     0.293 HD
ENDBRANCH   6  24
BRANCH   8  26
ATOM     26  O   UNL     1     148.127 140.751 139.733  1.00  0.00    -0.508 OA
ATOM     27  H   UNL     1     148.192 140.812 140.742  1.00  0.00     0.293 HD
ENDBRANCH   8  26
TORSDOF 6
ENDMDL
MODEL 5
REMARK VINA RESULT:    -4.851      4.889      7.253
REMARK INTER + INTRA:          -6.165
REMARK INTER:                  -5.918
REMARK INTRA:                  -0.247
REMARK UNBOUND:                -0.322
REMARK SMILES O=c1c(O)c(-c2ccc(O)c(O)c2)oc2cc(O)cc(O)c12
REMARK SMILES IDX 5 1 3 2 2 3 1 4 22 5 20 6 19 7 17 8 16 9 15 10 14 11 6 12
REMARK SMILES IDX 7 13 8 14 9 15 13 16 11 17 10 18 12 20 4 22 21 24 18 26
REMARK H PARENT 10 19 12 21 4 23 21 25 18 27
REMARK Flexibility Score: inf
ROOT
ATOM      1  C   UNL     1     145.012 151.749 136.834  1.00  0.00     0.180 A 
ATOM      2  C   UNL     1     145.596 152.977 136.482  1.00  0.00     0.208 A 
ATOM      3  C   UNL     1     146.995 153.093 136.490  1.00  0.00     0.238 A 
ATOM      4  O   UNL     1     147.508 154.217 136.248  1.00  0.00    -0.285 OA
ATOM      5  C   UNL     1     147.795 151.965 136.796  1.00  0.00     0.111 A 
ATOM      6  C   UNL     1     149.222 151.956 136.791  1.00  0.00     0.134 A 
ATOM      7  C   UNL     1     149.907 150.809 137.213  1.00  0.00     0.093 A 
ATOM      8  C   UNL     1     149.217 149.651 137.578  1.00  0.00     0.123 A 
ATOM      9  C   UNL     1     147.826 149.633 137.534  1.00  0.00     0.094 A 
ATOM     10  C   UNL     1     147.113 150.773 137.154  1.00  0.00     0.146 A 
ATOM     11  O   UNL     1     145.786 150.716 137.147  1.00  0.00    -0.452 OA
ENDROOT
BRANCH   1  12
ATOM     12  C   UNL     1     143.544 151.552 136.862  1.00  0.00     0.025 A 
ATOM     13  C   UNL     1     142.847 151.419 138.074  1.00  0.00     0.016 A 
ATOM     14  C   UNL     1     141.467 151.210 138.074  1.00  0.00     0.051 A 
ATOM     15  C   UNL     1     140.757 151.117 136.871  1.00  0.00     0.157 A 
ATOM     16  C   UNL     1     142.839 151.436 135.654  1.00  0.00     0.062 A 
ATOM     17  C   UNL     1     141.454 151.227 135.644  1.00  0.00     0.158 A 
BRANCH  15  18
ATOM     18  O   UNL     1     139.379 150.912 136.940  1.00  0.00    -0.504 OA
ATOM     19  H   UNL     1     138.924 150.357 137.652  1.00  0.00     0.293 HD
ENDBRANCH  15  18
BRANCH  17  20
ATOM     20  O   UNL     1     140.817 151.134 134.405  1.00  0.00    -0.504 OA
ATOM     21  H   UNL     1     141.302 151.000 133.529  1.00  0.00     0.293 HD
ENDBRANCH  17  20
ENDBRANCH   1  12
BRANCH   2  22
ATOM     22  O   UNL     1     144.791 154.058 136.110  1.00  0.00    -0.502 OA
ATOM     23  H   UNL     1     143.783 153.986 136.040  1.00  0.00     0.293 HD
ENDBRANCH   2  22
BRANCH   6  24
ATOM     24  O   UNL     1     150.012 153.028 136.360  1.00  0.00    -0.507 OA
ATOM     25  H   UNL     1     150.055 153.368 135.412  1.00  0.00     0.293 HD
ENDBRANCH   6  24
BRANCH   8  26
ATOM     26  O   UNL     1     149.906 148.510 137.980  1.00  0.00    -0.508 OA
ATOM     27  H   UNL     1     149.432 147.735 138.429  1.00  0.00     0.293 HD
ENDBRANCH   8  26
TORSDOF 6
ENDMDL
MODEL 6
REMARK VINA RESULT:    -4.837      1.787      2.862
REMARK INTER + INTRA:          -6.148
REMARK INTER:                  -5.921
REMARK INTRA:                  -0.227
REMARK UNBOUND:                -0.322
REMARK SMILES O=c1c(O)c(-c2ccc(O)c(O)c2)oc2cc(O)cc(O)c12
REMARK SMILES IDX 5 1 3 2 2 3 1 4 22 5 20 6 19 7 17 8 16 9 15 10 14 11 6 12
REMARK SMILES IDX 7 13 8 14 9 15 13 16 11 17 10 18 12 20 4 22 21 24 18 26
REMARK H PARENT 10 19 12 21 4 23 21 25 18 27
REMARK Flexibility Score: inf
ROOT
ATOM      1  C   UNL     1     140.956 145.008 136.871  1.00  0.00     0.180 A 
ATOM      2  C   UNL     1     139.744 145.618 136.503  1.00  0.00     0.208 A 
ATOM      3  C   UNL     1     139.652 147.018 136.527  1.00  0.00     0.238 A 
ATOM      4  O   UNL     1     138.542 147.553 136.270  1.00  0.00    -0.285 OA
ATOM      5  C   UNL     1     140.787 147.795 136.864  1.00  0.00     0.111 A 
ATOM      6  C   UNL     1     140.820 149.222 136.877  1.00  0.00     0.134 A 
ATOM      7  C   UNL     1     141.970 149.882 137.329  1.00  0.00     0.093 A 
ATOM      8  C   UNL     1     143.109 149.168 137.708  1.00  0.00     0.123 A 
ATOM      9  C   UNL     1     143.105 147.777 137.646  1.00  0.00     0.094 A 
ATOM     10  C   UNL     1     141.961 147.088 137.236  1.00  0.00     0.146 A 
ATOM     11  O   UNL     1     141.995 145.761 137.213  1.00  0.00    -0.452 OA
ENDROOT
BRANCH   1  12
ATOM     12  C   UNL     1     141.127 143.537 136.885  1.00  0.00     0.025 A 
ATOM     13  C   UNL     1     141.263 142.828 138.089  1.00  0.00     0.016 A 
ATOM     14  C   UNL     1     141.447 141.445 138.076  1.00  0.00     0.051 A 
ATOM     15  C   UNL     1     141.513 140.744 136.866  1.00  0.00     0.157 A 
ATOM     16  C   UNL     1     141.215 142.840 135.670  1.00  0.00     0.062 A 
ATOM     17  C   UNL     1     141.400 141.453 135.646  1.00  0.00     0.158 A 
BRANCH  15  18
ATOM     18  O   UNL     1     141.695 139.361 136.922  1.00  0.00    -0.504 OA
ATOM     19  H   UNL     1     140.945 138.689 136.849  1.00  0.00     0.293 HD
ENDBRANCH  15  18
BRANCH  17  20
ATOM     20  O   UNL     1     141.466 140.825 134.401  1.00  0.00    -0.504 OA
ATOM     21  H   UNL     1     140.671 140.690 133.793  1.00  0.00     0.293 HD
ENDBRANCH  17  20
ENDBRANCH   1  12
BRANCH   2  22
ATOM     22  O   UNL     1     138.657 144.836 136.101  1.00  0.00    -0.502 OA
ATOM     23  H   UNL     1     138.244 144.131 136.699  1.00  0.00     0.293 HD
ENDBRANCH   2  22
BRANCH   6  24
ATOM     24  O   UNL     1     139.771 150.035 136.435  1.00  0.00    -0.507 OA
ATOM     25  H   UNL     1     139.854 151.014 136.210  1.00  0.00     0.293 HD
ENDBRANCH   6  24
BRANCH   8  26
ATOM     26  O   UNL     1     144.254 149.833 138.140  1.00  0.00    -0.508 OA
ATOM     27  H   UNL     1     144.834 150.361 137.498  1.00  0.00     0.293 HD
ENDBRANCH   8  26
TORSDOF 6
ENDMDL
MODEL 7
REMARK VINA RESULT:    -4.806      8.789      9.366
REMARK INTER + INTRA:          -6.111
REMARK INTER:                  -5.807
REMARK INTRA:                  -0.304
REMARK UNBOUND:                -0.322
REMARK SMILES O=c1c(O)c(-c2ccc(O)c(O)c2)oc2cc(O)cc(O)c12
REMARK SMILES IDX 5 1 3 2 2 3 1 4 22 5 20 6 19 7 17 8 16 9 15 10 14 11 6 12
REMARK SMILES IDX 7 13 8 14 9 15 13 16 11 17 10 18 12 20 4 22 21 24 18 26
REMARK H PARENT 10 19 12 21 4 23 21 25 18 27
REMARK Flexibility Score: inf
ROOT
ATOM      1  C   UNL     1     150.607 144.783 136.965  1.00  0.00     0.180 A 
ATOM      2  C   UNL     1     149.955 145.141 135.772  1.00  0.00     0.208 A 
ATOM      3  C   UNL     1     149.963 146.486 135.369  1.00  0.00     0.238 A 
ATOM      4  O   UNL     1     149.313 146.811 134.341  1.00  0.00    -0.285 OA
ATOM      5  C   UNL     1     150.669 147.448 136.133  1.00  0.00     0.111 A 
ATOM      6  C   UNL     1     150.782 148.830 135.794  1.00  0.00     0.134 A 
ATOM      7  C   UNL     1     151.418 149.708 136.681  1.00  0.00     0.093 A 
ATOM      8  C   UNL     1     152.000 149.243 137.863  1.00  0.00     0.123 A 
ATOM      9  C   UNL     1     151.943 147.888 138.174  1.00  0.00     0.094 A 
ATOM     10  C   UNL     1     151.282 146.992 137.329  1.00  0.00     0.146 A 
ATOM     11  O   UNL     1     151.234 145.712 137.677  1.00  0.00    -0.452 OA
ENDROOT
BRANCH   1  12
ATOM     12  C   UNL     1     150.630 143.389 137.463  1.00  0.00     0.025 A 
ATOM     13  C   UNL     1     151.540 142.447 136.957  1.00  0.00     0.016 A 
ATOM     14  C   UNL     1     151.526 141.132 137.425  1.00  0.00     0.051 A 
ATOM     15  C   UNL     1     150.601 140.727 138.394  1.00  0.00     0.157 A 
ATOM     16  C   UNL     1     149.686 142.980 138.418  1.00  0.00     0.062 A 
ATOM     17  C   UNL     1     149.665 141.664 138.894  1.00  0.00     0.158 A 
BRANCH  15  18
ATOM     18  O   UNL     1     150.643 139.399 138.823  1.00  0.00    -0.504 OA
ATOM     19  H   UNL     1     150.801 139.119 139.780  1.00  0.00     0.293 HD
ENDBRANCH  15  18
BRANCH  17  20
ATOM     20  O   UNL     1     148.706 141.332 139.853  1.00  0.00    -0.504 OA
ATOM     21  H   UNL     1     147.966 140.661 139.703  1.00  0.00     0.293 HD
ENDBRANCH  17  20
ENDBRANCH   1  12
BRANCH   2  22
ATOM     22  O   UNL     1     149.327 144.165 134.994  1.00  0.00    -0.502 OA
ATOM     23  H   UNL     1     149.419 143.175 135.186  1.00  0.00     0.293 HD
ENDBRANCH   2  22
BRANCH   6  24
ATOM     24  O   UNL     1     150.315 149.385 134.598  1.00  0.00    -0.507 OA
ATOM     25  H   UNL     1     150.442 148.978 133.685  1.00  0.00     0.293 HD
ENDBRANCH   6  24
BRANCH   8  26
ATOM     26  O   UNL     1     152.646 150.121 138.730  1.00  0.00    -0.508 OA
ATOM     27  H   UNL     1     153.649 150.085 138.872  1.00  0.00     0.293 HD
ENDBRANCH   8  26
TORSDOF 6
ENDMDL
MODEL 8
REMARK VINA RESULT:    -4.806      5.403      8.031
REMARK INTER + INTRA:          -6.110
REMARK INTER:                  -5.801
REMARK INTRA:                  -0.310
REMARK UNBOUND:                -0.322
REMARK SMILES O=c1c(O)c(-c2ccc(O)c(O)c2)oc2cc(O)cc(O)c12
REMARK SMILES IDX 5 1 3 2 2 3 1 4 22 5 20 6 19 7 17 8 16 9 15 10 14 11 6 12
REMARK SMILES IDX 7 13 8 14 9 15 13 16 11 17 10 18 12 20 4 22 21 24 18 26
REMARK H PARENT 10 19 12 21 4 23 21 25 18 27
REMARK Flexibility Score: inf
ROOT
ATOM      1  C   UNL     1     147.798 150.576 136.996  1.00  0.00     0.180 A 
ATOM      2  C   UNL     1     147.422 149.899 135.823  1.00  0.00     0.208 A 
ATOM      3  C   UNL     1     146.072 149.902 135.439  1.00  0.00     0.238 A 
ATOM      4  O   UNL     1     145.731 149.231 134.430  1.00  0.00    -0.285 OA
ATOM      5  C   UNL     1     145.123 150.627 136.200  1.00  0.00     0.111 A 
ATOM      6  C   UNL     1     143.736 150.736 135.878  1.00  0.00     0.134 A 
ATOM      7  C   UNL     1     142.872 151.394 136.763  1.00  0.00     0.093 A 
ATOM      8  C   UNL     1     143.354 152.001 137.924  1.00  0.00     0.123 A 
ATOM      9  C   UNL     1     144.714 151.947 138.218  1.00  0.00     0.094 A 
ATOM     10  C   UNL     1     145.596 151.266 137.376  1.00  0.00     0.146 A 
ATOM     11  O   UNL     1     146.881 151.222 137.707  1.00  0.00    -0.452 OA
ENDROOT
BRANCH   1  12
ATOM     12  C   UNL     1     149.199 150.607 137.474  1.00  0.00     0.025 A 
ATOM     13  C   UNL     1     150.127 151.526 136.959  1.00  0.00     0.016 A 
ATOM     14  C   UNL     1     151.449 151.520 137.408  1.00  0.00     0.051 A 
ATOM     15  C   UNL     1     151.875 150.593 138.366  1.00  0.00     0.157 A 
ATOM     16  C   UNL     1     149.629 149.661 138.418  1.00  0.00     0.062 A 
ATOM     17  C   UNL     1     150.952 149.648 138.875  1.00  0.00     0.158 A 
BRANCH  15  18
ATOM     18  O   UNL     1     153.208 150.642 138.776  1.00  0.00    -0.504 OA
ATOM     19  H   UNL     1     153.528 151.127 139.602  1.00  0.00     0.293 HD
ENDBRANCH  15  18
BRANCH  17  20
ATOM     20  O   UNL     1     151.304 148.686 139.824  1.00  0.00    -0.504 OA
ATOM     21  H   UNL     1     150.667 147.994 140.190  1.00  0.00     0.293 HD
ENDBRANCH  17  20
ENDBRANCH   1  12
BRANCH   2  22
ATOM     22  O   UNL     1     148.386 149.252 135.045  1.00  0.00    -0.502 OA
ATOM     23  H   UNL     1     149.082 149.758 134.511  1.00  0.00     0.293 HD
ENDBRANCH   2  22
BRANCH   6  24
ATOM     24  O   UNL     1     143.163 150.244 134.700  1.00  0.00    -0.507 OA
ATOM     25  H   UNL     1     143.039 149.268 134.483  1.00  0.00     0.293 HD
ENDBRANCH   6  24
BRANCH   8  26
ATOM     26  O   UNL     1     142.490 152.667 138.790  1.00  0.00    -0.508 OA
ATOM     27  H   UNL     1     142.561 153.667 138.944  1.00  0.00     0.293 HD
ENDBRANCH   8  26
TORSDOF 6
ENDMDL
MODEL 9
REMARK VINA RESULT:    -4.784      6.318     10.014
REMARK INTER + INTRA:          -6.084
REMARK INTER:                  -5.895
REMARK INTRA:                  -0.190
REMARK UNBOUND:                -0.322
REMARK SMILES O=c1c(O)c(-c2ccc(O)c(O)c2)oc2cc(O)cc(O)c12
REMARK SMILES IDX 5 1 3 2 2 3 1 4 22 5 20 6 19 7 17 8 16 9 15 10 14 11 6 12
REMARK SMILES IDX 7 13 8 14 9 15 13 16 11 17 10 18 12 20 4 22 21 24 18 26
REMARK H PARENT 10 19 12 21 4 23 21 25 18 27
REMARK Flexibility Score: inf
ROOT
ATOM      1  C   UNL     1     147.440 140.921 136.866  1.00  0.00     0.180 A 
ATOM      2  C   UNL     1     146.829 139.718 136.471  1.00  0.00     0.208 A 
ATOM      3  C   UNL     1     145.428 139.631 136.482  1.00  0.00     0.238 A 
ATOM      4  O   UNL     1     144.891 138.528 136.199  1.00  0.00    -0.285 OA
ATOM      5  C   UNL     1     144.653 140.763 136.833  1.00  0.00     0.111 A 
ATOM      6  C   UNL     1     143.226 140.802 136.835  1.00  0.00     0.134 A 
ATOM      7  C   UNL     1     142.567 141.946 137.303  1.00  0.00     0.093 A 
ATOM      8  C   UNL     1     143.282 143.075 137.708  1.00  0.00     0.123 A 
ATOM      9  C   UNL     1     144.674 143.066 137.658  1.00  0.00     0.094 A 
ATOM     10  C   UNL     1     145.361 141.927 137.233  1.00  0.00     0.146 A 
ATOM     11  O   UNL     1     146.689 141.956 137.221  1.00  0.00    -0.452 OA
ENDROOT
BRANCH   1  12
ATOM     12  C   UNL     1     148.912 141.085 136.895  1.00  0.00     0.025 A 
ATOM     13  C   UNL     1     149.603 141.276 138.103  1.00  0.00     0.016 A 
ATOM     14  C   UNL     1     150.987 141.454 138.102  1.00  0.00     0.051 A 
ATOM     15  C   UNL     1     151.707 141.458 136.902  1.00  0.00     0.157 A 
ATOM     16  C   UNL     1     149.629 141.112 135.688  1.00  0.00     0.062 A 
ATOM     17  C   UNL     1     151.017 141.289 135.678  1.00  0.00     0.158 A 
BRANCH  15  18
ATOM     18  O   UNL     1     153.090 141.636 136.971  1.00  0.00    -0.504 OA
ATOM     19  H   UNL     1     153.666 141.899 136.184  1.00  0.00     0.293 HD
ENDBRANCH  15  18
BRANCH  17  20
ATOM     20  O   UNL     1     151.665 141.292 134.441  1.00  0.00    -0.504 OA
ATOM     21  H   UNL     1     152.430 141.908 134.205  1.00  0.00     0.293 HD
ENDBRANCH  17  20
ENDBRANCH   1  12
BRANCH   2  22
ATOM     22  O   UNL     1     147.610 138.636 136.055  1.00  0.00    -0.502 OA
ATOM     23  H   UNL     1     147.219 137.840 135.568  1.00  0.00     0.293 HD
ENDBRANCH   2  22
BRANCH   6  24
ATOM     24  O   UNL     1     142.413 139.764 136.367  1.00  0.00    -0.507 OA
ATOM     25  H   UNL     1     141.574 139.888 135.823  1.00  0.00     0.293 HD
ENDBRANCH   6  24
BRANCH   8  26
ATOM     26  O   UNL     1     142.618 144.214 138.156  1.00  0.00    -0.508 OA
ATOM     27  H   UNL     1     143.031 144.832 138.846  1.00  0.00     0.293 HD
ENDBRANCH   8  26
TORSDOF 6
ENDMDL
