MODEL 1
REMARK VINA RESULT:    87.424      0.000      0.000
REMARK INTER + INTRA:          95.328
REMARK INTER:                  95.090
REMARK INTRA:                   0.238
REMARK UNBOUND:                 0.238
REMARK SMILES C[C@@H]1[C@H](C)CC[C@@]2(C(=O)[O-])CC[C@]3(C)C(=CC[C@H]4[C@]5(C)CC[C@H](O)C(C)(C)[C@@H]5CC[C@]43C)[C@@H]12
REMARK SMILES IDX 7 1 6 2 11 3 33 4 5 5 12 6 15 7 2 8 3 9 13 10 16 11 1 12
REMARK SMILES IDX 4 13 14 14 31 15 17 16 18 17 30 18 32 19 19 20 29 21 28 22
REMARK SMILES IDX 21 23 20 24 25 25 22 26 23 27 26 28 27 29 8 30 9 31 10 32
REMARK SMILES IDX 24 33
REMARK H PARENT 24 34
REMARK Flexibility Score: inf
ROOT
ATOM      1  C   UNL     1      57.337   9.757  51.651  1.00  0.00     0.017 C 
ATOM      2  C   UNL     1      56.747   8.883  50.512  1.00  0.00     0.014 C 
ATOM      3  C   UNL     1      58.399   8.907  52.438  1.00  0.00     0.014 C 
ATOM      4  C   UNL     1      57.940  11.085  51.035  1.00  0.00     0.030 C 
ATOM      5  C   UNL     1      55.655   9.617  49.725  1.00  0.00     0.004 C 
ATOM      6  C   UNL     1      59.840   8.875  51.867  1.00  0.00     0.013 C 
ATOM      7  C   UNL     1      59.353  10.811  50.481  1.00  0.00    -0.063 C 
ATOM      8  C   UNL     1      56.954  11.825  50.044  1.00  0.00    -0.003 C 
ATOM      9  C   UNL     1      56.228  10.860  49.038  1.00  0.00    -0.011 C 
ATOM     10  C   UNL     1      60.400  10.284  51.461  1.00  0.00    -0.006 C 
ATOM     11  C   UNL     1      59.541  10.585  49.172  1.00  0.00    -0.027 C 
ATOM     12  C   UNL     1      55.956  12.727  50.807  1.00  0.00     0.008 C 
ATOM     13  C   UNL     1      55.143  11.557  48.200  1.00  0.00     0.008 C 
ATOM     14  C   UNL     1      60.451  11.196  52.738  1.00  0.00     0.017 C 
ATOM     15  C   UNL     1      61.875  10.246  50.769  1.00  0.00    -0.020 C 
ATOM     16  C   UNL     1      60.463   9.511  48.683  1.00  0.00     0.032 C 
ATOM     17  C   UNL     1      61.863   9.465  49.382  1.00  0.00     0.006 C 
ATOM     18  C   UNL     1      62.441  11.704  50.496  1.00  0.00     0.008 C 
ATOM     19  C   UNL     1      62.878   9.535  51.765  1.00  0.00     0.012 C 
ATOM     20  C   UNL     1      63.019   9.862  48.347  1.00  0.00    -0.025 C 
ATOM     21  C   UNL     1      62.267  12.265  49.077  1.00  0.00     0.005 C 
ATOM     22  C   UNL     1      62.820  11.373  47.905  1.00  0.00     0.003 C 
ATOM     23  C   UNL     1      64.450   9.649  48.955  1.00  0.00     0.010 C 
ATOM     24  C   UNL     1      62.907   8.875  47.129  1.00  0.00     0.012 C 
ATOM     25  C   UNL     1      64.042  12.008  47.096  1.00  0.00    -0.006 C 
ATOM     26  C   UNL     1      65.593  10.232  48.111  1.00  0.00     0.033 C 
ATOM     27  C   UNL     1      65.389  11.730  47.824  1.00  0.00     0.120 C 
ATOM     28  C   UNL     1      64.099  11.439  45.644  1.00  0.00     0.014 C 
ATOM     29  C   UNL     1      63.877  13.547  46.891  1.00  0.00     0.014 C 
ENDROOT
BRANCH   1  30
ATOM     30  C   UNL     1      56.244  10.073  52.670  1.00  0.00     0.048 C 
ATOM     31  O   UNL     1      55.171   9.414  52.685  1.00  0.00    -0.550 OA
ATOM     32  O   UNL     1      56.354  11.180  53.506  1.00  0.00    -0.550 OA
ENDBRANCH   1  30
BRANCH  27  33
ATOM     33  O   UNL     1      65.450  12.455  49.029  1.00  0.00    -0.393 OA
ATOM     34  H   UNL     1      66.259  13.028  48.981  1.00  0.00     0.210 HD
ENDBRANCH  27  33
TORSDOF 2
ENDMDL
MODEL 2
REMARK VINA RESULT:    89.352      3.917      8.757
REMARK INTER + INTRA:          97.426
REMARK INTER:                  96.184
REMARK INTRA:                   1.242
REMARK UNBOUND:                 0.238
REMARK SMILES C[C@@H]1[C@H](C)CC[C@@]2(C(=O)[O-])CC[C@]3(C)C(=CC[C@H]4[C@]5(C)CC[C@H](O)C(C)(C)[C@@H]5CC[C@]43C)[C@@H]12
REMARK SMILES IDX 7 1 6 2 11 3 33 4 5 5 12 6 15 7 2 8 3 9 13 10 16 11 1 12
REMARK SMILES IDX 4 13 14 14 31 15 17 16 18 17 30 18 32 19 19 20 29 21 28 22
REMARK SMILES IDX 21 23 20 24 25 25 22 26 23 27 26 28 27 29 8 30 9 31 10 32
REMARK SMILES IDX 24 33
REMARK H PARENT 24 34
REMARK Flexibility Score: inf
ROOT
ATOM      1  C   UNL     1      58.059  10.327  51.162  1.00  0.00     0.017 C 
ATOM      2  C   UNL     1      57.467   9.771  52.485  1.00  0.00     0.014 C 
ATOM      3  C   UNL     1      58.112   9.163  50.108  1.00  0.00     0.014 C 
ATOM      4  C   UNL     1      57.194  11.562  50.677  1.00  0.00     0.030 C 
ATOM      5  C   UNL     1      57.431  10.830  53.593  1.00  0.00     0.004 C 
ATOM      6  C   UNL     1      56.824   8.893  49.288  1.00  0.00     0.013 C 
ATOM      7  C   UNL     1      55.939  11.063  49.934  1.00  0.00    -0.063 C 
ATOM      8  C   UNL     1      56.930  12.631  51.813  1.00  0.00    -0.003 C 
ATOM      9  C   UNL     1      56.527  11.999  53.194  1.00  0.00    -0.011 C 
ATOM     10  C   UNL     1      56.156  10.187  48.701  1.00  0.00    -0.006 C 
ATOM     11  C   UNL     1      54.757  10.984  50.565  1.00  0.00    -0.027 C 
ATOM     12  C   UNL     1      58.115  13.615  51.949  1.00  0.00     0.008 C 
ATOM     13  C   UNL     1      56.446  13.027  54.335  1.00  0.00     0.008 C 
ATOM     14  C   UNL     1      57.168  10.879  47.720  1.00  0.00     0.017 C 
ATOM     15  C   UNL     1      54.748   9.921  47.923  1.00  0.00    -0.020 C 
ATOM     16  C   UNL     1      53.844   9.812  50.383  1.00  0.00     0.032 C 
ATOM     17  C   UNL     1      53.624   9.362  48.900  1.00  0.00     0.006 C 
ATOM     18  C   UNL     1      54.187  11.241  47.245  1.00  0.00     0.008 C 
ATOM     19  C   UNL     1      55.007   8.875  46.764  1.00  0.00     0.012 C 
ATOM     20  C   UNL     1      52.111   9.634  48.450  1.00  0.00    -0.025 C 
ATOM     21  C   UNL     1      53.111  12.019  48.019  1.00  0.00     0.005 C 
ATOM     22  C   UNL     1      51.842  11.199  48.459  1.00  0.00     0.003 C 
ATOM     23  C   UNL     1      51.800   9.029  47.037  1.00  0.00     0.010 C 
ATOM     24  C   UNL     1      51.183   8.875  49.468  1.00  0.00     0.012 C 
ATOM     25  C   UNL     1      50.475  11.655  47.771  1.00  0.00    -0.006 C 
ATOM     26  C   UNL     1      50.449   9.457  46.443  1.00  0.00     0.033 C 
ATOM     27  C   UNL     1      50.312  10.989  46.374  1.00  0.00     0.120 C 
ATOM     28  C   UNL     1      49.255  11.294  48.673  1.00  0.00     0.014 C 
ATOM     29  C   UNL     1      50.383  13.205  47.613  1.00  0.00     0.014 C 
ENDROOT
BRANCH   1  30
ATOM     30  C   UNL     1      59.515  10.730  51.384  1.00  0.00     0.048 C 
ATOM     31  O   UNL     1      59.821  11.561  52.281  1.00  0.00    -0.550 OA
ATOM     32  O   UNL     1      60.510  10.298  50.514  1.00  0.00    -0.550 OA
ENDBRANCH   1  30
BRANCH  27  33
ATOM     33  O   UNL     1      51.260  11.507  45.473  1.00  0.00    -0.393 OA
ATOM     34  H   UNL     1      51.109  12.487  45.426  1.00  0.00     0.210 HD
ENDBRANCH  27  33
TORSDOF 2
ENDMDL
MODEL 3
REMARK VINA RESULT:    89.634      4.411      6.624
REMARK INTER + INTRA:          97.732
REMARK INTER:                  96.302
REMARK INTRA:                   1.431
REMARK UNBOUND:                 0.238
REMARK SMILES C[C@@H]1[C@H](C)CC[C@@]2(C(=O)[O-])CC[C@]3(C)C(=CC[C@H]4[C@]5(C)CC[C@H](O)C(C)(C)[C@@H]5CC[C@]43C)[C@@H]12
REMARK SMILES IDX 7 1 6 2 11 3 33 4 5 5 12 6 15 7 2 8 3 9 13 10 16 11 1 12
REMARK SMILES IDX 4 13 14 14 31 15 17 16 18 17 30 18 32 19 19 20 29 21 28 22
REMARK SMILES IDX 21 23 20 24 25 25 22 26 23 27 26 28 27 29 8 30 9 31 10 32
REMARK SMILES IDX 24 33
REMARK H PARENT 24 34
REMARK Flexibility Score: inf
ROOT
ATOM      1  C   UNL     1      53.129   9.661  48.286  1.00  0.00     0.017 C 
ATOM      2  C   UNL     1      54.172   8.875  47.445  1.00  0.00     0.014 C 
ATOM      3  C   UNL     1      52.866   8.875  49.621  1.00  0.00     0.014 C 
ATOM      4  C   UNL     1      53.654  11.135  48.528  1.00  0.00     0.030 C 
ATOM      5  C   UNL     1      54.447   9.543  46.093  1.00  0.00     0.004 C 
ATOM      6  C   UNL     1      53.843   9.133  50.796  1.00  0.00     0.013 C 
ATOM      7  C   UNL     1      54.649  11.150  49.705  1.00  0.00    -0.063 C 
ATOM      8  C   UNL     1      54.152  11.852  47.209  1.00  0.00    -0.003 C 
ATOM      9  C   UNL     1      55.043  10.939  46.291  1.00  0.00    -0.011 C 
ATOM     10  C   UNL     1      54.143  10.651  51.058  1.00  0.00    -0.006 C 
ATOM     11  C   UNL     1      55.973  11.136  49.481  1.00  0.00    -0.027 C 
ATOM     12  C   UNL     1      52.974  12.484  46.430  1.00  0.00     0.008 C 
ATOM     13  C   UNL     1      55.375  11.579  44.933  1.00  0.00     0.008 C 
ATOM     14  C   UNL     1      52.802  11.376  51.432  1.00  0.00     0.017 C 
ATOM     15  C   UNL     1      55.246  10.926  52.227  1.00  0.00    -0.020 C 
ATOM     16  C   UNL     1      56.900  10.286  50.293  1.00  0.00     0.032 C 
ATOM     17  C   UNL     1      56.679  10.350  51.841  1.00  0.00     0.006 C 
ATOM     18  C   UNL     1      55.415  12.474  52.532  1.00  0.00     0.008 C 
ATOM     19  C   UNL     1      54.744  10.238  53.560  1.00  0.00     0.012 C 
ATOM     20  C   UNL     1      57.928  11.051  52.558  1.00  0.00    -0.025 C 
ATOM     21  C   UNL     1      56.591  13.194  51.856  1.00  0.00     0.005 C 
ATOM     22  C   UNL     1      58.015  12.563  52.083  1.00  0.00     0.003 C 
ATOM     23  C   UNL     1      57.832  10.968  54.121  1.00  0.00     0.010 C 
ATOM     24  C   UNL     1      59.210  10.236  52.152  1.00  0.00     0.012 C 
ATOM     25  C   UNL     1      59.030  13.475  52.911  1.00  0.00    -0.006 C 
ATOM     26  C   UNL     1      58.865  11.823  54.869  1.00  0.00     0.033 C 
ATOM     27  C   UNL     1      58.807  13.300  54.442  1.00  0.00     0.120 C 
ATOM     28  C   UNL     1      60.507  13.127  52.550  1.00  0.00     0.014 C 
ATOM     29  C   UNL     1      58.899  14.987  52.544  1.00  0.00     0.014 C 
ENDROOT
BRANCH   1  30
ATOM     30  C   UNL     1      51.787   9.669  47.556  1.00  0.00     0.048 C 
ATOM     31  O   UNL     1      51.640  10.324  46.491  1.00  0.00    -0.550 OA
ATOM     32  O   UNL     1      50.668   9.070  48.127  1.00  0.00    -0.550 OA
ENDBRANCH   1  30
BRANCH  27  33
ATOM     33  O   UNL     1      57.569  13.853  54.820  1.00  0.00    -0.393 OA
ATOM     34  H   UNL     1      56.903  13.557  54.147  1.00  0.00     0.210 HD
ENDBRANCH  27  33
TORSDOF 2
ENDMDL
