MODEL 1
REMARK VINA RESULT:    -3.301      0.000      0.000
REMARK INTER + INTRA:          -8.570
REMARK INTER:                  -6.390
REMARK INTRA:                  -2.180
REMARK UNBOUND:                -2.180
REMARK SMILES CCCCCCCCCCCCCCCCCC(=O)[O-]
REMARK SMILES IDX 10 1 11 2 12 3 13 4 14 5 15 6 16 7 17 8 18 9 19 10 20 11
REMARK SMILES IDX 9 12 8 13 7 14 6 15 5 16 4 17 3 18 2 19 1 20
REMARK H PARENT
REMARK Flexibility Score: inf
ROOT
ATOM      1  C   UNL     1     113.000  53.496 227.971  1.00  0.00     0.000 C 
ENDROOT
BRANCH   1   2
ATOM      2  C   UNL     1     113.538  54.870 228.386  1.00  0.00     0.000 C 
BRANCH   2   3
ATOM      3  C   UNL     1     113.596  54.998 229.916  1.00  0.00     0.000 C 
BRANCH   3   4
ATOM      4  C   UNL     1     112.373  54.378 230.612  1.00  0.00     0.000 C 
BRANCH   4   5
ATOM      5  C   UNL     1     112.752  53.211 231.540  1.00  0.00     0.000 C 
BRANCH   5   6
ATOM      6  C   UNL     1     113.334  53.681 232.886  1.00  0.00     0.000 C 
BRANCH   6   7
ATOM      7  C   UNL     1     112.388  53.538 234.095  1.00  0.00     0.006 C 
BRANCH   7   8
ATOM      8  C   UNL     1     110.951  54.016 233.843  1.00  0.00     0.053 C 
BRANCH   8   9
ATOM      9  C   UNL     1     109.955  52.909 234.003  1.00  0.00     0.041 C 
ATOM     10  O   UNL     1     109.885  51.989 233.146  1.00  0.00    -0.550 OA
ATOM     11  O   UNL     1     109.082  52.910 235.083  1.00  0.00    -0.550 OA
ENDBRANCH   8   9
ENDBRANCH   7   8
ENDBRANCH   6   7
ENDBRANCH   5   6
ENDBRANCH   4   5
ENDBRANCH   3   4
ENDBRANCH   2   3
ENDBRANCH   1   2
BRANCH   1  12
ATOM     12  C   UNL     1     113.430  53.145 226.541  1.00  0.00     0.000 C 
BRANCH  12  13
ATOM     13  C   UNL     1     112.507  53.813 225.509  1.00  0.00    -0.000 C 
BRANCH  13  14
ATOM     14  C   UNL     1     111.055  53.317 225.604  1.00  0.00    -0.000 C 
BRANCH  14  15
ATOM     15  C   UNL     1     110.051  54.463 225.802  1.00  0.00    -0.000 C 
BRANCH  15  16
ATOM     16  C   UNL     1     110.700  55.820 225.493  1.00  0.00    -0.000 C 
BRANCH  16  17
ATOM     17  C   UNL     1     110.715  56.761 226.709  1.00  0.00    -0.000 C 
BRANCH  17  18
ATOM     18  C   UNL     1     110.051  56.140 227.948  1.00  0.00    -0.000 C 
BRANCH  18  19
ATOM     19  C   UNL     1     110.249  57.031 229.179  1.00  0.00    -0.003 C 
ATOM     20  C   UNL     1     111.458  57.947 229.008  1.00  0.00     0.004 C 
ENDBRANCH  18  19
ENDBRANCH  17  18
ENDBRANCH  16  17
ENDBRANCH  15  16
ENDBRANCH  14  15
ENDBRANCH  13  14
ENDBRANCH  12  13
ENDBRANCH   1  12
TORSDOF 16
ENDMDL
MODEL 2
REMARK VINA RESULT:    -3.290      3.112      6.558
REMARK INTER + INTRA:          -8.548
REMARK INTER:                  -6.349
REMARK INTRA:                  -2.199
REMARK UNBOUND:                -2.180
REMARK SMILES CCCCCCCCCCCCCCCCCC(=O)[O-]
REMARK SMILES IDX 10 1 11 2 12 3 13 4 14 5 15 6 16 7 17 8 18 9 19 10 20 11
REMARK SMILES IDX 9 12 8 13 7 14 6 15 5 16 4 17 3 18 2 19 1 20
REMARK H PARENT
REMARK Flexibility Score: inf
ROOT
ATOM      1  C   UNL     1     113.481  54.655 230.584  1.00  0.00     0.000 C 
ENDROOT
BRANCH   1   2
ATOM      2  C   UNL     1     113.635  54.917 229.082  1.00  0.00     0.000 C 
BRANCH   2   3
ATOM      3  C   UNL     1     112.807  53.916 228.261  1.00  0.00     0.000 C 
BRANCH   3   4
ATOM      4  C   UNL     1     113.479  53.541 226.930  1.00  0.00     0.000 C 
BRANCH   4   5
ATOM      5  C   UNL     1     112.521  53.663 225.732  1.00  0.00     0.000 C 
BRANCH   5   6
ATOM      6  C   UNL     1     111.468  54.771 225.917  1.00  0.00     0.000 C 
BRANCH   6   7
ATOM      7  C   UNL     1     110.004  54.319 225.747  1.00  0.00     0.006 C 
BRANCH   7   8
ATOM      8  C   UNL     1     109.666  53.756 224.358  1.00  0.00     0.053 C 
BRANCH   8   9
ATOM      9  C   UNL     1     109.426  52.278 224.397  1.00  0.00     0.041 C 
ATOM     10  O   UNL     1     109.434  51.661 225.494  1.00  0.00    -0.550 OA
ATOM     11  O   UNL     1     109.227  51.575 223.215  1.00  0.00    -0.550 OA
ENDBRANCH   8   9
ENDBRANCH   7   8
ENDBRANCH   6   7
ENDBRANCH   5   6
ENDBRANCH   4   5
ENDBRANCH   3   4
ENDBRANCH   2   3
ENDBRANCH   1   2
BRANCH   1  12
ATOM     12  C   UNL     1     112.652  53.391 230.841  1.00  0.00     0.000 C 
BRANCH  12  13
ATOM     13  C   UNL     1     112.401  53.194 232.345  1.00  0.00    -0.000 C 
BRANCH  13  14
ATOM     14  C   UNL     1     110.992  52.657 232.645  1.00  0.00    -0.000 C 
BRANCH  14  15
ATOM     15  C   UNL     1     110.020  53.761 233.090  1.00  0.00    -0.000 C 
BRANCH  15  16
ATOM     16  C   UNL     1     110.773  55.068 233.382  1.00  0.00    -0.000 C 
BRANCH  16  17
ATOM     17  C   UNL     1     110.297  56.236 232.503  1.00  0.00    -0.000 C 
BRANCH  17  18
ATOM     18  C   UNL     1     109.429  55.775 231.323  1.00  0.00    -0.000 C 
BRANCH  18  19
ATOM     19  C   UNL     1     110.144  56.019 229.989  1.00  0.00    -0.003 C 
ATOM     20  C   UNL     1     110.859  57.368 229.987  1.00  0.00     0.004 C 
ENDBRANCH  18  19
ENDBRANCH  17  18
ENDBRANCH  16  17
ENDBRANCH  15  16
ENDBRANCH  14  15
ENDBRANCH  13  14
ENDBRANCH  12  13
ENDBRANCH   1  12
TORSDOF 16
ENDMDL
MODEL 3
REMARK VINA RESULT:    -3.263      1.149      3.265
REMARK INTER + INTRA:          -8.495
REMARK INTER:                  -6.048
REMARK INTRA:                  -2.448
REMARK UNBOUND:                -2.180
REMARK SMILES CCCCCCCCCCCCCCCCCC(=O)[O-]
REMARK SMILES IDX 10 1 11 2 12 3 13 4 14 5 15 6 16 7 17 8 18 9 19 10 20 11
REMARK SMILES IDX 9 12 8 13 7 14 6 15 5 16 4 17 3 18 2 19 1 20
REMARK H PARENT
REMARK Flexibility Score: inf
ROOT
ATOM      1  C   UNL     1     110.758  56.520 229.450  1.00  0.00     0.000 C 
ENDROOT
BRANCH   1   2
ATOM      2  C   UNL     1     111.610  55.415 230.083  1.00  0.00     0.000 C 
BRANCH   2   3
ATOM      3  C   UNL     1     112.928  55.982 230.632  1.00  0.00     0.000 C 
BRANCH   3   4
ATOM      4  C   UNL     1     113.909  54.883 231.074  1.00  0.00     0.000 C 
BRANCH   4   5
ATOM      5  C   UNL     1     113.848  54.613 232.587  1.00  0.00     0.000 C 
BRANCH   5   6
ATOM      6  C   UNL     1     113.586  53.134 232.921  1.00  0.00     0.000 C 
BRANCH   6   7
ATOM      7  C   UNL     1     112.242  52.575 232.412  1.00  0.00     0.006 C 
BRANCH   7   8
ATOM      8  C   UNL     1     111.002  53.317 232.934  1.00  0.00     0.053 C 
BRANCH   8   9
ATOM      9  C   UNL     1     109.882  52.377 233.258  1.00  0.00     0.041 C 
ATOM     10  O   UNL     1     109.723  51.323 232.589  1.00  0.00    -0.550 OA
ATOM     11  O   UNL     1     108.993  52.682 234.282  1.00  0.00    -0.550 OA
ENDBRANCH   8   9
ENDBRANCH   7   8
ENDBRANCH   6   7
ENDBRANCH   5   6
ENDBRANCH   4   5
ENDBRANCH   3   4
ENDBRANCH   2   3
ENDBRANCH   1   2
BRANCH   1  12
ATOM     12  C   UNL     1     110.375  56.164 228.008  1.00  0.00     0.000 C 
BRANCH  12  13
ATOM     13  C   UNL     1     111.084  57.090 227.006  1.00  0.00    -0.000 C 
BRANCH  13  14
ATOM     14  C   UNL     1     112.614  57.058 227.150  1.00  0.00    -0.000 C 
BRANCH  14  15
ATOM     15  C   UNL     1     113.265  55.964 226.289  1.00  0.00    -0.000 C 
BRANCH  15  16
ATOM     16  C   UNL     1     113.746  54.795 227.162  1.00  0.00    -0.000 C 
BRANCH  16  17
ATOM     17  C   UNL     1     112.833  53.562 227.058  1.00  0.00    -0.000 C 
BRANCH  17  18
ATOM     18  C   UNL     1     112.249  53.374 225.650  1.00  0.00    -0.000 C 
BRANCH  18  19
ATOM     19  C   UNL     1     110.724  53.237 225.704  1.00  0.00    -0.003 C 
ATOM     20  C   UNL     1     110.047  54.247 224.782  1.00  0.00     0.004 C 
ENDBRANCH  18  19
ENDBRANCH  17  18
ENDBRANCH  16  17
ENDBRANCH  15  16
ENDBRANCH  14  15
ENDBRANCH  13  14
ENDBRANCH  12  13
ENDBRANCH   1  12
TORSDOF 16
ENDMDL
MODEL 4
REMARK VINA RESULT:    -3.254      1.770      3.521
REMARK INTER + INTRA:          -8.478
REMARK INTER:                  -7.115
REMARK INTRA:                  -1.362
REMARK UNBOUND:                -2.180
REMARK SMILES CCCCCCCCCCCCCCCCCC(=O)[O-]
REMARK SMILES IDX 10 1 11 2 12 3 13 4 14 5 15 6 16 7 17 8 18 9 19 10 20 11
REMARK SMILES IDX 9 12 8 13 7 14 6 15 5 16 4 17 3 18 2 19 1 20
REMARK H PARENT
REMARK Flexibility Score: inf
ROOT
ATOM      1  C   UNL     1     112.579  54.215 230.404  1.00  0.00     0.000 C 
ENDROOT
BRANCH   1   2
ATOM      2  C   UNL     1     113.507  53.962 231.597  1.00  0.00     0.000 C 
BRANCH   2   3
ATOM      3  C   UNL     1     112.857  53.003 232.606  1.00  0.00     0.000 C 
BRANCH   3   4
ATOM      4  C   UNL     1     112.214  53.737 233.795  1.00  0.00     0.000 C 
BRANCH   4   5
ATOM      5  C   UNL     1     110.798  54.245 233.476  1.00  0.00     0.000 C 
BRANCH   5   6
ATOM      6  C   UNL     1     109.697  53.440 234.190  1.00  0.00     0.000 C 
BRANCH   6   7
ATOM      7  C   UNL     1     108.809  52.581 233.267  1.00  0.00     0.006 C 
BRANCH   7   8
ATOM      8  C   UNL     1     109.561  51.487 232.494  1.00  0.00     0.053 C 
BRANCH   8   9
ATOM      9  C   UNL     1     108.687  50.306 232.204  1.00  0.00     0.041 C 
ATOM     10  O   UNL     1     107.497  50.472 231.830  1.00  0.00    -0.550 OA
ATOM     11  O   UNL     1     109.179  49.018 232.381  1.00  0.00    -0.550 OA
ENDBRANCH   8   9
ENDBRANCH   7   8
ENDBRANCH   6   7
ENDBRANCH   5   6
ENDBRANCH   4   5
ENDBRANCH   3   4
ENDBRANCH   2   3
ENDBRANCH   1   2
BRANCH   1  12
ATOM     12  C   UNL     1     113.058  55.413 229.576  1.00  0.00     0.000 C 
BRANCH  12  13
ATOM     13  C   UNL     1     113.552  54.963 228.192  1.00  0.00    -0.000 C 
BRANCH  13  14
ATOM     14  C   UNL     1     113.187  53.503 227.878  1.00  0.00    -0.000 C 
BRANCH  14  15
ATOM     15  C   UNL     1     113.508  53.112 226.427  1.00  0.00    -0.000 C 
BRANCH  15  16
ATOM     16  C   UNL     1     112.425  53.628 225.468  1.00  0.00    -0.000 C 
BRANCH  16  17
ATOM     17  C   UNL     1     111.008  53.498 226.049  1.00  0.00    -0.000 C 
BRANCH  17  18
ATOM     18  C   UNL     1     110.098  54.674 225.661  1.00  0.00    -0.000 C 
BRANCH  18  19
ATOM     19  C   UNL     1     110.927  55.919 225.325  1.00  0.00    -0.003 C 
ATOM     20  C   UNL     1     110.206  56.804 224.312  1.00  0.00     0.004 C 
ENDBRANCH  18  19
ENDBRANCH  17  18
ENDBRANCH  16  17
ENDBRANCH  15  16
ENDBRANCH  14  15
ENDBRANCH  13  14
ENDBRANCH  12  13
ENDBRANCH   1  12
TORSDOF 16
ENDMDL
MODEL 5
REMARK VINA RESULT:    -3.218      3.217      7.039
REMARK INTER + INTRA:          -8.409
REMARK INTER:                  -6.444
REMARK INTRA:                  -1.965
REMARK UNBOUND:                -2.180
REMARK SMILES CCCCCCCCCCCCCCCCCC(=O)[O-]
REMARK SMILES IDX 10 1 11 2 12 3 13 4 14 5 15 6 16 7 17 8 18 9 19 10 20 11
REMARK SMILES IDX 9 12 8 13 7 14 6 15 5 16 4 17 3 18 2 19 1 20
REMARK H PARENT
REMARK Flexibility Score: inf
ROOT
ATOM      1  C   UNL     1     111.883  53.019 232.247  1.00  0.00     0.000 C 
ENDROOT
BRANCH   1   2
ATOM      2  C   UNL     1     111.710  54.034 231.113  1.00  0.00     0.000 C 
BRANCH   2   3
ATOM      3  C   UNL     1     112.902  53.988 230.145  1.00  0.00     0.000 C 
BRANCH   3   4
ATOM      4  C   UNL     1     113.007  55.247 229.270  1.00  0.00     0.000 C 
BRANCH   4   5
ATOM      5  C   UNL     1     113.487  54.934 227.842  1.00  0.00     0.000 C 
BRANCH   5   6
ATOM      6  C   UNL     1     113.232  53.472 227.432  1.00  0.00     0.000 C 
BRANCH   6   7
ATOM      7  C   UNL     1     112.510  53.286 226.082  1.00  0.00     0.006 C 
BRANCH   7   8
ATOM      8  C   UNL     1     111.088  53.863 226.033  1.00  0.00     0.053 C 
BRANCH   8   9
ATOM      9  C   UNL     1     110.191  53.066 225.137  1.00  0.00     0.041 C 
ATOM     10  O   UNL     1     109.915  53.481 223.981  1.00  0.00    -0.550 OA
ATOM     11  O   UNL     1     109.632  51.878 225.592  1.00  0.00    -0.550 OA
ENDBRANCH   8   9
ENDBRANCH   7   8
ENDBRANCH   6   7
ENDBRANCH   5   6
ENDBRANCH   4   5
ENDBRANCH   3   4
ENDBRANCH   2   3
ENDBRANCH   1   2
BRANCH   1  12
ATOM     12  C   UNL     1     113.366  52.759 232.534  1.00  0.00     0.000 C 
BRANCH  12  13
ATOM     13  C   UNL     1     113.720  53.128 233.983  1.00  0.00    -0.000 C 
BRANCH  13  14
ATOM     14  C   UNL     1     113.961  54.634 234.169  1.00  0.00    -0.000 C 
BRANCH  14  15
ATOM     15  C   UNL     1     112.741  55.361 234.757  1.00  0.00    -0.000 C 
BRANCH  15  16
ATOM     16  C   UNL     1     112.258  56.472 233.813  1.00  0.00    -0.000 C 
BRANCH  16  17
ATOM     17  C   UNL     1     110.726  56.518 233.688  1.00  0.00    -0.000 C 
BRANCH  17  18
ATOM     18  C   UNL     1     110.032  55.405 234.487  1.00  0.00    -0.000 C 
BRANCH  18  19
ATOM     19  C   UNL     1     108.911  54.759 233.665  1.00  0.00    -0.003 C 
ATOM     20  C   UNL     1     108.776  53.273 233.989  1.00  0.00     0.004 C 
ENDBRANCH  18  19
ENDBRANCH  17  18
ENDBRANCH  16  17
ENDBRANCH  15  16
ENDBRANCH  14  15
ENDBRANCH  13  14
ENDBRANCH  12  13
ENDBRANCH   1  12
TORSDOF 16
ENDMDL
MODEL 6
REMARK VINA RESULT:    -3.180      3.070      6.715
REMARK INTER + INTRA:          -8.334
REMARK INTER:                  -6.136
REMARK INTRA:                  -2.199
REMARK UNBOUND:                -2.180
REMARK SMILES CCCCCCCCCCCCCCCCCC(=O)[O-]
REMARK SMILES IDX 10 1 11 2 12 3 13 4 14 5 15 6 16 7 17 8 18 9 19 10 20 11
REMARK SMILES IDX 9 12 8 13 7 14 6 15 5 16 4 17 3 18 2 19 1 20
REMARK H PARENT
REMARK Flexibility Score: inf
ROOT
ATOM      1  C   UNL     1     112.711  53.039 232.765  1.00  0.00     0.000 C 
ENDROOT
BRANCH   1   2
ATOM      2  C   UNL     1     113.424  53.714 231.588  1.00  0.00     0.000 C 
BRANCH   2   3
ATOM      3  C   UNL     1     112.492  53.829 230.372  1.00  0.00     0.000 C 
BRANCH   3   4
ATOM      4  C   UNL     1     113.203  54.387 229.129  1.00  0.00     0.000 C 
BRANCH   4   5
ATOM      5  C   UNL     1     113.089  53.448 227.915  1.00  0.00     0.000 C 
BRANCH   5   6
ATOM      6  C   UNL     1     113.348  54.165 226.577  1.00  0.00     0.000 C 
BRANCH   6   7
ATOM      7  C   UNL     1     112.163  54.163 225.591  1.00  0.00     0.006 C 
BRANCH   7   8
ATOM      8  C   UNL     1     110.854  53.600 226.167  1.00  0.00     0.053 C 
BRANCH   8   9
ATOM      9  C   UNL     1     110.068  52.847 225.138  1.00  0.00     0.041 C 
ATOM     10  O   UNL     1     110.027  53.253 223.947  1.00  0.00    -0.550 OA
ATOM     11  O   UNL     1     109.354  51.712 225.503  1.00  0.00    -0.550 OA
ENDBRANCH   8   9
ENDBRANCH   7   8
ENDBRANCH   6   7
ENDBRANCH   5   6
ENDBRANCH   4   5
ENDBRANCH   3   4
ENDBRANCH   2   3
ENDBRANCH   1   2
BRANCH   1  12
ATOM     12  C   UNL     1     111.246  52.741 232.425  1.00  0.00     0.000 C 
BRANCH  12  13
ATOM     13  C   UNL     1     110.342  52.953 233.650  1.00  0.00    -0.000 C 
BRANCH  13  14
ATOM     14  C   UNL     1     110.968  53.892 234.693  1.00  0.00    -0.000 C 
BRANCH  14  15
ATOM     15  C   UNL     1     110.328  55.290 234.690  1.00  0.00    -0.000 C 
BRANCH  15  16
ATOM     16  C   UNL     1     111.343  56.356 234.251  1.00  0.00    -0.000 C 
BRANCH  16  17
ATOM     17  C   UNL     1     111.372  56.556 232.727  1.00  0.00    -0.000 C 
BRANCH  17  18
ATOM     18  C   UNL     1     109.981  56.840 232.141  1.00  0.00    -0.000 C 
BRANCH  18  19
ATOM     19  C   UNL     1     109.621  55.811 231.063  1.00  0.00    -0.003 C 
ATOM     20  C   UNL     1     109.503  56.469 229.690  1.00  0.00     0.004 C 
ENDBRANCH  18  19
ENDBRANCH  17  18
ENDBRANCH  16  17
ENDBRANCH  15  16
ENDBRANCH  14  15
ENDBRANCH  13  14
ENDBRANCH  12  13
ENDBRANCH   1  12
TORSDOF 16
ENDMDL
MODEL 7
REMARK VINA RESULT:    -3.142     15.646     18.213
REMARK INTER + INTRA:          -8.262
REMARK INTER:                  -5.491
REMARK INTRA:                  -2.771
REMARK UNBOUND:                -2.180
REMARK SMILES CCCCCCCCCCCCCCCCCC(=O)[O-]
REMARK SMILES IDX 10 1 11 2 12 3 13 4 14 5 15 6 16 7 17 8 18 9 19 10 20 11
REMARK SMILES IDX 9 12 8 13 7 14 6 15 5 16 4 17 3 18 2 19 1 20
REMARK H PARENT
REMARK Flexibility Score: inf
ROOT
ATOM      1  C   UNL     1      97.692  57.275 220.698  1.00  0.00     0.000 C 
ENDROOT
BRANCH   1   2
ATOM      2  C   UNL     1      96.573  56.852 219.739  1.00  0.00     0.000 C 
BRANCH   2   3
ATOM      3  C   UNL     1      96.833  55.447 219.175  1.00  0.00     0.000 C 
BRANCH   3   4
ATOM      4  C   UNL     1      96.812  55.411 217.638  1.00  0.00     0.000 C 
BRANCH   4   5
ATOM      5  C   UNL     1      97.916  56.282 217.013  1.00  0.00     0.000 C 
BRANCH   5   6
ATOM      6  C   UNL     1      99.333  55.797 217.366  1.00  0.00     0.000 C 
BRANCH   6   7
ATOM      7  C   UNL     1     100.271  56.876 217.944  1.00  0.00     0.006 C 
BRANCH   7   8
ATOM      8  C   UNL     1     100.150  58.253 217.274  1.00  0.00     0.053 C 
BRANCH   8   9
ATOM      9  C   UNL     1     100.073  59.360 218.281  1.00  0.00     0.041 C 
ATOM     10  O   UNL     1     101.118  59.787 218.837  1.00  0.00    -0.550 OA
ATOM     11  O   UNL     1      98.840  59.897 218.629  1.00  0.00    -0.550 OA
ENDBRANCH   8   9
ENDBRANCH   7   8
ENDBRANCH   6   7
ENDBRANCH   5   6
ENDBRANCH   4   5
ENDBRANCH   3   4
ENDBRANCH   2   3
ENDBRANCH   1   2
BRANCH   1  12
ATOM     12  C   UNL     1      98.127  56.105 221.588  1.00  0.00     0.000 C 
BRANCH  12  13
ATOM     13  C   UNL     1      98.450  56.587 223.012  1.00  0.00    -0.000 C 
BRANCH  13  14
ATOM     14  C   UNL     1      97.368  56.197 224.030  1.00  0.00    -0.000 C 
BRANCH  14  15
ATOM     15  C   UNL     1      96.315  57.299 224.225  1.00  0.00    -0.000 C 
BRANCH  15  16
ATOM     16  C   UNL     1      95.041  56.988 223.425  1.00  0.00    -0.000 C 
BRANCH  16  17
ATOM     17  C   UNL     1      94.676  55.494 223.450  1.00  0.00    -0.000 C 
BRANCH  17  18
ATOM     18  C   UNL     1      94.206  54.976 222.083  1.00  0.00    -0.000 C 
BRANCH  18  19
ATOM     19  C   UNL     1      94.944  53.686 221.704  1.00  0.00    -0.003 C 
ATOM     20  C   UNL     1      95.660  53.087 222.911  1.00  0.00     0.004 C 
ENDBRANCH  18  19
ENDBRANCH  17  18
ENDBRANCH  16  17
ENDBRANCH  15  16
ENDBRANCH  14  15
ENDBRANCH  13  14
ENDBRANCH  12  13
ENDBRANCH   1  12
TORSDOF 16
ENDMDL
MODEL 8
REMARK VINA RESULT:    -3.124      3.188      6.609
REMARK INTER + INTRA:          -8.227
REMARK INTER:                  -5.760
REMARK INTRA:                  -2.467
REMARK UNBOUND:                -2.180
REMARK SMILES CCCCCCCCCCCCCCCCCC(=O)[O-]
REMARK SMILES IDX 10 1 11 2 12 3 13 4 14 5 15 6 16 7 17 8 18 9 19 10 20 11
REMARK SMILES IDX 9 12 8 13 7 14 6 15 5 16 4 17 3 18 2 19 1 20
REMARK H PARENT
REMARK Flexibility Score: inf
ROOT
ATOM      1  C   UNL     1     110.314  57.196 231.218  1.00  0.00     0.000 C 
ENDROOT
BRANCH   1   2
ATOM      2  C   UNL     1     111.773  57.215 231.688  1.00  0.00     0.000 C 
BRANCH   2   3
ATOM      3  C   UNL     1     112.609  58.190 230.845  1.00  0.00     0.000 C 
BRANCH   3   4
ATOM      4  C   UNL     1     113.135  57.555 229.548  1.00  0.00     0.000 C 
BRANCH   4   5
ATOM      5  C   UNL     1     113.607  56.105 229.752  1.00  0.00     0.000 C 
BRANCH   5   6
ATOM      6  C   UNL     1     113.752  55.330 228.429  1.00  0.00     0.000 C 
BRANCH   6   7
ATOM      7  C   UNL     1     113.060  53.952 228.397  1.00  0.00     0.006 C 
BRANCH   7   8
ATOM      8  C   UNL     1     113.289  53.152 227.106  1.00  0.00     0.053 C 
BRANCH   8   9
ATOM      9  C   UNL     1     112.318  53.534 226.031  1.00  0.00     0.041 C 
ATOM     10  O   UNL     1     112.627  54.405 225.176  1.00  0.00    -0.550 OA
ATOM     11  O   UNL     1     111.057  52.951 225.994  1.00  0.00    -0.550 OA
ENDBRANCH   8   9
ENDBRANCH   7   8
ENDBRANCH   6   7
ENDBRANCH   5   6
ENDBRANCH   4   5
ENDBRANCH   3   4
ENDBRANCH   2   3
ENDBRANCH   1   2
BRANCH   1  12
ATOM     12  C   UNL     1     109.721  55.785 231.321  1.00  0.00     0.000 C 
BRANCH  12  13
ATOM     13  C   UNL     1     110.831  54.727 231.427  1.00  0.00    -0.000 C 
BRANCH  13  14
ATOM     14  C   UNL     1     110.508  53.632 232.455  1.00  0.00    -0.000 C 
BRANCH  14  15
ATOM     15  C   UNL     1     111.630  52.589 232.581  1.00  0.00    -0.000 C 
BRANCH  15  16
ATOM     16  C   UNL     1     112.957  53.146 232.044  1.00  0.00    -0.000 C 
BRANCH  16  17
ATOM     17  C   UNL     1     114.110  53.007 233.053  1.00  0.00    -0.000 C 
BRANCH  17  18
ATOM     18  C   UNL     1     113.796  53.663 234.406  1.00  0.00    -0.000 C 
BRANCH  18  19
ATOM     19  C   UNL     1     113.605  55.175 234.249  1.00  0.00    -0.003 C 
ATOM     20  C   UNL     1     112.325  55.643 234.937  1.00  0.00     0.004 C 
ENDBRANCH  18  19
ENDBRANCH  17  18
ENDBRANCH  16  17
ENDBRANCH  15  16
ENDBRANCH  14  15
ENDBRANCH  13  14
ENDBRANCH  12  13
ENDBRANCH   1  12
TORSDOF 16
ENDMDL
MODEL 9
REMARK VINA RESULT:    -3.090     15.616     18.121
REMARK INTER + INTRA:          -8.160
REMARK INTER:                  -4.890
REMARK INTRA:                  -3.270
REMARK UNBOUND:                -2.180
REMARK SMILES CCCCCCCCCCCCCCCCCC(=O)[O-]
REMARK SMILES IDX 10 1 11 2 12 3 13 4 14 5 15 6 16 7 17 8 18 9 19 10 20 11
REMARK SMILES IDX 9 12 8 13 7 14 6 15 5 16 4 17 3 18 2 19 1 20
REMARK H PARENT
REMARK Flexibility Score: inf
ROOT
ATOM      1  C   UNL     1      95.517  65.160 223.798  1.00  0.00     0.000 C 
ENDROOT
BRANCH   1   2
ATOM      2  C   UNL     1      96.589  64.124 224.152  1.00  0.00     0.000 C 
BRANCH   2   3
ATOM      3  C   UNL     1      96.576  63.810 225.656  1.00  0.00     0.000 C 
BRANCH   3   4
ATOM      4  C   UNL     1      95.445  64.534 226.405  1.00  0.00     0.000 C 
BRANCH   4   5
ATOM      5  C   UNL     1      95.966  65.395 227.568  1.00  0.00     0.000 C 
BRANCH   5   6
ATOM      6  C   UNL     1      97.491  65.293 227.752  1.00  0.00     0.000 C 
BRANCH   6   7
ATOM      7  C   UNL     1      97.951  64.652 229.077  1.00  0.00     0.006 C 
BRANCH   7   8
ATOM      8  C   UNL     1      97.785  63.126 229.140  1.00  0.00     0.053 C 
BRANCH   8   9
ATOM      9  C   UNL     1      96.757  62.716 230.150  1.00  0.00     0.041 C 
ATOM     10  O   UNL     1      96.021  63.580 230.695  1.00  0.00    -0.550 OA
ATOM     11  O   UNL     1      96.634  61.380 230.513  1.00  0.00    -0.550 OA
ENDBRANCH   8   9
ENDBRANCH   7   8
ENDBRANCH   6   7
ENDBRANCH   5   6
ENDBRANCH   4   5
ENDBRANCH   3   4
ENDBRANCH   2   3
ENDBRANCH   1   2
BRANCH   1  12
ATOM     12  C   UNL     1      96.151  66.456 223.278  1.00  0.00     0.000 C 
BRANCH  12  13
ATOM     13  C   UNL     1      96.065  67.572 224.332  1.00  0.00    -0.000 C 
BRANCH  13  14
ATOM     14  C   UNL     1      97.380  67.761 225.103  1.00  0.00    -0.000 C 
BRANCH  14  15
ATOM     15  C   UNL     1      98.617  67.433 224.253  1.00  0.00    -0.000 C 
BRANCH  15  16
ATOM     16  C   UNL     1      99.447  66.314 224.901  1.00  0.00    -0.000 C 
BRANCH  16  17
ATOM     17  C   UNL     1     100.250  65.500 223.874  1.00  0.00    -0.000 C 
BRANCH  17  18
ATOM     18  C   UNL     1     100.271  63.998 224.194  1.00  0.00    -0.000 C 
BRANCH  18  19
ATOM     19  C   UNL     1     100.259  63.762 225.709  1.00  0.00    -0.003 C 
ATOM     20  C   UNL     1      99.926  62.308 226.037  1.00  0.00     0.004 C 
ENDBRANCH  18  19
ENDBRANCH  17  18
ENDBRANCH  16  17
ENDBRANCH  15  16
ENDBRANCH  14  15
ENDBRANCH  13  14
ENDBRANCH  12  13
ENDBRANCH   1  12
TORSDOF 16
ENDMDL
