MODEL 1
REMARK VINA RESULT:    -5.782      0.000      0.000
REMARK INTER + INTRA:         -14.739
REMARK INTER:                 -13.219
REMARK INTRA:                  -1.520
REMARK UNBOUND:                -1.520
REMARK SMILES CCCCCCCCCCCCCCCCCCCCCCCC(=O)[O-]
REMARK SMILES IDX 13 1 14 2 15 3 16 4 17 5 18 6 19 7 20 8 21 9 22 10 23 11
REMARK SMILES IDX 24 12 25 13 26 14 12 15 11 16 10 17 9 18 8 19 7 20 6 21 5 22
REMARK SMILES IDX 4 23 3 24 2 25 1 26
REMARK H PARENT
REMARK Flexibility Score: inf
ROOT
ATOM      1  C   UNL     1       5.425 -15.717  -6.115  1.00  0.00     0.000 C 
ENDROOT
BRANCH   1   2
ATOM      2  C   UNL     1       4.611 -14.726  -6.963  1.00  0.00     0.000 C 
BRANCH   2   3
ATOM      3  C   UNL     1       5.185 -14.535  -8.380  1.00  0.00     0.000 C 
BRANCH   3   4
ATOM      4  C   UNL     1       6.574 -15.159  -8.620  1.00  0.00     0.000 C 
BRANCH   4   5
ATOM      5  C   UNL     1       7.679 -14.107  -8.810  1.00  0.00     0.000 C 
BRANCH   5   6
ATOM      6  C   UNL     1       7.809 -13.162  -7.604  1.00  0.00     0.000 C 
BRANCH   6   7
ATOM      7  C   UNL     1       9.082 -12.304  -7.655  1.00  0.00     0.000 C 
BRANCH   7   8
ATOM      8  C   UNL     1       8.730 -10.809  -7.639  1.00  0.00     0.000 C 
BRANCH   8   9
ATOM      9  C   UNL     1       9.893  -9.916  -8.105  1.00  0.00     0.000 C 
BRANCH   9  10
ATOM     10  C   UNL     1      11.268 -10.530  -7.804  1.00  0.00     0.006 C 
BRANCH  10  11
ATOM     11  C   UNL     1      12.103  -9.600  -6.916  1.00  0.00     0.053 C 
BRANCH  11  12
ATOM     12  C   UNL     1      12.092 -10.077  -5.498  1.00  0.00     0.041 C 
ATOM     13  O   UNL     1      12.848  -9.544  -4.643  1.00  0.00    -0.550 OA
ATOM     14  O   UNL     1      11.213 -11.082  -5.109  1.00  0.00    -0.550 OA
ENDBRANCH  11  12
ENDBRANCH  10  11
ENDBRANCH   9  10
ENDBRANCH   8   9
ENDBRANCH   7   8
ENDBRANCH   6   7
ENDBRANCH   5   6
ENDBRANCH   4   5
ENDBRANCH   3   4
ENDBRANCH   2   3
ENDBRANCH   1   2
BRANCH   1  15
ATOM     15  C   UNL     1       4.607 -16.318  -4.959  1.00  0.00     0.000 C 
BRANCH  15  16
ATOM     16  C   UNL     1       4.806 -17.837  -4.810  1.00  0.00     0.000 C 
BRANCH  16  17
ATOM     17  C   UNL     1       3.472 -18.604  -4.839  1.00  0.00     0.000 C 
BRANCH  17  18
ATOM     18  C   UNL     1       3.029 -19.052  -3.437  1.00  0.00    -0.000 C 
BRANCH  18  19
ATOM     19  C   UNL     1       1.984 -18.113  -2.813  1.00  0.00    -0.000 C 
BRANCH  19  20
ATOM     20  C   UNL     1       2.592 -17.039  -1.885  1.00  0.00    -0.000 C 
BRANCH  20  21
ATOM     21  C   UNL     1       3.851 -17.545  -1.159  1.00  0.00    -0.000 C 
BRANCH  21  22
ATOM     22  C   UNL     1       3.758 -17.365   0.372  1.00  0.00    -0.000 C 
BRANCH  22  23
ATOM     23  C   UNL     1       4.530 -18.433   1.167  1.00  0.00    -0.000 C 
BRANCH  23  24
ATOM     24  C   UNL     1       3.680 -19.093   2.265  1.00  0.00    -0.000 C 
BRANCH  24  25
ATOM     25  C   UNL     1       4.069 -18.625   3.676  1.00  0.00    -0.003 C 
ATOM     26  C   UNL     1       3.530 -17.232   4.004  1.00  0.00     0.004 C 
ENDBRANCH  24  25
ENDBRANCH  23  24
ENDBRANCH  22  23
ENDBRANCH  21  22
ENDBRANCH  20  21
ENDBRANCH  19  20
ENDBRANCH  18  19
ENDBRANCH  17  18
ENDBRANCH  16  17
ENDBRANCH  15  16
ENDBRANCH   1  15
TORSDOF 22
ENDMDL
MODEL 2
REMARK VINA RESULT:    -5.635      6.898     10.248
REMARK INTER + INTRA:         -14.402
REMARK INTER:                 -10.916
REMARK INTRA:                  -3.486
REMARK UNBOUND:                -1.520
REMARK SMILES CCCCCCCCCCCCCCCCCCCCCCCC(=O)[O-]
REMARK SMILES IDX 13 1 14 2 15 3 16 4 17 5 18 6 19 7 20 8 21 9 22 10 23 11
REMARK SMILES IDX 24 12 25 13 26 14 12 15 11 16 10 17 9 18 8 19 7 20 6 21 5 22
REMARK SMILES IDX 4 23 3 24 2 25 1 26
REMARK H PARENT
REMARK Flexibility Score: inf
ROOT
ATOM      1  C   UNL     1       7.265 -12.927   3.259  1.00  0.00     0.000 C 
ENDROOT
BRANCH   1   2
ATOM      2  C   UNL     1       7.527 -11.910   4.383  1.00  0.00     0.000 C 
BRANCH   2   3
ATOM      3  C   UNL     1       7.119 -12.432   5.774  1.00  0.00     0.000 C 
BRANCH   3   4
ATOM      4  C   UNL     1       8.284 -12.882   6.678  1.00  0.00     0.000 C 
BRANCH   4   5
ATOM      5  C   UNL     1       8.250 -14.386   6.994  1.00  0.00     0.000 C 
BRANCH   5   6
ATOM      6  C   UNL     1       9.209 -15.198   6.109  1.00  0.00     0.000 C 
BRANCH   6   7
ATOM      7  C   UNL     1      10.448 -14.395   5.681  1.00  0.00     0.000 C 
BRANCH   7   8
ATOM      8  C   UNL     1      10.551 -14.330   4.150  1.00  0.00     0.000 C 
BRANCH   8   9
ATOM      9  C   UNL     1      11.043 -12.965   3.642  1.00  0.00     0.000 C 
BRANCH   9  10
ATOM     10  C   UNL     1      11.299 -11.966   4.780  1.00  0.00     0.006 C 
BRANCH  10  11
ATOM     11  C   UNL     1      11.015 -10.530   4.326  1.00  0.00     0.053 C 
BRANCH  11  12
ATOM     12  C   UNL     1      12.201  -9.653   4.581  1.00  0.00     0.041 C 
ATOM     13  O   UNL     1      12.312  -8.548   3.986  1.00  0.00    -0.550 OA
ATOM     14  O   UNL     1      13.161 -10.036   5.509  1.00  0.00    -0.550 OA
ENDBRANCH  11  12
ENDBRANCH  10  11
ENDBRANCH   9  10
ENDBRANCH   8   9
ENDBRANCH   7   8
ENDBRANCH   6   7
ENDBRANCH   5   6
ENDBRANCH   4   5
ENDBRANCH   3   4
ENDBRANCH   2   3
ENDBRANCH   1   2
BRANCH   1  15
ATOM     15  C   UNL     1       6.390 -14.105   3.720  1.00  0.00     0.000 C 
BRANCH  15  16
ATOM     16  C   UNL     1       6.893 -15.465   3.203  1.00  0.00     0.000 C 
BRANCH  16  17
ATOM     17  C   UNL     1       6.234 -16.646   3.935  1.00  0.00     0.000 C 
BRANCH  17  18
ATOM     18  C   UNL     1       4.893 -16.257   4.577  1.00  0.00    -0.000 C 
BRANCH  18  19
ATOM     19  C   UNL     1       3.701 -17.019   3.975  1.00  0.00    -0.000 C 
BRANCH  19  20
ATOM     20  C   UNL     1       4.032 -18.476   3.584  1.00  0.00    -0.000 C 
BRANCH  20  21
ATOM     21  C   UNL     1       3.637 -18.790   2.130  1.00  0.00    -0.000 C 
BRANCH  21  22
ATOM     22  C   UNL     1       4.812 -18.595   1.147  1.00  0.00    -0.000 C 
BRANCH  22  23
ATOM     23  C   UNL     1       4.568 -17.486   0.106  1.00  0.00    -0.000 C 
BRANCH  23  24
ATOM     24  C   UNL     1       4.145 -18.037  -1.265  1.00  0.00    -0.000 C 
BRANCH  24  25
ATOM     25  C   UNL     1       2.721 -17.613  -1.659  1.00  0.00    -0.003 C 
ATOM     26  C   UNL     1       2.265 -18.233  -2.980  1.00  0.00     0.004 C 
ENDBRANCH  24  25
ENDBRANCH  23  24
ENDBRANCH  22  23
ENDBRANCH  21  22
ENDBRANCH  20  21
ENDBRANCH  19  20
ENDBRANCH  18  19
ENDBRANCH  17  18
ENDBRANCH  16  17
ENDBRANCH  15  16
ENDBRANCH   1  15
TORSDOF 22
ENDMDL
MODEL 3
REMARK VINA RESULT:    -5.627      3.987      8.243
REMARK INTER + INTRA:         -14.383
REMARK INTER:                 -11.798
REMARK INTRA:                  -2.585
REMARK UNBOUND:                -1.520
REMARK SMILES CCCCCCCCCCCCCCCCCCCCCCCC(=O)[O-]
REMARK SMILES IDX 13 1 14 2 15 3 16 4 17 5 18 6 19 7 20 8 21 9 22 10 23 11
REMARK SMILES IDX 24 12 25 13 26 14 12 15 11 16 10 17 9 18 8 19 7 20 6 21 5 22
REMARK SMILES IDX 4 23 3 24 2 25 1 26
REMARK H PARENT
REMARK Flexibility Score: inf
ROOT
ATOM      1  C   UNL     1       5.819 -18.573   1.935  1.00  0.00     0.000 C 
ENDROOT
BRANCH   1   2
ATOM      2  C   UNL     1       4.849 -18.598   0.741  1.00  0.00     0.000 C 
BRANCH   2   3
ATOM      3  C   UNL     1       5.142 -17.494  -0.294  1.00  0.00     0.000 C 
BRANCH   3   4
ATOM      4  C   UNL     1       3.900 -16.807  -0.896  1.00  0.00     0.000 C 
BRANCH   4   5
ATOM      5  C   UNL     1       2.787 -17.801  -1.268  1.00  0.00     0.000 C 
BRANCH   5   6
ATOM      6  C   UNL     1       2.437 -17.763  -2.765  1.00  0.00     0.000 C 
BRANCH   6   7
ATOM      7  C   UNL     1       3.121 -18.882  -3.565  1.00  0.00     0.000 C 
BRANCH   7   8
ATOM      8  C   UNL     1       3.943 -18.297  -4.723  1.00  0.00     0.000 C 
BRANCH   8   9
ATOM      9  C   UNL     1       3.962 -16.759  -4.726  1.00  0.00     0.000 C 
BRANCH   9  10
ATOM     10  C   UNL     1       5.112 -16.182  -5.564  1.00  0.00     0.006 C 
BRANCH  10  11
ATOM     11  C   UNL     1       4.575 -15.345  -6.731  1.00  0.00     0.053 C 
BRANCH  11  12
ATOM     12  C   UNL     1       5.068 -13.936  -6.638  1.00  0.00     0.041 C 
ATOM     13  O   UNL     1       6.216 -13.636  -7.061  1.00  0.00    -0.550 OA
ATOM     14  O   UNL     1       4.243 -12.943  -6.124  1.00  0.00    -0.550 OA
ENDBRANCH  11  12
ENDBRANCH  10  11
ENDBRANCH   9  10
ENDBRANCH   8   9
ENDBRANCH   7   8
ENDBRANCH   6   7
ENDBRANCH   5   6
ENDBRANCH   4   5
ENDBRANCH   3   4
ENDBRANCH   2   3
ENDBRANCH   1   2
BRANCH   1  15
ATOM     15  C   UNL     1       5.144 -18.985   3.254  1.00  0.00     0.000 C 
BRANCH  15  16
ATOM     16  C   UNL     1       3.672 -18.545   3.338  1.00  0.00     0.000 C 
BRANCH  16  17
ATOM     17  C   UNL     1       3.512 -17.173   4.014  1.00  0.00     0.000 C 
BRANCH  17  18
ATOM     18  C   UNL     1       3.474 -16.023   2.995  1.00  0.00    -0.000 C 
BRANCH  18  19
ATOM     19  C   UNL     1       4.753 -15.170   3.012  1.00  0.00    -0.000 C 
BRANCH  19  20
ATOM     20  C   UNL     1       5.725 -15.535   4.155  1.00  0.00    -0.000 C 
BRANCH  20  21
ATOM     21  C   UNL     1       7.196 -15.323   3.756  1.00  0.00    -0.000 C 
BRANCH  21  22
ATOM     22  C   UNL     1       8.174 -15.723   4.883  1.00  0.00    -0.000 C 
BRANCH  22  23
ATOM     23  C   UNL     1       7.601 -15.520   6.297  1.00  0.00    -0.000 C 
BRANCH  23  24
ATOM     24  C   UNL     1       8.359 -14.452   7.102  1.00  0.00    -0.000 C 
BRANCH  24  25
ATOM     25  C   UNL     1       7.908 -13.024   6.760  1.00  0.00    -0.003 C 
ATOM     26  C   UNL     1       8.984 -12.226   6.023  1.00  0.00     0.004 C 
ENDBRANCH  24  25
ENDBRANCH  23  24
ENDBRANCH  22  23
ENDBRANCH  21  22
ENDBRANCH  20  21
ENDBRANCH  19  20
ENDBRANCH  18  19
ENDBRANCH  17  18
ENDBRANCH  16  17
ENDBRANCH  15  16
ENDBRANCH   1  15
TORSDOF 22
ENDMDL
MODEL 4
REMARK VINA RESULT:    -5.592      5.465     10.100
REMARK INTER + INTRA:         -14.304
REMARK INTER:                 -11.296
REMARK INTRA:                  -3.009
REMARK UNBOUND:                -1.520
REMARK SMILES CCCCCCCCCCCCCCCCCCCCCCCC(=O)[O-]
REMARK SMILES IDX 13 1 14 2 15 3 16 4 17 5 18 6 19 7 20 8 21 9 22 10 23 11
REMARK SMILES IDX 24 12 25 13 26 14 12 15 11 16 10 17 9 18 8 19 7 20 6 21 5 22
REMARK SMILES IDX 4 23 3 24 2 25 1 26
REMARK H PARENT
REMARK Flexibility Score: inf
ROOT
ATOM      1  C   UNL     1       9.070  -9.731  -7.768  1.00  0.00     0.000 C 
ENDROOT
BRANCH   1   2
ATOM      2  C   UNL     1       8.648  -9.290  -6.356  1.00  0.00     0.000 C 
BRANCH   2   3
ATOM      3  C   UNL     1       8.730 -10.429  -5.322  1.00  0.00     0.000 C 
BRANCH   3   4
ATOM      4  C   UNL     1       8.039 -11.745  -5.732  1.00  0.00     0.000 C 
BRANCH   4   5
ATOM      5  C   UNL     1       9.022 -12.918  -5.876  1.00  0.00     0.000 C 
BRANCH   5   6
ATOM      6  C   UNL     1       9.065 -13.482  -7.305  1.00  0.00     0.000 C 
BRANCH   6   7
ATOM      7  C   UNL     1       7.744 -13.279  -8.065  1.00  0.00     0.000 C 
BRANCH   7   8
ATOM      8  C   UNL     1       7.470 -14.464  -9.003  1.00  0.00     0.000 C 
BRANCH   8   9
ATOM      9  C   UNL     1       7.015 -15.727  -8.252  1.00  0.00     0.000 C 
BRANCH   9  10
ATOM     10  C   UNL     1       6.501 -15.423  -6.837  1.00  0.00     0.006 C 
BRANCH  10  11
ATOM     11  C   UNL     1       4.969 -15.450  -6.791  1.00  0.00     0.053 C 
BRANCH  11  12
ATOM     12  C   UNL     1       4.404 -14.178  -7.341  1.00  0.00     0.041 C 
ATOM     13  O   UNL     1       3.908 -14.152  -8.499  1.00  0.00    -0.550 OA
ATOM     14  O   UNL     1       4.385 -13.030  -6.557  1.00  0.00    -0.550 OA
ENDBRANCH  11  12
ENDBRANCH  10  11
ENDBRANCH   9  10
ENDBRANCH   8   9
ENDBRANCH   7   8
ENDBRANCH   6   7
ENDBRANCH   5   6
ENDBRANCH   4   5
ENDBRANCH   3   4
ENDBRANCH   2   3
ENDBRANCH   1   2
BRANCH   1  15
ATOM     15  C   UNL     1      10.574  -9.540  -8.023  1.00  0.00     0.000 C 
BRANCH  15  16
ATOM     16  C   UNL     1      11.355 -10.867  -8.029  1.00  0.00     0.000 C 
BRANCH  16  17
ATOM     17  C   UNL     1      12.102 -11.108  -6.706  1.00  0.00     0.000 C 
BRANCH  17  18
ATOM     18  C   UNL     1      12.396  -9.798  -5.958  1.00  0.00    -0.000 C 
BRANCH  18  19
ATOM     19  C   UNL     1      12.305  -9.951  -4.430  1.00  0.00    -0.000 C 
BRANCH  19  20
ATOM     20  C   UNL     1      11.606  -8.765  -3.730  1.00  0.00    -0.000 C 
BRANCH  20  21
ATOM     21  C   UNL     1      12.403  -7.456  -3.870  1.00  0.00    -0.000 C 
BRANCH  21  22
ATOM     22  C   UNL     1      12.938  -6.947  -2.514  1.00  0.00    -0.000 C 
BRANCH  22  23
ATOM     23  C   UNL     1      14.294  -7.559  -2.116  1.00  0.00    -0.000 C 
BRANCH  23  24
ATOM     24  C   UNL     1      14.196  -8.484  -0.892  1.00  0.00    -0.000 C 
BRANCH  24  25
ATOM     25  C   UNL     1      12.814  -8.433  -0.222  1.00  0.00    -0.003 C 
ATOM     26  C   UNL     1      12.859  -8.827   1.255  1.00  0.00     0.004 C 
ENDBRANCH  24  25
ENDBRANCH  23  24
ENDBRANCH  22  23
ENDBRANCH  21  22
ENDBRANCH  20  21
ENDBRANCH  19  20
ENDBRANCH  18  19
ENDBRANCH  17  18
ENDBRANCH  16  17
ENDBRANCH  15  16
ENDBRANCH   1  15
TORSDOF 22
ENDMDL
MODEL 5
REMARK VINA RESULT:    -5.578      6.052      9.682
REMARK INTER + INTRA:         -14.272
REMARK INTER:                 -12.959
REMARK INTRA:                  -1.313
REMARK UNBOUND:                -1.520
REMARK SMILES CCCCCCCCCCCCCCCCCCCCCCCC(=O)[O-]
REMARK SMILES IDX 13 1 14 2 15 3 16 4 17 5 18 6 19 7 20 8 21 9 22 10 23 11
REMARK SMILES IDX 24 12 25 13 26 14 12 15 11 16 10 17 9 18 8 19 7 20 6 21 5 22
REMARK SMILES IDX 4 23 3 24 2 25 1 26
REMARK H PARENT
REMARK Flexibility Score: inf
ROOT
ATOM      1  C   UNL     1      11.756 -11.439   4.726  1.00  0.00     0.000 C 
ENDROOT
BRANCH   1   2
ATOM      2  C   UNL     1      12.660 -10.393   5.399  1.00  0.00     0.000 C 
BRANCH   2   3
ATOM      3  C   UNL     1      13.178  -9.325   4.417  1.00  0.00     0.000 C 
BRANCH   3   4
ATOM      4  C   UNL     1      12.132  -8.292   3.953  1.00  0.00     0.000 C 
BRANCH   4   5
ATOM      5  C   UNL     1      11.707  -8.487   2.488  1.00  0.00     0.000 C 
BRANCH   5   6
ATOM      6  C   UNL     1      12.867  -8.950   1.593  1.00  0.00     0.000 C 
BRANCH   6   7
ATOM      7  C   UNL     1      12.732  -8.463   0.142  1.00  0.00     0.000 C 
BRANCH   7   8
ATOM      8  C   UNL     1      14.091  -8.502  -0.573  1.00  0.00     0.000 C 
BRANCH   8   9
ATOM      9  C   UNL     1      14.142  -7.587  -1.808  1.00  0.00     0.000 C 
BRANCH   9  10
ATOM     10  C   UNL     1      12.745  -7.201  -2.318  1.00  0.00     0.006 C 
BRANCH  10  11
ATOM     11  C   UNL     1      12.567  -7.598  -3.788  1.00  0.00     0.053 C 
BRANCH  11  12
ATOM     12  C   UNL     1      11.915  -8.940  -3.895  1.00  0.00     0.041 C 
ATOM     13  O   UNL     1      12.552  -9.982  -3.586  1.00  0.00    -0.550 OA
ATOM     14  O   UNL     1      10.587  -9.038  -4.292  1.00  0.00    -0.550 OA
ENDBRANCH  11  12
ENDBRANCH  10  11
ENDBRANCH   9  10
ENDBRANCH   8   9
ENDBRANCH   7   8
ENDBRANCH   6   7
ENDBRANCH   5   6
ENDBRANCH   4   5
ENDBRANCH   3   4
ENDBRANCH   2   3
ENDBRANCH   1   2
BRANCH   1  15
ATOM     15  C   UNL     1      10.337 -11.465   5.318  1.00  0.00     0.000 C 
BRANCH  15  16
ATOM     16  C   UNL     1       9.627 -12.816   5.118  1.00  0.00     0.000 C 
BRANCH  16  17
ATOM     17  C   UNL     1       8.774 -13.211   6.336  1.00  0.00     0.000 C 
BRANCH  17  18
ATOM     18  C   UNL     1       8.921 -14.699   6.691  1.00  0.00    -0.000 C 
BRANCH  18  19
ATOM     19  C   UNL     1       7.592 -15.467   6.600  1.00  0.00    -0.000 C 
BRANCH  19  20
ATOM     20  C   UNL     1       7.234 -15.916   5.167  1.00  0.00    -0.000 C 
BRANCH  20  21
ATOM     21  C   UNL     1       5.714 -15.925   4.924  1.00  0.00    -0.000 C 
BRANCH  21  22
ATOM     22  C   UNL     1       5.354 -15.668   3.445  1.00  0.00    -0.000 C 
BRANCH  22  23
ATOM     23  C   UNL     1       3.960 -16.188   3.050  1.00  0.00    -0.000 C 
BRANCH  23  24
ATOM     24  C   UNL     1       3.488 -17.360   3.925  1.00  0.00    -0.000 C 
BRANCH  24  25
ATOM     25  C   UNL     1       3.766 -18.728   3.282  1.00  0.00    -0.003 C 
ATOM     26  C   UNL     1       5.220 -19.173   3.449  1.00  0.00     0.004 C 
ENDBRANCH  24  25
ENDBRANCH  23  24
ENDBRANCH  22  23
ENDBRANCH  21  22
ENDBRANCH  20  21
ENDBRANCH  19  20
ENDBRANCH  18  19
ENDBRANCH  17  18
ENDBRANCH  16  17
ENDBRANCH  15  16
ENDBRANCH   1  15
TORSDOF 22
ENDMDL
MODEL 6
REMARK VINA RESULT:    -5.573      4.038     10.947
REMARK INTER + INTRA:         -14.261
REMARK INTER:                 -12.398
REMARK INTRA:                  -1.862
REMARK UNBOUND:                -1.520
REMARK SMILES CCCCCCCCCCCCCCCCCCCCCCCC(=O)[O-]
REMARK SMILES IDX 13 1 14 2 15 3 16 4 17 5 18 6 19 7 20 8 21 9 22 10 23 11
REMARK SMILES IDX 24 12 25 13 26 14 12 15 11 16 10 17 9 18 8 19 7 20 6 21 5 22
REMARK SMILES IDX 4 23 3 24 2 25 1 26
REMARK H PARENT
REMARK Flexibility Score: inf
ROOT
ATOM      1  C   UNL     1       5.276 -15.907  -6.151  1.00  0.00     0.000 C 
ENDROOT
BRANCH   1   2
ATOM      2  C   UNL     1       4.373 -16.405  -5.010  1.00  0.00     0.000 C 
BRANCH   2   3
ATOM      3  C   UNL     1       4.571 -17.901  -4.697  1.00  0.00     0.000 C 
BRANCH   3   4
ATOM      4  C   UNL     1       3.299 -18.660  -4.268  1.00  0.00     0.000 C 
BRANCH   4   5
ATOM      5  C   UNL     1       3.094 -18.670  -2.744  1.00  0.00     0.000 C 
BRANCH   5   6
ATOM      6  C   UNL     1       2.097 -17.598  -2.276  1.00  0.00     0.000 C 
BRANCH   6   7
ATOM      7  C   UNL     1       2.787 -16.363  -1.678  1.00  0.00     0.000 C 
BRANCH   7   8
ATOM      8  C   UNL     1       4.140 -16.744  -1.057  1.00  0.00     0.000 C 
BRANCH   8   9
ATOM      9  C   UNL     1       4.064 -16.947   0.465  1.00  0.00     0.000 C 
BRANCH   9  10
ATOM     10  C   UNL     1       4.575 -18.326   0.906  1.00  0.00     0.006 C 
BRANCH  10  11
ATOM     11  C   UNL     1       3.578 -19.004   1.853  1.00  0.00     0.053 C 
BRANCH  11  12
ATOM     12  C   UNL     1       3.971 -18.779   3.279  1.00  0.00     0.041 C 
ATOM     13  O   UNL     1       3.549 -17.768   3.901  1.00  0.00    -0.550 OA
ATOM     14  O   UNL     1       4.767 -19.709   3.937  1.00  0.00    -0.550 OA
ENDBRANCH  11  12
ENDBRANCH  10  11
ENDBRANCH   9  10
ENDBRANCH   8   9
ENDBRANCH   7   8
ENDBRANCH   6   7
ENDBRANCH   5   6
ENDBRANCH   4   5
ENDBRANCH   3   4
ENDBRANCH   2   3
ENDBRANCH   1   2
BRANCH   1  15
ATOM     15  C   UNL     1       4.507 -15.082  -7.198  1.00  0.00     0.000 C 
BRANCH  15  16
ATOM     16  C   UNL     1       5.424 -14.179  -8.042  1.00  0.00     0.000 C 
BRANCH  16  17
ATOM     17  C   UNL     1       6.761 -14.861  -8.380  1.00  0.00     0.000 C 
BRANCH  17  18
ATOM     18  C   UNL     1       7.965 -13.946  -8.106  1.00  0.00    -0.000 C 
BRANCH  18  19
ATOM     19  C   UNL     1       7.604 -12.729  -7.238  1.00  0.00    -0.000 C 
BRANCH  19  20
ATOM     20  C   UNL     1       8.813 -12.116  -6.498  1.00  0.00    -0.000 C 
BRANCH  20  21
ATOM     21  C   UNL     1       8.893 -10.591  -6.683  1.00  0.00    -0.000 C 
BRANCH  21  22
ATOM     22  C   UNL     1       9.583 -10.194  -8.006  1.00  0.00    -0.000 C 
BRANCH  22  23
ATOM     23  C   UNL     1      11.061 -10.620  -8.083  1.00  0.00    -0.000 C 
BRANCH  23  24
ATOM     24  C   UNL     1      12.021  -9.551  -7.537  1.00  0.00    -0.000 C 
BRANCH  24  25
ATOM     25  C   UNL     1      12.454  -9.830  -6.089  1.00  0.00    -0.003 C 
ATOM     26  C   UNL     1      11.704  -8.969  -5.072  1.00  0.00     0.004 C 
ENDBRANCH  24  25
ENDBRANCH  23  24
ENDBRANCH  22  23
ENDBRANCH  21  22
ENDBRANCH  20  21
ENDBRANCH  19  20
ENDBRANCH  18  19
ENDBRANCH  17  18
ENDBRANCH  16  17
ENDBRANCH  15  16
ENDBRANCH   1  15
TORSDOF 22
ENDMDL
MODEL 7
REMARK VINA RESULT:    -5.538      5.835     10.058
REMARK INTER + INTRA:         -14.181
REMARK INTER:                 -12.651
REMARK INTRA:                  -1.530
REMARK UNBOUND:                -1.520
REMARK SMILES CCCCCCCCCCCCCCCCCCCCCCCC(=O)[O-]
REMARK SMILES IDX 13 1 14 2 15 3 16 4 17 5 18 6 19 7 20 8 21 9 22 10 23 11
REMARK SMILES IDX 24 12 25 13 26 14 12 15 11 16 10 17 9 18 8 19 7 20 6 21 5 22
REMARK SMILES IDX 4 23 3 24 2 25 1 26
REMARK H PARENT
REMARK Flexibility Score: inf
ROOT
ATOM      1  C   UNL     1       6.879 -15.429   5.564  1.00  0.00     0.000 C 
ENDROOT
BRANCH   1   2
ATOM      2  C   UNL     1       7.817 -15.598   6.771  1.00  0.00     0.000 C 
BRANCH   2   3
ATOM      3  C   UNL     1       8.728 -14.376   7.001  1.00  0.00     0.000 C 
BRANCH   3   4
ATOM      4  C   UNL     1       8.042 -13.004   6.850  1.00  0.00     0.000 C 
BRANCH   4   5
ATOM      5  C   UNL     1       8.469 -12.258   5.575  1.00  0.00     0.000 C 
BRANCH   5   6
ATOM      6  C   UNL     1       9.976 -12.379   5.296  1.00  0.00     0.000 C 
BRANCH   6   7
ATOM      7  C   UNL     1      10.670 -11.013   5.176  1.00  0.00     0.000 C 
BRANCH   7   8
ATOM      8  C   UNL     1      12.156 -11.189   4.825  1.00  0.00     0.000 C 
BRANCH   8   9
ATOM      9  C   UNL     1      12.929  -9.859   4.820  1.00  0.00     0.000 C 
BRANCH   9  10
ATOM     10  C   UNL     1      12.219  -8.764   4.012  1.00  0.00     0.006 C 
BRANCH  10  11
ATOM     11  C   UNL     1      12.632  -8.813   2.537  1.00  0.00     0.053 C 
BRANCH  11  12
ATOM     12  C   UNL     1      11.435  -9.016   1.662  1.00  0.00     0.041 C 
ATOM     13  O   UNL     1      11.539  -8.908   0.410  1.00  0.00    -0.550 OA
ATOM     14  O   UNL     1      10.214  -9.368   2.224  1.00  0.00    -0.550 OA
ENDBRANCH  11  12
ENDBRANCH  10  11
ENDBRANCH   9  10
ENDBRANCH   8   9
ENDBRANCH   7   8
ENDBRANCH   6   7
ENDBRANCH   5   6
ENDBRANCH   4   5
ENDBRANCH   3   4
ENDBRANCH   2   3
ENDBRANCH   1   2
BRANCH   1  15
ATOM     15  C   UNL     1       7.353 -16.217   4.331  1.00  0.00     0.000 C 
BRANCH  15  16
ATOM     16  C   UNL     1       6.201 -16.915   3.586  1.00  0.00     0.000 C 
BRANCH  16  17
ATOM     17  C   UNL     1       4.822 -16.488   4.117  1.00  0.00     0.000 C 
BRANCH  17  18
ATOM     18  C   UNL     1       3.751 -17.565   3.884  1.00  0.00    -0.000 C 
BRANCH  18  19
ATOM     19  C   UNL     1       4.224 -18.682   2.939  1.00  0.00    -0.000 C 
BRANCH  19  20
ATOM     20  C   UNL     1       3.505 -18.683   1.573  1.00  0.00    -0.000 C 
BRANCH  20  21
ATOM     21  C   UNL     1       4.420 -18.195   0.435  1.00  0.00    -0.000 C 
BRANCH  21  22
ATOM     22  C   UNL     1       3.694 -17.232  -0.530  1.00  0.00    -0.000 C 
BRANCH  22  23
ATOM     23  C   UNL     1       2.685 -17.934  -1.458  1.00  0.00    -0.000 C 
BRANCH  23  24
ATOM     24  C   UNL     1       2.623 -17.304  -2.859  1.00  0.00    -0.000 C 
BRANCH  24  25
ATOM     25  C   UNL     1       3.339 -18.154  -3.920  1.00  0.00    -0.003 C 
ATOM     26  C   UNL     1       3.494 -19.616  -3.499  1.00  0.00     0.004 C 
ENDBRANCH  24  25
ENDBRANCH  23  24
ENDBRANCH  22  23
ENDBRANCH  21  22
ENDBRANCH  20  21
ENDBRANCH  19  20
ENDBRANCH  18  19
ENDBRANCH  17  18
ENDBRANCH  16  17
ENDBRANCH  15  16
ENDBRANCH   1  15
TORSDOF 22
ENDMDL
MODEL 8
REMARK VINA RESULT:    -5.533      6.654     12.346
REMARK INTER + INTRA:         -14.169
REMARK INTER:                 -11.737
REMARK INTRA:                  -2.433
REMARK UNBOUND:                -1.520
REMARK SMILES CCCCCCCCCCCCCCCCCCCCCCCC(=O)[O-]
REMARK SMILES IDX 13 1 14 2 15 3 16 4 17 5 18 6 19 7 20 8 21 9 22 10 23 11
REMARK SMILES IDX 24 12 25 13 26 14 12 15 11 16 10 17 9 18 8 19 7 20 6 21 5 22
REMARK SMILES IDX 4 23 3 24 2 25 1 26
REMARK H PARENT
REMARK Flexibility Score: inf
ROOT
ATOM      1  C   UNL     1       7.362 -15.943   4.155  1.00  0.00     0.000 C 
ENDROOT
BRANCH   1   2
ATOM      2  C   UNL     1       7.223 -14.940   2.997  1.00  0.00     0.000 C 
BRANCH   2   3
ATOM      3  C   UNL     1       5.995 -15.215   2.108  1.00  0.00     0.000 C 
BRANCH   3   4
ATOM      4  C   UNL     1       4.674 -14.587   2.592  1.00  0.00     0.000 C 
BRANCH   4   5
ATOM      5  C   UNL     1       3.558 -15.624   2.802  1.00  0.00     0.000 C 
BRANCH   5   6
ATOM      6  C   UNL     1       3.730 -16.421   4.105  1.00  0.00     0.000 C 
BRANCH   6   7
ATOM      7  C   UNL     1       3.561 -17.935   3.904  1.00  0.00     0.000 C 
BRANCH   7   8
ATOM      8  C   UNL     1       4.546 -18.455   2.846  1.00  0.00     0.000 C 
BRANCH   8   9
ATOM      9  C   UNL     1       3.846 -18.942   1.567  1.00  0.00     0.000 C 
BRANCH   9  10
ATOM     10  C   UNL     1       4.382 -18.259   0.300  1.00  0.00     0.006 C 
BRANCH  10  11
ATOM     11  C   UNL     1       3.235 -17.731  -0.568  1.00  0.00     0.053 C 
BRANCH  11  12
ATOM     12  C   UNL     1       3.515 -17.976  -2.017  1.00  0.00     0.041 C 
ATOM     13  O   UNL     1       4.693 -17.897  -2.457  1.00  0.00    -0.550 OA
ATOM     14  O   UNL     1       2.482 -18.338  -2.874  1.00  0.00    -0.550 OA
ENDBRANCH  11  12
ENDBRANCH  10  11
ENDBRANCH   9  10
ENDBRANCH   8   9
ENDBRANCH   7   8
ENDBRANCH   6   7
ENDBRANCH   5   6
ENDBRANCH   4   5
ENDBRANCH   3   4
ENDBRANCH   2   3
ENDBRANCH   1   2
BRANCH   1  15
ATOM     15  C   UNL     1       6.944 -15.344   5.509  1.00  0.00     0.000 C 
BRANCH  15  16
ATOM     16  C   UNL     1       7.955 -15.637   6.632  1.00  0.00     0.000 C 
BRANCH  16  17
ATOM     17  C   UNL     1       8.781 -14.396   7.009  1.00  0.00     0.000 C 
BRANCH  17  18
ATOM     18  C   UNL     1       7.983 -13.093   6.840  1.00  0.00    -0.000 C 
BRANCH  18  19
ATOM     19  C   UNL     1       8.829 -11.948   6.257  1.00  0.00    -0.000 C 
BRANCH  19  20
ATOM     20  C   UNL     1       9.991 -12.431   5.362  1.00  0.00    -0.000 C 
BRANCH  20  21
ATOM     21  C   UNL     1      10.735 -11.260   4.696  1.00  0.00    -0.000 C 
BRANCH  21  22
ATOM     22  C   UNL     1      11.980 -10.823   5.499  1.00  0.00    -0.000 C 
BRANCH  22  23
ATOM     23  C   UNL     1      12.974  -9.975   4.683  1.00  0.00    -0.000 C 
BRANCH  23  24
ATOM     24  C   UNL     1      12.363  -8.658   4.179  1.00  0.00    -0.000 C 
BRANCH  24  25
ATOM     25  C   UNL     1      12.399  -8.538   2.647  1.00  0.00    -0.003 C 
ATOM     26  C   UNL     1      11.035  -8.791   2.003  1.00  0.00     0.004 C 
ENDBRANCH  24  25
ENDBRANCH  23  24
ENDBRANCH  22  23
ENDBRANCH  21  22
ENDBRANCH  20  21
ENDBRANCH  19  20
ENDBRANCH  18  19
ENDBRANCH  17  18
ENDBRANCH  16  17
ENDBRANCH  15  16
ENDBRANCH   1  15
TORSDOF 22
ENDMDL
MODEL 9
REMARK VINA RESULT:    -5.495      7.146     10.148
REMARK INTER + INTRA:         -14.083
REMARK INTER:                 -10.078
REMARK INTRA:                  -4.005
REMARK UNBOUND:                -1.520
REMARK SMILES CCCCCCCCCCCCCCCCCCCCCCCC(=O)[O-]
REMARK SMILES IDX 13 1 14 2 15 3 16 4 17 5 18 6 19 7 20 8 21 9 22 10 23 11
REMARK SMILES IDX 24 12 25 13 26 14 12 15 11 16 10 17 9 18 8 19 7 20 6 21 5 22
REMARK SMILES IDX 4 23 3 24 2 25 1 26
REMARK H PARENT
REMARK Flexibility Score: inf
ROOT
ATOM      1  C   UNL     1      11.771  -9.237  -6.013  1.00  0.00     0.000 C 
ENDROOT
BRANCH   1   2
ATOM      2  C   UNL     1      12.451 -10.073  -4.916  1.00  0.00     0.000 C 
BRANCH   2   3
ATOM      3  C   UNL     1      12.493  -9.355  -3.553  1.00  0.00     0.000 C 
BRANCH   3   4
ATOM      4  C   UNL     1      12.169  -7.848  -3.590  1.00  0.00     0.000 C 
BRANCH   4   5
ATOM      5  C   UNL     1      13.170  -7.002  -2.786  1.00  0.00     0.000 C 
BRANCH   5   6
ATOM      6  C   UNL     1      14.439  -7.785  -2.411  1.00  0.00     0.000 C 
BRANCH   6   7
ATOM      7  C   UNL     1      14.745  -7.736  -0.906  1.00  0.00     0.000 C 
BRANCH   7   8
ATOM      8  C   UNL     1      13.528  -8.195  -0.088  1.00  0.00     0.000 C 
BRANCH   8   9
ATOM      9  C   UNL     1      13.459  -9.722   0.073  1.00  0.00     0.000 C 
BRANCH   9  10
ATOM     10  C   UNL     1      13.066 -10.151   1.495  1.00  0.00     0.006 C 
BRANCH  10  11
ATOM     11  C   UNL     1      12.106  -9.138   2.129  1.00  0.00     0.053 C 
BRANCH  11  12
ATOM     12  C   UNL     1      12.536  -8.807   3.523  1.00  0.00     0.041 C 
ATOM     13  O   UNL     1      12.159  -7.734   4.066  1.00  0.00    -0.550 OA
ATOM     14  O   UNL     1      13.318  -9.704   4.241  1.00  0.00    -0.550 OA
ENDBRANCH  11  12
ENDBRANCH  10  11
ENDBRANCH   9  10
ENDBRANCH   8   9
ENDBRANCH   7   8
ENDBRANCH   6   7
ENDBRANCH   5   6
ENDBRANCH   4   5
ENDBRANCH   3   4
ENDBRANCH   2   3
ENDBRANCH   1   2
BRANCH   1  15
ATOM     15  C   UNL     1      12.285  -9.578  -7.422  1.00  0.00     0.000 C 
BRANCH  15  16
ATOM     16  C   UNL     1      11.209 -10.223  -8.314  1.00  0.00     0.000 C 
BRANCH  16  17
ATOM     17  C   UNL     1       9.786  -9.813  -7.898  1.00  0.00     0.000 C 
BRANCH  17  18
ATOM     18  C   UNL     1       8.866 -11.028  -7.698  1.00  0.00    -0.000 C 
BRANCH  18  19
ATOM     19  C   UNL     1       9.639 -12.306  -7.331  1.00  0.00    -0.000 C 
BRANCH  19  20
ATOM     20  C   UNL     1       9.683 -12.589  -5.814  1.00  0.00    -0.000 C 
BRANCH  20  21
ATOM     21  C   UNL     1       8.535 -11.894  -5.060  1.00  0.00    -0.000 C 
BRANCH  21  22
ATOM     22  C   UNL     1       9.049 -10.939  -3.960  1.00  0.00    -0.000 C 
BRANCH  22  23
ATOM     23  C   UNL     1       8.640  -9.471  -4.178  1.00  0.00    -0.000 C 
BRANCH  23  24
ATOM     24  C   UNL     1       8.510  -8.684  -2.863  1.00  0.00    -0.000 C 
BRANCH  24  25
ATOM     25  C   UNL     1       9.196  -9.390  -1.683  1.00  0.00    -0.003 C 
ATOM     26  C   UNL     1       9.831  -8.409  -0.697  1.00  0.00     0.004 C 
ENDBRANCH  24  25
ENDBRANCH  23  24
ENDBRANCH  22  23
ENDBRANCH  21  22
ENDBRANCH  20  21
ENDBRANCH  19  20
ENDBRANCH  18  19
ENDBRANCH  17  18
ENDBRANCH  16  17
ENDBRANCH  15  16
ENDBRANCH   1  15
TORSDOF 22
ENDMDL
