MODEL 1
REMARK VINA RESULT:    -7.565      0.000      0.000
REMARK INTER + INTRA:          -9.134
REMARK INTER:                  -9.113
REMARK INTRA:                  -0.021
REMARK UNBOUND:                -0.021
REMARK SMILES O=c1c(O)c(-c2ccc(O)cc2O)oc2cc(O)cc(O)c12
REMARK SMILES IDX 5 1 3 2 2 3 1 4 22 5 20 6 19 7 17 8 16 9 15 10 14 11 6 12
REMARK SMILES IDX 8 13 7 14 9 15 11 16 12 17 10 18 13 20 4 22 21 24 18 26
REMARK H PARENT 10 19 13 21 4 23 21 25 18 27
REMARK Flexibility Score: inf
ROOT
ATOM      1  C   UNL     1      17.219  22.596  40.791  1.00  0.00     0.184 A 
ATOM      2  C   UNL     1      16.856  23.604  39.885  1.00  0.00     0.208 A 
ATOM      3  C   UNL     1      15.736  24.402  40.169  1.00  0.00     0.238 A 
ATOM      4  O   UNL     1      15.382  25.269  39.327  1.00  0.00    -0.285 OA
ATOM      5  C   UNL     1      15.006  24.191  41.364  1.00  0.00     0.111 A 
ATOM      6  C   UNL     1      13.879  24.966  41.773  1.00  0.00     0.134 A 
ATOM      7  C   UNL     1      13.155  24.585  42.910  1.00  0.00     0.093 A 
ATOM      8  C   UNL     1      13.556  23.496  43.688  1.00  0.00     0.123 A 
ATOM      9  C   UNL     1      14.689  22.770  43.330  1.00  0.00     0.094 A 
ATOM     10  C   UNL     1      15.412  23.103  42.181  1.00  0.00     0.146 A 
ATOM     11  O   UNL     1      16.479  22.377  41.870  1.00  0.00    -0.451 OA
ENDROOT
BRANCH   1  12
ATOM     12  C   UNL     1      18.396  21.731  40.560  1.00  0.00     0.063 A 
ATOM     13  C   UNL     1      20.687  21.507  39.778  1.00  0.00     0.047 A 
ATOM     14  C   UNL     1      19.559  22.296  40.014  1.00  0.00     0.020 A 
ATOM     15  C   UNL     1      20.661  20.139  40.073  1.00  0.00     0.119 A 
ATOM     16  C   UNL     1      19.500  19.562  40.595  1.00  0.00     0.093 A 
ATOM     17  C   UNL     1      18.361  20.347  40.830  1.00  0.00     0.130 A 
BRANCH  15  18
ATOM     18  O   UNL     1      21.782  19.342  39.845  1.00  0.00    -0.508 OA
ATOM     19  H   UNL     1      22.054  19.067  38.908  1.00  0.00     0.293 HD
ENDBRANCH  15  18
BRANCH  17  20
ATOM     20  O   UNL     1      17.194  19.750  41.306  1.00  0.00    -0.507 OA
ATOM     21  H   UNL     1      17.188  19.192  42.151  1.00  0.00     0.293 HD
ENDBRANCH  17  20
ENDBRANCH   1  12
BRANCH   2  22
ATOM     22  O   UNL     1      17.582  23.779  38.705  1.00  0.00    -0.502 OA
ATOM     23  H   UNL     1      17.136  23.868  37.800  1.00  0.00     0.293 HD
ENDBRANCH   2  22
BRANCH   6  24
ATOM     24  O   UNL     1      13.451  26.125  41.119  1.00  0.00    -0.507 OA
ATOM     25  H   UNL     1      13.421  27.042  41.536  1.00  0.00     0.293 HD
ENDBRANCH   6  24
BRANCH   8  26
ATOM     26  O   UNL     1      12.839  23.135  44.827  1.00  0.00    -0.508 OA
ATOM     27  H   UNL     1      12.549  22.178  44.989  1.00  0.00     0.293 HD
ENDBRANCH   8  26
TORSDOF 6
ENDMDL
MODEL 2
REMARK VINA RESULT:    -6.949      1.249      1.837
REMARK INTER + INTRA:          -8.392
REMARK INTER:                  -8.205
REMARK INTRA:                  -0.186
REMARK UNBOUND:                -0.021
REMARK SMILES O=c1c(O)c(-c2ccc(O)cc2O)oc2cc(O)cc(O)c12
REMARK SMILES IDX 5 1 3 2 2 3 1 4 22 5 20 6 19 7 17 8 16 9 15 10 14 11 6 12
REMARK SMILES IDX 8 13 7 14 9 15 11 16 12 17 10 18 13 20 4 22 21 24 18 26
REMARK H PARENT 10 19 13 21 4 23 21 25 18 27
REMARK Flexibility Score: inf
ROOT
ATOM      1  C   UNL     1      16.325  22.574  41.447  1.00  0.00     0.184 A 
ATOM      2  C   UNL     1      15.800  23.569  40.608  1.00  0.00     0.208 A 
ATOM      3  C   UNL     1      14.750  24.372  41.082  1.00  0.00     0.238 A 
ATOM      4  O   UNL     1      14.247  25.227  40.306  1.00  0.00    -0.285 OA
ATOM      5  C   UNL     1      14.251  24.179  42.393  1.00  0.00     0.111 A 
ATOM      6  C   UNL     1      13.217  24.961  42.990  1.00  0.00     0.134 A 
ATOM      7  C   UNL     1      12.714  24.597  44.246  1.00  0.00     0.093 A 
ATOM      8  C   UNL     1      13.253  23.519  44.953  1.00  0.00     0.123 A 
ATOM      9  C   UNL     1      14.302  22.787  44.403  1.00  0.00     0.094 A 
ATOM     10  C   UNL     1      14.802  23.103  43.138  1.00  0.00     0.146 A 
ATOM     11  O   UNL     1      15.795  22.371  42.647  1.00  0.00    -0.451 OA
ENDROOT
BRANCH   1  12
ATOM     12  C   UNL     1      17.442  21.705  41.017  1.00  0.00     0.063 A 
ATOM     13  C   UNL     1      18.298  19.464  40.626  1.00  0.00     0.047 A 
ATOM     14  C   UNL     1      17.262  20.314  41.021  1.00  0.00     0.020 A 
ATOM     15  C   UNL     1      19.532  19.996  40.235  1.00  0.00     0.119 A 
ATOM     16  C   UNL     1      19.729  21.380  40.251  1.00  0.00     0.093 A 
ATOM     17  C   UNL     1      18.695  22.239  40.651  1.00  0.00     0.130 A 
BRANCH  15  18
ATOM     18  O   UNL     1      20.572  19.158  39.836  1.00  0.00    -0.508 OA
ATOM     19  H   UNL     1      21.522  19.500  39.748  1.00  0.00     0.293 HD
ENDBRANCH  15  18
BRANCH  17  20
ATOM     20  O   UNL     1      18.920  23.615  40.708  1.00  0.00    -0.507 OA
ATOM     21  H   UNL     1      18.593  24.176  41.486  1.00  0.00     0.293 HD
ENDBRANCH  17  20
ENDBRANCH   1  12
BRANCH   2  22
ATOM     22  O   UNL     1      16.298  23.727  39.313  1.00  0.00    -0.502 OA
ATOM     23  H   UNL     1      15.701  23.708  38.495  1.00  0.00     0.293 HD
ENDBRANCH   2  22
BRANCH   6  24
ATOM     24  O   UNL     1      12.675  26.111  42.409  1.00  0.00    -0.507 OA
ATOM     25  H   UNL     1      13.113  27.018  42.412  1.00  0.00     0.293 HD
ENDBRANCH   6  24
BRANCH   8  26
ATOM     26  O   UNL     1      12.757  23.175  46.209  1.00  0.00    -0.508 OA
ATOM     27  H   UNL     1      11.982  23.675  46.628  1.00  0.00     0.293 HD
ENDBRANCH   8  26
TORSDOF 6
ENDMDL
MODEL 3
REMARK VINA RESULT:    -6.860      1.309      6.394
REMARK INTER + INTRA:          -8.284
REMARK INTER:                  -8.549
REMARK INTRA:                   0.265
REMARK UNBOUND:                -0.021
REMARK SMILES O=c1c(O)c(-c2ccc(O)cc2O)oc2cc(O)cc(O)c12
REMARK SMILES IDX 5 1 3 2 2 3 1 4 22 5 20 6 19 7 17 8 16 9 15 10 14 11 6 12
REMARK SMILES IDX 8 13 7 14 9 15 11 16 12 17 10 18 13 20 4 22 21 24 18 26
REMARK H PARENT 10 19 13 21 4 23 21 25 18 27
REMARK Flexibility Score: inf
ROOT
ATOM      1  C   UNL     1      16.558  23.322  40.808  1.00  0.00     0.184 A 
ATOM      2  C   UNL     1      17.112  24.193  39.856  1.00  0.00     0.208 A 
ATOM      3  C   UNL     1      18.275  23.801  39.173  1.00  0.00     0.238 A 
ATOM      4  O   UNL     1      18.798  24.609  38.359  1.00  0.00    -0.285 OA
ATOM      5  C   UNL     1      18.857  22.539  39.439  1.00  0.00     0.111 A 
ATOM      6  C   UNL     1      20.012  22.023  38.777  1.00  0.00     0.134 A 
ATOM      7  C   UNL     1      20.577  20.817  39.212  1.00  0.00     0.093 A 
ATOM      8  C   UNL     1      19.990  20.078  40.243  1.00  0.00     0.123 A 
ATOM      9  C   UNL     1      18.830  20.544  40.854  1.00  0.00     0.094 A 
ATOM     10  C   UNL     1      18.262  21.760  40.467  1.00  0.00     0.146 A 
ATOM     11  O   UNL     1      17.162  22.173  41.085  1.00  0.00    -0.451 OA
ENDROOT
BRANCH   1  12
ATOM     12  C   UNL     1      15.327  23.665  41.550  1.00  0.00     0.063 A 
ATOM     13  C   UNL     1      13.245  24.915  41.655  1.00  0.00     0.047 A 
ATOM     14  C   UNL     1      14.415  24.566  40.977  1.00  0.00     0.020 A 
ATOM     15  C   UNL     1      12.978  24.379  42.920  1.00  0.00     0.119 A 
ATOM     16  C   UNL     1      13.891  23.500  43.509  1.00  0.00     0.093 A 
ATOM     17  C   UNL     1      15.071  23.148  42.838  1.00  0.00     0.130 A 
BRANCH  15  18
ATOM     18  O   UNL     1      11.811  24.718  43.603  1.00  0.00    -0.508 OA
ATOM     19  H   UNL     1      11.269  25.536  43.350  1.00  0.00     0.293 HD
ENDBRANCH  15  18
BRANCH  17  20
ATOM     20  O   UNL     1      15.997  22.308  43.456  1.00  0.00    -0.507 OA
ATOM     21  H   UNL     1      15.902  22.035  44.428  1.00  0.00     0.293 HD
ENDBRANCH  17  20
ENDBRANCH   1  12
BRANCH   2  22
ATOM     22  O   UNL     1      16.528  25.440  39.625  1.00  0.00    -0.502 OA
ATOM     23  H   UNL     1      15.529  25.559  39.508  1.00  0.00     0.293 HD
ENDBRANCH   2  22
BRANCH   6  24
ATOM     24  O   UNL     1      20.620  22.637  37.678  1.00  0.00    -0.507 OA
ATOM     25  H   UNL     1      20.528  23.612  37.440  1.00  0.00     0.293 HD
ENDBRANCH   6  24
BRANCH   8  26
ATOM     26  O   UNL     1      20.550  18.871  40.658  1.00  0.00    -0.508 OA
ATOM     27  H   UNL     1      21.553  18.752  40.738  1.00  0.00     0.293 HD
ENDBRANCH   8  26
TORSDOF 6
ENDMDL
MODEL 4
REMARK VINA RESULT:    -6.631      1.516      6.968
REMARK INTER + INTRA:          -8.009
REMARK INTER:                  -7.637
REMARK INTRA:                  -0.373
REMARK UNBOUND:                -0.021
REMARK SMILES O=c1c(O)c(-c2ccc(O)cc2O)oc2cc(O)cc(O)c12
REMARK SMILES IDX 5 1 3 2 2 3 1 4 22 5 20 6 19 7 17 8 16 9 15 10 14 11 6 12
REMARK SMILES IDX 8 13 7 14 9 15 11 16 12 17 10 18 13 20 4 22 21 24 18 26
REMARK H PARENT 10 19 13 21 4 23 21 25 18 27
REMARK Flexibility Score: inf
ROOT
ATOM      1  C   UNL     1      17.011  22.338  41.204  1.00  0.00     0.184 A 
ATOM      2  C   UNL     1      17.084  20.947  41.026  1.00  0.00     0.208 A 
ATOM      3  C   UNL     1      18.273  20.386  40.534  1.00  0.00     0.238 A 
ATOM      4  O   UNL     1      18.314  19.145  40.326  1.00  0.00    -0.285 OA
ATOM      5  C   UNL     1      19.379  21.221  40.243  1.00  0.00     0.111 A 
ATOM      6  C   UNL     1      20.646  20.757  39.778  1.00  0.00     0.134 A 
ATOM      7  C   UNL     1      21.625  21.684  39.399  1.00  0.00     0.093 A 
ATOM      8  C   UNL     1      21.405  23.058  39.529  1.00  0.00     0.123 A 
ATOM      9  C   UNL     1      20.193  23.519  40.037  1.00  0.00     0.094 A 
ATOM     10  C   UNL     1      19.184  22.620  40.391  1.00  0.00     0.146 A 
ATOM     11  O   UNL     1      18.040  23.104  40.861  1.00  0.00    -0.451 OA
ENDROOT
BRANCH   1  12
ATOM     12  C   UNL     1      15.795  22.991  41.733  1.00  0.00     0.063 A 
ATOM     13  C   UNL     1      14.226  23.284  43.566  1.00  0.00     0.047 A 
ATOM     14  C   UNL     1      15.374  22.689  43.037  1.00  0.00     0.020 A 
ATOM     15  C   UNL     1      13.478  24.179  42.791  1.00  0.00     0.119 A 
ATOM     16  C   UNL     1      13.876  24.468  41.483  1.00  0.00     0.093 A 
ATOM     17  C   UNL     1      15.025  23.870  40.943  1.00  0.00     0.130 A 
BRANCH  15  18
ATOM     18  O   UNL     1      12.333  24.782  43.310  1.00  0.00    -0.508 OA
ATOM     19  H   UNL     1      11.507  24.926  42.740  1.00  0.00     0.293 HD
ENDBRANCH  15  18
BRANCH  17  20
ATOM     20  O   UNL     1      15.385  24.129  39.620  1.00  0.00    -0.507 OA
ATOM     21  H   UNL     1      15.292  23.427  38.896  1.00  0.00     0.293 HD
ENDBRANCH  17  20
ENDBRANCH   1  12
BRANCH   2  22
ATOM     22  O   UNL     1      15.972  20.148  41.304  1.00  0.00    -0.502 OA
ATOM     23  H   UNL     1      15.512  20.152  42.206  1.00  0.00     0.293 HD
ENDBRANCH   2  22
BRANCH   6  24
ATOM     24  O   UNL     1      21.000  19.407  39.699  1.00  0.00    -0.507 OA
ATOM     25  H   UNL     1      21.316  18.848  40.476  1.00  0.00     0.293 HD
ENDBRANCH   6  24
BRANCH   8  26
ATOM     26  O   UNL     1      22.391  23.972  39.165  1.00  0.00    -0.508 OA
ATOM     27  H   UNL     1      22.278  24.966  39.327  1.00  0.00     0.293 HD
ENDBRANCH   8  26
TORSDOF 6
ENDMDL
MODEL 5
REMARK VINA RESULT:    -6.339      2.025      6.829
REMARK INTER + INTRA:          -7.657
REMARK INTER:                  -7.235
REMARK INTRA:                  -0.422
REMARK UNBOUND:                -0.021
REMARK SMILES O=c1c(O)c(-c2ccc(O)cc2O)oc2cc(O)cc(O)c12
REMARK SMILES IDX 5 1 3 2 2 3 1 4 22 5 20 6 19 7 17 8 16 9 15 10 14 11 6 12
REMARK SMILES IDX 8 13 7 14 9 15 11 16 12 17 10 18 13 20 4 22 21 24 18 26
REMARK H PARENT 10 19 13 21 4 23 21 25 18 27
REMARK Flexibility Score: inf
ROOT
ATOM      1  C   UNL     1      13.926  23.852  43.195  1.00  0.00     0.184 A 
ATOM      2  C   UNL     1      13.670  24.951  42.360  1.00  0.00     0.208 A 
ATOM      3  C   UNL     1      14.428  25.106  41.189  1.00  0.00     0.238 A 
ATOM      4  O   UNL     1      14.230  26.122  40.472  1.00  0.00    -0.285 OA
ATOM      5  C   UNL     1      15.420  24.151  40.860  1.00  0.00     0.111 A 
ATOM      6  C   UNL     1      16.219  24.187  39.678  1.00  0.00     0.134 A 
ATOM      7  C   UNL     1      17.259  23.262  39.519  1.00  0.00     0.093 A 
ATOM      8  C   UNL     1      17.486  22.264  40.470  1.00  0.00     0.123 A 
ATOM      9  C   UNL     1      16.674  22.185  41.597  1.00  0.00     0.094 A 
ATOM     10  C   UNL     1      15.651  23.114  41.802  1.00  0.00     0.146 A 
ATOM     11  O   UNL     1      14.907  23.008  42.896  1.00  0.00    -0.451 OA
ENDROOT
BRANCH   1  12
ATOM     12  C   UNL     1      13.154  23.621  44.434  1.00  0.00     0.063 A 
ATOM     13  C   UNL     1      11.067  22.953  45.487  1.00  0.00     0.047 A 
ATOM     14  C   UNL     1      11.827  23.176  44.336  1.00  0.00     0.020 A 
ATOM     15  C   UNL     1      11.622  23.185  46.751  1.00  0.00     0.119 A 
ATOM     16  C   UNL     1      12.936  23.650  46.858  1.00  0.00     0.093 A 
ATOM     17  C   UNL     1      13.703  23.882  45.707  1.00  0.00     0.130 A 
BRANCH  15  18
ATOM     18  O   UNL     1      10.875  22.962  47.906  1.00  0.00    -0.508 OA
ATOM     19  H   UNL     1      10.883  23.621  48.677  1.00  0.00     0.293 HD
ENDBRANCH  15  18
BRANCH  17  20
ATOM     20  O   UNL     1      14.996  24.392  45.826  1.00  0.00    -0.507 OA
ATOM     21  H   UNL     1      15.808  23.786  45.835  1.00  0.00     0.293 HD
ENDBRANCH  17  20
ENDBRANCH   1  12
BRANCH   2  22
ATOM     22  O   UNL     1      12.697  25.888  42.717  1.00  0.00    -0.502 OA
ATOM     23  H   UNL     1      12.877  26.884  42.718  1.00  0.00     0.293 HD
ENDBRANCH   2  22
BRANCH   6  24
ATOM     24  O   UNL     1      16.016  25.085  38.626  1.00  0.00    -0.507 OA
ATOM     25  H   UNL     1      15.421  24.914  37.830  1.00  0.00     0.293 HD
ENDBRANCH   6  24
BRANCH   8  26
ATOM     26  O   UNL     1      18.513  21.338  40.295  1.00  0.00    -0.508 OA
ATOM     27  H   UNL     1      19.487  21.617  40.312  1.00  0.00     0.293 HD
ENDBRANCH   8  26
TORSDOF 6
ENDMDL
MODEL 6
REMARK VINA RESULT:    -6.068      1.824      7.435
REMARK INTER + INTRA:          -7.331
REMARK INTER:                  -7.942
REMARK INTRA:                   0.611
REMARK UNBOUND:                -0.021
REMARK SMILES O=c1c(O)c(-c2ccc(O)cc2O)oc2cc(O)cc(O)c12
REMARK SMILES IDX 5 1 3 2 2 3 1 4 22 5 20 6 19 7 17 8 16 9 15 10 14 11 6 12
REMARK SMILES IDX 8 13 7 14 9 15 11 16 12 17 10 18 13 20 4 22 21 24 18 26
REMARK H PARENT 10 19 13 21 4 23 21 25 18 27
REMARK Flexibility Score: inf
ROOT
ATOM      1  C   UNL     1      18.103  22.343  40.113  1.00  0.00     0.184 A 
ATOM      2  C   UNL     1      18.048  21.143  40.838  1.00  0.00     0.208 A 
ATOM      3  C   UNL     1      19.119  20.240  40.739  1.00  0.00     0.238 A 
ATOM      4  O   UNL     1      19.040  19.141  41.350  1.00  0.00    -0.285 OA
ATOM      5  C   UNL     1      20.236  20.557  39.930  1.00  0.00     0.111 A 
ATOM      6  C   UNL     1      21.394  19.734  39.788  1.00  0.00     0.134 A 
ATOM      7  C   UNL     1      22.382  20.087  38.859  1.00  0.00     0.093 A 
ATOM      8  C   UNL     1      22.283  21.265  38.115  1.00  0.00     0.123 A 
ATOM      9  C   UNL     1      21.186  22.104  38.290  1.00  0.00     0.094 A 
ATOM     10  C   UNL     1      20.167  21.762  39.183  1.00  0.00     0.146 A 
ATOM     11  O   UNL     1      19.132  22.585  39.310  1.00  0.00    -0.451 OA
ENDROOT
BRANCH   1  12
ATOM     12  C   UNL     1      17.018  23.344  40.185  1.00  0.00     0.063 A 
ATOM     13  C   UNL     1      14.865  24.011  41.093  1.00  0.00     0.047 A 
ATOM     14  C   UNL     1      15.910  23.089  41.007  1.00  0.00     0.020 A 
ATOM     15  C   UNL     1      14.909  25.196  40.348  1.00  0.00     0.119 A 
ATOM     16  C   UNL     1      15.997  25.448  39.509  1.00  0.00     0.093 A 
ATOM     17  C   UNL     1      17.048  24.524  39.412  1.00  0.00     0.130 A 
BRANCH  15  18
ATOM     18  O   UNL     1      13.873  26.125  40.429  1.00  0.00    -0.508 OA
ATOM     19  H   UNL     1      14.051  27.121  40.371  1.00  0.00     0.293 HD
ENDBRANCH  15  18
BRANCH  17  20
ATOM     20  O   UNL     1      18.106  24.766  38.534  1.00  0.00    -0.507 OA
ATOM     21  H   UNL     1      18.655  24.010  38.143  1.00  0.00     0.293 HD
ENDBRANCH  17  20
ENDBRANCH   1  12
BRANCH   2  22
ATOM     22  O   UNL     1      16.926  20.846  41.616  1.00  0.00    -0.502 OA
ATOM     23  H   UNL     1      16.771  19.930  42.018  1.00  0.00     0.293 HD
ENDBRANCH   2  22
BRANCH   6  24
ATOM     24  O   UNL     1      21.633  18.587  40.549  1.00  0.00    -0.507 OA
ATOM     25  H   UNL     1      21.230  17.681  40.366  1.00  0.00     0.293 HD
ENDBRANCH   6  24
BRANCH   8  26
ATOM     26  O   UNL     1      23.279  21.616  37.205  1.00  0.00    -0.508 OA
ATOM     27  H   UNL     1      24.024  20.974  36.962  1.00  0.00     0.293 HD
ENDBRANCH   8  26
TORSDOF 6
ENDMDL
MODEL 7
REMARK VINA RESULT:    -5.173     18.359     20.255
REMARK INTER + INTRA:          -6.252
REMARK INTER:                  -6.863
REMARK INTRA:                   0.611
REMARK UNBOUND:                -0.021
REMARK SMILES O=c1c(O)c(-c2ccc(O)cc2O)oc2cc(O)cc(O)c12
REMARK SMILES IDX 5 1 3 2 2 3 1 4 22 5 20 6 19 7 17 8 16 9 15 10 14 11 6 12
REMARK SMILES IDX 8 13 7 14 9 15 11 16 12 17 10 18 13 20 4 22 21 24 18 26
REMARK H PARENT 10 19 13 21 4 23 21 25 18 27
REMARK Flexibility Score: inf
ROOT
ATOM      1  C   UNL     1      30.937   9.331  41.288  1.00  0.00     0.184 A 
ATOM      2  C   UNL     1      30.989   7.968  40.958  1.00  0.00     0.208 A 
ATOM      3  C   UNL     1      30.958   7.595  39.605  1.00  0.00     0.238 A 
ATOM      4  O   UNL     1      30.950   6.369  39.316  1.00  0.00    -0.285 OA
ATOM      5  C   UNL     1      30.892   8.591  38.601  1.00  0.00     0.111 A 
ATOM      6  C   UNL     1      30.895   8.329  37.198  1.00  0.00     0.134 A 
ATOM      7  C   UNL     1      30.696   9.384  36.298  1.00  0.00     0.093 A 
ATOM      8  C   UNL     1      30.557  10.699  36.749  1.00  0.00     0.123 A 
ATOM      9  C   UNL     1      30.612  10.971  38.113  1.00  0.00     0.094 A 
ATOM     10  C   UNL     1      30.774   9.937  39.038  1.00  0.00     0.146 A 
ATOM     11  O   UNL     1      30.809  10.240  40.330  1.00  0.00    -0.451 OA
ENDROOT
BRANCH   1  12
ATOM     12  C   UNL     1      30.983   9.792  42.692  1.00  0.00     0.063 A 
ATOM     13  C   UNL     1      31.122   9.242  45.056  1.00  0.00     0.047 A 
ATOM     14  C   UNL     1      31.082   8.840  43.719  1.00  0.00     0.020 A 
ATOM     15  C   UNL     1      31.049  10.601  45.384  1.00  0.00     0.119 A 
ATOM     16  C   UNL     1      30.927  11.555  44.370  1.00  0.00     0.093 A 
ATOM     17  C   UNL     1      30.881  11.159  43.025  1.00  0.00     0.130 A 
BRANCH  15  18
ATOM     18  O   UNL     1      31.092  11.013  46.714  1.00  0.00    -0.508 OA
ATOM     19  H   UNL     1      31.142  10.344  47.474  1.00  0.00     0.293 HD
ENDBRANCH  15  18
BRANCH  17  20
ATOM     20  O   UNL     1      30.710  12.117  42.026  1.00  0.00    -0.507 OA
ATOM     21  H   UNL     1      29.940  12.775  42.046  1.00  0.00     0.293 HD
ENDBRANCH  17  20
ENDBRANCH   1  12
BRANCH   2  22
ATOM     22  O   UNL     1      31.036   7.004  41.969  1.00  0.00    -0.502 OA
ATOM     23  H   UNL     1      30.891   6.019  41.787  1.00  0.00     0.293 HD
ENDBRANCH   2  22
BRANCH   6  24
ATOM     24  O   UNL     1      31.118   7.066  36.641  1.00  0.00    -0.507 OA
ATOM     25  H   UNL     1      30.927   6.191  37.104  1.00  0.00     0.293 HD
ENDBRANCH   6  24
BRANCH   8  26
ATOM     26  O   UNL     1      30.375  11.744  35.845  1.00  0.00    -0.508 OA
ATOM     27  H   UNL     1      30.631  11.651  34.870  1.00  0.00     0.293 HD
ENDBRANCH   8  26
TORSDOF 6
ENDMDL
MODEL 8
REMARK VINA RESULT:    -5.007      1.772      6.788
REMARK INTER + INTRA:          -6.053
REMARK INTER:                  -6.122
REMARK INTRA:                   0.069
REMARK UNBOUND:                -0.021
REMARK SMILES O=c1c(O)c(-c2ccc(O)cc2O)oc2cc(O)cc(O)c12
REMARK SMILES IDX 5 1 3 2 2 3 1 4 22 5 20 6 19 7 17 8 16 9 15 10 14 11 6 12
REMARK SMILES IDX 8 13 7 14 9 15 11 16 12 17 10 18 13 20 4 22 21 24 18 26
REMARK H PARENT 10 19 13 21 4 23 21 25 18 27
REMARK Flexibility Score: inf
ROOT
ATOM      1  C   UNL     1      16.466  23.152  41.055  1.00  0.00     0.184 A 
ATOM      2  C   UNL     1      17.055  21.880  40.989  1.00  0.00     0.208 A 
ATOM      3  C   UNL     1      18.176  21.693  40.165  1.00  0.00     0.238 A 
ATOM      4  O   UNL     1      18.668  20.538  40.067  1.00  0.00    -0.285 OA
ATOM      5  C   UNL     1      18.702  22.785  39.432  1.00  0.00     0.111 A 
ATOM      6  C   UNL     1      19.858  22.719  38.598  1.00  0.00     0.134 A 
ATOM      7  C   UNL     1      20.212  23.828  37.819  1.00  0.00     0.093 A 
ATOM      8  C   UNL     1      19.488  25.021  37.894  1.00  0.00     0.123 A 
ATOM      9  C   UNL     1      18.394  25.113  38.750  1.00  0.00     0.094 A 
ATOM     10  C   UNL     1      17.995  24.014  39.513  1.00  0.00     0.146 A 
ATOM     11  O   UNL     1      16.939  24.142  40.308  1.00  0.00    -0.451 OA
ENDROOT
BRANCH   1  12
ATOM     12  C   UNL     1      15.294  23.421  41.915  1.00  0.00     0.063 A 
ATOM     13  C   UNL     1      14.077  22.966  43.970  1.00  0.00     0.047 A 
ATOM     14  C   UNL     1      15.174  22.739  43.136  1.00  0.00     0.020 A 
ATOM     15  C   UNL     1      13.077  23.868  43.587  1.00  0.00     0.119 A 
ATOM     16  C   UNL     1      13.175  24.534  42.362  1.00  0.00     0.093 A 
ATOM     17  C   UNL     1      14.272  24.308  41.516  1.00  0.00     0.130 A 
BRANCH  15  18
ATOM     18  O   UNL     1      11.980  24.105  44.412  1.00  0.00    -0.508 OA
ATOM     19  H   UNL     1      11.416  23.344  44.774  1.00  0.00     0.293 HD
ENDBRANCH  15  18
BRANCH  17  20
ATOM     20  O   UNL     1      14.333  24.943  40.276  1.00  0.00    -0.507 OA
ATOM     21  H   UNL     1      14.355  25.953  40.195  1.00  0.00     0.293 HD
ENDBRANCH  17  20
ENDBRANCH   1  12
BRANCH   2  22
ATOM     22  O   UNL     1      16.505  20.816  41.708  1.00  0.00    -0.502 OA
ATOM     23  H   UNL     1      16.028  20.045  41.258  1.00  0.00     0.293 HD
ENDBRANCH   2  22
BRANCH   6  24
ATOM     24  O   UNL     1      20.702  21.607  38.521  1.00  0.00    -0.507 OA
ATOM     25  H   UNL     1      21.690  21.620  38.720  1.00  0.00     0.293 HD
ENDBRANCH   6  24
BRANCH   8  26
ATOM     26  O   UNL     1      19.857  26.125  37.128  1.00  0.00    -0.508 OA
ATOM     27  H   UNL     1      20.416  26.024  36.289  1.00  0.00     0.293 HD
ENDBRANCH   8  26
TORSDOF 6
ENDMDL
