MODEL 1
REMARK VINA RESULT:    -4.828      0.000      0.000
REMARK INTER + INTRA:          -6.118
REMARK INTER:                  -5.816
REMARK INTRA:                  -0.302
REMARK UNBOUND:                -0.302
REMARK SMILES O=c1c(O)c(-c2ccc(O)c(O)c2)oc2cc(O)cc(O)c12
REMARK SMILES IDX 5 1 3 2 2 3 1 4 22 5 20 6 19 7 17 8 16 9 15 10 14 11 6 12
REMARK SMILES IDX 7 13 8 14 9 15 13 16 11 17 10 18 12 20 4 22 21 24 18 26
REMARK H PARENT 10 19 12 21 4 23 21 25 18 27
REMARK Flexibility Score: inf
ROOT
ATOM      1  C   UNL     1      22.853   7.381  -7.327  1.00  0.00     0.180 A 
ATOM      2  C   UNL     1      22.214   6.346  -8.032  1.00  0.00     0.208 A 
ATOM      3  C   UNL     1      22.444   5.017  -7.647  1.00  0.00     0.238 A 
ATOM      4  O   UNL     1      21.912   4.092  -8.317  1.00  0.00    -0.285 OA
ATOM      5  C   UNL     1      23.297   4.738  -6.552  1.00  0.00     0.111 A 
ATOM      6  C   UNL     1      23.570   3.431  -6.049  1.00  0.00     0.134 A 
ATOM      7  C   UNL     1      24.531   3.263  -5.044  1.00  0.00     0.093 A 
ATOM      8  C   UNL     1      25.182   4.363  -4.480  1.00  0.00     0.123 A 
ATOM      9  C   UNL     1      24.877   5.649  -4.923  1.00  0.00     0.094 A 
ATOM     10  C   UNL     1      23.950   5.844  -5.949  1.00  0.00     0.146 A 
ATOM     11  O   UNL     1      23.698   7.085  -6.348  1.00  0.00    -0.452 OA
ENDROOT
BRANCH   1  12
ATOM     12  C   UNL     1      22.640   8.809  -7.659  1.00  0.00     0.025 A 
ATOM     13  C   UNL     1      23.338   9.428  -8.710  1.00  0.00     0.016 A 
ATOM     14  C   UNL     1      23.102  10.771  -9.021  1.00  0.00     0.051 A 
ATOM     15  C   UNL     1      22.158  11.508  -8.295  1.00  0.00     0.157 A 
ATOM     16  C   UNL     1      21.679   9.547  -6.949  1.00  0.00     0.062 A 
ATOM     17  C   UNL     1      21.440  10.892  -7.257  1.00  0.00     0.158 A 
BRANCH  15  18
ATOM     18  O   UNL     1      21.926  12.848  -8.606  1.00  0.00    -0.504 OA
ATOM     19  H   UNL     1      20.990  13.200  -8.769  1.00  0.00     0.293 HD
ENDBRANCH  15  18
BRANCH  17  20
ATOM     20  O   UNL     1      20.489  11.597  -6.520  1.00  0.00    -0.504 OA
ATOM     21  H   UNL     1      20.688  12.501  -6.111  1.00  0.00     0.293 HD
ENDBRANCH  17  20
ENDBRANCH   1  12
BRANCH   2  22
ATOM     22  O   UNL     1      21.393   6.642  -9.125  1.00  0.00    -0.502 OA
ATOM     23  H   UNL     1      20.779   7.447  -9.141  1.00  0.00     0.293 HD
ENDBRANCH   2  22
BRANCH   6  24
ATOM     24  O   UNL     1      22.910   2.275  -6.479  1.00  0.00    -0.507 OA
ATOM     25  H   UNL     1      21.970   2.252  -6.847  1.00  0.00     0.293 HD
ENDBRANCH   6  24
BRANCH   8  26
ATOM     26  O   UNL     1      26.125   4.190  -3.470  1.00  0.00    -0.508 OA
ATOM     27  H   UNL     1      25.925   3.629  -2.649  1.00  0.00     0.293 HD
ENDBRANCH   8  26
TORSDOF 6
ENDMDL
MODEL 2
REMARK VINA RESULT:    -4.677      1.228      2.888
REMARK INTER + INTRA:          -5.937
REMARK INTER:                  -5.622
REMARK INTRA:                  -0.315
REMARK UNBOUND:                -0.302
REMARK SMILES O=c1c(O)c(-c2ccc(O)c(O)c2)oc2cc(O)cc(O)c12
REMARK SMILES IDX 5 1 3 2 2 3 1 4 22 5 20 6 19 7 17 8 16 9 15 10 14 11 6 12
REMARK SMILES IDX 7 13 8 14 9 15 13 16 11 17 10 18 12 20 4 22 21 24 18 26
REMARK H PARENT 10 19 12 21 4 23 21 25 18 27
REMARK Flexibility Score: inf
ROOT
ATOM      1  C   UNL     1      23.648   7.713  -7.025  1.00  0.00     0.180 A 
ATOM      2  C   UNL     1      24.591   7.582  -5.991  1.00  0.00     0.208 A 
ATOM      3  C   UNL     1      24.999   6.298  -5.600  1.00  0.00     0.238 A 
ATOM      4  O   UNL     1      25.802   6.185  -4.637  1.00  0.00    -0.285 OA
ATOM      5  C   UNL     1      24.473   5.161  -6.259  1.00  0.00     0.111 A 
ATOM      6  C   UNL     1      24.846   3.813  -5.973  1.00  0.00     0.134 A 
ATOM      7  C   UNL     1      24.166   2.760  -6.597  1.00  0.00     0.093 A 
ATOM      8  C   UNL     1      23.169   3.007  -7.545  1.00  0.00     0.123 A 
ATOM      9  C   UNL     1      22.840   4.321  -7.875  1.00  0.00     0.094 A 
ATOM     10  C   UNL     1      23.476   5.391  -7.242  1.00  0.00     0.146 A 
ATOM     11  O   UNL     1      23.124   6.626  -7.579  1.00  0.00    -0.452 OA
ENDROOT
BRANCH   1  12
ATOM     12  C   UNL     1      23.188   9.035  -7.509  1.00  0.00     0.025 A 
ATOM     13  C   UNL     1      23.760   9.641  -8.640  1.00  0.00     0.016 A 
ATOM     14  C   UNL     1      23.293  10.878  -9.093  1.00  0.00     0.051 A 
ATOM     15  C   UNL     1      22.239  11.521  -8.429  1.00  0.00     0.157 A 
ATOM     16  C   UNL     1      22.118   9.674  -6.860  1.00  0.00     0.062 A 
ATOM     17  C   UNL     1      21.648  10.914  -7.309  1.00  0.00     0.158 A 
BRANCH  15  18
ATOM     18  O   UNL     1      21.776  12.756  -8.881  1.00  0.00    -0.504 OA
ATOM     19  H   UNL     1      21.786  13.576  -8.286  1.00  0.00     0.293 HD
ENDBRANCH  15  18
BRANCH  17  20
ATOM     20  O   UNL     1      20.594  11.524  -6.630  1.00  0.00    -0.504 OA
ATOM     21  H   UNL     1      20.198  11.130  -5.785  1.00  0.00     0.293 HD
ENDBRANCH  17  20
ENDBRANCH   1  12
BRANCH   2  22
ATOM     22  O   UNL     1      25.081   8.718  -5.338  1.00  0.00    -0.502 OA
ATOM     23  H   UNL     1      24.837   9.657  -5.625  1.00  0.00     0.293 HD
ENDBRANCH   2  22
BRANCH   6  24
ATOM     24  O   UNL     1      25.890   3.457  -5.112  1.00  0.00    -0.507 OA
ATOM     25  H   UNL     1      26.847   3.314  -5.398  1.00  0.00     0.293 HD
ENDBRANCH   6  24
BRANCH   8  26
ATOM     26  O   UNL     1      22.508   1.955  -8.173  1.00  0.00    -0.508 OA
ATOM     27  H   UNL     1      23.017   1.198  -8.616  1.00  0.00     0.293 HD
ENDBRANCH   8  26
TORSDOF 6
ENDMDL
MODEL 3
REMARK VINA RESULT:    -4.266      1.710      6.914
REMARK INTER + INTRA:          -5.440
REMARK INTER:                  -5.112
REMARK INTRA:                  -0.328
REMARK UNBOUND:                -0.302
REMARK SMILES O=c1c(O)c(-c2ccc(O)c(O)c2)oc2cc(O)cc(O)c12
REMARK SMILES IDX 5 1 3 2 2 3 1 4 22 5 20 6 19 7 17 8 16 9 15 10 14 11 6 12
REMARK SMILES IDX 7 13 8 14 9 15 13 16 11 17 10 18 12 20 4 22 21 24 18 26
REMARK H PARENT 10 19 12 21 4 23 21 25 18 27
REMARK Flexibility Score: inf
ROOT
ATOM      1  C   UNL     1      23.793   7.101  -6.755  1.00  0.00     0.180 A 
ATOM      2  C   UNL     1      22.475   7.469  -6.435  1.00  0.00     0.208 A 
ATOM      3  C   UNL     1      22.028   8.757  -6.769  1.00  0.00     0.238 A 
ATOM      4  O   UNL     1      20.864   9.099  -6.432  1.00  0.00    -0.285 OA
ATOM      5  C   UNL     1      22.898   9.654  -7.433  1.00  0.00     0.111 A 
ATOM      6  C   UNL     1      22.538  10.969  -7.856  1.00  0.00     0.134 A 
ATOM      7  C   UNL     1      23.518  11.817  -8.388  1.00  0.00     0.093 A 
ATOM      8  C   UNL     1      24.830  11.375  -8.571  1.00  0.00     0.123 A 
ATOM      9  C   UNL     1      25.177  10.073  -8.217  1.00  0.00     0.094 A 
ATOM     10  C   UNL     1      24.230   9.216  -7.651  1.00  0.00     0.146 A 
ATOM     11  O   UNL     1      24.606   7.987  -7.318  1.00  0.00    -0.452 OA
ENDROOT
BRANCH   1  12
ATOM     12  C   UNL     1      24.329   5.752  -6.456  1.00  0.00     0.025 A 
ATOM     13  C   UNL     1      24.261   4.713  -7.399  1.00  0.00     0.016 A 
ATOM     14  C   UNL     1      24.795   3.455  -7.105  1.00  0.00     0.051 A 
ATOM     15  C   UNL     1      25.415   3.222  -5.870  1.00  0.00     0.157 A 
ATOM     16  C   UNL     1      24.969   5.520  -5.228  1.00  0.00     0.062 A 
ATOM     17  C   UNL     1      25.505   4.262  -4.929  1.00  0.00     0.158 A 
BRANCH  15  18
ATOM     18  O   UNL     1      25.945   1.966  -5.577  1.00  0.00    -0.504 OA
ATOM     19  H   UNL     1      26.292   1.354  -6.307  1.00  0.00     0.293 HD
ENDBRANCH  15  18
BRANCH  17  20
ATOM     20  O   UNL     1      26.121   4.064  -3.693  1.00  0.00    -0.504 OA
ATOM     21  H   UNL     1      26.021   4.724  -2.931  1.00  0.00     0.293 HD
ENDBRANCH  17  20
ENDBRANCH   1  12
BRANCH   2  22
ATOM     22  O   UNL     1      21.639   6.575  -5.759  1.00  0.00    -0.502 OA
ATOM     23  H   UNL     1      21.424   6.670  -4.775  1.00  0.00     0.293 HD
ENDBRANCH   2  22
BRANCH   6  24
ATOM     24  O   UNL     1      21.236  11.478  -7.803  1.00  0.00    -0.507 OA
ATOM     25  H   UNL     1      21.001  12.438  -7.600  1.00  0.00     0.293 HD
ENDBRANCH   6  24
BRANCH   8  26
ATOM     26  O   UNL     1      25.795  12.219  -9.115  1.00  0.00    -0.508 OA
ATOM     27  H   UNL     1      25.568  13.162  -9.411  1.00  0.00     0.293 HD
ENDBRANCH   8  26
TORSDOF 6
ENDMDL
MODEL 4
REMARK VINA RESULT:    -4.020     21.108     22.971
REMARK INTER + INTRA:          -5.144
REMARK INTER:                  -5.123
REMARK INTRA:                  -0.022
REMARK UNBOUND:                -0.302
REMARK SMILES O=c1c(O)c(-c2ccc(O)c(O)c2)oc2cc(O)cc(O)c12
REMARK SMILES IDX 5 1 3 2 2 3 1 4 22 5 20 6 19 7 17 8 16 9 15 10 14 11 6 12
REMARK SMILES IDX 7 13 8 14 9 15 13 16 11 17 10 18 12 20 4 22 21 24 18 26
REMARK H PARENT 10 19 12 21 4 23 21 25 18 27
REMARK Flexibility Score: inf
ROOT
ATOM      1  C   UNL     1       6.949  19.714   2.762  1.00  0.00     0.180 A 
ATOM      2  C   UNL     1       6.515  18.478   3.272  1.00  0.00     0.208 A 
ATOM      3  C   UNL     1       6.740  18.183   4.625  1.00  0.00     0.238 A 
ATOM      4  O   UNL     1       6.398  17.053   5.063  1.00  0.00    -0.285 OA
ATOM      5  C   UNL     1       7.381  19.133   5.456  1.00  0.00     0.111 A 
ATOM      6  C   UNL     1       7.623  18.956   6.852  1.00  0.00     0.134 A 
ATOM      7  C   UNL     1       8.381  19.907   7.547  1.00  0.00     0.093 A 
ATOM      8  C   UNL     1       8.850  21.059   6.912  1.00  0.00     0.123 A 
ATOM      9  C   UNL     1       8.567  21.269   5.563  1.00  0.00     0.094 A 
ATOM     10  C   UNL     1       7.844  20.322   4.835  1.00  0.00     0.146 A 
ATOM     11  O   UNL     1       7.606  20.556   3.551  1.00  0.00    -0.452 OA
ENDROOT
BRANCH   1  12
ATOM     12  C   UNL     1       6.726  20.106   1.351  1.00  0.00     0.025 A 
ATOM     13  C   UNL     1       6.101  21.320   1.020  1.00  0.00     0.016 A 
ATOM     14  C   UNL     1       5.922  21.681  -0.319  1.00  0.00     0.051 A 
ATOM     15  C   UNL     1       6.377  20.841  -1.344  1.00  0.00     0.157 A 
ATOM     16  C   UNL     1       7.198  19.277   0.321  1.00  0.00     0.062 A 
ATOM     17  C   UNL     1       7.021  19.634  -1.021  1.00  0.00     0.158 A 
BRANCH  15  18
ATOM     18  O   UNL     1       6.196  21.202  -2.678  1.00  0.00    -0.504 OA
ATOM     19  H   UNL     1       5.276  21.400  -3.054  1.00  0.00     0.293 HD
ENDBRANCH  15  18
BRANCH  17  20
ATOM     20  O   UNL     1       7.491  18.779  -2.017  1.00  0.00    -0.504 OA
ATOM     21  H   UNL     1       7.685  19.104  -2.957  1.00  0.00     0.293 HD
ENDBRANCH  17  20
ENDBRANCH   1  12
BRANCH   2  22
ATOM     22  O   UNL     1       5.904  17.545   2.429  1.00  0.00    -0.502 OA
ATOM     23  H   UNL     1       4.992  17.150   2.624  1.00  0.00     0.293 HD
ENDBRANCH   2  22
BRANCH   6  24
ATOM     24  O   UNL     1       7.123  17.888   7.603  1.00  0.00    -0.507 OA
ATOM     25  H   UNL     1       6.170  17.809   7.926  1.00  0.00     0.293 HD
ENDBRANCH   6  24
BRANCH   8  26
ATOM     26  O   UNL     1       9.590  22.008   7.614  1.00  0.00    -0.508 OA
ATOM     27  H   UNL     1       9.961  21.813   8.537  1.00  0.00     0.293 HD
ENDBRANCH   8  26
TORSDOF 6
ENDMDL
MODEL 5
REMARK VINA RESULT:    -3.980      1.962      3.502
REMARK INTER + INTRA:          -5.097
REMARK INTER:                  -4.995
REMARK INTRA:                  -0.102
REMARK UNBOUND:                -0.302
REMARK SMILES O=c1c(O)c(-c2ccc(O)c(O)c2)oc2cc(O)cc(O)c12
REMARK SMILES IDX 5 1 3 2 2 3 1 4 22 5 20 6 19 7 17 8 16 9 15 10 14 11 6 12
REMARK SMILES IDX 7 13 8 14 9 15 13 16 11 17 10 18 12 20 4 22 21 24 18 26
REMARK H PARENT 10 19 12 21 4 23 21 25 18 27
REMARK Flexibility Score: inf
ROOT
ATOM      1  C   UNL     1      24.560   6.838  -6.338  1.00  0.00     0.180 A 
ATOM      2  C   UNL     1      25.129   6.311  -5.166  1.00  0.00     0.208 A 
ATOM      3  C   UNL     1      25.054   4.928  -4.936  1.00  0.00     0.238 A 
ATOM      4  O   UNL     1      25.517   4.469  -3.859  1.00  0.00    -0.285 OA
ATOM      5  C   UNL     1      24.428   4.088  -5.887  1.00  0.00     0.111 A 
ATOM      6  C   UNL     1      24.331   2.669  -5.777  1.00  0.00     0.134 A 
ATOM      7  C   UNL     1      23.575   1.952  -6.713  1.00  0.00     0.093 A 
ATOM      8  C   UNL     1      22.967   2.597  -7.792  1.00  0.00     0.123 A 
ATOM      9  C   UNL     1      23.106   3.975  -7.942  1.00  0.00     0.094 A 
ATOM     10  C   UNL     1      23.823   4.721  -7.004  1.00  0.00     0.146 A 
ATOM     11  O   UNL     1      23.921   6.033  -7.179  1.00  0.00    -0.452 OA
ENDROOT
BRANCH   1  12
ATOM     12  C   UNL     1      24.620   8.282  -6.662  1.00  0.00     0.025 A 
ATOM     13  C   UNL     1      25.846   8.964  -6.744  1.00  0.00     0.016 A 
ATOM     14  C   UNL     1      25.881  10.321  -7.075  1.00  0.00     0.051 A 
ATOM     15  C   UNL     1      24.692  11.013  -7.342  1.00  0.00     0.157 A 
ATOM     16  C   UNL     1      23.433   8.975  -6.952  1.00  0.00     0.062 A 
ATOM     17  C   UNL     1      23.463  10.335  -7.283  1.00  0.00     0.158 A 
BRANCH  15  18
ATOM     18  O   UNL     1      24.729  12.368  -7.670  1.00  0.00    -0.504 OA
ATOM     19  H   UNL     1      24.652  13.087  -6.961  1.00  0.00     0.293 HD
ENDBRANCH  15  18
BRANCH  17  20
ATOM     20  O   UNL     1      22.263  10.994  -7.550  1.00  0.00    -0.504 OA
ATOM     21  H   UNL     1      21.411  10.785  -7.044  1.00  0.00     0.293 HD
ENDBRANCH  17  20
ENDBRANCH   1  12
BRANCH   2  22
ATOM     22  O   UNL     1      25.723   7.161  -4.229  1.00  0.00    -0.502 OA
ATOM     23  H   UNL     1      25.194   7.844  -3.702  1.00  0.00     0.293 HD
ENDBRANCH   2  22
BRANCH   6  24
ATOM     24  O   UNL     1      24.977   1.916  -4.790  1.00  0.00    -0.507 OA
ATOM     25  H   UNL     1      25.560   1.113  -4.969  1.00  0.00     0.293 HD
ENDBRANCH   6  24
BRANCH   8  26
ATOM     26  O   UNL     1      22.230   1.875  -8.728  1.00  0.00    -0.508 OA
ATOM     27  H   UNL     1      21.217   1.847  -8.697  1.00  0.00     0.293 HD
ENDBRANCH   8  26
TORSDOF 6
ENDMDL
MODEL 6
REMARK VINA RESULT:    -3.889     21.185     22.866
REMARK INTER + INTRA:          -4.987
REMARK INTER:                  -5.153
REMARK INTRA:                   0.166
REMARK UNBOUND:                -0.302
REMARK SMILES O=c1c(O)c(-c2ccc(O)c(O)c2)oc2cc(O)cc(O)c12
REMARK SMILES IDX 5 1 3 2 2 3 1 4 22 5 20 6 19 7 17 8 16 9 15 10 14 11 6 12
REMARK SMILES IDX 7 13 8 14 9 15 13 16 11 17 10 18 12 20 4 22 21 24 18 26
REMARK H PARENT 10 19 12 21 4 23 21 25 18 27
REMARK Flexibility Score: inf
ROOT
ATOM      1  C   UNL     1       6.813  19.689   2.134  1.00  0.00     0.180 A 
ATOM      2  C   UNL     1       6.626  20.926   2.776  1.00  0.00     0.208 A 
ATOM      3  C   UNL     1       6.699  20.983   4.177  1.00  0.00     0.238 A 
ATOM      4  O   UNL     1       6.477  22.082   4.749  1.00  0.00    -0.285 OA
ATOM      5  C   UNL     1       6.975  19.809   4.916  1.00  0.00     0.111 A 
ATOM      6  C   UNL     1       7.113  19.758   6.336  1.00  0.00     0.134 A 
ATOM      7  C   UNL     1       7.257  18.519   6.973  1.00  0.00     0.093 A 
ATOM      8  C   UNL     1       7.332  17.335   6.236  1.00  0.00     0.123 A 
ATOM      9  C   UNL     1       7.259  17.380   4.846  1.00  0.00     0.094 A 
ATOM     10  C   UNL     1       7.079  18.597   4.184  1.00  0.00     0.146 A 
ATOM     11  O   UNL     1       7.004  18.594   2.859  1.00  0.00    -0.452 OA
ENDROOT
BRANCH   1  12
ATOM     12  C   UNL     1       6.774  19.554   0.659  1.00  0.00     0.025 A 
ATOM     13  C   UNL     1       6.115  18.478   0.040  1.00  0.00     0.016 A 
ATOM     14  C   UNL     1       6.071  18.384  -1.354  1.00  0.00     0.051 A 
ATOM     15  C   UNL     1       6.672  19.370  -2.148  1.00  0.00     0.157 A 
ATOM     16  C   UNL     1       7.357  20.550  -0.141  1.00  0.00     0.062 A 
ATOM     17  C   UNL     1       7.316  20.459  -1.537  1.00  0.00     0.158 A 
BRANCH  15  18
ATOM     18  O   UNL     1       6.628  19.272  -3.538  1.00  0.00    -0.504 OA
ATOM     19  H   UNL     1       6.634  18.374  -4.007  1.00  0.00     0.293 HD
ENDBRANCH  15  18
BRANCH  17  20
ATOM     20  O   UNL     1       7.918  21.460  -2.299  1.00  0.00    -0.504 OA
ATOM     21  H   UNL     1       8.824  21.332  -2.735  1.00  0.00     0.293 HD
ENDBRANCH  17  20
ENDBRANCH   1  12
BRANCH   2  22
ATOM     22  O   UNL     1       6.332  22.070   2.028  1.00  0.00    -0.502 OA
ATOM     23  H   UNL     1       5.516  22.135   1.433  1.00  0.00     0.293 HD
ENDBRANCH   2  22
BRANCH   6  24
ATOM     24  O   UNL     1       7.143  20.889   7.159  1.00  0.00    -0.507 OA
ATOM     25  H   UNL     1       6.348  21.258   7.658  1.00  0.00     0.293 HD
ENDBRANCH   6  24
BRANCH   8  26
ATOM     26  O   UNL     1       7.491  16.108   6.876  1.00  0.00    -0.508 OA
ATOM     27  H   UNL     1       8.321  15.543   6.741  1.00  0.00     0.293 HD
ENDBRANCH   8  26
TORSDOF 6
ENDMDL
MODEL 7
REMARK VINA RESULT:    -3.488      2.449      2.824
REMARK INTER + INTRA:          -4.504
REMARK INTER:                  -5.009
REMARK INTRA:                   0.505
REMARK UNBOUND:                -0.302
REMARK SMILES O=c1c(O)c(-c2ccc(O)c(O)c2)oc2cc(O)cc(O)c12
REMARK SMILES IDX 5 1 3 2 2 3 1 4 22 5 20 6 19 7 17 8 16 9 15 10 14 11 6 12
REMARK SMILES IDX 7 13 8 14 9 15 13 16 11 17 10 18 12 20 4 22 21 24 18 26
REMARK H PARENT 10 19 12 21 4 23 21 25 18 27
REMARK Flexibility Score: inf
ROOT
ATOM      1  C   UNL     1      24.650   8.485  -6.538  1.00  0.00     0.180 A 
ATOM      2  C   UNL     1      23.731   7.954  -7.460  1.00  0.00     0.208 A 
ATOM      3  C   UNL     1      23.407   6.590  -7.390  1.00  0.00     0.238 A 
ATOM      4  O   UNL     1      22.626   6.110  -8.252  1.00  0.00    -0.285 OA
ATOM      5  C   UNL     1      23.993   5.778  -6.390  1.00  0.00     0.111 A 
ATOM      6  C   UNL     1      23.706   4.392  -6.200  1.00  0.00     0.134 A 
ATOM      7  C   UNL     1      24.441   3.656  -5.262  1.00  0.00     0.093 A 
ATOM      8  C   UNL     1      25.408   4.271  -4.462  1.00  0.00     0.123 A 
ATOM      9  C   UNL     1      25.652   5.636  -4.599  1.00  0.00     0.094 A 
ATOM     10  C   UNL     1      24.961   6.388  -5.550  1.00  0.00     0.146 A 
ATOM     11  O   UNL     1      25.233   7.683  -5.654  1.00  0.00    -0.452 OA
ENDROOT
BRANCH   1  12
ATOM     12  C   UNL     1      25.023   9.919  -6.534  1.00  0.00     0.025 A 
ATOM     13  C   UNL     1      25.750  10.483  -5.473  1.00  0.00     0.016 A 
ATOM     14  C   UNL     1      26.112  11.833  -5.501  1.00  0.00     0.051 A 
ATOM     15  C   UNL     1      25.763  12.634  -6.597  1.00  0.00     0.157 A 
ATOM     16  C   UNL     1      24.693  10.721  -7.639  1.00  0.00     0.062 A 
ATOM     17  C   UNL     1      25.053  12.073  -7.672  1.00  0.00     0.158 A 
BRANCH  15  18
ATOM     18  O   UNL     1      26.123  13.981  -6.622  1.00  0.00    -0.504 OA
ATOM     19  H   UNL     1      26.429  14.432  -7.476  1.00  0.00     0.293 HD
ENDBRANCH  15  18
BRANCH  17  20
ATOM     20  O   UNL     1      24.696  12.842  -8.779  1.00  0.00    -0.504 OA
ATOM     21  H   UNL     1      25.352  13.052  -9.522  1.00  0.00     0.293 HD
ENDBRANCH  17  20
ENDBRANCH   1  12
BRANCH   2  22
ATOM     22  O   UNL     1      23.181   8.769  -8.454  1.00  0.00    -0.502 OA
ATOM     23  H   UNL     1      22.545   8.415  -9.157  1.00  0.00     0.293 HD
ENDBRANCH   2  22
BRANCH   6  24
ATOM     24  O   UNL     1      22.698   3.703  -6.881  1.00  0.00    -0.507 OA
ATOM     25  H   UNL     1      22.818   3.239  -7.770  1.00  0.00     0.293 HD
ENDBRANCH   6  24
BRANCH   8  26
ATOM     26  O   UNL     1      26.124   3.536  -3.521  1.00  0.00    -0.508 OA
ATOM     27  H   UNL     1      25.969   2.542  -3.395  1.00  0.00     0.293 HD
ENDBRANCH   8  26
TORSDOF 6
ENDMDL
