MODEL 1
REMARK VINA RESULT:    -7.120      0.000      0.000
REMARK INTER + INTRA:          -7.192
REMARK INTER:                  -7.745
REMARK INTRA:                   0.552
REMARK UNBOUND:                 0.552
REMARK SMILES C[C@H]1[C@H]2C3=CC[C@H]4[C@]5(C)CC[C@@H](O)C(C)(C)[C@@H]5CC[C@]4(C)[C@]3(C)CC[C@]2(C(=O)[O-])CC[C@@H]1C
REMARK SMILES IDX 26 1 30 2 25 3 3 4 31 5 24 6 4 7 2 8 32 9 22 10 5 11 1 12
REMARK SMILES IDX 33 13 23 14 20 15 6 16 7 17 19 18 21 19 8 20 18 21 17 22
REMARK SMILES IDX 10 23 9 24 14 25 11 26 12 27 15 28 16 29 27 30 28 31 29 32
REMARK SMILES IDX 13 33
REMARK H PARENT 13 34
REMARK Flexibility Score: inf
ROOT
ATOM      1  C   UNL     1     -22.941 -10.413  -2.799  1.00  0.00     0.017 C 
ATOM      2  C   UNL     1     -23.974 -11.591  -2.765  1.00  0.00     0.014 C 
ATOM      3  C   UNL     1     -22.321 -10.290  -4.219  1.00  0.00     0.014 C 
ATOM      4  C   UNL     1     -23.719  -9.077  -2.547  1.00  0.00     0.030 C 
ATOM      5  C   UNL     1     -25.172 -11.376  -1.799  1.00  0.00     0.004 C 
ATOM      6  C   UNL     1     -21.345  -9.092  -4.419  1.00  0.00     0.013 C 
ATOM      7  C   UNL     1     -23.055  -7.801  -3.086  1.00  0.00    -0.063 C 
ATOM      8  C   UNL     1     -24.503  -8.968  -1.198  1.00  0.00    -0.003 C 
ATOM      9  C   UNL     1     -24.891 -10.378  -0.648  1.00  0.00    -0.011 C 
ATOM     10  C   UNL     1     -21.561  -7.809  -3.511  1.00  0.00    -0.006 C 
ATOM     11  C   UNL     1     -23.920  -6.834  -3.500  1.00  0.00    -0.027 C 
ATOM     12  C   UNL     1     -23.830  -8.080  -0.133  1.00  0.00     0.008 C 
ATOM     13  C   UNL     1     -26.118 -10.303   0.273  1.00  0.00     0.008 C 
ATOM     14  C   UNL     1     -20.654  -7.962  -2.239  1.00  0.00     0.017 C 
ATOM     15  C   UNL     1     -21.164  -6.426  -4.261  1.00  0.00    -0.020 C 
ATOM     16  C   UNL     1     -23.593  -5.749  -4.484  1.00  0.00     0.032 C 
ATOM     17  C   UNL     1     -22.309  -6.070  -5.282  1.00  0.00     0.006 C 
ATOM     18  C   UNL     1     -19.805  -6.563  -5.013  1.00  0.00     0.008 C 
ATOM     19  C   UNL     1     -21.013  -5.275  -3.199  1.00  0.00     0.012 C 
ATOM     20  C   UNL     1     -22.019  -5.047  -6.482  1.00  0.00    -0.025 C 
ATOM     21  C   UNL     1     -19.497  -5.373  -5.913  1.00  0.00     0.005 C 
ATOM     22  C   UNL     1     -20.538  -5.158  -7.041  1.00  0.00     0.003 C 
ATOM     23  C   UNL     1     -23.066  -5.346  -7.620  1.00  0.00     0.010 C 
ATOM     24  C   UNL     1     -22.250  -3.558  -6.066  1.00  0.00     0.012 C 
ATOM     25  C   UNL     1     -20.357  -6.005  -8.363  1.00  0.00    -0.006 C 
ATOM     26  C   UNL     1     -22.650  -4.869  -9.012  1.00  0.00     0.033 C 
ATOM     27  C   UNL     1     -21.256  -5.357  -9.485  1.00  0.00     0.120 C 
ATOM     28  C   UNL     1     -20.702  -7.516  -8.207  1.00  0.00     0.014 C 
ATOM     29  C   UNL     1     -18.879  -5.959  -8.854  1.00  0.00     0.014 C 
ENDROOT
BRANCH   1  30
ATOM     30  C   UNL     1     -21.836 -10.786  -1.816  1.00  0.00     0.048 C 
ATOM     31  O   UNL     1     -21.908 -10.506  -0.594  1.00  0.00    -0.550 OA
ATOM     32  O   UNL     1     -20.747 -11.526  -2.259  1.00  0.00    -0.550 OA
ENDBRANCH   1  30
BRANCH  27  33
ATOM     33  O   UNL     1     -20.590  -4.251 -10.056  1.00  0.00    -0.393 OA
ATOM     34  H   UNL     1     -19.892  -4.609 -10.662  1.00  0.00     0.210 HD
ENDBRANCH  27  33
TORSDOF 2
ENDMDL
MODEL 2
REMARK VINA RESULT:    -7.066      2.015      2.674
REMARK INTER + INTRA:          -7.133
REMARK INTER:                  -7.687
REMARK INTRA:                   0.553
REMARK UNBOUND:                 0.552
REMARK SMILES C[C@H]1[C@H]2C3=CC[C@H]4[C@]5(C)CC[C@@H](O)C(C)(C)[C@@H]5CC[C@]4(C)[C@]3(C)CC[C@]2(C(=O)[O-])CC[C@@H]1C
REMARK SMILES IDX 26 1 30 2 25 3 3 4 31 5 24 6 4 7 2 8 32 9 22 10 5 11 1 12
REMARK SMILES IDX 33 13 23 14 20 15 6 16 7 17 19 18 21 19 8 20 18 21 17 22
REMARK SMILES IDX 10 23 9 24 14 25 11 26 12 27 15 28 16 29 27 30 28 31 29 32
REMARK SMILES IDX 13 33
REMARK H PARENT 13 34
REMARK Flexibility Score: inf
ROOT
ATOM      1  C   UNL     1     -21.831 -11.932  -5.371  1.00  0.00     0.017 C 
ATOM      2  C   UNL     1     -22.807 -13.118  -5.682  1.00  0.00     0.014 C 
ATOM      3  C   UNL     1     -21.668 -11.034  -6.630  1.00  0.00     0.014 C 
ATOM      4  C   UNL     1     -22.498 -11.029  -4.277  1.00  0.00     0.030 C 
ATOM      5  C   UNL     1     -23.658 -13.592  -4.471  1.00  0.00     0.004 C 
ATOM      6  C   UNL     1     -20.797  -9.758  -6.429  1.00  0.00     0.013 C 
ATOM      7  C   UNL     1     -22.027  -9.567  -4.234  1.00  0.00    -0.063 C 
ATOM      8  C   UNL     1     -22.840 -11.718  -2.916  1.00  0.00    -0.003 C 
ATOM      9  C   UNL     1     -23.044 -13.257  -3.090  1.00  0.00    -0.011 C 
ATOM     10  C   UNL     1     -20.730  -9.135  -4.972  1.00  0.00    -0.006 C 
ATOM     11  C   UNL     1     -22.976  -8.669  -3.853  1.00  0.00    -0.027 C 
ATOM     12  C   UNL     1     -21.877 -11.373  -1.762  1.00  0.00     0.008 C 
ATOM     13  C   UNL     1     -23.936 -13.833  -1.980  1.00  0.00     0.008 C 
ATOM     14  C   UNL     1     -19.482  -9.749  -4.244  1.00  0.00     0.017 C 
ATOM     15  C   UNL     1     -20.577  -7.519  -4.978  1.00  0.00    -0.020 C 
ATOM     16  C   UNL     1     -22.961  -7.205  -4.185  1.00  0.00     0.032 C 
ATOM     17  C   UNL     1     -21.977  -6.891  -5.334  1.00  0.00     0.006 C 
ATOM     18  C   UNL     1     -19.508  -7.058  -6.014  1.00  0.00     0.008 C 
ATOM     19  C   UNL     1     -20.114  -7.029  -3.556  1.00  0.00     0.012 C 
ATOM     20  C   UNL     1     -22.062  -5.380  -5.865  1.00  0.00    -0.025 C 
ATOM     21  C   UNL     1     -19.485  -5.549  -6.219  1.00  0.00     0.005 C 
ATOM     22  C   UNL     1     -20.818  -4.973  -6.762  1.00  0.00     0.003 C 
ATOM     23  C   UNL     1     -23.403  -5.241  -6.680  1.00  0.00     0.010 C 
ATOM     24  C   UNL     1     -22.157  -4.342  -4.700  1.00  0.00     0.012 C 
ATOM     25  C   UNL     1     -21.043  -5.024  -8.326  1.00  0.00    -0.006 C 
ATOM     26  C   UNL     1     -23.425  -4.087  -7.681  1.00  0.00     0.033 C 
ATOM     27  C   UNL     1     -22.238  -4.058  -8.679  1.00  0.00     0.120 C 
ATOM     28  C   UNL     1     -21.324  -6.450  -8.885  1.00  0.00     0.014 C 
ATOM     29  C   UNL     1     -19.781  -4.515  -9.086  1.00  0.00     0.014 C 
ENDROOT
BRANCH   1  30
ATOM     30  C   UNL     1     -20.482 -12.562  -5.043  1.00  0.00     0.048 C 
ATOM     31  O   UNL     1     -20.178 -12.920  -3.879  1.00  0.00    -0.550 OA
ATOM     32  O   UNL     1     -19.582 -12.825  -6.069  1.00  0.00    -0.550 OA
ENDBRANCH   1  30
BRANCH  27  33
ATOM     33  O   UNL     1     -21.775  -2.725  -8.750  1.00  0.00    -0.393 OA
ATOM     34  H   UNL     1     -22.562  -2.151  -8.933  1.00  0.00     0.210 HD
ENDBRANCH  27  33
TORSDOF 2
ENDMDL
MODEL 3
REMARK VINA RESULT:    -6.712      1.573      2.250
REMARK INTER + INTRA:          -6.748
REMARK INTER:                  -7.574
REMARK INTRA:                   0.826
REMARK UNBOUND:                 0.552
REMARK SMILES C[C@H]1[C@H]2C3=CC[C@H]4[C@]5(C)CC[C@@H](O)C(C)(C)[C@@H]5CC[C@]4(C)[C@]3(C)CC[C@]2(C(=O)[O-])CC[C@@H]1C
REMARK SMILES IDX 26 1 30 2 25 3 3 4 31 5 24 6 4 7 2 8 32 9 22 10 5 11 1 12
REMARK SMILES IDX 33 13 23 14 20 15 6 16 7 17 19 18 21 19 8 20 18 21 17 22
REMARK SMILES IDX 10 23 9 24 14 25 11 26 12 27 15 28 16 29 27 30 28 31 29 32
REMARK SMILES IDX 13 33
REMARK H PARENT 13 34
REMARK Flexibility Score: inf
ROOT
ATOM      1  C   UNL     1     -21.059 -10.402  -4.615  1.00  0.00     0.017 C 
ATOM      2  C   UNL     1     -21.333 -11.919  -4.898  1.00  0.00     0.014 C 
ATOM      3  C   UNL     1     -20.356  -9.751  -5.840  1.00  0.00     0.014 C 
ATOM      4  C   UNL     1     -22.441  -9.678  -4.472  1.00  0.00     0.030 C 
ATOM      5  C   UNL     1     -22.617 -12.481  -4.229  1.00  0.00     0.004 C 
ATOM      6  C   UNL     1     -20.113  -8.216  -5.731  1.00  0.00     0.013 C 
ATOM      7  C   UNL     1     -22.442  -8.168  -4.760  1.00  0.00    -0.063 C 
ATOM      8  C   UNL     1     -23.388 -10.197  -3.341  1.00  0.00    -0.003 C 
ATOM      9  C   UNL     1     -23.088 -11.688  -2.985  1.00  0.00    -0.011 C 
ATOM     10  C   UNL     1     -21.106  -7.377  -4.822  1.00  0.00    -0.006 C 
ATOM     11  C   UNL     1     -23.593  -7.688  -5.306  1.00  0.00    -0.027 C 
ATOM     12  C   UNL     1     -23.458  -9.291  -2.095  1.00  0.00     0.008 C 
ATOM     13  C   UNL     1     -24.318 -12.377  -2.375  1.00  0.00     0.008 C 
ATOM     14  C   UNL     1     -20.482  -7.286  -3.385  1.00  0.00     0.017 C 
ATOM     15  C   UNL     1     -21.351  -5.869  -5.372  1.00  0.00    -0.020 C 
ATOM     16  C   UNL     1     -23.704  -6.430  -6.117  1.00  0.00     0.032 C 
ATOM     17  C   UNL     1     -22.323  -5.945  -6.609  1.00  0.00     0.006 C 
ATOM     18  C   UNL     1     -20.007  -5.198  -5.791  1.00  0.00     0.008 C 
ATOM     19  C   UNL     1     -21.994  -4.992  -4.236  1.00  0.00     0.012 C 
ATOM     20  C   UNL     1     -22.395  -4.721  -7.643  1.00  0.00    -0.025 C 
ATOM     21  C   UNL     1     -20.202  -3.874  -6.519  1.00  0.00     0.005 C 
ATOM     22  C   UNL     1     -20.996  -4.001  -7.844  1.00  0.00     0.003 C 
ATOM     23  C   UNL     1     -22.929  -5.290  -9.011  1.00  0.00     0.010 C 
ATOM     24  C   UNL     1     -23.423  -3.628  -7.202  1.00  0.00     0.012 C 
ATOM     25  C   UNL     1     -20.183  -4.413  -9.136  1.00  0.00    -0.006 C 
ATOM     26  C   UNL     1     -22.584  -4.441 -10.234  1.00  0.00     0.033 C 
ATOM     27  C   UNL     1     -21.079  -4.101 -10.395  1.00  0.00     0.120 C 
ATOM     28  C   UNL     1     -19.728  -5.902  -9.158  1.00  0.00     0.014 C 
ATOM     29  C   UNL     1     -18.878  -3.571  -9.263  1.00  0.00     0.014 C 
ENDROOT
BRANCH   1  30
ATOM     30  C   UNL     1     -20.107 -10.354  -3.426  1.00  0.00     0.048 C 
ATOM     31  O   UNL     1     -18.875 -10.565  -3.548  1.00  0.00    -0.550 OA
ATOM     32  O   UNL     1     -20.592  -9.990  -2.175  1.00  0.00    -0.550 OA
ENDBRANCH   1  30
BRANCH  27  33
ATOM     33  O   UNL     1     -20.986  -2.731 -10.725  1.00  0.00    -0.393 OA
ATOM     34  H   UNL     1     -20.025  -2.490 -10.713  1.00  0.00     0.210 HD
ENDBRANCH  27  33
TORSDOF 2
ENDMDL
MODEL 4
REMARK VINA RESULT:    -6.618      2.162      8.038
REMARK INTER + INTRA:          -6.646
REMARK INTER:                  -7.203
REMARK INTRA:                   0.557
REMARK UNBOUND:                 0.552
REMARK SMILES C[C@H]1[C@H]2C3=CC[C@H]4[C@]5(C)CC[C@@H](O)C(C)(C)[C@@H]5CC[C@]4(C)[C@]3(C)CC[C@]2(C(=O)[O-])CC[C@@H]1C
REMARK SMILES IDX 26 1 30 2 25 3 3 4 31 5 24 6 4 7 2 8 32 9 22 10 5 11 1 12
REMARK SMILES IDX 33 13 23 14 20 15 6 16 7 17 19 18 21 19 8 20 18 21 17 22
REMARK SMILES IDX 10 23 9 24 14 25 11 26 12 27 15 28 16 29 27 30 28 31 29 32
REMARK SMILES IDX 13 33
REMARK H PARENT 13 34
REMARK Flexibility Score: inf
ROOT
ATOM      1  C   UNL     1     -22.903  -6.107  -4.981  1.00  0.00     0.017 C 
ATOM      2  C   UNL     1     -23.624  -5.323  -6.132  1.00  0.00     0.014 C 
ATOM      3  C   UNL     1     -23.925  -6.477  -3.870  1.00  0.00     0.014 C 
ATOM      4  C   UNL     1     -22.387  -7.465  -5.567  1.00  0.00     0.030 C 
ATOM      5  C   UNL     1     -23.033  -5.566  -7.549  1.00  0.00     0.004 C 
ATOM      6  C   UNL     1     -23.359  -7.346  -2.707  1.00  0.00     0.013 C 
ATOM      7  C   UNL     1     -22.177  -8.599  -4.552  1.00  0.00    -0.063 C 
ATOM      8  C   UNL     1     -21.385  -7.374  -6.764  1.00  0.00    -0.003 C 
ATOM      9  C   UNL     1     -21.558  -6.037  -7.553  1.00  0.00    -0.011 C 
ATOM     10  C   UNL     1     -22.128  -8.293  -3.029  1.00  0.00    -0.006 C 
ATOM     11  C   UNL     1     -22.413  -9.851  -5.031  1.00  0.00    -0.027 C 
ATOM     12  C   UNL     1     -19.916  -7.660  -6.395  1.00  0.00     0.008 C 
ATOM     13  C   UNL     1     -21.070  -6.174  -9.003  1.00  0.00     0.008 C 
ATOM     14  C   UNL     1     -20.814  -7.504  -2.694  1.00  0.00     0.017 C 
ATOM     15  C   UNL     1     -22.138  -9.665  -2.162  1.00  0.00    -0.020 C 
ATOM     16  C   UNL     1     -22.763 -11.044  -4.191  1.00  0.00     0.032 C 
ATOM     17  C   UNL     1     -23.222 -10.630  -2.775  1.00  0.00     0.006 C 
ATOM     18  C   UNL     1     -22.465  -9.382  -0.664  1.00  0.00     0.008 C 
ATOM     19  C   UNL     1     -20.719 -10.340  -2.227  1.00  0.00     0.012 C 
ATOM     20  C   UNL     1     -23.797 -11.844  -1.899  1.00  0.00    -0.025 C 
ATOM     21  C   UNL     1     -22.706 -10.650   0.145  1.00  0.00     0.005 C 
ATOM     22  C   UNL     1     -23.908 -11.491  -0.356  1.00  0.00     0.003 C 
ATOM     23  C   UNL     1     -25.209 -12.222  -2.486  1.00  0.00     0.010 C 
ATOM     24  C   UNL     1     -22.922 -13.134  -2.019  1.00  0.00     0.012 C 
ATOM     25  C   UNL     1     -25.345 -11.076   0.159  1.00  0.00    -0.006 C 
ATOM     26  C   UNL     1     -26.127 -12.962  -1.513  1.00  0.00     0.033 C 
ATOM     27  C   UNL     1     -26.334 -12.266  -0.143  1.00  0.00     0.120 C 
ATOM     28  C   UNL     1     -25.890  -9.755  -0.462  1.00  0.00     0.014 C 
ATOM     29  C   UNL     1     -25.337 -10.845   1.700  1.00  0.00     0.014 C 
ENDROOT
BRANCH   1  30
ATOM     30  C   UNL     1     -21.871  -5.150  -4.395  1.00  0.00     0.048 C 
ATOM     31  O   UNL     1     -20.717  -5.036  -4.877  1.00  0.00    -0.550 OA
ATOM     32  O   UNL     1     -22.230  -4.317  -3.342  1.00  0.00    -0.550 OA
ENDBRANCH   1  30
BRANCH  27  33
ATOM     33  O   UNL     1     -26.218 -13.254   0.858  1.00  0.00    -0.393 OA
ATOM     34  H   UNL     1     -25.988 -12.791   1.703  1.00  0.00     0.210 HD
ENDBRANCH  27  33
TORSDOF 2
ENDMDL
MODEL 5
REMARK VINA RESULT:    -6.551      1.722      7.774
REMARK INTER + INTRA:          -6.573
REMARK INTER:                  -7.149
REMARK INTRA:                   0.576
REMARK UNBOUND:                 0.552
REMARK SMILES C[C@H]1[C@H]2C3=CC[C@H]4[C@]5(C)CC[C@@H](O)C(C)(C)[C@@H]5CC[C@]4(C)[C@]3(C)CC[C@]2(C(=O)[O-])CC[C@@H]1C
REMARK SMILES IDX 26 1 30 2 25 3 3 4 31 5 24 6 4 7 2 8 32 9 22 10 5 11 1 12
REMARK SMILES IDX 33 13 23 14 20 15 6 16 7 17 19 18 21 19 8 20 18 21 17 22
REMARK SMILES IDX 10 23 9 24 14 25 11 26 12 27 15 28 16 29 27 30 28 31 29 32
REMARK SMILES IDX 13 33
REMARK H PARENT 13 34
REMARK Flexibility Score: inf
ROOT
ATOM      1  C   UNL     1     -22.448  -5.166  -6.673  1.00  0.00     0.017 C 
ATOM      2  C   UNL     1     -23.495  -4.570  -7.676  1.00  0.00     0.014 C 
ATOM      3  C   UNL     1     -23.178  -5.780  -5.445  1.00  0.00     0.014 C 
ATOM      4  C   UNL     1     -21.718  -6.356  -7.384  1.00  0.00     0.030 C 
ATOM      5  C   UNL     1     -23.080  -4.652  -9.171  1.00  0.00     0.004 C 
ATOM      6  C   UNL     1     -22.258  -6.496  -4.412  1.00  0.00     0.013 C 
ATOM      7  C   UNL     1     -21.098  -7.414  -6.458  1.00  0.00    -0.063 C 
ATOM      8  C   UNL     1     -20.954  -6.018  -8.705  1.00  0.00    -0.003 C 
ATOM      9  C   UNL     1     -21.552  -4.756  -9.404  1.00  0.00    -0.011 C 
ATOM     10  C   UNL     1     -20.899  -7.118  -4.945  1.00  0.00    -0.006 C 
ATOM     11  C   UNL     1     -21.099  -8.682  -6.952  1.00  0.00    -0.027 C 
ATOM     12  C   UNL     1     -19.420  -5.946  -8.560  1.00  0.00     0.008 C 
ATOM     13  C   UNL     1     -21.265  -4.760 -10.913  1.00  0.00     0.008 C 
ATOM     14  C   UNL     1     -19.773  -6.039  -4.766  1.00  0.00     0.017 C 
ATOM     15  C   UNL     1     -20.456  -8.459  -4.145  1.00  0.00    -0.020 C 
ATOM     16  C   UNL     1     -21.030  -9.932  -6.123  1.00  0.00     0.032 C 
ATOM     17  C   UNL     1     -21.359  -9.651  -4.640  1.00  0.00     0.006 C 
ATOM     18  C   UNL     1     -20.616  -8.274  -2.605  1.00  0.00     0.008 C 
ATOM     19  C   UNL     1     -18.943  -8.773  -4.439  1.00  0.00     0.012 C 
ATOM     20  C   UNL     1     -21.495 -10.974  -3.744  1.00  0.00    -0.025 C 
ATOM     21  C   UNL     1     -20.429  -9.570  -1.826  1.00  0.00     0.005 C 
ATOM     22  C   UNL     1     -21.458 -10.670  -2.187  1.00  0.00     0.003 C 
ATOM     23  C   UNL     1     -22.848 -11.676  -4.141  1.00  0.00     0.010 C 
ATOM     24  C   UNL     1     -20.368 -12.015  -4.042  1.00  0.00     0.012 C 
ATOM     25  C   UNL     1     -22.860 -10.616  -1.458  1.00  0.00    -0.006 C 
ATOM     26  C   UNL     1     -23.411 -12.622  -3.081  1.00  0.00     0.033 C 
ATOM     27  C   UNL     1     -23.573 -12.006  -1.667  1.00  0.00     0.120 C 
ATOM     28  C   UNL     1     -23.787  -9.461  -1.937  1.00  0.00     0.014 C 
ATOM     29  C   UNL     1     -22.680 -10.402   0.076  1.00  0.00     0.014 C 
ENDROOT
BRANCH   1  30
ATOM     30  C   UNL     1     -21.596  -3.995  -6.198  1.00  0.00     0.048 C 
ATOM     31  O   UNL     1     -20.640  -3.546  -6.877  1.00  0.00    -0.550 OA
ATOM     32  O   UNL     1     -21.926  -3.344  -5.014  1.00  0.00    -0.550 OA
ENDBRANCH   1  30
BRANCH  27  33
ATOM     33  O   UNL     1     -23.080 -12.946  -0.736  1.00  0.00    -0.393 OA
ATOM     34  H   UNL     1     -23.587 -13.787  -0.871  1.00  0.00     0.210 HD
ENDBRANCH  27  33
TORSDOF 2
ENDMDL
MODEL 6
REMARK VINA RESULT:    -6.414      2.911      7.410
REMARK INTER + INTRA:          -6.425
REMARK INTER:                  -6.998
REMARK INTRA:                   0.574
REMARK UNBOUND:                 0.552
REMARK SMILES C[C@H]1[C@H]2C3=CC[C@H]4[C@]5(C)CC[C@@H](O)C(C)(C)[C@@H]5CC[C@]4(C)[C@]3(C)CC[C@]2(C(=O)[O-])CC[C@@H]1C
REMARK SMILES IDX 26 1 30 2 25 3 3 4 31 5 24 6 4 7 2 8 32 9 22 10 5 11 1 12
REMARK SMILES IDX 33 13 23 14 20 15 6 16 7 17 19 18 21 19 8 20 18 21 17 22
REMARK SMILES IDX 10 23 9 24 14 25 11 26 12 27 15 28 16 29 27 30 28 31 29 32
REMARK SMILES IDX 13 33
REMARK H PARENT 13 34
REMARK Flexibility Score: inf
ROOT
ATOM      1  C   UNL     1     -23.108  -6.613  -5.250  1.00  0.00     0.017 C 
ATOM      2  C   UNL     1     -24.050  -5.805  -6.207  1.00  0.00     0.014 C 
ATOM      3  C   UNL     1     -23.750  -7.986  -4.908  1.00  0.00     0.014 C 
ATOM      4  C   UNL     1     -21.785  -6.933  -6.026  1.00  0.00     0.030 C 
ATOM      5  C   UNL     1     -23.311  -4.881  -7.214  1.00  0.00     0.004 C 
ATOM      6  C   UNL     1     -22.872  -8.935  -4.038  1.00  0.00     0.013 C 
ATOM      7  C   UNL     1     -20.992  -8.151  -5.529  1.00  0.00    -0.063 C 
ATOM      8  C   UNL     1     -20.970  -5.707  -6.552  1.00  0.00    -0.003 C 
ATOM      9  C   UNL     1     -21.888  -4.462  -6.771  1.00  0.00    -0.011 C 
ATOM     10  C   UNL     1     -21.297  -8.776  -4.139  1.00  0.00    -0.006 C 
ATOM     11  C   UNL     1     -20.318  -8.832  -6.496  1.00  0.00    -0.027 C 
ATOM     12  C   UNL     1     -19.705  -5.377  -5.734  1.00  0.00     0.008 C 
ATOM     13  C   UNL     1     -21.291  -3.500  -7.809  1.00  0.00     0.008 C 
ATOM     14  C   UNL     1     -20.840  -7.789  -3.008  1.00  0.00     0.017 C 
ATOM     15  C   UNL     1     -20.503 -10.179  -3.947  1.00  0.00    -0.020 C 
ATOM     16  C   UNL     1     -19.895 -10.269  -6.403  1.00  0.00     0.032 C 
ATOM     17  C   UNL     1     -20.644 -11.013  -5.276  1.00  0.00     0.006 C 
ATOM     18  C   UNL     1     -21.075 -10.990  -2.745  1.00  0.00     0.008 C 
ATOM     19  C   UNL     1     -18.984  -9.889  -3.654  1.00  0.00     0.012 C 
ATOM     20  C   UNL     1     -20.382 -12.595  -5.256  1.00  0.00    -0.025 C 
ATOM     21  C   UNL     1     -20.518 -12.406  -2.661  1.00  0.00     0.005 C 
ATOM     22  C   UNL     1     -20.841 -13.279  -3.900  1.00  0.00     0.003 C 
ATOM     23  C   UNL     1     -21.153 -13.217  -6.481  1.00  0.00     0.010 C 
ATOM     24  C   UNL     1     -18.875 -12.952  -5.471  1.00  0.00     0.012 C 
ATOM     25  C   UNL     1     -22.247 -14.001  -3.929  1.00  0.00    -0.006 C 
ATOM     26  C   UNL     1     -21.465 -14.707  -6.349  1.00  0.00     0.033 C 
ATOM     27  C   UNL     1     -22.202 -15.113  -5.046  1.00  0.00     0.120 C 
ATOM     28  C   UNL     1     -23.452 -13.046  -4.172  1.00  0.00     0.014 C 
ATOM     29  C   UNL     1     -22.537 -14.706  -2.569  1.00  0.00     0.014 C 
ENDROOT
BRANCH   1  30
ATOM     30  C   UNL     1     -22.997  -5.795  -3.968  1.00  0.00     0.048 C 
ATOM     31  O   UNL     1     -22.218  -4.815  -3.867  1.00  0.00    -0.550 OA
ATOM     32  O   UNL     1     -23.835  -6.083  -2.897  1.00  0.00    -0.550 OA
ENDBRANCH   1  30
BRANCH  27  33
ATOM     33  O   UNL     1     -21.572 -16.273  -4.546  1.00  0.00    -0.393 OA
ATOM     34  H   UNL     1     -21.779 -17.013  -5.172  1.00  0.00     0.210 HD
ENDBRANCH  27  33
TORSDOF 2
ENDMDL
MODEL 7
REMARK VINA RESULT:    -6.040      3.263      6.947
REMARK INTER + INTRA:          -6.017
REMARK INTER:                  -6.602
REMARK INTRA:                   0.585
REMARK UNBOUND:                 0.552
REMARK SMILES C[C@H]1[C@H]2C3=CC[C@H]4[C@]5(C)CC[C@@H](O)C(C)(C)[C@@H]5CC[C@]4(C)[C@]3(C)CC[C@]2(C(=O)[O-])CC[C@@H]1C
REMARK SMILES IDX 26 1 30 2 25 3 3 4 31 5 24 6 4 7 2 8 32 9 22 10 5 11 1 12
REMARK SMILES IDX 33 13 23 14 20 15 6 16 7 17 19 18 21 19 8 20 18 21 17 22
REMARK SMILES IDX 10 23 9 24 14 25 11 26 12 27 15 28 16 29 27 30 28 31 29 32
REMARK SMILES IDX 13 33
REMARK H PARENT 13 34
REMARK Flexibility Score: inf
ROOT
ATOM      1  C   UNL     1     -22.427  -6.906  -3.497  1.00  0.00     0.017 C 
ATOM      2  C   UNL     1     -22.001  -5.500  -4.044  1.00  0.00     0.014 C 
ATOM      3  C   UNL     1     -22.661  -7.887  -4.680  1.00  0.00     0.014 C 
ATOM      4  C   UNL     1     -21.227  -7.491  -2.677  1.00  0.00     0.030 C 
ATOM      5  C   UNL     1     -21.027  -4.714  -3.123  1.00  0.00     0.004 C 
ATOM      6  C   UNL     1     -22.996  -9.354  -4.273  1.00  0.00     0.013 C 
ATOM      7  C   UNL     1     -21.188  -9.022  -2.544  1.00  0.00    -0.063 C 
ATOM      8  C   UNL     1     -20.737  -6.648  -1.456  1.00  0.00    -0.003 C 
ATOM      9  C   UNL     1     -21.080  -5.134  -1.634  1.00  0.00    -0.011 C 
ATOM     10  C   UNL     1     -22.442  -9.875  -2.881  1.00  0.00    -0.006 C 
ATOM     11  C   UNL     1     -19.940  -9.562  -2.487  1.00  0.00    -0.027 C 
ATOM     12  C   UNL     1     -21.169  -7.197  -0.081  1.00  0.00     0.008 C 
ATOM     13  C   UNL     1     -20.129  -4.244  -0.818  1.00  0.00     0.008 C 
ATOM     14  C   UNL     1     -23.552  -9.626  -1.799  1.00  0.00     0.017 C 
ATOM     15  C   UNL     1     -22.081 -11.457  -2.892  1.00  0.00    -0.020 C 
ATOM     16  C   UNL     1     -19.596 -10.979  -2.846  1.00  0.00     0.032 C 
ATOM     17  C   UNL     1     -20.722 -11.649  -3.664  1.00  0.00     0.006 C 
ATOM     18  C   UNL     1     -23.207 -12.286  -3.582  1.00  0.00     0.008 C 
ATOM     19  C   UNL     1     -21.938 -11.976  -1.413  1.00  0.00     0.012 C 
ATOM     20  C   UNL     1     -20.331 -13.092  -4.244  1.00  0.00    -0.025 C 
ATOM     21  C   UNL     1     -22.818 -13.740  -3.819  1.00  0.00     0.005 C 
ATOM     22  C   UNL     1     -21.590 -13.915  -4.747  1.00  0.00     0.003 C 
ATOM     23  C   UNL     1     -19.308 -12.866  -5.421  1.00  0.00     0.010 C 
ATOM     24  C   UNL     1     -19.586 -13.976  -3.192  1.00  0.00     0.012 C 
ATOM     25  C   UNL     1     -21.854 -13.895  -6.306  1.00  0.00    -0.006 C 
ATOM     26  C   UNL     1     -19.220 -14.019  -6.420  1.00  0.00     0.033 C 
ATOM     27  C   UNL     1     -20.575 -14.471  -7.025  1.00  0.00     0.120 C 
ATOM     28  C   UNL     1     -22.203 -12.490  -6.878  1.00  0.00     0.014 C 
ATOM     29  C   UNL     1     -23.059 -14.812  -6.677  1.00  0.00     0.014 C 
ENDROOT
BRANCH   1  30
ATOM     30  C   UNL     1     -23.749  -6.698  -2.768  1.00  0.00     0.048 C 
ATOM     31  O   UNL     1     -23.809  -6.563  -1.521  1.00  0.00    -0.550 OA
ATOM     32  O   UNL     1     -24.924  -6.576  -3.501  1.00  0.00    -0.550 OA
ENDBRANCH   1  30
BRANCH  27  33
ATOM     33  O   UNL     1     -20.601 -15.883  -6.999  1.00  0.00    -0.393 OA
ATOM     34  H   UNL     1     -19.763 -16.184  -6.564  1.00  0.00     0.210 HD
ENDBRANCH  27  33
TORSDOF 2
ENDMDL
MODEL 8
REMARK VINA RESULT:    -5.958      1.481      2.135
REMARK INTER + INTRA:          -5.928
REMARK INTER:                  -6.486
REMARK INTRA:                   0.559
REMARK UNBOUND:                 0.552
REMARK SMILES C[C@H]1[C@H]2C3=CC[C@H]4[C@]5(C)CC[C@@H](O)C(C)(C)[C@@H]5CC[C@]4(C)[C@]3(C)CC[C@]2(C(=O)[O-])CC[C@@H]1C
REMARK SMILES IDX 26 1 30 2 25 3 3 4 31 5 24 6 4 7 2 8 32 9 22 10 5 11 1 12
REMARK SMILES IDX 33 13 23 14 20 15 6 16 7 17 19 18 21 19 8 20 18 21 17 22
REMARK SMILES IDX 10 23 9 24 14 25 11 26 12 27 15 28 16 29 27 30 28 31 29 32
REMARK SMILES IDX 13 33
REMARK H PARENT 13 34
REMARK Flexibility Score: inf
ROOT
ATOM      1  C   UNL     1     -23.204 -12.289  -2.723  1.00  0.00     0.017 C 
ATOM      2  C   UNL     1     -24.275 -13.408  -2.966  1.00  0.00     0.014 C 
ATOM      3  C   UNL     1     -22.691 -11.740  -4.083  1.00  0.00     0.014 C 
ATOM      4  C   UNL     1     -23.911 -11.088  -2.007  1.00  0.00     0.030 C 
ATOM      5  C   UNL     1     -25.386 -13.487  -1.883  1.00  0.00     0.004 C 
ATOM      6  C   UNL     1     -21.689 -10.550  -3.987  1.00  0.00     0.013 C 
ATOM      7  C   UNL     1     -23.243  -9.715  -2.182  1.00  0.00    -0.063 C 
ATOM      8  C   UNL     1     -24.585 -11.392  -0.630  1.00  0.00    -0.003 C 
ATOM      9  C   UNL     1     -24.981 -12.898  -0.509  1.00  0.00    -0.011 C 
ATOM     10  C   UNL     1     -21.787  -9.609  -2.714  1.00  0.00    -0.006 C 
ATOM     11  C   UNL     1     -24.100  -8.658  -2.204  1.00  0.00    -0.027 C 
ATOM     12  C   UNL     1     -23.799 -10.885   0.596  1.00  0.00     0.008 C 
ATOM     13  C   UNL     1     -26.130 -13.097   0.492  1.00  0.00     0.008 C 
ATOM     14  C   UNL     1     -20.792 -10.158  -1.632  1.00  0.00     0.017 C 
ATOM     15  C   UNL     1     -21.397  -8.066  -3.033  1.00  0.00    -0.020 C 
ATOM     16  C   UNL     1     -23.810  -7.325  -2.831  1.00  0.00     0.032 C 
ATOM     17  C   UNL     1     -22.604  -7.398  -3.794  1.00  0.00     0.006 C 
ATOM     18  C   UNL     1     -20.106  -7.980  -3.903  1.00  0.00     0.008 C 
ATOM     19  C   UNL     1     -21.123  -7.302  -1.686  1.00  0.00     0.012 C 
ATOM     20  C   UNL     1     -22.369  -6.058  -4.642  1.00  0.00    -0.025 C 
ATOM     21  C   UNL     1     -19.825  -6.573  -4.416  1.00  0.00     0.005 C 
ATOM     22  C   UNL     1     -20.941  -6.007  -5.331  1.00  0.00     0.003 C 
ATOM     23  C   UNL     1     -23.511  -5.977  -5.724  1.00  0.00     0.010 C 
ATOM     24  C   UNL     1     -22.512  -4.768  -3.770  1.00  0.00     0.012 C 
ATOM     25  C   UNL     1     -20.893  -6.406  -6.860  1.00  0.00    -0.006 C 
ATOM     26  C   UNL     1     -23.185  -5.099  -6.932  1.00  0.00     0.033 C 
ATOM     27  C   UNL     1     -21.851  -5.433  -7.648  1.00  0.00     0.120 C 
ATOM     28  C   UNL     1     -21.281  -7.887  -7.147  1.00  0.00     0.014 C 
ATOM     29  C   UNL     1     -19.456  -6.228  -7.436  1.00  0.00     0.014 C 
ENDROOT
BRANCH   1  30
ATOM     30  C   UNL     1     -22.043 -12.960  -1.999  1.00  0.00     0.048 C 
ATOM     31  O   UNL     1     -22.007 -13.065  -0.748  1.00  0.00    -0.550 OA
ATOM     32  O   UNL     1     -21.023 -13.547  -2.739  1.00  0.00    -0.550 OA
ENDBRANCH   1  30
BRANCH  27  33
ATOM     33  O   UNL     1     -21.190  -4.212  -7.906  1.00  0.00    -0.393 OA
ATOM     34  H   UNL     1     -21.432  -3.587  -7.176  1.00  0.00     0.210 HD
ENDBRANCH  27  33
TORSDOF 2
ENDMDL
MODEL 9
REMARK VINA RESULT:    -5.719      1.827      3.301
REMARK INTER + INTRA:          -5.669
REMARK INTER:                  -6.224
REMARK INTRA:                   0.555
REMARK UNBOUND:                 0.552
REMARK SMILES C[C@H]1[C@H]2C3=CC[C@H]4[C@]5(C)CC[C@@H](O)C(C)(C)[C@@H]5CC[C@]4(C)[C@]3(C)CC[C@]2(C(=O)[O-])CC[C@@H]1C
REMARK SMILES IDX 26 1 30 2 25 3 3 4 31 5 24 6 4 7 2 8 32 9 22 10 5 11 1 12
REMARK SMILES IDX 33 13 23 14 20 15 6 16 7 17 19 18 21 19 8 20 18 21 17 22
REMARK SMILES IDX 10 23 9 24 14 25 11 26 12 27 15 28 16 29 27 30 28 31 29 32
REMARK SMILES IDX 13 33
REMARK H PARENT 13 34
REMARK Flexibility Score: inf
ROOT
ATOM      1  C   UNL     1     -24.555  -9.953  -0.571  1.00  0.00     0.017 C 
ATOM      2  C   UNL     1     -25.807  -9.905   0.371  1.00  0.00     0.014 C 
ATOM      3  C   UNL     1     -24.869  -9.223  -1.907  1.00  0.00     0.014 C 
ATOM      4  C   UNL     1     -23.404  -9.138   0.110  1.00  0.00     0.030 C 
ATOM      5  C   UNL     1     -25.475  -9.847   1.888  1.00  0.00     0.004 C 
ATOM      6  C   UNL     1     -23.674  -9.111  -2.901  1.00  0.00     0.013 C 
ATOM      7  C   UNL     1     -22.329  -8.576  -0.833  1.00  0.00    -0.063 C 
ATOM      8  C   UNL     1     -22.941  -9.627   1.521  1.00  0.00    -0.003 C 
ATOM      9  C   UNL     1     -24.078 -10.405   2.257  1.00  0.00    -0.011 C 
ATOM     10  C   UNL     1     -22.209  -9.100  -2.291  1.00  0.00    -0.006 C 
ATOM     11  C   UNL     1     -21.783  -7.392  -0.443  1.00  0.00    -0.027 C 
ATOM     12  C   UNL     1     -21.599 -10.387   1.530  1.00  0.00     0.008 C 
ATOM     13  C   UNL     1     -23.895 -10.358   3.782  1.00  0.00     0.008 C 
ATOM     14  C   UNL     1     -21.683 -10.578  -2.277  1.00  0.00     0.017 C 
ATOM     15  C   UNL     1     -21.171  -8.194  -3.149  1.00  0.00    -0.020 C 
ATOM     16  C   UNL     1     -21.117  -6.406  -1.358  1.00  0.00     0.032 C 
ATOM     17  C   UNL     1     -21.463  -6.677  -2.838  1.00  0.00     0.006 C 
ATOM     18  C   UNL     1     -21.319  -8.462  -4.678  1.00  0.00     0.008 C 
ATOM     19  C   UNL     1     -19.695  -8.552  -2.737  1.00  0.00     0.012 C 
ATOM     20  C   UNL     1     -20.944  -5.542  -3.845  1.00  0.00    -0.025 C 
ATOM     21  C   UNL     1     -20.530  -7.481  -5.536  1.00  0.00     0.005 C 
ATOM     22  C   UNL     1     -20.970  -6.005  -5.362  1.00  0.00     0.003 C 
ATOM     23  C   UNL     1     -21.853  -4.273  -3.635  1.00  0.00     0.010 C 
ATOM     24  C   UNL     1     -19.484  -5.082  -3.523  1.00  0.00     0.012 C 
ATOM     25  C   UNL     1     -22.207  -5.515  -6.216  1.00  0.00    -0.006 C 
ATOM     26  C   UNL     1     -21.876  -3.302  -4.815  1.00  0.00     0.033 C 
ATOM     27  C   UNL     1     -22.227  -3.939  -6.185  1.00  0.00     0.120 C 
ATOM     28  C   UNL     1     -23.578  -6.077  -5.737  1.00  0.00     0.014 C 
ATOM     29  C   UNL     1     -22.066  -5.959  -7.703  1.00  0.00     0.014 C 
ENDROOT
BRANCH   1  30
ATOM     30  C   UNL     1     -24.300 -11.426  -0.869  1.00  0.00     0.048 C 
ATOM     31  O   UNL     1     -23.616 -12.152  -0.106  1.00  0.00    -0.550 OA
ATOM     32  O   UNL     1     -24.902 -12.015  -1.974  1.00  0.00    -0.550 OA
ENDBRANCH   1  30
BRANCH  27  33
ATOM     33  O   UNL     1     -21.318  -3.427  -7.137  1.00  0.00    -0.393 OA
ATOM     34  H   UNL     1     -21.827  -3.262  -7.970  1.00  0.00     0.210 HD
ENDBRANCH  27  33
TORSDOF 2
ENDMDL
