MODEL 1
REMARK VINA RESULT:    -3.645      0.000      0.000
REMARK INTER + INTRA:          -3.888
REMARK INTER:                  -4.391
REMARK INTRA:                   0.503
REMARK UNBOUND:                 0.503
REMARK SMILES O=c1c(O)c(-c2ccc(O)c(O)c2)oc2cc(O)cc(O)c12
REMARK SMILES IDX 5 1 3 2 2 3 1 4 22 5 20 6 19 7 17 8 16 9 15 10 14 11 6 12
REMARK SMILES IDX 7 13 8 14 9 15 13 16 11 17 10 18 12 20 4 22 21 24 18 26
REMARK H PARENT 10 19 12 21 4 23 21 25 18 27
REMARK Flexibility Score: inf
ROOT
ATOM      1  C   UNL     1      44.667  72.970 155.840  1.00  0.00     0.180 A 
ATOM      2  C   UNL     1      44.565  74.014 156.776  1.00  0.00     0.208 A 
ATOM      3  C   UNL     1      43.376  74.156 157.511  1.00  0.00     0.238 A 
ATOM      4  O   UNL     1      43.270  75.125 158.307  1.00  0.00    -0.285 OA
ATOM      5  C   UNL     1      42.313  73.243 157.312  1.00  0.00     0.111 A 
ATOM      6  C   UNL     1      41.079  73.268 158.031  1.00  0.00     0.134 A 
ATOM      7  C   UNL     1      40.046  72.397 157.660  1.00  0.00     0.093 A 
ATOM      8  C   UNL     1      40.225  71.461 156.643  1.00  0.00     0.123 A 
ATOM      9  C   UNL     1      41.448  71.387 155.975  1.00  0.00     0.094 A 
ATOM     10  C   UNL     1      42.484  72.267 156.297  1.00  0.00     0.146 A 
ATOM     11  O   UNL     1      43.628  72.171 155.630  1.00  0.00    -0.452 OA
ENDROOT
BRANCH   1  12
ATOM     12  C   UNL     1      45.896  72.742 155.046  1.00  0.00     0.025 A 
ATOM     13  C   UNL     1      46.883  73.738 154.998  1.00  0.00     0.016 A 
ATOM     14  C   UNL     1      48.041  73.553 154.238  1.00  0.00     0.051 A 
ATOM     15  C   UNL     1      48.220  72.373 153.503  1.00  0.00     0.157 A 
ATOM     16  C   UNL     1      46.071  71.569 154.290  1.00  0.00     0.062 A 
ATOM     17  C   UNL     1      47.232  71.381 153.525  1.00  0.00     0.158 A 
BRANCH  15  18
ATOM     18  O   UNL     1      49.374  72.184 152.745  1.00  0.00    -0.504 OA
ATOM     19  H   UNL     1      50.296  72.216 153.165  1.00  0.00     0.293 HD
ENDBRANCH  15  18
BRANCH  17  20
ATOM     20  O   UNL     1      47.408  70.216 152.782  1.00  0.00    -0.504 OA
ATOM     21  H   UNL     1      46.933  69.354 153.027  1.00  0.00     0.293 HD
ENDBRANCH  17  20
ENDBRANCH   1  12
BRANCH   2  22
ATOM     22  O   UNL     1      45.619  74.917 156.940  1.00  0.00    -0.502 OA
ATOM     23  H   UNL     1      45.478  75.920 156.960  1.00  0.00     0.293 HD
ENDBRANCH   2  22
BRANCH   6  24
ATOM     24  O   UNL     1      40.829  74.103 159.124  1.00  0.00    -0.507 OA
ATOM     25  H   UNL     1      40.989  75.099 159.135  1.00  0.00     0.293 HD
ENDBRANCH   6  24
BRANCH   8  26
ATOM     26  O   UNL     1      39.181  70.599 156.311  1.00  0.00    -0.508 OA
ATOM     27  H   UNL     1      39.107  69.675 156.720  1.00  0.00     0.293 HD
ENDBRANCH   8  26
TORSDOF 6
ENDMDL
MODEL 2
REMARK VINA RESULT:    -2.964      1.514      6.736
REMARK INTER + INTRA:          -3.068
REMARK INTER:                  -3.334
REMARK INTRA:                   0.266
REMARK UNBOUND:                 0.503
REMARK SMILES O=c1c(O)c(-c2ccc(O)c(O)c2)oc2cc(O)cc(O)c12
REMARK SMILES IDX 5 1 3 2 2 3 1 4 22 5 20 6 19 7 17 8 16 9 15 10 14 11 6 12
REMARK SMILES IDX 7 13 8 14 9 15 13 16 11 17 10 18 12 20 4 22 21 24 18 26
REMARK H PARENT 10 19 12 21 4 23 21 25 18 27
REMARK Flexibility Score: inf
ROOT
ATOM      1  C   UNL     1      45.223  72.728 155.677  1.00  0.00     0.180 A 
ATOM      2  C   UNL     1      45.978  73.910 155.768  1.00  0.00     0.208 A 
ATOM      3  C   UNL     1      47.069  74.089 154.902  1.00  0.00     0.238 A 
ATOM      4  O   UNL     1      47.774  75.124 155.024  1.00  0.00    -0.285 OA
ATOM      5  C   UNL     1      47.380  73.092 153.946  1.00  0.00     0.111 A 
ATOM      6  C   UNL     1      48.438  73.187 152.992  1.00  0.00     0.134 A 
ATOM      7  C   UNL     1      48.737  72.084 152.181  1.00  0.00     0.093 A 
ATOM      8  C   UNL     1      47.978  70.917 152.244  1.00  0.00     0.123 A 
ATOM      9  C   UNL     1      46.903  70.836 153.131  1.00  0.00     0.094 A 
ATOM     10  C   UNL     1      46.603  71.905 153.978  1.00  0.00     0.146 A 
ATOM     11  O   UNL     1      45.579  71.783 154.815  1.00  0.00    -0.452 OA
ENDROOT
BRANCH   1  12
ATOM     12  C   UNL     1      44.044  72.478 156.539  1.00  0.00     0.025 A 
ATOM     13  C   UNL     1      44.046  72.942 157.863  1.00  0.00     0.016 A 
ATOM     14  C   UNL     1      42.953  72.699 158.701  1.00  0.00     0.051 A 
ATOM     15  C   UNL     1      41.850  71.975 158.228  1.00  0.00     0.157 A 
ATOM     16  C   UNL     1      42.944  71.733 156.076  1.00  0.00     0.062 A 
ATOM     17  C   UNL     1      41.847  71.487 156.916  1.00  0.00     0.158 A 
BRANCH  15  18
ATOM     18  O   UNL     1      40.759  71.732 159.059  1.00  0.00    -0.504 OA
ATOM     19  H   UNL     1      40.602  72.273 159.902  1.00  0.00     0.293 HD
ENDBRANCH  15  18
BRANCH  17  20
ATOM     20  O   UNL     1      40.755  70.756 156.453  1.00  0.00    -0.504 OA
ATOM     21  H   UNL     1      40.731  70.373 155.515  1.00  0.00     0.293 HD
ENDBRANCH  17  20
ENDBRANCH   1  12
BRANCH   2  22
ATOM     22  O   UNL     1      45.667  74.871 156.734  1.00  0.00    -0.502 OA
ATOM     23  H   UNL     1      44.924  74.742 157.410  1.00  0.00     0.293 HD
ENDBRANCH   2  22
BRANCH   6  24
ATOM     24  O   UNL     1      49.200  74.340 152.784  1.00  0.00    -0.507 OA
ATOM     25  H   UNL     1      50.204  74.388 152.868  1.00  0.00     0.293 HD
ENDBRANCH   6  24
BRANCH   8  26
ATOM     26  O   UNL     1      48.294  69.846 151.411  1.00  0.00    -0.508 OA
ATOM     27  H   UNL     1      48.005  68.900 151.631  1.00  0.00     0.293 HD
ENDBRANCH   8  26
TORSDOF 6
ENDMDL
MODEL 3
REMARK VINA RESULT:    -2.836      1.047      1.632
REMARK INTER + INTRA:          -2.914
REMARK INTER:                  -2.959
REMARK INTRA:                   0.045
REMARK UNBOUND:                 0.503
REMARK SMILES O=c1c(O)c(-c2ccc(O)c(O)c2)oc2cc(O)cc(O)c12
REMARK SMILES IDX 5 1 3 2 2 3 1 4 22 5 20 6 19 7 17 8 16 9 15 10 14 11 6 12
REMARK SMILES IDX 7 13 8 14 9 15 13 16 11 17 10 18 12 20 4 22 21 24 18 26
REMARK H PARENT 10 19 12 21 4 23 21 25 18 27
REMARK Flexibility Score: inf
ROOT
ATOM      1  C   UNL     1      44.216  73.163 156.216  1.00  0.00     0.180 A 
ATOM      2  C   UNL     1      43.993  74.121 157.220  1.00  0.00     0.208 A 
ATOM      3  C   UNL     1      42.725  74.199 157.818  1.00  0.00     0.238 A 
ATOM      4  O   UNL     1      42.516  75.094 158.677  1.00  0.00    -0.285 OA
ATOM      5  C   UNL     1      41.701  73.308 157.415  1.00  0.00     0.111 A 
ATOM      6  C   UNL     1      40.390  73.271 157.981  1.00  0.00     0.134 A 
ATOM      7  C   UNL     1      39.418  72.437 157.416  1.00  0.00     0.093 A 
ATOM      8  C   UNL     1      39.725  71.593 156.349  1.00  0.00     0.123 A 
ATOM      9  C   UNL     1      41.019  71.577 155.828  1.00  0.00     0.094 A 
ATOM     10  C   UNL     1      42.001  72.425 156.346  1.00  0.00     0.146 A 
ATOM     11  O   UNL     1      43.217  72.387 155.814  1.00  0.00    -0.452 OA
ENDROOT
BRANCH   1  12
ATOM     12  C   UNL     1      45.533  73.004 155.557  1.00  0.00     0.025 A 
ATOM     13  C   UNL     1      46.116  71.730 155.476  1.00  0.00     0.016 A 
ATOM     14  C   UNL     1      47.368  71.560 154.878  1.00  0.00     0.051 A 
ATOM     15  C   UNL     1      48.059  72.665 154.365  1.00  0.00     0.157 A 
ATOM     16  C   UNL     1      46.241  74.113 155.059  1.00  0.00     0.062 A 
ATOM     17  C   UNL     1      47.498  73.945 154.460  1.00  0.00     0.158 A 
BRANCH  15  18
ATOM     18  O   UNL     1      49.307  72.499 153.766  1.00  0.00    -0.504 OA
ATOM     19  H   UNL     1      49.413  71.997 152.892  1.00  0.00     0.293 HD
ENDBRANCH  15  18
BRANCH  17  20
ATOM     20  O   UNL     1      48.195  75.043 153.961  1.00  0.00    -0.504 OA
ATOM     21  H   UNL     1      49.207  75.053 153.916  1.00  0.00     0.293 HD
ENDBRANCH  17  20
ENDBRANCH   1  12
BRANCH   2  22
ATOM     22  O   UNL     1      45.012  75.005 157.587  1.00  0.00    -0.502 OA
ATOM     23  H   UNL     1      45.004  75.510 158.465  1.00  0.00     0.293 HD
ENDBRANCH   2  22
BRANCH   6  24
ATOM     24  O   UNL     1      40.005  74.007 159.105  1.00  0.00    -0.507 OA
ATOM     25  H   UNL     1      39.302  74.731 159.105  1.00  0.00     0.293 HD
ENDBRANCH   6  24
BRANCH   8  26
ATOM     26  O   UNL     1      38.736  70.765 155.822  1.00  0.00    -0.508 OA
ATOM     27  H   UNL     1      37.764  71.050 155.795  1.00  0.00     0.293 HD
ENDBRANCH   8  26
TORSDOF 6
ENDMDL
MODEL 4
REMARK VINA RESULT:    -2.770      1.231      6.636
REMARK INTER + INTRA:          -2.834
REMARK INTER:                  -2.878
REMARK INTRA:                   0.044
REMARK UNBOUND:                 0.503
REMARK SMILES O=c1c(O)c(-c2ccc(O)c(O)c2)oc2cc(O)cc(O)c12
REMARK SMILES IDX 5 1 3 2 2 3 1 4 22 5 20 6 19 7 17 8 16 9 15 10 14 11 6 12
REMARK SMILES IDX 7 13 8 14 9 15 13 16 11 17 10 18 12 20 4 22 21 24 18 26
REMARK H PARENT 10 19 12 21 4 23 21 25 18 27
REMARK Flexibility Score: inf
ROOT
ATOM      1  C   UNL     1      43.534  72.754 156.561  1.00  0.00     0.180 A 
ATOM      2  C   UNL     1      44.268  73.918 156.852  1.00  0.00     0.208 A 
ATOM      3  C   UNL     1      45.515  74.109 156.234  1.00  0.00     0.238 A 
ATOM      4  O   UNL     1      46.191  75.125 156.540  1.00  0.00    -0.285 OA
ATOM      5  C   UNL     1      46.004  73.143 155.322  1.00  0.00     0.111 A 
ATOM      6  C   UNL     1      47.236  73.254 154.608  1.00  0.00     0.134 A 
ATOM      7  C   UNL     1      47.682  72.178 153.830  1.00  0.00     0.093 A 
ATOM      8  C   UNL     1      46.914  71.024 153.690  1.00  0.00     0.123 A 
ATOM      9  C   UNL     1      45.680  70.929 154.335  1.00  0.00     0.094 A 
ATOM     10  C   UNL     1      45.224  71.971 155.146  1.00  0.00     0.146 A 
ATOM     11  O   UNL     1      44.050  71.837 155.751  1.00  0.00    -0.452 OA
ENDROOT
BRANCH   1  12
ATOM     12  C   UNL     1      42.202  72.494 157.153  1.00  0.00     0.025 A 
ATOM     13  C   UNL     1      42.031  72.599 158.542  1.00  0.00     0.016 A 
ATOM     14  C   UNL     1      40.788  72.337 159.125  1.00  0.00     0.051 A 
ATOM     15  C   UNL     1      39.703  71.952 158.327  1.00  0.00     0.157 A 
ATOM     16  C   UNL     1      41.115  72.086 156.359  1.00  0.00     0.062 A 
ATOM     17  C   UNL     1      39.867  71.822 156.942  1.00  0.00     0.158 A 
BRANCH  15  18
ATOM     18  O   UNL     1      38.461  71.692 158.904  1.00  0.00    -0.504 OA
ATOM     19  H   UNL     1      37.607  72.086 158.526  1.00  0.00     0.293 HD
ENDBRANCH  15  18
BRANCH  17  20
ATOM     20  O   UNL     1      38.789  71.425 156.153  1.00  0.00    -0.504 OA
ATOM     21  H   UNL     1      38.822  70.579 155.597  1.00  0.00     0.293 HD
ENDBRANCH  17  20
ENDBRANCH   1  12
BRANCH   2  22
ATOM     22  O   UNL     1      43.776  74.847 157.772  1.00  0.00    -0.502 OA
ATOM     23  H   UNL     1      44.238  75.730 157.953  1.00  0.00     0.293 HD
ENDBRANCH   2  22
BRANCH   6  24
ATOM     24  O   UNL     1      48.036  74.400 154.607  1.00  0.00    -0.507 OA
ATOM     25  H   UNL     1      47.693  75.341 154.722  1.00  0.00     0.293 HD
ENDBRANCH   6  24
BRANCH   8  26
ATOM     26  O   UNL     1      47.382  69.979 152.895  1.00  0.00    -0.508 OA
ATOM     27  H   UNL     1      47.337  69.015 153.206  1.00  0.00     0.293 HD
ENDBRANCH   8  26
TORSDOF 6
ENDMDL
MODEL 5
REMARK VINA RESULT:    -2.680      1.481      2.257
REMARK INTER + INTRA:          -2.726
REMARK INTER:                  -2.986
REMARK INTRA:                   0.260
REMARK UNBOUND:                 0.503
REMARK SMILES O=c1c(O)c(-c2ccc(O)c(O)c2)oc2cc(O)cc(O)c12
REMARK SMILES IDX 5 1 3 2 2 3 1 4 22 5 20 6 19 7 17 8 16 9 15 10 14 11 6 12
REMARK SMILES IDX 7 13 8 14 9 15 13 16 11 17 10 18 12 20 4 22 21 24 18 26
REMARK H PARENT 10 19 12 21 4 23 21 25 18 27
REMARK Flexibility Score: inf
ROOT
ATOM      1  C   UNL     1      45.797  72.785 154.851  1.00  0.00     0.180 A 
ATOM      2  C   UNL     1      46.031  73.876 155.705  1.00  0.00     0.208 A 
ATOM      3  C   UNL     1      45.141  74.113 156.766  1.00  0.00     0.238 A 
ATOM      4  O   UNL     1      45.325  75.123 157.495  1.00  0.00    -0.285 OA
ATOM      5  C   UNL     1      44.040  73.247 156.969  1.00  0.00     0.111 A 
ATOM      6  C   UNL     1      43.099  73.369 158.036  1.00  0.00     0.134 A 
ATOM      7  C   UNL     1      41.974  72.534 158.063  1.00  0.00     0.093 A 
ATOM      8  C   UNL     1      41.791  71.542 157.101  1.00  0.00     0.123 A 
ATOM      9  C   UNL     1      42.736  71.375 156.088  1.00  0.00     0.094 A 
ATOM     10  C   UNL     1      43.849  72.215 156.013  1.00  0.00     0.146 A 
ATOM     11  O   UNL     1      44.719  72.030 155.027  1.00  0.00    -0.452 OA
ENDROOT
BRANCH   1  12
ATOM     12  C   UNL     1      46.702  72.456 153.726  1.00  0.00     0.025 A 
ATOM     13  C   UNL     1      46.923  71.113 153.385  1.00  0.00     0.016 A 
ATOM     14  C   UNL     1      47.790  70.779 152.342  1.00  0.00     0.051 A 
ATOM     15  C   UNL     1      48.461  71.785 151.634  1.00  0.00     0.157 A 
ATOM     16  C   UNL     1      47.395  73.461 153.027  1.00  0.00     0.062 A 
ATOM     17  C   UNL     1      48.267  73.128 151.980  1.00  0.00     0.158 A 
BRANCH  15  18
ATOM     18  O   UNL     1      49.325  71.457 150.592  1.00  0.00    -0.504 OA
ATOM     19  H   UNL     1      50.076  70.787 150.715  1.00  0.00     0.293 HD
ENDBRANCH  15  18
BRANCH  17  20
ATOM     20  O   UNL     1      48.946  74.125 151.283  1.00  0.00    -0.504 OA
ATOM     21  H   UNL     1      48.459  74.919 150.883  1.00  0.00     0.293 HD
ENDBRANCH  17  20
ENDBRANCH   1  12
BRANCH   2  22
ATOM     22  O   UNL     1      47.111  74.731 155.474  1.00  0.00    -0.502 OA
ATOM     23  H   UNL     1      47.674  75.112 156.225  1.00  0.00     0.293 HD
ENDBRANCH   2  22
BRANCH   6  24
ATOM     24  O   UNL     1      43.236  74.266 159.098  1.00  0.00    -0.507 OA
ATOM     25  H   UNL     1      42.483  74.564 159.700  1.00  0.00     0.293 HD
ENDBRANCH   6  24
BRANCH   8  26
ATOM     26  O   UNL     1      40.668  70.719 157.168  1.00  0.00    -0.508 OA
ATOM     27  H   UNL     1      39.900  70.816 156.514  1.00  0.00     0.293 HD
ENDBRANCH   8  26
TORSDOF 6
ENDMDL
MODEL 6
REMARK VINA RESULT:    -1.497      1.447      2.955
REMARK INTER + INTRA:          -1.301
REMARK INTER:                  -1.767
REMARK INTRA:                   0.466
REMARK UNBOUND:                 0.503
REMARK SMILES O=c1c(O)c(-c2ccc(O)c(O)c2)oc2cc(O)cc(O)c12
REMARK SMILES IDX 5 1 3 2 2 3 1 4 22 5 20 6 19 7 17 8 16 9 15 10 14 11 6 12
REMARK SMILES IDX 7 13 8 14 9 15 13 16 11 17 10 18 12 20 4 22 21 24 18 26
REMARK H PARENT 10 19 12 21 4 23 21 25 18 27
REMARK Flexibility Score: inf
ROOT
ATOM      1  C   UNL     1      43.910  72.851 156.075  1.00  0.00     0.180 A 
ATOM      2  C   UNL     1      43.429  71.553 155.829  1.00  0.00     0.208 A 
ATOM      3  C   UNL     1      42.136  71.213 156.260  1.00  0.00     0.238 A 
ATOM      4  O   UNL     1      41.732  70.033 156.085  1.00  0.00    -0.285 OA
ATOM      5  C   UNL     1      41.336  72.178 156.916  1.00  0.00     0.111 A 
ATOM      6  C   UNL     1      39.997  71.955 157.360  1.00  0.00     0.134 A 
ATOM      7  C   UNL     1      39.346  72.940 158.114  1.00  0.00     0.093 A 
ATOM      8  C   UNL     1      39.960  74.162 158.384  1.00  0.00     0.123 A 
ATOM      9  C   UNL     1      41.246  74.414 157.904  1.00  0.00     0.094 A 
ATOM     10  C   UNL     1      41.934  73.437 157.180  1.00  0.00     0.146 A 
ATOM     11  O   UNL     1      43.160  73.713 156.750  1.00  0.00    -0.452 OA
ENDROOT
BRANCH   1  12
ATOM     12  C   UNL     1      45.252  73.291 155.629  1.00  0.00     0.025 A 
ATOM     13  C   UNL     1      45.596  74.649 155.712  1.00  0.00     0.016 A 
ATOM     14  C   UNL     1      46.849  75.090 155.278  1.00  0.00     0.051 A 
ATOM     15  C   UNL     1      47.769  74.180 154.739  1.00  0.00     0.157 A 
ATOM     16  C   UNL     1      46.171  72.385 155.068  1.00  0.00     0.062 A 
ATOM     17  C   UNL     1      47.428  72.827 154.630  1.00  0.00     0.158 A 
BRANCH  15  18
ATOM     18  O   UNL     1      49.020  74.616 154.307  1.00  0.00    -0.504 OA
ATOM     19  H   UNL     1      49.130  75.151 153.453  1.00  0.00     0.293 HD
ENDBRANCH  15  18
BRANCH  17  20
ATOM     20  O   UNL     1      48.340  71.927 154.082  1.00  0.00    -0.504 OA
ATOM     21  H   UNL     1      48.239  70.926 154.208  1.00  0.00     0.293 HD
ENDBRANCH  17  20
ENDBRANCH   1  12
BRANCH   2  22
ATOM     22  O   UNL     1      44.244  70.608 155.199  1.00  0.00    -0.502 OA
ATOM     23  H   UNL     1      45.032  70.174 155.663  1.00  0.00     0.293 HD
ENDBRANCH   2  22
BRANCH   6  24
ATOM     24  O   UNL     1      39.259  70.805 157.065  1.00  0.00    -0.507 OA
ATOM     25  H   UNL     1      39.239  69.973 157.636  1.00  0.00     0.293 HD
ENDBRANCH   6  24
BRANCH   8  26
ATOM     26  O   UNL     1      39.277  75.125 159.124  1.00  0.00    -0.508 OA
ATOM     27  H   UNL     1      38.720  74.876 159.933  1.00  0.00     0.293 HD
ENDBRANCH   8  26
TORSDOF 6
ENDMDL
