MODEL 1
REMARK VINA RESULT:    13.775      0.000      0.000
REMARK INTER + INTRA:          24.387
REMARK INTER:                  25.049
REMARK INTRA:                  -0.662
REMARK UNBOUND:                -0.662
REMARK SMILES CCCCCCCCCCCCCCCC(=O)[O-]
REMARK SMILES IDX 9 1 10 2 11 3 12 4 13 5 14 6 15 7 16 8 17 9 18 10 8 11 7 12
REMARK SMILES IDX 6 13 5 14 4 15 3 16 2 17 1 18
REMARK H PARENT
REMARK Flexibility Score: inf
ROOT
ATOM      1  C   UNL     1      -6.051 -11.241  23.748  1.00  0.00     0.000 C 
ENDROOT
BRANCH   1   2
ATOM      2  C   UNL     1      -6.775 -12.513  24.213  1.00  0.00     0.000 C 
BRANCH   2   3
ATOM      3  C   UNL     1      -6.288 -12.945  25.603  1.00  0.00     0.000 C 
BRANCH   3   4
ATOM      4  C   UNL     1      -5.112 -13.926  25.493  1.00  0.00     0.000 C 
BRANCH   4   5
ATOM      5  C   UNL     1      -5.210 -15.085  26.499  1.00  0.00     0.000 C 
BRANCH   5   6
ATOM      6  C   UNL     1      -4.498 -16.357  26.008  1.00  0.00     0.006 C 
BRANCH   6   7
ATOM      7  C   UNL     1      -5.472 -17.527  25.814  1.00  0.00     0.053 C 
BRANCH   7   8
ATOM      8  C   UNL     1      -5.326 -18.157  24.463  1.00  0.00     0.041 C 
ATOM      9  O   UNL     1      -4.607 -17.612  23.584  1.00  0.00    -0.550 OA
ATOM     10  O   UNL     1      -5.960 -19.361  24.185  1.00  0.00    -0.550 OA
ENDBRANCH   7   8
ENDBRANCH   6   7
ENDBRANCH   5   6
ENDBRANCH   4   5
ENDBRANCH   3   4
ENDBRANCH   2   3
ENDBRANCH   1   2
BRANCH   1  11
ATOM     11  C   UNL     1      -5.791 -10.246  24.893  1.00  0.00     0.000 C 
BRANCH  11  12
ATOM     12  C   UNL     1      -5.043  -8.964  24.484  1.00  0.00    -0.000 C 
BRANCH  12  13
ATOM     13  C   UNL     1      -3.705  -8.789  25.216  1.00  0.00    -0.000 C 
BRANCH  13  14
ATOM     14  C   UNL     1      -2.541  -8.701  24.217  1.00  0.00    -0.000 C 
BRANCH  14  15
ATOM     15  C   UNL     1      -1.185  -9.052  24.851  1.00  0.00    -0.000 C 
BRANCH  15  16
ATOM     16  C   UNL     1      -0.268  -7.825  25.001  1.00  0.00    -0.000 C 
BRANCH  16  17
ATOM     17  C   UNL     1       0.480  -7.810  26.343  1.00  0.00    -0.003 C 
ATOM     18  C   UNL     1       0.658  -9.206  26.939  1.00  0.00     0.004 C 
ENDBRANCH  16  17
ENDBRANCH  15  16
ENDBRANCH  14  15
ENDBRANCH  13  14
ENDBRANCH  12  13
ENDBRANCH  11  12
ENDBRANCH   1  11
TORSDOF 14
ENDMDL
MODEL 2
REMARK VINA RESULT:    14.204      3.911      8.451
REMARK INTER + INTRA:          25.168
REMARK INTER:                  25.886
REMARK INTRA:                  -0.718
REMARK UNBOUND:                -0.662
REMARK SMILES CCCCCCCCCCCCCCCC(=O)[O-]
REMARK SMILES IDX 9 1 10 2 11 3 12 4 13 5 14 6 15 7 16 8 17 9 18 10 8 11 7 12
REMARK SMILES IDX 6 13 5 14 4 15 3 16 2 17 1 18
REMARK H PARENT
REMARK Flexibility Score: inf
ROOT
ATOM      1  C   UNL     1      -5.847 -11.170  23.761  1.00  0.00     0.000 C 
ENDROOT
BRANCH   1   2
ATOM      2  C   UNL     1      -5.757 -10.197  24.946  1.00  0.00     0.000 C 
BRANCH   2   3
ATOM      3  C   UNL     1      -5.090  -8.881  24.526  1.00  0.00     0.000 C 
BRANCH   3   4
ATOM      4  C   UNL     1      -3.612  -8.857  24.945  1.00  0.00     0.000 C 
BRANCH   4   5
ATOM      5  C   UNL     1      -2.674  -8.467  23.790  1.00  0.00     0.000 C 
BRANCH   5   6
ATOM      6  C   UNL     1      -1.208  -8.334  24.238  1.00  0.00     0.006 C 
BRANCH   6   7
ATOM      7  C   UNL     1      -0.916  -9.140  25.510  1.00  0.00     0.053 C 
BRANCH   7   8
ATOM      8  C   UNL     1       0.223  -8.560  26.290  1.00  0.00     0.041 C 
ATOM      9  O   UNL     1       0.855  -9.272  27.115  1.00  0.00    -0.550 OA
ATOM     10  O   UNL     1       0.607  -7.241  26.085  1.00  0.00    -0.550 OA
ENDBRANCH   7   8
ENDBRANCH   6   7
ENDBRANCH   5   6
ENDBRANCH   4   5
ENDBRANCH   3   4
ENDBRANCH   2   3
ENDBRANCH   1   2
BRANCH   1  11
ATOM     11  C   UNL     1      -6.536 -12.498  24.126  1.00  0.00     0.000 C 
BRANCH  11  12
ATOM     12  C   UNL     1      -6.178 -13.056  25.515  1.00  0.00    -0.000 C 
BRANCH  12  13
ATOM     13  C   UNL     1      -5.108 -14.156  25.464  1.00  0.00    -0.000 C 
BRANCH  13  14
ATOM     14  C   UNL     1      -5.054 -14.929  26.790  1.00  0.00    -0.000 C 
BRANCH  14  15
ATOM     15  C   UNL     1      -5.039 -16.453  26.590  1.00  0.00    -0.000 C 
BRANCH  15  16
ATOM     16  C   UNL     1      -4.923 -16.854  25.109  1.00  0.00    -0.000 C 
BRANCH  16  17
ATOM     17  C   UNL     1      -5.359 -18.305  24.855  1.00  0.00    -0.003 C 
ATOM     18  C   UNL     1      -5.943 -18.514  23.459  1.00  0.00     0.004 C 
ENDBRANCH  16  17
ENDBRANCH  15  16
ENDBRANCH  14  15
ENDBRANCH  13  14
ENDBRANCH  12  13
ENDBRANCH  11  12
ENDBRANCH   1  11
TORSDOF 14
ENDMDL
MODEL 3
REMARK VINA RESULT:    15.282      1.813      2.948
REMARK INTER + INTRA:          27.127
REMARK INTER:                  27.861
REMARK INTRA:                  -0.734
REMARK UNBOUND:                -0.662
REMARK SMILES CCCCCCCCCCCCCCCC(=O)[O-]
REMARK SMILES IDX 9 1 10 2 11 3 12 4 13 5 14 6 15 7 16 8 17 9 18 10 8 11 7 12
REMARK SMILES IDX 6 13 5 14 4 15 3 16 2 17 1 18
REMARK H PARENT
REMARK Flexibility Score: inf
ROOT
ATOM      1  C   UNL     1      -5.859 -11.058  23.750  1.00  0.00     0.000 C 
ENDROOT
BRANCH   1   2
ATOM      2  C   UNL     1      -6.873 -12.154  24.112  1.00  0.00     0.000 C 
BRANCH   2   3
ATOM      3  C   UNL     1      -6.496 -12.834  25.435  1.00  0.00     0.000 C 
BRANCH   3   4
ATOM      4  C   UNL     1      -5.370 -13.858  25.224  1.00  0.00     0.000 C 
BRANCH   4   5
ATOM      5  C   UNL     1      -5.002 -14.609  26.514  1.00  0.00     0.000 C 
BRANCH   5   6
ATOM      6  C   UNL     1      -5.134 -16.135  26.370  1.00  0.00     0.006 C 
BRANCH   6   7
ATOM      7  C   UNL     1      -4.374 -16.669  25.148  1.00  0.00     0.053 C 
BRANCH   7   8
ATOM      8  C   UNL     1      -5.066 -17.843  24.529  1.00  0.00     0.041 C 
ATOM      9  O   UNL     1      -5.040 -18.007  23.280  1.00  0.00    -0.550 OA
ATOM     10  O   UNL     1      -5.714 -18.773  25.332  1.00  0.00    -0.550 OA
ENDBRANCH   7   8
ENDBRANCH   6   7
ENDBRANCH   5   6
ENDBRANCH   4   5
ENDBRANCH   3   4
ENDBRANCH   2   3
ENDBRANCH   1   2
BRANCH   1  11
ATOM     11  C   UNL     1      -5.701  -9.998  24.855  1.00  0.00     0.000 C 
BRANCH  11  12
ATOM     12  C   UNL     1      -4.801  -8.804  24.487  1.00  0.00    -0.000 C 
BRANCH  12  13
ATOM     13  C   UNL     1      -3.370  -8.941  25.028  1.00  0.00    -0.000 C 
BRANCH  13  14
ATOM     14  C   UNL     1      -2.341  -8.532  23.964  1.00  0.00    -0.000 C 
BRANCH  14  15
ATOM     15  C   UNL     1      -2.775  -7.295  23.160  1.00  0.00    -0.000 C 
BRANCH  15  16
ATOM     16  C   UNL     1      -2.377  -7.385  21.676  1.00  0.00    -0.000 C 
BRANCH  16  17
ATOM     17  C   UNL     1      -3.545  -7.059  20.733  1.00  0.00    -0.003 C 
ATOM     18  C   UNL     1      -3.202  -7.290  19.261  1.00  0.00     0.004 C 
ENDBRANCH  16  17
ENDBRANCH  15  16
ENDBRANCH  14  15
ENDBRANCH  13  14
ENDBRANCH  12  13
ENDBRANCH  11  12
ENDBRANCH   1  11
TORSDOF 14
ENDMDL
MODEL 4
REMARK VINA RESULT:    16.248      4.299      7.918
REMARK INTER + INTRA:          28.885
REMARK INTER:                  29.506
REMARK INTRA:                  -0.621
REMARK UNBOUND:                -0.662
REMARK SMILES CCCCCCCCCCCCCCCC(=O)[O-]
REMARK SMILES IDX 9 1 10 2 11 3 12 4 13 5 14 6 15 7 16 8 17 9 18 10 8 11 7 12
REMARK SMILES IDX 6 13 5 14 4 15 3 16 2 17 1 18
REMARK H PARENT
REMARK Flexibility Score: inf
ROOT
ATOM      1  C   UNL     1      -7.206 -13.037  22.895  1.00  0.00     0.000 C 
ENDROOT
BRANCH   1   2
ATOM      2  C   UNL     1      -6.568 -12.115  23.945  1.00  0.00     0.000 C 
BRANCH   2   3
ATOM      3  C   UNL     1      -6.323 -12.866  25.260  1.00  0.00     0.000 C 
BRANCH   3   4
ATOM      4  C   UNL     1      -5.406 -14.079  25.037  1.00  0.00     0.000 C 
BRANCH   4   5
ATOM      5  C   UNL     1      -5.163 -14.883  26.324  1.00  0.00     0.000 C 
BRANCH   5   6
ATOM      6  C   UNL     1      -4.418 -16.204  26.065  1.00  0.00     0.006 C 
BRANCH   6   7
ATOM      7  C   UNL     1      -5.380 -17.391  25.914  1.00  0.00     0.053 C 
BRANCH   7   8
ATOM      8  C   UNL     1      -5.248 -18.049  24.575  1.00  0.00     0.041 C 
ATOM      9  O   UNL     1      -4.513 -17.539  23.688  1.00  0.00    -0.550 OA
ATOM     10  O   UNL     1      -5.911 -19.242  24.318  1.00  0.00    -0.550 OA
ENDBRANCH   7   8
ENDBRANCH   6   7
ENDBRANCH   5   6
ENDBRANCH   4   5
ENDBRANCH   3   4
ENDBRANCH   2   3
ENDBRANCH   1   2
BRANCH   1  11
ATOM     11  C   UNL     1      -8.024 -12.270  21.841  1.00  0.00     0.000 C 
BRANCH  11  12
ATOM     12  C   UNL     1      -9.054 -13.119  21.073  1.00  0.00    -0.000 C 
BRANCH  12  13
ATOM     13  C   UNL     1      -8.420 -13.985  19.975  1.00  0.00    -0.000 C 
BRANCH  13  14
ATOM     14  C   UNL     1      -8.989 -13.625  18.595  1.00  0.00    -0.000 C 
BRANCH  14  15
ATOM     15  C   UNL     1      -8.696 -14.696  17.532  1.00  0.00    -0.000 C 
BRANCH  15  16
ATOM     16  C   UNL     1      -9.858 -15.689  17.357  1.00  0.00    -0.000 C 
BRANCH  16  17
ATOM     17  C   UNL     1      -9.759 -16.885  18.317  1.00  0.00    -0.003 C 
ATOM     18  C   UNL     1      -9.845 -18.231  17.598  1.00  0.00     0.004 C 
ENDBRANCH  16  17
ENDBRANCH  15  16
ENDBRANCH  14  15
ENDBRANCH  13  14
ENDBRANCH  12  13
ENDBRANCH  11  12
ENDBRANCH   1  11
TORSDOF 14
ENDMDL
