MODEL 1
REMARK VINA RESULT:    -4.382      0.000      0.000
REMARK INTER + INTRA:          -9.154
REMARK INTER:                  -7.456
REMARK INTRA:                  -1.697
REMARK UNBOUND:                -1.697
REMARK SMILES CCCCCCCCCCCCCC(=O)[O-]
REMARK SMILES IDX 8 1 9 2 10 3 11 4 12 5 13 6 14 7 15 8 16 9 7 10 6 11 5 12
REMARK SMILES IDX 4 13 3 14 2 15 1 16
REMARK H PARENT
REMARK Flexibility Score: inf
ROOT
ATOM      1  C   UNL     1      14.358 -32.451  24.018  1.00  0.00     0.000 C 
ENDROOT
BRANCH   1   2
ATOM      2  C   UNL     1      14.991 -33.622  23.245  1.00  0.00     0.000 C 
BRANCH   2   3
ATOM      3  C   UNL     1      14.824 -33.482  21.725  1.00  0.00     0.000 C 
BRANCH   3   4
ATOM      4  C   UNL     1      15.743 -34.435  20.940  1.00  0.00     0.000 C 
BRANCH   4   5
ATOM      5  C   UNL     1      16.828 -35.077  21.824  1.00  0.00     0.006 C 
BRANCH   5   6
ATOM      6  C   UNL     1      18.184 -35.259  21.126  1.00  0.00     0.053 C 
BRANCH   6   7
ATOM      7  C   UNL     1      18.037 -35.430  19.645  1.00  0.00     0.041 C 
ATOM      8  O   UNL     1      18.361 -34.496  18.865  1.00  0.00    -0.550 OA
ATOM      9  O   UNL     1      17.576 -36.632  19.125  1.00  0.00    -0.550 OA
ENDBRANCH   6   7
ENDBRANCH   5   6
ENDBRANCH   4   5
ENDBRANCH   3   4
ENDBRANCH   2   3
ENDBRANCH   1   2
BRANCH   1  10
ATOM     10  C   UNL     1      13.550 -31.510  23.110  1.00  0.00     0.000 C 
BRANCH  10  11
ATOM     11  C   UNL     1      13.446 -30.085  23.682  1.00  0.00    -0.000 C 
BRANCH  11  12
ATOM     12  C   UNL     1      14.288 -29.070  22.892  1.00  0.00    -0.000 C 
BRANCH  12  13
ATOM     13  C   UNL     1      15.148 -29.739  21.805  1.00  0.00    -0.000 C 
BRANCH  13  14
ATOM     14  C   UNL     1      16.659 -29.613  22.076  1.00  0.00    -0.000 C 
BRANCH  14  15
ATOM     15  C   UNL     1      17.408 -30.949  22.218  1.00  0.00    -0.003 C 
ATOM     16  C   UNL     1      17.960 -31.470  20.891  1.00  0.00     0.004 C 
ENDBRANCH  14  15
ENDBRANCH  13  14
ENDBRANCH  12  13
ENDBRANCH  11  12
ENDBRANCH  10  11
ENDBRANCH   1  10
TORSDOF 12
ENDMDL
MODEL 2
REMARK VINA RESULT:    -4.347      3.706      6.181
REMARK INTER + INTRA:          -9.094
REMARK INTER:                  -7.635
REMARK INTRA:                  -1.459
REMARK UNBOUND:                -1.697
REMARK SMILES CCCCCCCCCCCCCC(=O)[O-]
REMARK SMILES IDX 8 1 9 2 10 3 11 4 12 5 13 6 14 7 15 8 16 9 7 10 6 11 5 12
REMARK SMILES IDX 4 13 3 14 2 15 1 16
REMARK H PARENT
REMARK Flexibility Score: inf
ROOT
ATOM      1  C   UNL     1      17.236 -31.303  23.126  1.00  0.00     0.000 C 
ENDROOT
BRANCH   1   2
ATOM      2  C   UNL     1      16.613 -32.433  23.965  1.00  0.00     0.000 C 
BRANCH   2   3
ATOM      3  C   UNL     1      15.301 -32.958  23.363  1.00  0.00     0.000 C 
BRANCH   3   4
ATOM      4  C   UNL     1      14.059 -32.311  24.002  1.00  0.00     0.000 C 
BRANCH   4   5
ATOM      5  C   UNL     1      13.404 -31.254  23.093  1.00  0.00     0.006 C 
BRANCH   5   6
ATOM      6  C   UNL     1      13.272 -29.865  23.736  1.00  0.00     0.053 C 
BRANCH   6   7
ATOM      7  C   UNL     1      12.004 -29.177  23.335  1.00  0.00     0.041 C 
ATOM      8  O   UNL     1      11.288 -29.655  22.415  1.00  0.00    -0.550 OA
ATOM      9  O   UNL     1      11.594 -28.029  24.000  1.00  0.00    -0.550 OA
ENDBRANCH   6   7
ENDBRANCH   5   6
ENDBRANCH   4   5
ENDBRANCH   3   4
ENDBRANCH   2   3
ENDBRANCH   1   2
BRANCH   1  10
ATOM     10  C   UNL     1      16.798 -31.347  21.654  1.00  0.00     0.000 C 
BRANCH  10  11
ATOM     11  C   UNL     1      17.992 -31.413  20.685  1.00  0.00    -0.000 C 
BRANCH  11  12
ATOM     12  C   UNL     1      19.038 -32.458  21.109  1.00  0.00    -0.000 C 
BRANCH  12  13
ATOM     13  C   UNL     1      18.578 -33.898  20.827  1.00  0.00    -0.000 C 
BRANCH  13  14
ATOM     14  C   UNL     1      17.884 -34.047  19.460  1.00  0.00    -0.000 C 
BRANCH  14  15
ATOM     15  C   UNL     1      16.676 -35.000  19.444  1.00  0.00    -0.003 C 
ATOM     16  C   UNL     1      15.400 -34.358  19.987  1.00  0.00     0.004 C 
ENDBRANCH  14  15
ENDBRANCH  13  14
ENDBRANCH  12  13
ENDBRANCH  11  12
ENDBRANCH  10  11
ENDBRANCH   1  10
TORSDOF 12
ENDMDL
MODEL 3
REMARK VINA RESULT:    -4.319      3.060      5.845
REMARK INTER + INTRA:          -9.046
REMARK INTER:                  -6.930
REMARK INTRA:                  -2.116
REMARK UNBOUND:                -1.697
REMARK SMILES CCCCCCCCCCCCCC(=O)[O-]
REMARK SMILES IDX 8 1 9 2 10 3 11 4 12 5 13 6 14 7 15 8 16 9 7 10 6 11 5 12
REMARK SMILES IDX 4 13 3 14 2 15 1 16
REMARK H PARENT
REMARK Flexibility Score: inf
ROOT
ATOM      1  C   UNL     1      18.634 -33.856  20.744  1.00  0.00     0.000 C 
ENDROOT
BRANCH   1   2
ATOM      2  C   UNL     1      19.091 -32.404  20.971  1.00  0.00     0.000 C 
BRANCH   2   3
ATOM      3  C   UNL     1      17.984 -31.384  20.661  1.00  0.00     0.000 C 
BRANCH   3   4
ATOM      4  C   UNL     1      17.356 -30.790  21.934  1.00  0.00     0.000 C 
BRANCH   4   5
ATOM      5  C   UNL     1      15.871 -30.428  21.752  1.00  0.00     0.006 C 
BRANCH   5   6
ATOM      6  C   UNL     1      15.126 -30.143  23.065  1.00  0.00     0.053 C 
BRANCH   6   7
ATOM      7  C   UNL     1      13.647 -30.335  22.926  1.00  0.00     0.041 C 
ATOM      8  O   UNL     1      13.183 -31.009  21.969  1.00  0.00    -0.550 OA
ATOM      9  O   UNL     1      12.784 -29.801  23.874  1.00  0.00    -0.550 OA
ENDBRANCH   6   7
ENDBRANCH   5   6
ENDBRANCH   4   5
ENDBRANCH   3   4
ENDBRANCH   2   3
ENDBRANCH   1   2
BRANCH   1  10
ATOM     10  C   UNL     1      17.991 -34.067  19.364  1.00  0.00     0.000 C 
BRANCH  10  11
ATOM     11  C   UNL     1      16.540 -34.571  19.460  1.00  0.00    -0.000 C 
BRANCH  11  12
ATOM     12  C   UNL     1      16.136 -34.933  20.899  1.00  0.00    -0.000 C 
BRANCH  12  13
ATOM     13  C   UNL     1      15.098 -33.958  21.482  1.00  0.00    -0.000 C 
BRANCH  13  14
ATOM     14  C   UNL     1      15.133 -33.897  23.020  1.00  0.00    -0.000 C 
BRANCH  14  15
ATOM     15  C   UNL     1      16.426 -34.427  23.664  1.00  0.00    -0.003 C 
ATOM     16  C   UNL     1      17.179 -33.362  24.458  1.00  0.00     0.004 C 
ENDBRANCH  14  15
ENDBRANCH  13  14
ENDBRANCH  12  13
ENDBRANCH  11  12
ENDBRANCH  10  11
ENDBRANCH   1  10
TORSDOF 12
ENDMDL
MODEL 4
REMARK VINA RESULT:    -4.316      4.060      6.199
REMARK INTER + INTRA:          -9.041
REMARK INTER:                  -7.540
REMARK INTRA:                  -1.500
REMARK UNBOUND:                -1.697
REMARK SMILES CCCCCCCCCCCCCC(=O)[O-]
REMARK SMILES IDX 8 1 9 2 10 3 11 4 12 5 13 6 14 7 15 8 16 9 7 10 6 11 5 12
REMARK SMILES IDX 4 13 3 14 2 15 1 16
REMARK H PARENT
REMARK Flexibility Score: inf
ROOT
ATOM      1  C   UNL     1      15.016 -33.852  21.769  1.00  0.00     0.000 C 
ENDROOT
BRANCH   1   2
ATOM      2  C   UNL     1      14.239 -32.864  20.882  1.00  0.00     0.000 C 
BRANCH   2   3
ATOM      3  C   UNL     1      13.795 -31.609  21.648  1.00  0.00     0.000 C 
BRANCH   3   4
ATOM      4  C   UNL     1      13.860 -31.796  23.175  1.00  0.00     0.000 C 
BRANCH   4   5
ATOM      5  C   UNL     1      13.343 -30.569  23.947  1.00  0.00     0.006 C 
BRANCH   5   6
ATOM      6  C   UNL     1      13.542 -29.233  23.214  1.00  0.00     0.053 C 
BRANCH   6   7
ATOM      7  C   UNL     1      12.671 -28.149  23.771  1.00  0.00     0.041 C 
ATOM      8  O   UNL     1      13.189 -27.113  24.267  1.00  0.00    -0.550 OA
ATOM      9  O   UNL     1      11.289 -28.267  23.711  1.00  0.00    -0.550 OA
ENDBRANCH   6   7
ENDBRANCH   5   6
ENDBRANCH   4   5
ENDBRANCH   3   4
ENDBRANCH   2   3
ENDBRANCH   1   2
BRANCH   1  10
ATOM     10  C   UNL     1      15.857 -34.846  20.953  1.00  0.00     0.000 C 
BRANCH  10  11
ATOM     11  C   UNL     1      16.601 -34.172  19.787  1.00  0.00    -0.000 C 
BRANCH  11  12
ATOM     12  C   UNL     1      18.005 -33.685  20.187  1.00  0.00    -0.000 C 
BRANCH  12  13
ATOM     13  C   UNL     1      18.041 -32.177  20.486  1.00  0.00    -0.000 C 
BRANCH  13  14
ATOM     14  C   UNL     1      18.414 -31.866  21.947  1.00  0.00    -0.000 C 
BRANCH  14  15
ATOM     15  C   UNL     1      17.323 -31.144  22.758  1.00  0.00    -0.003 C 
ATOM     16  C   UNL     1      17.635 -31.076  24.252  1.00  0.00     0.004 C 
ENDBRANCH  14  15
ENDBRANCH  13  14
ENDBRANCH  12  13
ENDBRANCH  11  12
ENDBRANCH  10  11
ENDBRANCH   1  10
TORSDOF 12
ENDMDL
MODEL 5
REMARK VINA RESULT:    -4.295      4.108      5.717
REMARK INTER + INTRA:          -9.005
REMARK INTER:                  -7.136
REMARK INTRA:                  -1.869
REMARK UNBOUND:                -1.697
REMARK SMILES CCCCCCCCCCCCCC(=O)[O-]
REMARK SMILES IDX 8 1 9 2 10 3 11 4 12 5 13 6 14 7 15 8 16 9 7 10 6 11 5 12
REMARK SMILES IDX 4 13 3 14 2 15 1 16
REMARK H PARENT
REMARK Flexibility Score: inf
ROOT
ATOM      1  C   UNL     1      15.286 -34.216  22.156  1.00  0.00     0.000 C 
ENDROOT
BRANCH   1   2
ATOM      2  C   UNL     1      15.005 -33.150  21.082  1.00  0.00     0.000 C 
BRANCH   2   3
ATOM      3  C   UNL     1      13.914 -32.157  21.510  1.00  0.00     0.000 C 
BRANCH   3   4
ATOM      4  C   UNL     1      14.409 -30.700  21.509  1.00  0.00     0.000 C 
BRANCH   4   5
ATOM      5  C   UNL     1      14.356 -30.052  22.905  1.00  0.00     0.006 C 
BRANCH   5   6
ATOM      6  C   UNL     1      13.009 -30.218  23.626  1.00  0.00     0.053 C 
BRANCH   6   7
ATOM      7  C   UNL     1      12.317 -28.906  23.835  1.00  0.00     0.041 C 
ATOM      8  O   UNL     1      12.874 -27.996  24.503  1.00  0.00    -0.550 OA
ATOM      9  O   UNL     1      11.073 -28.676  23.261  1.00  0.00    -0.550 OA
ENDBRANCH   6   7
ENDBRANCH   5   6
ENDBRANCH   4   5
ENDBRANCH   3   4
ENDBRANCH   2   3
ENDBRANCH   1   2
BRANCH   1  10
ATOM     10  C   UNL     1      15.033 -33.702  23.582  1.00  0.00     0.000 C 
BRANCH  10  11
ATOM     11  C   UNL     1      16.304 -33.718  24.449  1.00  0.00    -0.000 C 
BRANCH  11  12
ATOM     12  C   UNL     1      17.530 -33.159  23.708  1.00  0.00    -0.000 C 
BRANCH  12  13
ATOM     13  C   UNL     1      17.597 -31.622  23.756  1.00  0.00    -0.000 C 
BRANCH  13  14
ATOM     14  C   UNL     1      17.960 -30.996  22.397  1.00  0.00    -0.000 C 
BRANCH  14  15
ATOM     15  C   UNL     1      18.514 -31.982  21.354  1.00  0.00    -0.003 C 
ATOM     16  C   UNL     1      19.961 -31.688  20.961  1.00  0.00     0.004 C 
ENDBRANCH  14  15
ENDBRANCH  13  14
ENDBRANCH  12  13
ENDBRANCH  11  12
ENDBRANCH  10  11
ENDBRANCH   1  10
TORSDOF 12
ENDMDL
MODEL 6
REMARK VINA RESULT:    -4.277      2.840      5.578
REMARK INTER + INTRA:          -8.975
REMARK INTER:                  -7.291
REMARK INTRA:                  -1.683
REMARK UNBOUND:                -1.697
REMARK SMILES CCCCCCCCCCCCCC(=O)[O-]
REMARK SMILES IDX 8 1 9 2 10 3 11 4 12 5 13 6 14 7 15 8 16 9 7 10 6 11 5 12
REMARK SMILES IDX 4 13 3 14 2 15 1 16
REMARK H PARENT
REMARK Flexibility Score: inf
ROOT
ATOM      1  C   UNL     1      18.501 -34.017  23.080  1.00  0.00     0.000 C 
ENDROOT
BRANCH   1   2
ATOM      2  C   UNL     1      17.344 -35.006  23.306  1.00  0.00     0.000 C 
BRANCH   2   3
ATOM      3  C   UNL     1      16.175 -34.378  24.079  1.00  0.00     0.000 C 
BRANCH   3   4
ATOM      4  C   UNL     1      15.189 -33.637  23.159  1.00  0.00     0.000 C 
BRANCH   4   5
ATOM      5  C   UNL     1      14.767 -32.267  23.720  1.00  0.00     0.006 C 
BRANCH   5   6
ATOM      6  C   UNL     1      13.542 -31.652  23.025  1.00  0.00     0.053 C 
BRANCH   6   7
ATOM      7  C   UNL     1      13.839 -31.250  21.613  1.00  0.00     0.041 C 
ATOM      8  O   UNL     1      14.802 -30.478  21.363  1.00  0.00    -0.550 OA
ATOM      9  O   UNL     1      13.075 -31.757  20.570  1.00  0.00    -0.550 OA
ENDBRANCH   6   7
ENDBRANCH   5   6
ENDBRANCH   4   5
ENDBRANCH   3   4
ENDBRANCH   2   3
ENDBRANCH   1   2
BRANCH   1  10
ATOM     10  C   UNL     1      19.130 -34.148  21.684  1.00  0.00     0.000 C 
BRANCH  10  11
ATOM     11  C   UNL     1      18.483 -33.204  20.655  1.00  0.00    -0.000 C 
BRANCH  11  12
ATOM     12  C   UNL     1      17.865 -33.962  19.468  1.00  0.00    -0.000 C 
BRANCH  12  13
ATOM     13  C   UNL     1      16.394 -34.341  19.713  1.00  0.00    -0.000 C 
BRANCH  13  14
ATOM     14  C   UNL     1      16.180 -35.861  19.832  1.00  0.00    -0.000 C 
BRANCH  14  15
ATOM     15  C   UNL     1      17.411 -36.720  19.494  1.00  0.00    -0.003 C 
ATOM     16  C   UNL     1      17.918 -37.533  20.685  1.00  0.00     0.004 C 
ENDBRANCH  14  15
ENDBRANCH  13  14
ENDBRANCH  12  13
ENDBRANCH  11  12
ENDBRANCH  10  11
ENDBRANCH   1  10
TORSDOF 12
ENDMDL
MODEL 7
REMARK VINA RESULT:    -4.270      1.406      3.267
REMARK INTER + INTRA:          -8.963
REMARK INTER:                  -7.617
REMARK INTRA:                  -1.346
REMARK UNBOUND:                -1.697
REMARK SMILES CCCCCCCCCCCCCC(=O)[O-]
REMARK SMILES IDX 8 1 9 2 10 3 11 4 12 5 13 6 14 7 15 8 16 9 7 10 6 11 5 12
REMARK SMILES IDX 4 13 3 14 2 15 1 16
REMARK H PARENT
REMARK Flexibility Score: inf
ROOT
ATOM      1  C   UNL     1      16.707 -32.193  24.058  1.00  0.00     0.000 C 
ENDROOT
BRANCH   1   2
ATOM      2  C   UNL     1      15.935 -33.520  23.944  1.00  0.00     0.000 C 
BRANCH   2   3
ATOM      3  C   UNL     1      16.859 -34.716  23.667  1.00  0.00     0.000 C 
BRANCH   3   4
ATOM      4  C   UNL     1      16.858 -35.131  22.185  1.00  0.00     0.000 C 
BRANCH   4   5
ATOM      5  C   UNL     1      15.648 -34.574  21.412  1.00  0.00     0.006 C 
BRANCH   5   6
ATOM      6  C   UNL     1      15.905 -34.355  19.913  1.00  0.00     0.053 C 
BRANCH   6   7
ATOM      7  C   UNL     1      16.978 -35.257  19.388  1.00  0.00     0.041 C 
ATOM      8  O   UNL     1      16.740 -36.479  19.195  1.00  0.00    -0.550 OA
ATOM      9  O   UNL     1      18.230 -34.742  19.076  1.00  0.00    -0.550 OA
ENDBRANCH   6   7
ENDBRANCH   5   6
ENDBRANCH   4   5
ENDBRANCH   3   4
ENDBRANCH   2   3
ENDBRANCH   1   2
BRANCH   1  10
ATOM     10  C   UNL     1      15.933 -31.005  23.466  1.00  0.00     0.000 C 
BRANCH  10  11
ATOM     11  C   UNL     1      16.034 -30.941  21.931  1.00  0.00    -0.000 C 
BRANCH  11  12
ATOM     12  C   UNL     1      14.662 -30.762  21.258  1.00  0.00    -0.000 C 
BRANCH  12  13
ATOM     13  C   UNL     1      13.544 -31.525  21.989  1.00  0.00    -0.000 C 
BRANCH  13  14
ATOM     14  C   UNL     1      12.373 -30.615  22.404  1.00  0.00    -0.000 C 
BRANCH  14  15
ATOM     15  C   UNL     1      12.688 -29.623  23.537  1.00  0.00    -0.003 C 
ATOM     16  C   UNL     1      11.625 -28.537  23.694  1.00  0.00     0.004 C 
ENDBRANCH  14  15
ENDBRANCH  13  14
ENDBRANCH  12  13
ENDBRANCH  11  12
ENDBRANCH  10  11
ENDBRANCH   1  10
TORSDOF 12
ENDMDL
MODEL 8
REMARK VINA RESULT:    -4.250      1.307      3.141
REMARK INTER + INTRA:          -8.928
REMARK INTER:                  -7.073
REMARK INTRA:                  -1.856
REMARK UNBOUND:                -1.697
REMARK SMILES CCCCCCCCCCCCCC(=O)[O-]
REMARK SMILES IDX 8 1 9 2 10 3 11 4 12 5 13 6 14 7 15 8 16 9 7 10 6 11 5 12
REMARK SMILES IDX 4 13 3 14 2 15 1 16
REMARK H PARENT
REMARK Flexibility Score: inf
ROOT
ATOM      1  C   UNL     1      16.463 -30.211  22.543  1.00  0.00     0.000 C 
ENDROOT
BRANCH   1   2
ATOM      2  C   UNL     1      17.091 -30.990  21.373  1.00  0.00     0.000 C 
BRANCH   2   3
ATOM      3  C   UNL     1      18.584 -31.275  21.590  1.00  0.00     0.000 C 
BRANCH   3   4
ATOM      4  C   UNL     1      19.081 -32.477  20.767  1.00  0.00     0.000 C 
BRANCH   4   5
ATOM      5  C   UNL     1      17.929 -33.301  20.163  1.00  0.00     0.006 C 
BRANCH   5   6
ATOM      6  C   UNL     1      18.073 -34.819  20.352  1.00  0.00     0.053 C 
BRANCH   6   7
ATOM      7  C   UNL     1      16.901 -35.570  19.797  1.00  0.00     0.041 C 
ATOM      8  O   UNL     1      15.736 -35.110  19.926  1.00  0.00    -0.550 OA
ATOM      9  O   UNL     1      17.100 -36.757  19.105  1.00  0.00    -0.550 OA
ENDBRANCH   6   7
ENDBRANCH   5   6
ENDBRANCH   4   5
ENDBRANCH   3   4
ENDBRANCH   2   3
ENDBRANCH   1   2
BRANCH   1  10
ATOM     10  C   UNL     1      14.963 -29.946  22.341  1.00  0.00     0.000 C 
BRANCH  10  11
ATOM     11  C   UNL     1      14.127 -30.320  23.578  1.00  0.00    -0.000 C 
BRANCH  11  12
ATOM     12  C   UNL     1      13.471 -31.705  23.450  1.00  0.00    -0.000 C 
BRANCH  12  13
ATOM     13  C   UNL     1      14.305 -32.814  24.115  1.00  0.00    -0.000 C 
BRANCH  13  14
ATOM     14  C   UNL     1      15.051 -33.695  23.095  1.00  0.00    -0.000 C 
BRANCH  14  15
ATOM     15  C   UNL     1      16.415 -34.226  23.569  1.00  0.00    -0.003 C 
ATOM     16  C   UNL     1      17.160 -33.242  24.470  1.00  0.00     0.004 C 
ENDBRANCH  14  15
ENDBRANCH  13  14
ENDBRANCH  12  13
ENDBRANCH  11  12
ENDBRANCH  10  11
ENDBRANCH   1  10
TORSDOF 12
ENDMDL
MODEL 9
REMARK VINA RESULT:    -4.240      3.704      6.092
REMARK INTER + INTRA:          -8.911
REMARK INTER:                  -7.283
REMARK INTRA:                  -1.628
REMARK UNBOUND:                -1.697
REMARK SMILES CCCCCCCCCCCCCC(=O)[O-]
REMARK SMILES IDX 8 1 9 2 10 3 11 4 12 5 13 6 14 7 15 8 16 9 7 10 6 11 5 12
REMARK SMILES IDX 4 13 3 14 2 15 1 16
REMARK H PARENT
REMARK Flexibility Score: inf
ROOT
ATOM      1  C   UNL     1      17.296 -31.966  23.853  1.00  0.00     0.000 C 
ENDROOT
BRANCH   1   2
ATOM      2  C   UNL     1      17.110 -31.048  22.632  1.00  0.00     0.000 C 
BRANCH   2   3
ATOM      3  C   UNL     1      16.119 -29.905  22.901  1.00  0.00     0.000 C 
BRANCH   3   4
ATOM      4  C   UNL     1      15.028 -29.803  21.820  1.00  0.00     0.000 C 
BRANCH   4   5
ATOM      5  C   UNL     1      13.948 -30.891  21.961  1.00  0.00     0.006 C 
BRANCH   5   6
ATOM      6  C   UNL     1      13.210 -30.876  23.310  1.00  0.00     0.053 C 
BRANCH   6   7
ATOM      7  C   UNL     1      12.405 -29.627  23.497  1.00  0.00     0.041 C 
ATOM      8  O   UNL     1      12.730 -28.790  24.380  1.00  0.00    -0.550 OA
ATOM      9  O   UNL     1      11.318 -29.370  22.672  1.00  0.00    -0.550 OA
ENDBRANCH   6   7
ENDBRANCH   5   6
ENDBRANCH   4   5
ENDBRANCH   3   4
ENDBRANCH   2   3
ENDBRANCH   1   2
BRANCH   1  10
ATOM     10  C   UNL     1      16.213 -33.052  23.949  1.00  0.00     0.000 C 
BRANCH  10  11
ATOM     11  C   UNL     1      16.469 -34.227  22.989  1.00  0.00    -0.000 C 
BRANCH  11  12
ATOM     12  C   UNL     1      15.386 -34.349  21.904  1.00  0.00    -0.000 C 
BRANCH  12  13
ATOM     13  C   UNL     1      15.837 -33.764  20.554  1.00  0.00    -0.000 C 
BRANCH  13  14
ATOM     14  C   UNL     1      16.887 -34.639  19.845  1.00  0.00    -0.000 C 
BRANCH  14  15
ATOM     15  C   UNL     1      16.533 -36.133  19.750  1.00  0.00    -0.003 C 
ATOM     16  C   UNL     1      17.657 -37.046  20.240  1.00  0.00     0.004 C 
ENDBRANCH  14  15
ENDBRANCH  13  14
ENDBRANCH  12  13
ENDBRANCH  11  12
ENDBRANCH  10  11
ENDBRANCH   1  10
TORSDOF 12
ENDMDL
