MODEL 1
REMARK VINA RESULT:    -3.883      0.000      0.000
REMARK INTER + INTRA:          -6.862
REMARK INTER:                  -6.152
REMARK INTRA:                  -0.710
REMARK UNBOUND:                -0.710
REMARK SMILES CCCCCCCCCCCC(=O)[O-]
REMARK SMILES IDX 7 1 8 2 9 3 10 4 11 5 12 6 13 7 14 8 6 9 5 10 4 11 3 12 2 13
REMARK SMILES IDX 1 14
REMARK H PARENT
REMARK Flexibility Score: inf
ROOT
ATOM      1  C   UNL     1     128.867 120.834 118.764  1.00  0.00     0.000 C 
ENDROOT
BRANCH   1   2
ATOM      2  C   UNL     1     127.644 120.801 117.833  1.00  0.00     0.000 C 
BRANCH   2   3
ATOM      3  C   UNL     1     126.716 119.612 118.119  1.00  0.00     0.000 C 
BRANCH   3   4
ATOM      4  C   UNL     1     125.269 119.936 117.720  1.00  0.00     0.006 C 
BRANCH   4   5
ATOM      5  C   UNL     1     125.035 121.443 117.554  1.00  0.00     0.053 C 
BRANCH   5   6
ATOM      6  C   UNL     1     123.700 121.860 118.088  1.00  0.00     0.041 C 
ATOM      7  O   UNL     1     122.645 121.343 117.635  1.00  0.00    -0.550 OA
ATOM      8  O   UNL     1     123.621 122.797 119.111  1.00  0.00    -0.550 OA
ENDBRANCH   5   6
ENDBRANCH   4   5
ENDBRANCH   3   4
ENDBRANCH   2   3
ENDBRANCH   1   2
BRANCH   1   9
ATOM      9  C   UNL     1     130.197 120.734 117.996  1.00  0.00     0.000 C 
BRANCH   9  10
ATOM     10  C   UNL     1     131.342 120.191 118.867  1.00  0.00    -0.000 C 
BRANCH  10  11
ATOM     11  C   UNL     1     131.209 120.602 120.341  1.00  0.00    -0.000 C 
BRANCH  11  12
ATOM     12  C   UNL     1     132.358 121.532 120.757  1.00  0.00    -0.000 C 
BRANCH  12  13
ATOM     13  C   UNL     1     131.981 123.018 120.656  1.00  0.00    -0.003 C 
ATOM     14  C   UNL     1     130.530 123.290 121.055  1.00  0.00     0.004 C 
ENDBRANCH  12  13
ENDBRANCH  11  12
ENDBRANCH  10  11
ENDBRANCH   9  10
ENDBRANCH   1   9
TORSDOF 10
ENDMDL
MODEL 2
REMARK VINA RESULT:    -3.851      1.052      1.746
REMARK INTER + INTRA:          -6.812
REMARK INTER:                  -6.245
REMARK INTRA:                  -0.567
REMARK UNBOUND:                -0.710
REMARK SMILES CCCCCCCCCCCC(=O)[O-]
REMARK SMILES IDX 7 1 8 2 9 3 10 4 11 5 12 6 13 7 14 8 6 9 5 10 4 11 3 12 2 13
REMARK SMILES IDX 1 14
REMARK H PARENT
REMARK Flexibility Score: inf
ROOT
ATOM      1  C   UNL     1     127.311 119.768 118.006  1.00  0.00     0.000 C 
ENDROOT
BRANCH   1   2
ATOM      2  C   UNL     1     125.886 120.098 118.481  1.00  0.00     0.000 C 
BRANCH   2   3
ATOM      3  C   UNL     1     124.805 119.478 117.584  1.00  0.00     0.000 C 
BRANCH   3   4
ATOM      4  C   UNL     1     123.826 120.548 117.083  1.00  0.00     0.006 C 
BRANCH   4   5
ATOM      5  C   UNL     1     124.338 121.972 117.340  1.00  0.00     0.053 C 
BRANCH   5   6
ATOM      6  C   UNL     1     123.456 122.718 118.292  1.00  0.00     0.041 C 
ATOM      7  O   UNL     1     122.621 123.556 117.860  1.00  0.00    -0.550 OA
ATOM      8  O   UNL     1     123.531 122.463 119.656  1.00  0.00    -0.550 OA
ENDBRANCH   5   6
ENDBRANCH   4   5
ENDBRANCH   3   4
ENDBRANCH   2   3
ENDBRANCH   1   2
BRANCH   1   9
ATOM      9  C   UNL     1     128.291 120.934 118.222  1.00  0.00     0.000 C 
BRANCH   9  10
ATOM     10  C   UNL     1     129.761 120.488 118.168  1.00  0.00    -0.000 C 
BRANCH  10  11
ATOM     11  C   UNL     1     130.662 121.306 119.107  1.00  0.00    -0.000 C 
BRANCH  11  12
ATOM     12  C   UNL     1     129.830 122.003 120.194  1.00  0.00    -0.000 C 
BRANCH  12  13
ATOM     13  C   UNL     1     130.611 123.112 120.914  1.00  0.00    -0.003 C 
ATOM     14  C   UNL     1     132.124 122.899 120.866  1.00  0.00     0.004 C 
ENDBRANCH  12  13
ENDBRANCH  11  12
ENDBRANCH  10  11
ENDBRANCH   9  10
ENDBRANCH   1   9
TORSDOF 10
ENDMDL
MODEL 3
REMARK VINA RESULT:    -3.798      3.517      6.983
REMARK INTER + INTRA:          -6.728
REMARK INTER:                  -6.209
REMARK INTRA:                  -0.519
REMARK UNBOUND:                -0.710
REMARK SMILES CCCCCCCCCCCC(=O)[O-]
REMARK SMILES IDX 7 1 8 2 9 3 10 4 11 5 12 6 13 7 14 8 6 9 5 10 4 11 3 12 2 13
REMARK SMILES IDX 1 14
REMARK H PARENT
REMARK Flexibility Score: inf
ROOT
ATOM      1  C   UNL     1     126.797 119.637 118.360  1.00  0.00     0.000 C 
ENDROOT
BRANCH   1   2
ATOM      2  C   UNL     1     128.325 119.497 118.270  1.00  0.00     0.000 C 
BRANCH   2   3
ATOM      3  C   UNL     1     129.022 120.824 117.937  1.00  0.00     0.000 C 
BRANCH   3   4
ATOM      4  C   UNL     1     130.338 120.963 118.715  1.00  0.00     0.006 C 
BRANCH   4   5
ATOM      5  C   UNL     1     130.154 121.717 120.039  1.00  0.00     0.053 C 
BRANCH   5   6
ATOM      6  C   UNL     1     131.432 122.344 120.504  1.00  0.00     0.041 C 
ATOM      7  O   UNL     1     131.566 123.597 120.491  1.00  0.00    -0.550 OA
ATOM      8  O   UNL     1     132.464 121.547 120.983  1.00  0.00    -0.550 OA
ENDBRANCH   5   6
ENDBRANCH   4   5
ENDBRANCH   3   4
ENDBRANCH   2   3
ENDBRANCH   1   2
BRANCH   1   9
ATOM      9  C   UNL     1     126.288 120.958 117.756  1.00  0.00     0.000 C 
BRANCH   9  10
ATOM     10  C   UNL     1     124.774 120.942 117.491  1.00  0.00    -0.000 C 
BRANCH  10  11
ATOM     11  C   UNL     1     124.264 122.265 116.900  1.00  0.00    -0.000 C 
BRANCH  11  12
ATOM     12  C   UNL     1     123.120 122.839 117.750  1.00  0.00    -0.000 C 
BRANCH  12  13
ATOM     13  C   UNL     1     123.407 122.760 119.257  1.00  0.00    -0.003 C 
ATOM     14  C   UNL     1     122.329 121.996 120.026  1.00  0.00     0.004 C 
ENDBRANCH  12  13
ENDBRANCH  11  12
ENDBRANCH  10  11
ENDBRANCH   9  10
ENDBRANCH   1   9
TORSDOF 10
ENDMDL
MODEL 4
REMARK VINA RESULT:    -3.787      3.754      7.040
REMARK INTER + INTRA:          -6.710
REMARK INTER:                  -6.003
REMARK INTRA:                  -0.707
REMARK UNBOUND:                -0.710
REMARK SMILES CCCCCCCCCCCC(=O)[O-]
REMARK SMILES IDX 7 1 8 2 9 3 10 4 11 5 12 6 13 7 14 8 6 9 5 10 4 11 3 12 2 13
REMARK SMILES IDX 1 14
REMARK H PARENT
REMARK Flexibility Score: inf
ROOT
ATOM      1  C   UNL     1     128.519 120.995 119.469  1.00  0.00     0.000 C 
ENDROOT
BRANCH   1   2
ATOM      2  C   UNL     1     129.339 120.776 118.187  1.00  0.00     0.000 C 
BRANCH   2   3
ATOM      3  C   UNL     1     130.853 120.839 118.435  1.00  0.00     0.000 C 
BRANCH   3   4
ATOM      4  C   UNL     1     131.159 121.444 119.813  1.00  0.00     0.006 C 
BRANCH   4   5
ATOM      5  C   UNL     1     132.322 120.732 120.516  1.00  0.00     0.053 C 
BRANCH   5   6
ATOM      6  C   UNL     1     132.107 119.252 120.586  1.00  0.00     0.041 C 
ATOM      7  O   UNL     1     132.932 118.465 120.051  1.00  0.00    -0.550 OA
ATOM      8  O   UNL     1     131.013 118.739 121.271  1.00  0.00    -0.550 OA
ENDBRANCH   5   6
ENDBRANCH   4   5
ENDBRANCH   3   4
ENDBRANCH   2   3
ENDBRANCH   1   2
BRANCH   1   9
ATOM      9  C   UNL     1     127.032 120.643 119.287  1.00  0.00     0.000 C 
BRANCH   9  10
ATOM     10  C   UNL     1     126.576 120.747 117.822  1.00  0.00    -0.000 C 
BRANCH  10  11
ATOM     11  C   UNL     1     125.118 121.214 117.690  1.00  0.00    -0.000 C 
BRANCH  11  12
ATOM     12  C   UNL     1     124.463 121.364 119.071  1.00  0.00    -0.000 C 
BRANCH  12  13
ATOM     13  C   UNL     1     123.466 122.531 119.128  1.00  0.00    -0.003 C 
ATOM     14  C   UNL     1     123.003 122.984 117.743  1.00  0.00     0.004 C 
ENDBRANCH  12  13
ENDBRANCH  11  12
ENDBRANCH  10  11
ENDBRANCH   9  10
ENDBRANCH   1   9
TORSDOF 10
ENDMDL
MODEL 5
REMARK VINA RESULT:    -3.747      1.887      3.480
REMARK INTER + INTRA:          -6.647
REMARK INTER:                  -5.073
REMARK INTRA:                  -1.574
REMARK UNBOUND:                -0.710
REMARK SMILES CCCCCCCCCCCC(=O)[O-]
REMARK SMILES IDX 7 1 8 2 9 3 10 4 11 5 12 6 13 7 14 8 6 9 5 10 4 11 3 12 2 13
REMARK SMILES IDX 1 14
REMARK H PARENT
REMARK Flexibility Score: inf
ROOT
ATOM      1  C   UNL     1     130.803 122.314 120.000  1.00  0.00     0.000 C 
ENDROOT
BRANCH   1   2
ATOM      2  C   UNL     1     129.579 122.326 120.930  1.00  0.00     0.000 C 
BRANCH   2   3
ATOM      3  C   UNL     1     128.422 121.468 120.396  1.00  0.00     0.000 C 
BRANCH   3   4
ATOM      4  C   UNL     1     128.689 121.025 118.951  1.00  0.00     0.006 C 
BRANCH   4   5
ATOM      5  C   UNL     1     127.742 119.903 118.502  1.00  0.00     0.053 C 
BRANCH   5   6
ATOM      6  C   UNL     1     126.329 120.382 118.384  1.00  0.00     0.041 C 
ATOM      7  O   UNL     1     125.995 121.148 117.441  1.00  0.00    -0.550 OA
ATOM      8  O   UNL     1     125.370 119.957 119.296  1.00  0.00    -0.550 OA
ENDBRANCH   5   6
ENDBRANCH   4   5
ENDBRANCH   3   4
ENDBRANCH   2   3
ENDBRANCH   1   2
BRANCH   1   9
ATOM      9  C   UNL     1     132.130 122.212 120.772  1.00  0.00     0.000 C 
BRANCH   9  10
ATOM     10  C   UNL     1     132.789 120.829 120.636  1.00  0.00    -0.000 C 
BRANCH  10  11
ATOM     11  C   UNL     1     132.444 120.139 119.307  1.00  0.00    -0.000 C 
BRANCH  11  12
ATOM     12  C   UNL     1     131.741 118.795 119.555  1.00  0.00    -0.000 C 
BRANCH  12  13
ATOM     13  C   UNL     1     131.292 118.624 121.014  1.00  0.00    -0.003 C 
ATOM     14  C   UNL     1     129.844 118.148 121.137  1.00  0.00     0.004 C 
ENDBRANCH  12  13
ENDBRANCH  11  12
ENDBRANCH  10  11
ENDBRANCH   9  10
ENDBRANCH   1   9
TORSDOF 10
ENDMDL
MODEL 6
REMARK VINA RESULT:    -3.732      1.870      2.951
REMARK INTER + INTRA:          -6.624
REMARK INTER:                  -5.409
REMARK INTRA:                  -1.214
REMARK UNBOUND:                -0.710
REMARK SMILES CCCCCCCCCCCC(=O)[O-]
REMARK SMILES IDX 7 1 8 2 9 3 10 4 11 5 12 6 13 7 14 8 6 9 5 10 4 11 3 12 2 13
REMARK SMILES IDX 1 14
REMARK H PARENT
REMARK Flexibility Score: inf
ROOT
ATOM      1  C   UNL     1     128.616 119.440 118.318  1.00  0.00     0.000 C 
ENDROOT
BRANCH   1   2
ATOM      2  C   UNL     1     127.179 119.407 117.773  1.00  0.00     0.000 C 
BRANCH   2   3
ATOM      3  C   UNL     1     126.530 120.798 117.731  1.00  0.00     0.000 C 
BRANCH   3   4
ATOM      4  C   UNL     1     125.013 120.690 117.521  1.00  0.00     0.006 C 
BRANCH   4   5
ATOM      5  C   UNL     1     124.395 122.014 117.053  1.00  0.00     0.053 C 
BRANCH   5   6
ATOM      6  C   UNL     1     123.066 122.265 117.695  1.00  0.00     0.041 C 
ATOM      7  O   UNL     1     122.317 121.300 118.002  1.00  0.00    -0.550 OA
ATOM      8  O   UNL     1     122.667 123.564 117.986  1.00  0.00    -0.550 OA
ENDBRANCH   5   6
ENDBRANCH   4   5
ENDBRANCH   3   4
ENDBRANCH   2   3
ENDBRANCH   1   2
BRANCH   1   9
ATOM      9  C   UNL     1     129.162 120.872 118.455  1.00  0.00     0.000 C 
BRANCH   9  10
ATOM     10  C   UNL     1     129.684 121.172 119.870  1.00  0.00    -0.000 C 
BRANCH  10  11
ATOM     11  C   UNL     1     128.652 121.911 120.736  1.00  0.00    -0.000 C 
BRANCH  11  12
ATOM     12  C   UNL     1     127.758 120.915 121.491  1.00  0.00    -0.000 C 
BRANCH  12  13
ATOM     13  C   UNL     1     126.261 121.170 121.257  1.00  0.00    -0.003 C 
ATOM     14  C   UNL     1     125.438 119.882 121.233  1.00  0.00     0.004 C 
ENDBRANCH  12  13
ENDBRANCH  11  12
ENDBRANCH  10  11
ENDBRANCH   9  10
ENDBRANCH   1   9
TORSDOF 10
ENDMDL
MODEL 7
REMARK VINA RESULT:    -3.694      3.507      6.859
REMARK INTER + INTRA:          -6.563
REMARK INTER:                  -5.497
REMARK INTRA:                  -1.066
REMARK UNBOUND:                -0.710
REMARK SMILES CCCCCCCCCCCC(=O)[O-]
REMARK SMILES IDX 7 1 8 2 9 3 10 4 11 5 12 6 13 7 14 8 6 9 5 10 4 11 3 12 2 13
REMARK SMILES IDX 1 14
REMARK H PARENT
REMARK Flexibility Score: inf
ROOT
ATOM      1  C   UNL     1     125.214 119.730 117.654  1.00  0.00     0.000 C 
ENDROOT
BRANCH   1   2
ATOM      2  C   UNL     1     126.377 120.693 117.940  1.00  0.00     0.000 C 
BRANCH   2   3
ATOM      3  C   UNL     1     126.790 120.699 119.419  1.00  0.00     0.000 C 
BRANCH   3   4
ATOM      4  C   UNL     1     128.288 120.998 119.570  1.00  0.00     0.006 C 
BRANCH   4   5
ATOM      5  C   UNL     1     129.065 120.752 118.270  1.00  0.00     0.053 C 
BRANCH   5   6
ATOM      6  C   UNL     1     130.538 120.942 118.458  1.00  0.00     0.041 C 
ATOM      7  O   UNL     1     130.972 121.614 119.430  1.00  0.00    -0.550 OA
ATOM      8  O   UNL     1     131.434 120.348 117.577  1.00  0.00    -0.550 OA
ENDBRANCH   5   6
ENDBRANCH   4   5
ENDBRANCH   3   4
ENDBRANCH   2   3
ENDBRANCH   1   2
BRANCH   1   9
ATOM      9  C   UNL     1     123.997 120.441 117.036  1.00  0.00     0.000 C 
BRANCH   9  10
ATOM     10  C   UNL     1     124.129 121.972 117.067  1.00  0.00    -0.000 C 
BRANCH  10  11
ATOM     11  C   UNL     1     123.043 122.641 117.924  1.00  0.00    -0.000 C 
BRANCH  11  12
ATOM     12  C   UNL     1     123.459 122.680 119.403  1.00  0.00    -0.000 C 
BRANCH  12  13
ATOM     13  C   UNL     1     122.450 121.971 120.319  1.00  0.00    -0.003 C 
ATOM     14  C   UNL     1     122.752 120.483 120.495  1.00  0.00     0.004 C 
ENDBRANCH  12  13
ENDBRANCH  11  12
ENDBRANCH  10  11
ENDBRANCH   9  10
ENDBRANCH   1   9
TORSDOF 10
ENDMDL
MODEL 8
REMARK VINA RESULT:    -3.687      3.177      6.387
REMARK INTER + INTRA:          -6.552
REMARK INTER:                  -5.271
REMARK INTRA:                  -1.281
REMARK UNBOUND:                -0.710
REMARK SMILES CCCCCCCCCCCC(=O)[O-]
REMARK SMILES IDX 7 1 8 2 9 3 10 4 11 5 12 6 13 7 14 8 6 9 5 10 4 11 3 12 2 13
REMARK SMILES IDX 1 14
REMARK H PARENT
REMARK Flexibility Score: inf
ROOT
ATOM      1  C   UNL     1     124.517 120.287 117.381  1.00  0.00     0.000 C 
ENDROOT
BRANCH   1   2
ATOM      2  C   UNL     1     125.924 119.879 117.847  1.00  0.00     0.000 C 
BRANCH   2   3
ATOM      3  C   UNL     1     126.930 121.037 117.773  1.00  0.00     0.000 C 
BRANCH   3   4
ATOM      4  C   UNL     1     128.287 120.623 118.360  1.00  0.00     0.006 C 
BRANCH   4   5
ATOM      5  C   UNL     1     128.499 121.171 119.778  1.00  0.00     0.053 C 
BRANCH   5   6
ATOM      6  C   UNL     1     128.605 120.072 120.789  1.00  0.00     0.041 C 
ATOM      7  O   UNL     1     127.642 119.825 121.561  1.00  0.00    -0.550 OA
ATOM      8  O   UNL     1     129.757 119.296 120.856  1.00  0.00    -0.550 OA
ENDBRANCH   5   6
ENDBRANCH   4   5
ENDBRANCH   3   4
ENDBRANCH   2   3
ENDBRANCH   1   2
BRANCH   1   9
ATOM      9  C   UNL     1     124.437 121.769 116.971  1.00  0.00     0.000 C 
BRANCH   9  10
ATOM     10  C   UNL     1     123.142 122.444 117.450  1.00  0.00    -0.000 C 
BRANCH  10  11
ATOM     11  C   UNL     1     123.261 123.010 118.873  1.00  0.00    -0.000 C 
BRANCH  11  12
ATOM     12  C   UNL     1     122.530 122.111 119.883  1.00  0.00    -0.000 C 
BRANCH  12  13
ATOM     13  C   UNL     1     123.497 121.337 120.792  1.00  0.00    -0.003 C 
ATOM     14  C   UNL     1     124.901 121.940 120.814  1.00  0.00     0.004 C 
ENDBRANCH  12  13
ENDBRANCH  11  12
ENDBRANCH  10  11
ENDBRANCH   9  10
ENDBRANCH   1   9
TORSDOF 10
ENDMDL
MODEL 9
REMARK VINA RESULT:    -3.682      9.618     11.710
REMARK INTER + INTRA:          -6.545
REMARK INTER:                  -4.998
REMARK INTRA:                  -1.547
REMARK UNBOUND:                -0.710
REMARK SMILES CCCCCCCCCCCC(=O)[O-]
REMARK SMILES IDX 7 1 8 2 9 3 10 4 11 5 12 6 13 7 14 8 6 9 5 10 4 11 3 12 2 13
REMARK SMILES IDX 1 14
REMARK H PARENT
REMARK Flexibility Score: inf
ROOT
ATOM      1  C   UNL     1     124.984 125.390 126.419  1.00  0.00     0.000 C 
ENDROOT
BRANCH   1   2
ATOM      2  C   UNL     1     126.368 125.254 127.074  1.00  0.00     0.000 C 
BRANCH   2   3
ATOM      3  C   UNL     1     126.753 126.486 127.905  1.00  0.00     0.000 C 
BRANCH   3   4
ATOM      4  C   UNL     1     127.735 127.382 127.137  1.00  0.00     0.006 C 
BRANCH   4   5
ATOM      5  C   UNL     1     127.228 128.824 127.007  1.00  0.00     0.053 C 
BRANCH   5   6
ATOM      6  C   UNL     1     127.733 129.480 125.759  1.00  0.00     0.041 C 
ATOM      7  O   UNL     1     128.917 129.906 125.700  1.00  0.00    -0.550 OA
ATOM      8  O   UNL     1     126.906 129.593 124.648  1.00  0.00    -0.550 OA
ENDBRANCH   5   6
ENDBRANCH   4   5
ENDBRANCH   3   4
ENDBRANCH   2   3
ENDBRANCH   1   2
BRANCH   1   9
ATOM      9  C   UNL     1     124.996 126.337 125.205  1.00  0.00     0.000 C 
BRANCH   9  10
ATOM     10  C   UNL     1     123.951 127.459 125.321  1.00  0.00    -0.000 C 
BRANCH  10  11
ATOM     11  C   UNL     1     123.203 127.433 126.663  1.00  0.00    -0.000 C 
BRANCH  11  12
ATOM     12  C   UNL     1     123.641 128.603 127.557  1.00  0.00    -0.000 C 
BRANCH  12  13
ATOM     13  C   UNL     1     123.854 128.183 129.019  1.00  0.00    -0.003 C 
ATOM     14  C   UNL     1     123.299 126.791 129.322  1.00  0.00     0.004 C 
ENDBRANCH  12  13
ENDBRANCH  11  12
ENDBRANCH  10  11
ENDBRANCH   9  10
ENDBRANCH   1   9
TORSDOF 10
ENDMDL
