MODEL 1
REMARK VINA RESULT:    -3.238      0.000      0.000
REMARK INTER + INTRA:         -11.844
REMARK INTER:                  -7.403
REMARK INTRA:                  -4.441
REMARK UNBOUND:                -4.441
REMARK SMILES CCCCCCCCCCCCCCCCCCCCCCCC(=O)[O-]
REMARK SMILES IDX 13 1 14 2 15 3 16 4 17 5 18 6 19 7 20 8 21 9 22 10 23 11
REMARK SMILES IDX 24 12 25 13 26 14 12 15 11 16 10 17 9 18 8 19 7 20 6 21 5 22
REMARK SMILES IDX 4 23 3 24 2 25 1 26
REMARK H PARENT
REMARK Flexibility Score: inf
ROOT
ATOM      1  C   UNL     1      19.021   4.194  25.043  1.00  0.00     0.000 C 
ENDROOT
BRANCH   1   2
ATOM      2  C   UNL     1      20.247   4.800  24.338  1.00  0.00     0.000 C 
BRANCH   2   3
ATOM      3  C   UNL     1      21.296   3.743  23.955  1.00  0.00     0.000 C 
BRANCH   3   4
ATOM      4  C   UNL     1      20.860   2.316  24.328  1.00  0.00     0.000 C 
BRANCH   4   5
ATOM      5  C   UNL     1      21.788   1.658  25.363  1.00  0.00     0.000 C 
BRANCH   5   6
ATOM      6  C   UNL     1      22.656   2.667  26.145  1.00  0.00     0.000 C 
BRANCH   6   7
ATOM      7  C   UNL     1      22.184   2.836  27.596  1.00  0.00     0.000 C 
BRANCH   7   8
ATOM      8  C   UNL     1      22.341   4.291  28.063  1.00  0.00     0.000 C 
BRANCH   8   9
ATOM      9  C   UNL     1      22.861   5.224  26.955  1.00  0.00     0.000 C 
BRANCH   9  10
ATOM     10  C   UNL     1      24.037   6.131  27.363  1.00  0.00     0.006 C 
BRANCH  10  11
ATOM     11  C   UNL     1      23.588   7.523  27.828  1.00  0.00     0.053 C 
BRANCH  11  12
ATOM     12  C   UNL     1      24.492   8.579  27.275  1.00  0.00     0.041 C 
ATOM     13  O   UNL     1      25.723   8.572  27.548  1.00  0.00    -0.550 OA
ATOM     14  O   UNL     1      23.981   9.561  26.432  1.00  0.00    -0.550 OA
ENDBRANCH  11  12
ENDBRANCH  10  11
ENDBRANCH   9  10
ENDBRANCH   8   9
ENDBRANCH   7   8
ENDBRANCH   6   7
ENDBRANCH   5   6
ENDBRANCH   4   5
ENDBRANCH   3   4
ENDBRANCH   2   3
ENDBRANCH   1   2
BRANCH   1  15
ATOM     15  C   UNL     1      19.017   4.455  26.559  1.00  0.00     0.000 C 
BRANCH  15  16
ATOM     16  C   UNL     1      18.565   5.870  26.974  1.00  0.00     0.000 C 
BRANCH  16  17
ATOM     17  C   UNL     1      19.698   6.810  27.433  1.00  0.00     0.000 C 
BRANCH  17  18
ATOM     18  C   UNL     1      19.331   8.305  27.446  1.00  0.00    -0.000 C 
BRANCH  18  19
ATOM     19  C   UNL     1      20.257   9.152  26.555  1.00  0.00    -0.000 C 
BRANCH  19  20
ATOM     20  C   UNL     1      20.880   8.341  25.407  1.00  0.00    -0.000 C 
BRANCH  20  21
ATOM     21  C   UNL     1      20.905   9.121  24.081  1.00  0.00    -0.000 C 
BRANCH  21  22
ATOM     22  C   UNL     1      19.905   8.563  23.053  1.00  0.00    -0.000 C 
BRANCH  22  23
ATOM     23  C   UNL     1      18.667   9.464  22.837  1.00  0.00    -0.000 C 
BRANCH  23  24
ATOM     24  C   UNL     1      17.510   9.170  23.811  1.00  0.00    -0.000 C 
BRANCH  24  25
ATOM     25  C   UNL     1      17.335   7.684  24.169  1.00  0.00    -0.003 C 
ATOM     26  C   UNL     1      16.274   6.991  23.311  1.00  0.00     0.004 C 
ENDBRANCH  24  25
ENDBRANCH  23  24
ENDBRANCH  22  23
ENDBRANCH  21  22
ENDBRANCH  20  21
ENDBRANCH  19  20
ENDBRANCH  18  19
ENDBRANCH  17  18
ENDBRANCH  16  17
ENDBRANCH  15  16
ENDBRANCH   1  15
TORSDOF 22
ENDMDL
MODEL 2
REMARK VINA RESULT:    -3.075      2.420      4.534
REMARK INTER + INTRA:         -11.470
REMARK INTER:                  -8.141
REMARK INTRA:                  -3.330
REMARK UNBOUND:                -4.441
REMARK SMILES CCCCCCCCCCCCCCCCCCCCCCCC(=O)[O-]
REMARK SMILES IDX 13 1 14 2 15 3 16 4 17 5 18 6 19 7 20 8 21 9 22 10 23 11
REMARK SMILES IDX 24 12 25 13 26 14 12 15 11 16 10 17 9 18 8 19 7 20 6 21 5 22
REMARK SMILES IDX 4 23 3 24 2 25 1 26
REMARK H PARENT
REMARK Flexibility Score: inf
ROOT
ATOM      1  C   UNL     1      21.715   2.115  23.725  1.00  0.00     0.000 C 
ENDROOT
BRANCH   1   2
ATOM      2  C   UNL     1      22.263   3.320  24.508  1.00  0.00     0.000 C 
BRANCH   2   3
ATOM      3  C   UNL     1      23.574   3.003  25.247  1.00  0.00     0.000 C 
BRANCH   3   4
ATOM      4  C   UNL     1      23.749   3.838  26.526  1.00  0.00     0.000 C 
BRANCH   4   5
ATOM      5  C   UNL     1      22.465   4.579  26.936  1.00  0.00     0.000 C 
BRANCH   5   6
ATOM      6  C   UNL     1      22.698   6.057  27.316  1.00  0.00     0.000 C 
BRANCH   6   7
ATOM      7  C   UNL     1      21.400   6.876  27.281  1.00  0.00     0.000 C 
BRANCH   7   8
ATOM      8  C   UNL     1      21.456   7.956  26.191  1.00  0.00     0.000 C 
BRANCH   8   9
ATOM      9  C   UNL     1      20.342   9.010  26.332  1.00  0.00     0.000 C 
BRANCH   9  10
ATOM     10  C   UNL     1      20.015   9.791  25.046  1.00  0.00     0.006 C 
BRANCH  10  11
ATOM     11  C   UNL     1      20.522   9.095  23.776  1.00  0.00     0.053 C 
BRANCH  11  12
ATOM     12  C   UNL     1      19.737   9.543  22.583  1.00  0.00     0.041 C 
ATOM     13  O   UNL     1      20.203   9.393  21.421  1.00  0.00    -0.550 OA
ATOM     14  O   UNL     1      18.475  10.103  22.750  1.00  0.00    -0.550 OA
ENDBRANCH  11  12
ENDBRANCH  10  11
ENDBRANCH   9  10
ENDBRANCH   8   9
ENDBRANCH   7   8
ENDBRANCH   6   7
ENDBRANCH   5   6
ENDBRANCH   4   5
ENDBRANCH   3   4
ENDBRANCH   2   3
ENDBRANCH   1   2
BRANCH   1  15
ATOM     15  C   UNL     1      20.937   1.130  24.615  1.00  0.00     0.000 C 
BRANCH  15  16
ATOM     16  C   UNL     1      20.406   1.727  25.934  1.00  0.00     0.000 C 
BRANCH  16  17
ATOM     17  C   UNL     1      18.966   2.274  25.872  1.00  0.00     0.000 C 
BRANCH  17  18
ATOM     18  C   UNL     1      18.669   3.425  26.850  1.00  0.00    -0.000 C 
BRANCH  18  19
ATOM     19  C   UNL     1      18.899   4.813  26.223  1.00  0.00    -0.000 C 
BRANCH  19  20
ATOM     20  C   UNL     1      19.167   4.743  24.711  1.00  0.00    -0.000 C 
BRANCH  20  21
ATOM     21  C   UNL     1      18.718   6.017  23.974  1.00  0.00    -0.000 C 
BRANCH  21  22
ATOM     22  C   UNL     1      17.711   6.844  24.794  1.00  0.00    -0.000 C 
BRANCH  22  23
ATOM     23  C   UNL     1      16.619   7.523  23.936  1.00  0.00    -0.000 C 
BRANCH  23  24
ATOM     24  C   UNL     1      15.365   7.925  24.735  1.00  0.00    -0.000 C 
BRANCH  24  25
ATOM     25  C   UNL     1      15.279   9.421  25.082  1.00  0.00    -0.003 C 
ATOM     26  C   UNL     1      16.472   9.905  25.909  1.00  0.00     0.004 C 
ENDBRANCH  24  25
ENDBRANCH  23  24
ENDBRANCH  22  23
ENDBRANCH  21  22
ENDBRANCH  20  21
ENDBRANCH  19  20
ENDBRANCH  18  19
ENDBRANCH  17  18
ENDBRANCH  16  17
ENDBRANCH  15  16
ENDBRANCH   1  15
TORSDOF 22
ENDMDL
MODEL 3
REMARK VINA RESULT:    -3.018      2.437      6.312
REMARK INTER + INTRA:         -11.342
REMARK INTER:                  -7.100
REMARK INTRA:                  -4.241
REMARK UNBOUND:                -4.441
REMARK SMILES CCCCCCCCCCCCCCCCCCCCCCCC(=O)[O-]
REMARK SMILES IDX 13 1 14 2 15 3 16 4 17 5 18 6 19 7 20 8 21 9 22 10 23 11
REMARK SMILES IDX 24 12 25 13 26 14 12 15 11 16 10 17 9 18 8 19 7 20 6 21 5 22
REMARK SMILES IDX 4 23 3 24 2 25 1 26
REMARK H PARENT
REMARK Flexibility Score: inf
ROOT
ATOM      1  C   UNL     1      21.259   2.191  23.606  1.00  0.00     0.000 C 
ENDROOT
BRANCH   1   2
ATOM      2  C   UNL     1      22.195   3.337  24.028  1.00  0.00     0.000 C 
BRANCH   2   3
ATOM      3  C   UNL     1      21.456   4.675  24.200  1.00  0.00     0.000 C 
BRANCH   3   4
ATOM      4  C   UNL     1      19.929   4.503  24.263  1.00  0.00     0.000 C 
BRANCH   4   5
ATOM      5  C   UNL     1      19.169   5.823  24.052  1.00  0.00     0.000 C 
BRANCH   5   6
ATOM      6  C   UNL     1      20.023   7.080  24.327  1.00  0.00     0.000 C 
BRANCH   6   7
ATOM      7  C   UNL     1      19.854   8.145  23.236  1.00  0.00     0.000 C 
BRANCH   7   8
ATOM      8  C   UNL     1      19.454   9.499  23.841  1.00  0.00     0.000 C 
BRANCH   8   9
ATOM      9  C   UNL     1      18.023   9.925  23.466  1.00  0.00     0.000 C 
BRANCH   9  10
ATOM     10  C   UNL     1      17.023   9.956  24.638  1.00  0.00     0.006 C 
BRANCH  10  11
ATOM     11  C   UNL     1      16.726   8.564  25.211  1.00  0.00     0.053 C 
BRANCH  11  12
ATOM     12  C   UNL     1      17.086   8.506  26.662  1.00  0.00     0.041 C 
ATOM     13  O   UNL     1      18.075   9.153  27.100  1.00  0.00    -0.550 OA
ATOM     14  O   UNL     1      16.311   7.757  27.542  1.00  0.00    -0.550 OA
ENDBRANCH  11  12
ENDBRANCH  10  11
ENDBRANCH   9  10
ENDBRANCH   8   9
ENDBRANCH   7   8
ENDBRANCH   6   7
ENDBRANCH   5   6
ENDBRANCH   4   5
ENDBRANCH   3   4
ENDBRANCH   2   3
ENDBRANCH   1   2
BRANCH   1  15
ATOM     15  C   UNL     1      21.195   1.061  24.650  1.00  0.00     0.000 C 
BRANCH  15  16
ATOM     16  C   UNL     1      21.605   1.472  26.078  1.00  0.00     0.000 C 
BRANCH  16  17
ATOM     17  C   UNL     1      20.463   1.468  27.114  1.00  0.00     0.000 C 
BRANCH  17  18
ATOM     18  C   UNL     1      19.064   1.744  26.534  1.00  0.00    -0.000 C 
BRANCH  18  19
ATOM     19  C   UNL     1      18.226   2.680  27.423  1.00  0.00    -0.000 C 
BRANCH  19  20
ATOM     20  C   UNL     1      19.077   3.751  28.125  1.00  0.00    -0.000 C 
BRANCH  20  21
ATOM     21  C   UNL     1      18.707   5.179  27.686  1.00  0.00    -0.000 C 
BRANCH  21  22
ATOM     22  C   UNL     1      19.881   6.162  27.839  1.00  0.00    -0.000 C 
BRANCH  22  23
ATOM     23  C   UNL     1      21.268   5.480  27.842  1.00  0.00    -0.000 C 
BRANCH  23  24
ATOM     24  C   UNL     1      22.392   6.360  27.266  1.00  0.00    -0.000 C 
BRANCH  24  25
ATOM     25  C   UNL     1      23.798   5.741  27.350  1.00  0.00    -0.003 C 
ATOM     26  C   UNL     1      23.785   4.221  27.176  1.00  0.00     0.004 C 
ENDBRANCH  24  25
ENDBRANCH  23  24
ENDBRANCH  22  23
ENDBRANCH  21  22
ENDBRANCH  20  21
ENDBRANCH  19  20
ENDBRANCH  18  19
ENDBRANCH  17  18
ENDBRANCH  16  17
ENDBRANCH  15  16
ENDBRANCH   1  15
TORSDOF 22
ENDMDL
MODEL 4
REMARK VINA RESULT:    -2.979      1.740      6.290
REMARK INTER + INTRA:         -11.252
REMARK INTER:                  -7.038
REMARK INTRA:                  -4.214
REMARK UNBOUND:                -4.441
REMARK SMILES CCCCCCCCCCCCCCCCCCCCCCCC(=O)[O-]
REMARK SMILES IDX 13 1 14 2 15 3 16 4 17 5 18 6 19 7 20 8 21 9 22 10 23 11
REMARK SMILES IDX 24 12 25 13 26 14 12 15 11 16 10 17 9 18 8 19 7 20 6 21 5 22
REMARK SMILES IDX 4 23 3 24 2 25 1 26
REMARK H PARENT
REMARK Flexibility Score: inf
ROOT
ATOM      1  C   UNL     1      18.860   6.443  23.961  1.00  0.00     0.000 C 
ENDROOT
BRANCH   1   2
ATOM      2  C   UNL     1      17.356   6.387  23.643  1.00  0.00     0.000 C 
BRANCH   2   3
ATOM      3  C   UNL     1      16.773   7.765  23.286  1.00  0.00     0.000 C 
BRANCH   3   4
ATOM      4  C   UNL     1      16.896   8.775  24.438  1.00  0.00     0.000 C 
BRANCH   4   5
ATOM      5  C   UNL     1      15.835   8.567  25.532  1.00  0.00     0.000 C 
BRANCH   5   6
ATOM      6  C   UNL     1      16.409   8.597  26.965  1.00  0.00     0.000 C 
BRANCH   6   7
ATOM      7  C   UNL     1      17.413   7.463  27.211  1.00  0.00     0.000 C 
BRANCH   7   8
ATOM      8  C   UNL     1      18.773   8.017  27.664  1.00  0.00     0.000 C 
BRANCH   8   9
ATOM      9  C   UNL     1      18.873   9.548  27.527  1.00  0.00     0.000 C 
BRANCH   9  10
ATOM     10  C   UNL     1      19.736  10.043  26.351  1.00  0.00     0.006 C 
BRANCH  10  11
ATOM     11  C   UNL     1      20.728   8.986  25.849  1.00  0.00     0.053 C 
BRANCH  11  12
ATOM     12  C   UNL     1      21.382   9.439  24.581  1.00  0.00     0.041 C 
ATOM     13  O   UNL     1      20.757   9.387  23.488  1.00  0.00    -0.550 OA
ATOM     14  O   UNL     1      22.677   9.948  24.609  1.00  0.00    -0.550 OA
ENDBRANCH  11  12
ENDBRANCH  10  11
ENDBRANCH   9  10
ENDBRANCH   8   9
ENDBRANCH   7   8
ENDBRANCH   6   7
ENDBRANCH   5   6
ENDBRANCH   4   5
ENDBRANCH   3   4
ENDBRANCH   2   3
ENDBRANCH   1   2
BRANCH   1  15
ATOM     15  C   UNL     1      19.418   5.091  24.443  1.00  0.00     0.000 C 
BRANCH  15  16
ATOM     16  C   UNL     1      19.921   5.078  25.900  1.00  0.00     0.000 C 
BRANCH  16  17
ATOM     17  C   UNL     1      19.284   4.003  26.803  1.00  0.00     0.000 C 
BRANCH  17  18
ATOM     18  C   UNL     1      18.652   2.818  26.050  1.00  0.00    -0.000 C 
BRANCH  18  19
ATOM     19  C   UNL     1      19.533   1.556  26.082  1.00  0.00    -0.000 C 
BRANCH  19  20
ATOM     20  C   UNL     1      20.007   1.128  24.683  1.00  0.00    -0.000 C 
BRANCH  20  21
ATOM     21  C   UNL     1      21.540   1.163  24.545  1.00  0.00    -0.000 C 
BRANCH  21  22
ATOM     22  C   UNL     1      22.058   2.545  24.110  1.00  0.00    -0.000 C 
BRANCH  22  23
ATOM     23  C   UNL     1      23.054   3.179  25.107  1.00  0.00    -0.000 C 
BRANCH  23  24
ATOM     24  C   UNL     1      22.895   2.667  26.551  1.00  0.00    -0.000 C 
BRANCH  24  25
ATOM     25  C   UNL     1      22.950   3.764  27.629  1.00  0.00    -0.003 C 
ATOM     26  C   UNL     1      23.474   5.096  27.090  1.00  0.00     0.004 C 
ENDBRANCH  24  25
ENDBRANCH  23  24
ENDBRANCH  22  23
ENDBRANCH  21  22
ENDBRANCH  20  21
ENDBRANCH  19  20
ENDBRANCH  18  19
ENDBRANCH  17  18
ENDBRANCH  16  17
ENDBRANCH  15  16
ENDBRANCH   1  15
TORSDOF 22
ENDMDL
MODEL 5
REMARK VINA RESULT:    -2.956      2.868      4.794
REMARK INTER + INTRA:         -11.199
REMARK INTER:                  -6.856
REMARK INTRA:                  -4.343
REMARK UNBOUND:                -4.441
REMARK SMILES CCCCCCCCCCCCCCCCCCCCCCCC(=O)[O-]
REMARK SMILES IDX 13 1 14 2 15 3 16 4 17 5 18 6 19 7 20 8 21 9 22 10 23 11
REMARK SMILES IDX 24 12 25 13 26 14 12 15 11 16 10 17 9 18 8 19 7 20 6 21 5 22
REMARK SMILES IDX 4 23 3 24 2 25 1 26
REMARK H PARENT
REMARK Flexibility Score: inf
ROOT
ATOM      1  C   UNL     1      22.956   5.118  27.092  1.00  0.00     0.000 C 
ENDROOT
BRANCH   1   2
ATOM      2  C   UNL     1      21.992   4.409  28.060  1.00  0.00     0.000 C 
BRANCH   2   3
ATOM      3  C   UNL     1      20.541   4.895  27.915  1.00  0.00     0.000 C 
BRANCH   3   4
ATOM      4  C   UNL     1      20.319   5.723  26.638  1.00  0.00     0.000 C 
BRANCH   4   5
ATOM      5  C   UNL     1      19.063   5.297  25.860  1.00  0.00     0.000 C 
BRANCH   5   6
ATOM      6  C   UNL     1      19.343   4.930  24.386  1.00  0.00     0.000 C 
BRANCH   6   7
ATOM      7  C   UNL     1      20.844   4.797  24.097  1.00  0.00     0.000 C 
BRANCH   7   8
ATOM      8  C   UNL     1      21.193   3.377  23.626  1.00  0.00     0.000 C 
BRANCH   8   9
ATOM      9  C   UNL     1      22.267   2.702  24.499  1.00  0.00     0.000 C 
BRANCH   9  10
ATOM     10  C   UNL     1      21.734   1.662  25.502  1.00  0.00     0.006 C 
BRANCH  10  11
ATOM     11  C   UNL     1      20.210   1.494  25.439  1.00  0.00     0.053 C 
BRANCH  11  12
ATOM     12  C   UNL     1      19.616   1.567  26.811  1.00  0.00     0.041 C 
ATOM     13  O   UNL     1      20.284   1.200  27.815  1.00  0.00    -0.550 OA
ATOM     14  O   UNL     1      18.330   2.068  26.987  1.00  0.00    -0.550 OA
ENDBRANCH  11  12
ENDBRANCH  10  11
ENDBRANCH   9  10
ENDBRANCH   8   9
ENDBRANCH   7   8
ENDBRANCH   6   7
ENDBRANCH   5   6
ENDBRANCH   4   5
ENDBRANCH   3   4
ENDBRANCH   2   3
ENDBRANCH   1   2
BRANCH   1  15
ATOM     15  C   UNL     1      23.956   6.038  27.815  1.00  0.00     0.000 C 
BRANCH  15  16
ATOM     16  C   UNL     1      23.931   7.511  27.359  1.00  0.00     0.000 C 
BRANCH  16  17
ATOM     17  C   UNL     1      22.603   8.251  27.610  1.00  0.00     0.000 C 
BRANCH  17  18
ATOM     18  C   UNL     1      22.627   9.753  27.274  1.00  0.00    -0.000 C 
BRANCH  18  19
ATOM     19  C   UNL     1      22.053  10.060  25.878  1.00  0.00    -0.000 C 
BRANCH  19  20
ATOM     20  C   UNL     1      20.742   9.307  25.598  1.00  0.00    -0.000 C 
BRANCH  20  21
ATOM     21  C   UNL     1      20.788   8.514  24.280  1.00  0.00    -0.000 C 
BRANCH  21  22
ATOM     22  C   UNL     1      19.545   8.759  23.405  1.00  0.00    -0.000 C 
BRANCH  22  23
ATOM     23  C   UNL     1      18.223   8.813  24.204  1.00  0.00    -0.000 C 
BRANCH  23  24
ATOM     24  C   UNL     1      17.148   7.838  23.687  1.00  0.00    -0.000 C 
BRANCH  24  25
ATOM     25  C   UNL     1      15.860   7.801  24.528  1.00  0.00    -0.003 C 
ATOM     26  C   UNL     1      16.136   7.825  26.033  1.00  0.00     0.004 C 
ENDBRANCH  24  25
ENDBRANCH  23  24
ENDBRANCH  22  23
ENDBRANCH  21  22
ENDBRANCH  20  21
ENDBRANCH  19  20
ENDBRANCH  18  19
ENDBRANCH  17  18
ENDBRANCH  16  17
ENDBRANCH  15  16
ENDBRANCH   1  15
TORSDOF 22
ENDMDL
MODEL 6
REMARK VINA RESULT:    -2.931      2.217      4.698
REMARK INTER + INTRA:         -11.141
REMARK INTER:                  -6.879
REMARK INTRA:                  -4.262
REMARK UNBOUND:                -4.441
REMARK SMILES CCCCCCCCCCCCCCCCCCCCCCCC(=O)[O-]
REMARK SMILES IDX 13 1 14 2 15 3 16 4 17 5 18 6 19 7 20 8 21 9 22 10 23 11
REMARK SMILES IDX 24 12 25 13 26 14 12 15 11 16 10 17 9 18 8 19 7 20 6 21 5 22
REMARK SMILES IDX 4 23 3 24 2 25 1 26
REMARK H PARENT
REMARK Flexibility Score: inf
ROOT
ATOM      1  C   UNL     1      21.508   1.315  25.388  1.00  0.00     0.000 C 
ENDROOT
BRANCH   1   2
ATOM      2  C   UNL     1      22.380   2.219  26.277  1.00  0.00     0.000 C 
BRANCH   2   3
ATOM      3  C   UNL     1      21.665   2.651  27.568  1.00  0.00     0.000 C 
BRANCH   3   4
ATOM      4  C   UNL     1      21.676   4.176  27.769  1.00  0.00     0.000 C 
BRANCH   4   5
ATOM      5  C   UNL     1      22.878   4.858  27.094  1.00  0.00     0.000 C 
BRANCH   5   6
ATOM      6  C   UNL     1      23.018   6.355  27.448  1.00  0.00     0.000 C 
BRANCH   6   7
ATOM      7  C   UNL     1      21.975   7.220  26.728  1.00  0.00     0.000 C 
BRANCH   7   8
ATOM      8  C   UNL     1      21.640   8.478  27.544  1.00  0.00     0.000 C 
BRANCH   8   9
ATOM      9  C   UNL     1      20.929   9.562  26.713  1.00  0.00     0.000 C 
BRANCH   9  10
ATOM     10  C   UNL     1      20.770   9.237  25.216  1.00  0.00     0.006 C 
BRANCH  10  11
ATOM     11  C   UNL     1      19.380   9.590  24.670  1.00  0.00     0.053 C 
BRANCH  11  12
ATOM     12  C   UNL     1      19.372   9.527  23.175  1.00  0.00     0.041 C 
ATOM     13  O   UNL     1      18.280   9.520  22.544  1.00  0.00    -0.550 OA
ATOM     14  O   UNL     1      20.572   9.504  22.472  1.00  0.00    -0.550 OA
ENDBRANCH  11  12
ENDBRANCH  10  11
ENDBRANCH   9  10
ENDBRANCH   8   9
ENDBRANCH   7   8
ENDBRANCH   6   7
ENDBRANCH   5   6
ENDBRANCH   4   5
ENDBRANCH   3   4
ENDBRANCH   2   3
ENDBRANCH   1   2
BRANCH   1  15
ATOM     15  C   UNL     1      20.897   2.067  24.192  1.00  0.00     0.000 C 
BRANCH  15  16
ATOM     16  C   UNL     1      21.646   3.352  23.781  1.00  0.00     0.000 C 
BRANCH  16  17
ATOM     17  C   UNL     1      20.866   4.663  24.002  1.00  0.00     0.000 C 
BRANCH  17  18
ATOM     18  C   UNL     1      19.507   4.495  24.705  1.00  0.00    -0.000 C 
BRANCH  18  19
ATOM     19  C   UNL     1      18.941   5.827  25.232  1.00  0.00    -0.000 C 
BRANCH  19  20
ATOM     20  C   UNL     1      18.561   5.761  26.720  1.00  0.00    -0.000 C 
BRANCH  20  21
ATOM     21  C   UNL     1      18.062   7.114  27.261  1.00  0.00    -0.000 C 
BRANCH  21  22
ATOM     22  C   UNL     1      16.671   7.007  27.912  1.00  0.00    -0.000 C 
BRANCH  22  23
ATOM     23  C   UNL     1      15.580   7.824  27.185  1.00  0.00    -0.000 C 
BRANCH  23  24
ATOM     24  C   UNL     1      16.130   9.023  26.388  1.00  0.00    -0.000 C 
BRANCH  24  25
ATOM     25  C   UNL     1      15.741   9.036  24.900  1.00  0.00    -0.003 C 
ATOM     26  C   UNL     1      15.810   7.648  24.259  1.00  0.00     0.004 C 
ENDBRANCH  24  25
ENDBRANCH  23  24
ENDBRANCH  22  23
ENDBRANCH  21  22
ENDBRANCH  20  21
ENDBRANCH  19  20
ENDBRANCH  18  19
ENDBRANCH  17  18
ENDBRANCH  16  17
ENDBRANCH  15  16
ENDBRANCH   1  15
TORSDOF 22
ENDMDL
MODEL 7
REMARK VINA RESULT:    -2.925      1.279      2.513
REMARK INTER + INTRA:         -11.129
REMARK INTER:                  -6.911
REMARK INTRA:                  -4.218
REMARK UNBOUND:                -4.441
REMARK SMILES CCCCCCCCCCCCCCCCCCCCCCCC(=O)[O-]
REMARK SMILES IDX 13 1 14 2 15 3 16 4 17 5 18 6 19 7 20 8 21 9 22 10 23 11
REMARK SMILES IDX 24 12 25 13 26 14 12 15 11 16 10 17 9 18 8 19 7 20 6 21 5 22
REMARK SMILES IDX 4 23 3 24 2 25 1 26
REMARK H PARENT
REMARK Flexibility Score: inf
ROOT
ATOM      1  C   UNL     1      18.972   5.053  24.742  1.00  0.00     0.000 C 
ENDROOT
BRANCH   1   2
ATOM      2  C   UNL     1      19.368   4.078  25.864  1.00  0.00     0.000 C 
BRANCH   2   3
ATOM      3  C   UNL     1      19.257   2.605  25.437  1.00  0.00     0.000 C 
BRANCH   3   4
ATOM      4  C   UNL     1      20.611   1.876  25.469  1.00  0.00     0.000 C 
BRANCH   4   5
ATOM      5  C   UNL     1      21.508   2.229  24.271  1.00  0.00     0.000 C 
BRANCH   5   6
ATOM      6  C   UNL     1      22.757   3.053  24.655  1.00  0.00     0.000 C 
BRANCH   6   7
ATOM      7  C   UNL     1      22.991   3.078  26.171  1.00  0.00     0.000 C 
BRANCH   7   8
ATOM      8  C   UNL     1      23.508   4.451  26.628  1.00  0.00     0.000 C 
BRANCH   8   9
ATOM      9  C   UNL     1      22.374   5.438  26.963  1.00  0.00     0.000 C 
BRANCH   9  10
ATOM     10  C   UNL     1      22.828   6.755  27.620  1.00  0.00     0.006 C 
BRANCH  10  11
ATOM     11  C   UNL     1      24.293   7.099  27.325  1.00  0.00     0.053 C 
BRANCH  11  12
ATOM     12  C   UNL     1      24.449   8.568  27.082  1.00  0.00     0.041 C 
ATOM     13  O   UNL     1      25.334   8.993  26.291  1.00  0.00    -0.550 OA
ATOM     14  O   UNL     1      23.597   9.471  27.709  1.00  0.00    -0.550 OA
ENDBRANCH  11  12
ENDBRANCH  10  11
ENDBRANCH   9  10
ENDBRANCH   8   9
ENDBRANCH   7   8
ENDBRANCH   6   7
ENDBRANCH   5   6
ENDBRANCH   4   5
ENDBRANCH   3   4
ENDBRANCH   2   3
ENDBRANCH   1   2
BRANCH   1  15
ATOM     15  C   UNL     1      20.187   5.740  24.094  1.00  0.00     0.000 C 
BRANCH  15  16
ATOM     16  C   UNL     1      19.980   7.226  23.736  1.00  0.00     0.000 C 
BRANCH  16  17
ATOM     17  C   UNL     1      20.730   8.227  24.636  1.00  0.00     0.000 C 
BRANCH  17  18
ATOM     18  C   UNL     1      19.824   9.166  25.453  1.00  0.00    -0.000 C 
BRANCH  18  19
ATOM     19  C   UNL     1      20.096   9.087  26.967  1.00  0.00    -0.000 C 
BRANCH  19  20
ATOM     20  C   UNL     1      18.852   8.677  27.771  1.00  0.00    -0.000 C 
BRANCH  20  21
ATOM     21  C   UNL     1      18.519   7.182  27.620  1.00  0.00    -0.000 C 
BRANCH  21  22
ATOM     22  C   UNL     1      17.027   6.940  27.332  1.00  0.00    -0.000 C 
BRANCH  22  23
ATOM     23  C   UNL     1      16.264   8.210  26.893  1.00  0.00    -0.000 C 
BRANCH  23  24
ATOM     24  C   UNL     1      15.538   8.062  25.543  1.00  0.00    -0.000 C 
BRANCH  24  25
ATOM     25  C   UNL     1      16.439   8.240  24.309  1.00  0.00    -0.003 C 
ATOM     26  C   UNL     1      16.310   7.086  23.312  1.00  0.00     0.004 C 
ENDBRANCH  24  25
ENDBRANCH  23  24
ENDBRANCH  22  23
ENDBRANCH  21  22
ENDBRANCH  20  21
ENDBRANCH  19  20
ENDBRANCH  18  19
ENDBRANCH  17  18
ENDBRANCH  16  17
ENDBRANCH  15  16
ENDBRANCH   1  15
TORSDOF 22
ENDMDL
MODEL 8
REMARK VINA RESULT:    -2.904      2.463      6.591
REMARK INTER + INTRA:         -11.081
REMARK INTER:                  -7.155
REMARK INTRA:                  -3.926
REMARK UNBOUND:                -4.441
REMARK SMILES CCCCCCCCCCCCCCCCCCCCCCCC(=O)[O-]
REMARK SMILES IDX 13 1 14 2 15 3 16 4 17 5 18 6 19 7 20 8 21 9 22 10 23 11
REMARK SMILES IDX 24 12 25 13 26 14 12 15 11 16 10 17 9 18 8 19 7 20 6 21 5 22
REMARK SMILES IDX 4 23 3 24 2 25 1 26
REMARK H PARENT
REMARK Flexibility Score: inf
ROOT
ATOM      1  C   UNL     1      20.034   4.245  24.339  1.00  0.00     0.000 C 
ENDROOT
BRANCH   1   2
ATOM      2  C   UNL     1      20.123   5.523  25.191  1.00  0.00     0.000 C 
BRANCH   2   3
ATOM      3  C   UNL     1      19.118   5.533  26.355  1.00  0.00     0.000 C 
BRANCH   3   4
ATOM      4  C   UNL     1      19.080   6.883  27.091  1.00  0.00     0.000 C 
BRANCH   4   5
ATOM      5  C   UNL     1      20.345   7.144  27.926  1.00  0.00     0.000 C 
BRANCH   5   6
ATOM      6  C   UNL     1      21.013   8.504  27.628  1.00  0.00     0.000 C 
BRANCH   6   7
ATOM      7  C   UNL     1      20.405   9.191  26.398  1.00  0.00     0.000 C 
BRANCH   7   8
ATOM      8  C   UNL     1      21.235   8.904  25.137  1.00  0.00     0.000 C 
BRANCH   8   9
ATOM      9  C   UNL     1      20.420   9.046  23.838  1.00  0.00     0.000 C 
BRANCH   9  10
ATOM     10  C   UNL     1      19.034   9.695  24.004  1.00  0.00     0.006 C 
BRANCH  10  11
ATOM     11  C   UNL     1      17.944   9.003  23.174  1.00  0.00     0.053 C 
BRANCH  11  12
ATOM     12  C   UNL     1      17.216   7.992  24.003  1.00  0.00     0.041 C 
ATOM     13  O   UNL     1      16.934   6.860  23.525  1.00  0.00    -0.550 OA
ATOM     14  O   UNL     1      16.871   8.288  25.318  1.00  0.00    -0.550 OA
ENDBRANCH  11  12
ENDBRANCH  10  11
ENDBRANCH   9  10
ENDBRANCH   8   9
ENDBRANCH   7   8
ENDBRANCH   6   7
ENDBRANCH   5   6
ENDBRANCH   4   5
ENDBRANCH   3   4
ENDBRANCH   2   3
ENDBRANCH   1   2
BRANCH   1  15
ATOM     15  C   UNL     1      21.408   3.764  23.841  1.00  0.00     0.000 C 
BRANCH  15  16
ATOM     16  C   UNL     1      21.612   2.235  23.870  1.00  0.00     0.000 C 
BRANCH  16  17
ATOM     17  C   UNL     1      20.901   1.503  25.025  1.00  0.00     0.000 C 
BRANCH  17  18
ATOM     18  C   UNL     1      21.656   1.525  26.366  1.00  0.00    -0.000 C 
BRANCH  18  19
ATOM     19  C   UNL     1      21.024   2.489  27.388  1.00  0.00    -0.000 C 
BRANCH  19  20
ATOM     20  C   UNL     1      22.071   3.340  28.125  1.00  0.00    -0.000 C 
BRANCH  20  21
ATOM     21  C   UNL     1      22.752   4.366  27.200  1.00  0.00    -0.000 C 
BRANCH  21  22
ATOM     22  C   UNL     1      23.520   5.444  27.986  1.00  0.00    -0.000 C 
BRANCH  22  23
ATOM     23  C   UNL     1      24.184   6.513  27.089  1.00  0.00    -0.000 C 
BRANCH  23  24
ATOM     24  C   UNL     1      24.533   7.815  27.833  1.00  0.00    -0.000 C 
BRANCH  24  25
ATOM     25  C   UNL     1      25.273   8.861  26.981  1.00  0.00    -0.003 C 
ATOM     26  C   UNL     1      24.381  10.038  26.583  1.00  0.00     0.004 C 
ENDBRANCH  24  25
ENDBRANCH  23  24
ENDBRANCH  22  23
ENDBRANCH  21  22
ENDBRANCH  20  21
ENDBRANCH  19  20
ENDBRANCH  18  19
ENDBRANCH  17  18
ENDBRANCH  16  17
ENDBRANCH  15  16
ENDBRANCH   1  15
TORSDOF 22
ENDMDL
MODEL 9
REMARK VINA RESULT:    -2.873      2.641      5.890
REMARK INTER + INTRA:         -11.008
REMARK INTER:                  -7.434
REMARK INTRA:                  -3.574
REMARK UNBOUND:                -4.441
REMARK SMILES CCCCCCCCCCCCCCCCCCCCCCCC(=O)[O-]
REMARK SMILES IDX 13 1 14 2 15 3 16 4 17 5 18 6 19 7 20 8 21 9 22 10 23 11
REMARK SMILES IDX 24 12 25 13 26 14 12 15 11 16 10 17 9 18 8 19 7 20 6 21 5 22
REMARK SMILES IDX 4 23 3 24 2 25 1 26
REMARK H PARENT
REMARK Flexibility Score: inf
ROOT
ATOM      1  C   UNL     1      20.791   1.204  24.352  1.00  0.00     0.000 C 
ENDROOT
BRANCH   1   2
ATOM      2  C   UNL     1      20.150   1.504  25.718  1.00  0.00     0.000 C 
BRANCH   2   3
ATOM      3  C   UNL     1      19.085   2.610  25.646  1.00  0.00     0.000 C 
BRANCH   3   4
ATOM      4  C   UNL     1      18.921   3.362  26.978  1.00  0.00     0.000 C 
BRANCH   4   5
ATOM      5  C   UNL     1      18.798   4.883  26.794  1.00  0.00     0.000 C 
BRANCH   5   6
ATOM      6  C   UNL     1      20.101   5.652  27.107  1.00  0.00     0.000 C 
BRANCH   6   7
ATOM      7  C   UNL     1      20.500   6.602  25.970  1.00  0.00     0.000 C 
BRANCH   7   8
ATOM      8  C   UNL     1      20.373   5.913  24.603  1.00  0.00     0.000 C 
BRANCH   8   9
ATOM      9  C   UNL     1      19.545   6.730  23.594  1.00  0.00     0.000 C 
BRANCH   9  10
ATOM     10  C   UNL     1      19.492   8.245  23.867  1.00  0.00     0.006 C 
BRANCH  10  11
ATOM     11  C   UNL     1      18.071   8.819  23.796  1.00  0.00     0.053 C 
BRANCH  11  12
ATOM     12  C   UNL     1      17.067   7.786  24.203  1.00  0.00     0.041 C 
ATOM     13  O   UNL     1      16.851   7.554  25.423  1.00  0.00    -0.550 OA
ATOM     14  O   UNL     1      16.346   7.096  23.234  1.00  0.00    -0.550 OA
ENDBRANCH  11  12
ENDBRANCH  10  11
ENDBRANCH   9  10
ENDBRANCH   8   9
ENDBRANCH   7   8
ENDBRANCH   6   7
ENDBRANCH   5   6
ENDBRANCH   4   5
ENDBRANCH   3   4
ENDBRANCH   2   3
ENDBRANCH   1   2
BRANCH   1  15
ATOM     15  C   UNL     1      21.613   2.386  23.808  1.00  0.00     0.000 C 
BRANCH  15  16
ATOM     16  C   UNL     1      22.941   2.648  24.546  1.00  0.00     0.000 C 
BRANCH  16  17
ATOM     17  C   UNL     1      22.897   3.778  25.593  1.00  0.00     0.000 C 
BRANCH  17  18
ATOM     18  C   UNL     1      23.021   3.309  27.054  1.00  0.00    -0.000 C 
BRANCH  18  19
ATOM     19  C   UNL     1      23.826   4.290  27.927  1.00  0.00    -0.000 C 
BRANCH  19  20
ATOM     20  C   UNL     1      24.153   5.602  27.196  1.00  0.00    -0.000 C 
BRANCH  20  21
ATOM     21  C   UNL     1      23.547   6.832  27.895  1.00  0.00    -0.000 C 
BRANCH  21  22
ATOM     22  C   UNL     1      24.566   7.973  28.061  1.00  0.00    -0.000 C 
BRANCH  22  23
ATOM     23  C   UNL     1      24.955   8.659  26.732  1.00  0.00    -0.000 C 
BRANCH  23  24
ATOM     24  C   UNL     1      24.251  10.009  26.501  1.00  0.00    -0.000 C 
BRANCH  24  25
ATOM     25  C   UNL     1      23.038   9.946  25.557  1.00  0.00    -0.003 C 
ATOM     26  C   UNL     1      21.705  10.086  26.296  1.00  0.00     0.004 C 
ENDBRANCH  24  25
ENDBRANCH  23  24
ENDBRANCH  22  23
ENDBRANCH  21  22
ENDBRANCH  20  21
ENDBRANCH  19  20
ENDBRANCH  18  19
ENDBRANCH  17  18
ENDBRANCH  16  17
ENDBRANCH  15  16
ENDBRANCH   1  15
TORSDOF 22
ENDMDL
