MODEL 1
REMARK VINA RESULT:    -4.995      0.000      0.000
REMARK INTER + INTRA:          -9.581
REMARK INTER:                  -8.499
REMARK INTRA:                  -1.082
REMARK UNBOUND:                -1.082
REMARK SMILES CCCCCCCCCCCCCC(=O)[O-]
REMARK SMILES IDX 8 1 9 2 10 3 11 4 12 5 13 6 14 7 15 8 16 9 7 10 6 11 5 12
REMARK SMILES IDX 4 13 3 14 2 15 1 16
REMARK H PARENT
REMARK Flexibility Score: inf
ROOT
ATOM      1  C   UNL     1      20.120  -1.080 -18.907  1.00  0.00     0.000 C 
ENDROOT
BRANCH   1   2
ATOM      2  C   UNL     1      20.912  -1.269 -17.602  1.00  0.00     0.000 C 
BRANCH   2   3
ATOM      3  C   UNL     1      20.012  -1.654 -16.417  1.00  0.00     0.000 C 
BRANCH   3   4
ATOM      4  C   UNL     1      20.249  -0.762 -15.186  1.00  0.00     0.000 C 
BRANCH   4   5
ATOM      5  C   UNL     1      19.850   0.702 -15.432  1.00  0.00     0.006 C 
BRANCH   5   6
ATOM      6  C   UNL     1      18.359   0.859 -15.761  1.00  0.00     0.053 C 
BRANCH   6   7
ATOM      7  C   UNL     1      18.181   1.705 -16.981  1.00  0.00     0.041 C 
ATOM      8  O   UNL     1      17.061   1.766 -17.553  1.00  0.00    -0.550 OA
ATOM      9  O   UNL     1      19.266   2.388 -17.517  1.00  0.00    -0.550 OA
ENDBRANCH   6   7
ENDBRANCH   5   6
ENDBRANCH   4   5
ENDBRANCH   3   4
ENDBRANCH   2   3
ENDBRANCH   1   2
BRANCH   1  10
ATOM     10  C   UNL     1      20.632   0.100 -19.752  1.00  0.00     0.000 C 
BRANCH  10  11
ATOM     11  C   UNL     1      19.688   0.543 -20.885  1.00  0.00    -0.000 C 
BRANCH  11  12
ATOM     12  C   UNL     1      20.354   0.507 -22.269  1.00  0.00    -0.000 C 
BRANCH  12  13
ATOM     13  C   UNL     1      19.306   0.332 -23.377  1.00  0.00    -0.000 C 
BRANCH  13  14
ATOM     14  C   UNL     1      18.059  -0.439 -22.908  1.00  0.00    -0.000 C 
BRANCH  14  15
ATOM     15  C   UNL     1      16.721   0.272 -23.175  1.00  0.00    -0.003 C 
ATOM     16  C   UNL     1      16.895   1.687 -23.726  1.00  0.00     0.004 C 
ENDBRANCH  14  15
ENDBRANCH  13  14
ENDBRANCH  12  13
ENDBRANCH  11  12
ENDBRANCH  10  11
ENDBRANCH   1  10
TORSDOF 12
ENDMDL
MODEL 2
REMARK VINA RESULT:    -4.953      1.254      2.016
REMARK INTER + INTRA:          -9.509
REMARK INTER:                  -8.709
REMARK INTRA:                  -0.801
REMARK UNBOUND:                -1.082
REMARK SMILES CCCCCCCCCCCCCC(=O)[O-]
REMARK SMILES IDX 8 1 9 2 10 3 11 4 12 5 13 6 14 7 15 8 16 9 7 10 6 11 5 12
REMARK SMILES IDX 4 13 3 14 2 15 1 16
REMARK H PARENT
REMARK Flexibility Score: inf
ROOT
ATOM      1  C   UNL     1      19.840   0.462 -20.042  1.00  0.00     0.000 C 
ENDROOT
BRANCH   1   2
ATOM      2  C   UNL     1      20.814  -0.363 -19.183  1.00  0.00     0.000 C 
BRANCH   2   3
ATOM      3  C   UNL     1      20.095  -1.420 -18.330  1.00  0.00     0.000 C 
BRANCH   3   4
ATOM      4  C   UNL     1      20.721  -1.572 -16.933  1.00  0.00     0.000 C 
BRANCH   4   5
ATOM      5  C   UNL     1      19.732  -1.241 -15.803  1.00  0.00     0.006 C 
BRANCH   5   6
ATOM      6  C   UNL     1      19.655   0.263 -15.510  1.00  0.00     0.053 C 
BRANCH   6   7
ATOM      7  C   UNL     1      18.299   0.793 -15.859  1.00  0.00     0.041 C 
ATOM      8  O   UNL     1      18.086   1.287 -16.997  1.00  0.00    -0.550 OA
ATOM      9  O   UNL     1      17.286   0.787 -14.909  1.00  0.00    -0.550 OA
ENDBRANCH   6   7
ENDBRANCH   5   6
ENDBRANCH   4   5
ENDBRANCH   3   4
ENDBRANCH   2   3
ENDBRANCH   1   2
BRANCH   1  10
ATOM     10  C   UNL     1      20.417   0.821 -21.423  1.00  0.00     0.000 C 
BRANCH  10  11
ATOM     11  C   UNL     1      19.453   0.604 -22.603  1.00  0.00    -0.000 C 
BRANCH  11  12
ATOM     12  C   UNL     1      18.561   1.824 -22.881  1.00  0.00    -0.000 C 
BRANCH  12  13
ATOM     13  C   UNL     1      17.075   1.446 -22.801  1.00  0.00    -0.000 C 
BRANCH  13  14
ATOM     14  C   UNL     1      16.761   0.100 -23.477  1.00  0.00    -0.000 C 
BRANCH  14  15
ATOM     15  C   UNL     1      16.024   0.209 -24.824  1.00  0.00    -0.003 C 
ATOM     16  C   UNL     1      15.929   1.644 -25.338  1.00  0.00     0.004 C 
ENDBRANCH  14  15
ENDBRANCH  13  14
ENDBRANCH  12  13
ENDBRANCH  11  12
ENDBRANCH  10  11
ENDBRANCH   1  10
TORSDOF 12
ENDMDL
MODEL 3
REMARK VINA RESULT:    -4.947      3.266      7.096
REMARK INTER + INTRA:          -9.499
REMARK INTER:                  -8.673
REMARK INTRA:                  -0.827
REMARK UNBOUND:                -1.082
REMARK SMILES CCCCCCCCCCCCCC(=O)[O-]
REMARK SMILES IDX 8 1 9 2 10 3 11 4 12 5 13 6 14 7 15 8 16 9 7 10 6 11 5 12
REMARK SMILES IDX 4 13 3 14 2 15 1 16
REMARK H PARENT
REMARK Flexibility Score: inf
ROOT
ATOM      1  C   UNL     1      19.774   0.380 -19.711  1.00  0.00     0.000 C 
ENDROOT
BRANCH   1   2
ATOM      2  C   UNL     1      20.148   0.500 -21.198  1.00  0.00     0.000 C 
BRANCH   2   3
ATOM      3  C   UNL     1      18.958   0.926 -22.072  1.00  0.00     0.000 C 
BRANCH   3   4
ATOM      4  C   UNL     1      18.259  -0.272 -22.737  1.00  0.00     0.000 C 
BRANCH   4   5
ATOM      5  C   UNL     1      16.794   0.024 -23.097  1.00  0.00     0.006 C 
BRANCH   5   6
ATOM      6  C   UNL     1      16.650   1.232 -24.033  1.00  0.00     0.053 C 
BRANCH   6   7
ATOM      7  C   UNL     1      16.059   0.809 -25.342  1.00  0.00     0.041 C 
ATOM      8  O   UNL     1      15.318   1.596 -25.985  1.00  0.00    -0.550 OA
ATOM      9  O   UNL     1      16.288  -0.473 -25.825  1.00  0.00    -0.550 OA
ENDBRANCH   6   7
ENDBRANCH   5   6
ENDBRANCH   4   5
ENDBRANCH   3   4
ENDBRANCH   2   3
ENDBRANCH   1   2
BRANCH   1  10
ATOM     10  C   UNL     1      20.699  -0.578 -18.937  1.00  0.00     0.000 C 
BRANCH  10  11
ATOM     11  C   UNL     1      20.111  -1.977 -18.679  1.00  0.00    -0.000 C 
BRANCH  11  12
ATOM     12  C   UNL     1      19.813  -2.238 -17.195  1.00  0.00    -0.000 C 
BRANCH  12  13
ATOM     13  C   UNL     1      20.812  -1.496 -16.295  1.00  0.00    -0.000 C 
BRANCH  13  14
ATOM     14  C   UNL     1      20.147  -0.850 -15.067  1.00  0.00    -0.000 C 
BRANCH  14  15
ATOM     15  C   UNL     1      19.798   0.640 -15.229  1.00  0.00    -0.003 C 
ATOM     16  C   UNL     1      18.329   0.875 -15.580  1.00  0.00     0.004 C 
ENDBRANCH  14  15
ENDBRANCH  13  14
ENDBRANCH  12  13
ENDBRANCH  11  12
ENDBRANCH  10  11
ENDBRANCH   1  10
TORSDOF 12
ENDMDL
MODEL 4
REMARK VINA RESULT:    -4.939      1.744      3.558
REMARK INTER + INTRA:          -9.486
REMARK INTER:                  -8.067
REMARK INTRA:                  -1.419
REMARK UNBOUND:                -1.082
REMARK SMILES CCCCCCCCCCCCCC(=O)[O-]
REMARK SMILES IDX 8 1 9 2 10 3 11 4 12 5 13 6 14 7 15 8 16 9 7 10 6 11 5 12
REMARK SMILES IDX 4 13 3 14 2 15 1 16
REMARK H PARENT
REMARK Flexibility Score: inf
ROOT
ATOM      1  C   UNL     1      21.183  -0.890 -15.162  1.00  0.00     0.000 C 
ENDROOT
BRANCH   1   2
ATOM      2  C   UNL     1      22.232  -0.080 -15.944  1.00  0.00     0.000 C 
BRANCH   2   3
ATOM      3  C   UNL     1      21.800   1.378 -16.170  1.00  0.00     0.000 C 
BRANCH   3   4
ATOM      4  C   UNL     1      21.407   2.085 -14.862  1.00  0.00     0.000 C 
BRANCH   4   5
ATOM      5  C   UNL     1      19.888   2.285 -14.731  1.00  0.00     0.006 C 
BRANCH   5   6
ATOM      6  C   UNL     1      19.178   2.304 -16.091  1.00  0.00     0.053 C 
BRANCH   6   7
ATOM      7  C   UNL     1      17.824   1.677 -15.981  1.00  0.00     0.041 C 
ATOM      8  O   UNL     1      17.527   0.984 -14.974  1.00  0.00    -0.550 OA
ATOM      9  O   UNL     1      16.907   1.818 -17.016  1.00  0.00    -0.550 OA
ENDBRANCH   6   7
ENDBRANCH   5   6
ENDBRANCH   4   5
ENDBRANCH   3   4
ENDBRANCH   2   3
ENDBRANCH   1   2
BRANCH   1  10
ATOM     10  C   UNL     1      19.936  -1.221 -16.002  1.00  0.00     0.000 C 
BRANCH  10  11
ATOM     11  C   UNL     1      20.099  -2.414 -16.960  1.00  0.00    -0.000 C 
BRANCH  11  12
ATOM     12  C   UNL     1      19.960  -2.020 -18.439  1.00  0.00    -0.000 C 
BRANCH  12  13
ATOM     13  C   UNL     1      19.808  -0.500 -18.589  1.00  0.00    -0.000 C 
BRANCH  13  14
ATOM     14  C   UNL     1      20.890   0.125 -19.488  1.00  0.00    -0.000 C 
BRANCH  14  15
ATOM     15  C   UNL     1      20.354   0.856 -20.731  1.00  0.00    -0.003 C 
ATOM     16  C   UNL     1      19.360   0.019 -21.535  1.00  0.00     0.004 C 
ENDBRANCH  14  15
ENDBRANCH  13  14
ENDBRANCH  12  13
ENDBRANCH  11  12
ENDBRANCH  10  11
ENDBRANCH   1  10
TORSDOF 12
ENDMDL
MODEL 5
REMARK VINA RESULT:    -4.867      3.002      6.710
REMARK INTER + INTRA:          -9.364
REMARK INTER:                  -8.201
REMARK INTRA:                  -1.163
REMARK UNBOUND:                -1.082
REMARK SMILES CCCCCCCCCCCCCC(=O)[O-]
REMARK SMILES IDX 8 1 9 2 10 3 11 4 12 5 13 6 14 7 15 8 16 9 7 10 6 11 5 12
REMARK SMILES IDX 4 13 3 14 2 15 1 16
REMARK H PARENT
REMARK Flexibility Score: inf
ROOT
ATOM      1  C   UNL     1      21.082  -0.358 -18.785  1.00  0.00     0.000 C 
ENDROOT
BRANCH   1   2
ATOM      2  C   UNL     1      20.716   0.618 -19.917  1.00  0.00     0.000 C 
BRANCH   2   3
ATOM      3  C   UNL     1      19.713   0.014 -20.913  1.00  0.00     0.000 C 
BRANCH   3   4
ATOM      4  C   UNL     1      19.749   0.716 -22.281  1.00  0.00     0.000 C 
BRANCH   4   5
ATOM      5  C   UNL     1      19.128  -0.138 -23.399  1.00  0.00     0.006 C 
BRANCH   5   6
ATOM      6  C   UNL     1      17.615  -0.326 -23.225  1.00  0.00     0.053 C 
BRANCH   6   7
ATOM      7  C   UNL     1      17.077  -1.231 -24.288  1.00  0.00     0.041 C 
ATOM      8  O   UNL     1      17.100  -2.479 -24.130  1.00  0.00    -0.550 OA
ATOM      9  O   UNL     1      16.595  -0.696 -25.477  1.00  0.00    -0.550 OA
ENDBRANCH   6   7
ENDBRANCH   5   6
ENDBRANCH   4   5
ENDBRANCH   3   4
ENDBRANCH   2   3
ENDBRANCH   1   2
BRANCH   1  10
ATOM     10  C   UNL     1      20.168  -1.596 -18.745  1.00  0.00     0.000 C 
BRANCH  10  11
ATOM     11  C   UNL     1      19.871  -2.136 -17.334  1.00  0.00    -0.000 C 
BRANCH  11  12
ATOM     12  C   UNL     1      20.877  -1.646 -16.280  1.00  0.00    -0.000 C 
BRANCH  12  13
ATOM     13  C   UNL     1      20.153  -1.036 -15.072  1.00  0.00    -0.000 C 
BRANCH  13  14
ATOM     14  C   UNL     1      19.873   0.468 -15.237  1.00  0.00    -0.000 C 
BRANCH  14  15
ATOM     15  C   UNL     1      18.419   0.820 -15.595  1.00  0.00    -0.003 C 
ATOM     16  C   UNL     1      18.275   1.421 -16.992  1.00  0.00     0.004 C 
ENDBRANCH  14  15
ENDBRANCH  13  14
ENDBRANCH  12  13
ENDBRANCH  11  12
ENDBRANCH  10  11
ENDBRANCH   1  10
TORSDOF 12
ENDMDL
MODEL 6
REMARK VINA RESULT:    -4.805      2.347      4.526
REMARK INTER + INTRA:          -9.259
REMARK INTER:                  -8.204
REMARK INTRA:                  -1.055
REMARK UNBOUND:                -1.082
REMARK SMILES CCCCCCCCCCCCCC(=O)[O-]
REMARK SMILES IDX 8 1 9 2 10 3 11 4 12 5 13 6 14 7 15 8 16 9 7 10 6 11 5 12
REMARK SMILES IDX 4 13 3 14 2 15 1 16
REMARK H PARENT
REMARK Flexibility Score: inf
ROOT
ATOM      1  C   UNL     1      18.282  -0.100 -22.734  1.00  0.00     0.000 C 
ENDROOT
BRANCH   1   2
ATOM      2  C   UNL     1      18.855   0.856 -21.674  1.00  0.00     0.000 C 
BRANCH   2   3
ATOM      3  C   UNL     1      19.843   0.159 -20.725  1.00  0.00     0.000 C 
BRANCH   3   4
ATOM      4  C   UNL     1      19.802   0.742 -19.302  1.00  0.00     0.000 C 
BRANCH   4   5
ATOM      5  C   UNL     1      20.862   0.121 -18.378  1.00  0.00     0.006 C 
BRANCH   5   6
ATOM      6  C   UNL     1      20.951  -1.404 -18.525  1.00  0.00     0.053 C 
BRANCH   6   7
ATOM      7  C   UNL     1      19.957  -2.073 -17.629  1.00  0.00     0.041 C 
ATOM      8  O   UNL     1      19.675  -1.572 -16.510  1.00  0.00    -0.550 OA
ATOM      9  O   UNL     1      19.379  -3.278 -18.010  1.00  0.00    -0.550 OA
ENDBRANCH   6   7
ENDBRANCH   5   6
ENDBRANCH   4   5
ENDBRANCH   3   4
ENDBRANCH   2   3
ENDBRANCH   1   2
BRANCH   1  10
ATOM     10  C   UNL     1      16.864   0.291 -23.188  1.00  0.00     0.000 C 
BRANCH  10  11
ATOM     11  C   UNL     1      16.368  -0.430 -24.454  1.00  0.00    -0.000 C 
BRANCH  11  12
ATOM     12  C   UNL     1      15.701   0.518 -25.462  1.00  0.00    -0.000 C 
BRANCH  12  13
ATOM     13  C   UNL     1      16.011   1.984 -25.125  1.00  0.00    -0.000 C 
BRANCH  13  14
ATOM     14  C   UNL     1      17.106   2.586 -26.023  1.00  0.00    -0.000 C 
BRANCH  14  15
ATOM     15  C   UNL     1      18.364   3.063 -25.275  1.00  0.00    -0.003 C 
ATOM     16  C   UNL     1      19.502   2.044 -25.308  1.00  0.00     0.004 C 
ENDBRANCH  14  15
ENDBRANCH  13  14
ENDBRANCH  12  13
ENDBRANCH  11  12
ENDBRANCH  10  11
ENDBRANCH   1  10
TORSDOF 12
ENDMDL
MODEL 7
REMARK VINA RESULT:    -4.769      5.113      8.204
REMARK INTER + INTRA:          -9.196
REMARK INTER:                  -7.525
REMARK INTRA:                  -1.672
REMARK UNBOUND:                -1.082
REMARK SMILES CCCCCCCCCCCCCC(=O)[O-]
REMARK SMILES IDX 8 1 9 2 10 3 11 4 12 5 13 6 14 7 15 8 16 9 7 10 6 11 5 12
REMARK SMILES IDX 4 13 3 14 2 15 1 16
REMARK H PARENT
REMARK Flexibility Score: inf
ROOT
ATOM      1  C   UNL     1      16.175   1.169 -25.165  1.00  0.00     0.000 C 
ENDROOT
BRANCH   1   2
ATOM      2  C   UNL     1      16.911   1.256 -26.513  1.00  0.00     0.000 C 
BRANCH   2   3
ATOM      3  C   UNL     1      18.248   0.497 -26.504  1.00  0.00     0.000 C 
BRANCH   3   4
ATOM      4  C   UNL     1      18.322  -0.575 -27.604  1.00  0.00     0.000 C 
BRANCH   4   5
ATOM      5  C   UNL     1      19.504  -1.540 -27.410  1.00  0.00     0.006 C 
BRANCH   5   6
ATOM      6  C   UNL     1      20.002  -1.575 -25.959  1.00  0.00     0.053 C 
BRANCH   6   7
ATOM      7  C   UNL     1      19.737  -2.916 -25.350  1.00  0.00     0.041 C 
ATOM      8  O   UNL     1      20.625  -3.807 -25.367  1.00  0.00    -0.550 OA
ATOM      9  O   UNL     1      18.489  -3.197 -24.807  1.00  0.00    -0.550 OA
ENDBRANCH   6   7
ENDBRANCH   5   6
ENDBRANCH   4   5
ENDBRANCH   3   4
ENDBRANCH   2   3
ENDBRANCH   1   2
BRANCH   1  10
ATOM     10  C   UNL     1      16.292  -0.218 -24.509  1.00  0.00     0.000 C 
BRANCH  10  11
ATOM     11  C   UNL     1      17.080  -0.244 -23.186  1.00  0.00    -0.000 C 
BRANCH  11  12
ATOM     12  C   UNL     1      17.094   1.115 -22.470  1.00  0.00    -0.000 C 
BRANCH  12  13
ATOM     13  C   UNL     1      18.532   1.621 -22.281  1.00  0.00    -0.000 C 
BRANCH  13  14
ATOM     14  C   UNL     1      19.550   0.481 -22.104  1.00  0.00    -0.000 C 
BRANCH  14  15
ATOM     15  C   UNL     1      20.703   0.481 -23.123  1.00  0.00    -0.003 C 
ATOM     16  C   UNL     1      20.722   1.728 -24.005  1.00  0.00     0.004 C 
ENDBRANCH  14  15
ENDBRANCH  13  14
ENDBRANCH  12  13
ENDBRANCH  11  12
ENDBRANCH  10  11
ENDBRANCH   1  10
TORSDOF 12
ENDMDL
MODEL 8
REMARK VINA RESULT:    -4.759      5.704      7.571
REMARK INTER + INTRA:          -9.180
REMARK INTER:                  -7.240
REMARK INTRA:                  -1.940
REMARK UNBOUND:                -1.082
REMARK SMILES CCCCCCCCCCCCCC(=O)[O-]
REMARK SMILES IDX 8 1 9 2 10 3 11 4 12 5 13 6 14 7 15 8 16 9 7 10 6 11 5 12
REMARK SMILES IDX 4 13 3 14 2 15 1 16
REMARK H PARENT
REMARK Flexibility Score: inf
ROOT
ATOM      1  C   UNL     1      18.962   3.048 -24.323  1.00  0.00     0.000 C 
ENDROOT
BRANCH   1   2
ATOM      2  C   UNL     1      20.205   2.396 -23.694  1.00  0.00     0.000 C 
BRANCH   2   3
ATOM      3  C   UNL     1      20.950   1.480 -24.678  1.00  0.00     0.000 C 
BRANCH   3   4
ATOM      4  C   UNL     1      21.359   0.141 -24.040  1.00  0.00     0.000 C 
BRANCH   4   5
ATOM      5  C   UNL     1      21.184  -1.048 -24.999  1.00  0.00     0.006 C 
BRANCH   5   6
ATOM      6  C   UNL     1      20.473  -0.655 -26.301  1.00  0.00     0.053 C 
BRANCH   6   7
ATOM      7  C   UNL     1      19.261  -1.507 -26.510  1.00  0.00     0.041 C 
ATOM      8  O   UNL     1      18.472  -1.264 -27.461  1.00  0.00    -0.550 OA
ATOM      9  O   UNL     1      18.975  -2.538 -25.624  1.00  0.00    -0.550 OA
ENDBRANCH   6   7
ENDBRANCH   5   6
ENDBRANCH   4   5
ENDBRANCH   3   4
ENDBRANCH   2   3
ENDBRANCH   1   2
BRANCH   1  10
ATOM     10  C   UNL     1      18.500   2.338 -25.609  1.00  0.00     0.000 C 
BRANCH  10  11
ATOM     11  C   UNL     1      17.085   2.715 -26.083  1.00  0.00    -0.000 C 
BRANCH  11  12
ATOM     12  C   UNL     1      15.978   1.971 -25.320  1.00  0.00    -0.000 C 
BRANCH  12  13
ATOM     13  C   UNL     1      15.919   0.495 -25.741  1.00  0.00    -0.000 C 
BRANCH  13  14
ATOM     14  C   UNL     1      16.218  -0.471 -24.581  1.00  0.00    -0.000 C 
BRANCH  14  15
ATOM     15  C   UNL     1      16.738   0.201 -23.298  1.00  0.00    -0.003 C 
ATOM     16  C   UNL     1      18.003  -0.458 -22.749  1.00  0.00     0.004 C 
ENDBRANCH  14  15
ENDBRANCH  13  14
ENDBRANCH  12  13
ENDBRANCH  11  12
ENDBRANCH  10  11
ENDBRANCH   1  10
TORSDOF 12
ENDMDL
MODEL 9
REMARK VINA RESULT:    -4.742      5.448      7.468
REMARK INTER + INTRA:          -9.151
REMARK INTER:                  -7.318
REMARK INTRA:                  -1.833
REMARK UNBOUND:                -1.082
REMARK SMILES CCCCCCCCCCCCCC(=O)[O-]
REMARK SMILES IDX 8 1 9 2 10 3 11 4 12 5 13 6 14 7 15 8 16 9 7 10 6 11 5 12
REMARK SMILES IDX 4 13 3 14 2 15 1 16
REMARK H PARENT
REMARK Flexibility Score: inf
ROOT
ATOM      1  C   UNL     1      19.377   0.232 -21.991  1.00  0.00     0.000 C 
ENDROOT
BRANCH   1   2
ATOM      2  C   UNL     1      20.804   0.565 -22.459  1.00  0.00     0.000 C 
BRANCH   2   3
ATOM      3  C   UNL     1      20.879   0.839 -23.969  1.00  0.00     0.000 C 
BRANCH   3   4
ATOM      4  C   UNL     1      20.190  -0.258 -24.800  1.00  0.00     0.000 C 
BRANCH   4   5
ATOM      5  C   UNL     1      20.921  -0.544 -26.122  1.00  0.00     0.006 C 
BRANCH   5   6
ATOM      6  C   UNL     1      20.082  -0.172 -27.352  1.00  0.00     0.053 C 
BRANCH   6   7
ATOM      7  C   UNL     1      19.043  -1.218 -27.609  1.00  0.00     0.041 C 
ATOM      8  O   UNL     1      19.360  -2.436 -27.619  1.00  0.00    -0.550 OA
ATOM      9  O   UNL     1      17.735  -0.843 -27.889  1.00  0.00    -0.550 OA
ENDBRANCH   6   7
ENDBRANCH   5   6
ENDBRANCH   4   5
ENDBRANCH   3   4
ENDBRANCH   2   3
ENDBRANCH   1   2
BRANCH   1  10
ATOM     10  C   UNL     1      18.443   1.455 -22.002  1.00  0.00     0.000 C 
BRANCH  10  11
ATOM     11  C   UNL     1      17.033   1.188 -22.560  1.00  0.00    -0.000 C 
BRANCH  11  12
ATOM     12  C   UNL     1      16.895  -0.200 -23.203  1.00  0.00    -0.000 C 
BRANCH  12  13
ATOM     13  C   UNL     1      16.582  -0.082 -24.702  1.00  0.00    -0.000 C 
BRANCH  13  14
ATOM     14  C   UNL     1      15.993   1.286 -25.085  1.00  0.00    -0.000 C 
BRANCH  14  15
ATOM     15  C   UNL     1      16.776   2.046 -26.170  1.00  0.00    -0.003 C 
ATOM     16  C   UNL     1      18.020   2.748 -25.629  1.00  0.00     0.004 C 
ENDBRANCH  14  15
ENDBRANCH  13  14
ENDBRANCH  12  13
ENDBRANCH  11  12
ENDBRANCH  10  11
ENDBRANCH   1  10
TORSDOF 12
ENDMDL
