MODEL 1
REMARK VINA RESULT:    -4.932      0.000      0.000
REMARK INTER + INTRA:          -9.116
REMARK INTER:                  -7.815
REMARK INTRA:                  -1.301
REMARK UNBOUND:                -1.301
REMARK SMILES CCCCCCCCCCCC(=O)[O-]
REMARK SMILES IDX 7 1 8 2 9 3 10 4 11 5 12 6 13 7 14 8 6 9 5 10 4 11 3 12 2 13
REMARK SMILES IDX 1 14
REMARK H PARENT
REMARK Flexibility Score: inf
ROOT
ATOM      1  C   UNL     1      45.229  59.607  49.615  1.00  0.00     0.000 C 
ENDROOT
BRANCH   1   2
ATOM      2  C   UNL     1      44.802  58.136  49.501  1.00  0.00     0.000 C 
BRANCH   2   3
ATOM      3  C   UNL     1      45.204  57.503  48.160  1.00  0.00     0.000 C 
BRANCH   3   4
ATOM      4  C   UNL     1      43.992  57.008  47.352  1.00  0.00     0.006 C 
BRANCH   4   5
ATOM      5  C   UNL     1      43.780  57.822  46.068  1.00  0.00     0.053 C 
BRANCH   5   6
ATOM      6  C   UNL     1      42.620  57.312  45.269  1.00  0.00     0.041 C 
ATOM      7  O   UNL     1      41.498  57.146  45.816  1.00  0.00    -0.550 OA
ATOM      8  O   UNL     1      42.785  56.991  43.927  1.00  0.00    -0.550 OA
ENDBRANCH   5   6
ENDBRANCH   4   5
ENDBRANCH   3   4
ENDBRANCH   2   3
ENDBRANCH   1   2
BRANCH   1   9
ATOM      9  C   UNL     1      44.317  60.511  48.778  1.00  0.00     0.000 C 
BRANCH   9  10
ATOM     10  C   UNL     1      43.209  61.129  49.644  1.00  0.00    -0.000 C 
BRANCH  10  11
ATOM     11  C   UNL     1      41.816  61.012  49.003  1.00  0.00    -0.000 C 
BRANCH  11  12
ATOM     12  C   UNL     1      41.636  59.700  48.218  1.00  0.00    -0.000 C 
BRANCH  12  13
ATOM     13  C   UNL     1      41.185  58.536  49.113  1.00  0.00    -0.003 C 
ATOM     14  C   UNL     1      39.831  57.958  48.698  1.00  0.00     0.004 C 
ENDBRANCH  12  13
ENDBRANCH  11  12
ENDBRANCH  10  11
ENDBRANCH   9  10
ENDBRANCH   1   9
TORSDOF 10
ENDMDL
MODEL 2
REMARK VINA RESULT:    -4.874      2.517      5.265
REMARK INTER + INTRA:          -9.025
REMARK INTER:                  -7.701
REMARK INTRA:                  -1.323
REMARK UNBOUND:                -1.301
REMARK SMILES CCCCCCCCCCCC(=O)[O-]
REMARK SMILES IDX 7 1 8 2 9 3 10 4 11 5 12 6 13 7 14 8 6 9 5 10 4 11 3 12 2 13
REMARK SMILES IDX 1 14
REMARK H PARENT
REMARK Flexibility Score: inf
ROOT
ATOM      1  C   UNL     1      40.442  57.124  46.255  1.00  0.00     0.000 C 
ENDROOT
BRANCH   1   2
ATOM      2  C   UNL     1      40.837  56.840  47.712  1.00  0.00     0.000 C 
BRANCH   2   3
ATOM      3  C   UNL     1      40.425  57.968  48.671  1.00  0.00     0.000 C 
BRANCH   3   4
ATOM      4  C   UNL     1      41.633  58.654  49.333  1.00  0.00     0.006 C 
BRANCH   4   5
ATOM      5  C   UNL     1      41.962  60.004  48.680  1.00  0.00     0.053 C 
BRANCH   5   6
ATOM      6  C   UNL     1      43.067  60.716  49.399  1.00  0.00     0.041 C 
ATOM      7  O   UNL     1      44.183  60.156  49.559  1.00  0.00    -0.550 OA
ATOM      8  O   UNL     1      42.854  61.988  49.919  1.00  0.00    -0.550 OA
ENDBRANCH   5   6
ENDBRANCH   4   5
ENDBRANCH   3   4
ENDBRANCH   2   3
ENDBRANCH   1   2
BRANCH   1   9
ATOM      9  C   UNL     1      41.471  58.033  45.573  1.00  0.00     0.000 C 
BRANCH   9  10
ATOM     10  C   UNL     1      42.540  57.204  44.846  1.00  0.00    -0.000 C 
BRANCH  10  11
ATOM     11  C   UNL     1      43.968  57.701  45.121  1.00  0.00    -0.000 C 
BRANCH  11  12
ATOM     12  C   UNL     1      44.147  58.218  46.560  1.00  0.00    -0.000 C 
BRANCH  12  13
ATOM     13  C   UNL     1      44.494  57.095  47.549  1.00  0.00    -0.003 C 
ATOM     14  C   UNL     1      45.783  57.366  48.327  1.00  0.00     0.004 C 
ENDBRANCH  12  13
ENDBRANCH  11  12
ENDBRANCH  10  11
ENDBRANCH   9  10
ENDBRANCH   1   9
TORSDOF 10
ENDMDL
MODEL 3
REMARK VINA RESULT:    -4.827      2.400      4.312
REMARK INTER + INTRA:          -8.950
REMARK INTER:                  -7.607
REMARK INTRA:                  -1.343
REMARK UNBOUND:                -1.301
REMARK SMILES CCCCCCCCCCCC(=O)[O-]
REMARK SMILES IDX 7 1 8 2 9 3 10 4 11 5 12 6 13 7 14 8 6 9 5 10 4 11 3 12 2 13
REMARK SMILES IDX 1 14
REMARK H PARENT
REMARK Flexibility Score: inf
ROOT
ATOM      1  C   UNL     1      41.363  57.981  45.372  1.00  0.00     0.000 C 
ENDROOT
BRANCH   1   2
ATOM      2  C   UNL     1      42.633  57.143  45.161  1.00  0.00     0.000 C 
BRANCH   2   3
ATOM      3  C   UNL     1      43.915  57.988  45.197  1.00  0.00     0.000 C 
BRANCH   3   4
ATOM      4  C   UNL     1      44.222  58.541  46.601  1.00  0.00     0.006 C 
BRANCH   4   5
ATOM      5  C   UNL     1      44.454  57.422  47.626  1.00  0.00     0.053 C 
BRANCH   5   6
ATOM      6  C   UNL     1      45.423  57.834  48.691  1.00  0.00     0.041 C 
ATOM      7  O   UNL     1      45.107  58.723  49.525  1.00  0.00    -0.550 OA
ATOM      8  O   UNL     1      46.686  57.257  48.745  1.00  0.00    -0.550 OA
ENDBRANCH   5   6
ENDBRANCH   4   5
ENDBRANCH   3   4
ENDBRANCH   2   3
ENDBRANCH   1   2
BRANCH   1   9
ATOM      9  C   UNL     1      40.311  57.196  46.165  1.00  0.00     0.000 C 
BRANCH   9  10
ATOM     10  C   UNL     1      40.804  56.897  47.588  1.00  0.00    -0.000 C 
BRANCH  10  11
ATOM     11  C   UNL     1      40.355  57.955  48.609  1.00  0.00    -0.000 C 
BRANCH  11  12
ATOM     12  C   UNL     1      41.538  58.741  49.205  1.00  0.00    -0.000 C 
BRANCH  12  13
ATOM     13  C   UNL     1      41.750  60.097  48.514  1.00  0.00    -0.003 C 
ATOM     14  C   UNL     1      42.503  61.098  49.391  1.00  0.00     0.004 C 
ENDBRANCH  12  13
ENDBRANCH  11  12
ENDBRANCH  10  11
ENDBRANCH   9  10
ENDBRANCH   1   9
TORSDOF 10
ENDMDL
MODEL 4
REMARK VINA RESULT:    -4.782      1.139      3.807
REMARK INTER + INTRA:          -8.878
REMARK INTER:                  -7.612
REMARK INTRA:                  -1.266
REMARK UNBOUND:                -1.301
REMARK SMILES CCCCCCCCCCCC(=O)[O-]
REMARK SMILES IDX 7 1 8 2 9 3 10 4 11 5 12 6 13 7 14 8 6 9 5 10 4 11 3 12 2 13
REMARK SMILES IDX 1 14
REMARK H PARENT
REMARK Flexibility Score: inf
ROOT
ATOM      1  C   UNL     1      44.395  60.637  49.030  1.00  0.00     0.000 C 
ENDROOT
BRANCH   1   2
ATOM      2  C   UNL     1      43.055  60.892  49.737  1.00  0.00     0.000 C 
BRANCH   2   3
ATOM      3  C   UNL     1      41.893  61.094  48.752  1.00  0.00     0.000 C 
BRANCH   3   4
ATOM      4  C   UNL     1      41.594  59.833  47.922  1.00  0.00     0.006 C 
BRANCH   4   5
ATOM      5  C   UNL     1      41.233  58.630  48.805  1.00  0.00     0.053 C 
BRANCH   5   6
ATOM      6  C   UNL     1      40.229  57.735  48.146  1.00  0.00     0.041 C 
ATOM      7  O   UNL     1      39.116  57.518  48.695  1.00  0.00    -0.550 OA
ATOM      8  O   UNL     1      40.533  57.117  46.939  1.00  0.00    -0.550 OA
ENDBRANCH   5   6
ENDBRANCH   4   5
ENDBRANCH   3   4
ENDBRANCH   2   3
ENDBRANCH   1   2
BRANCH   1   9
ATOM      9  C   UNL     1      45.259  59.654  49.828  1.00  0.00     0.000 C 
BRANCH   9  10
ATOM     10  C   UNL     1      44.781  58.209  49.623  1.00  0.00    -0.000 C 
BRANCH  10  11
ATOM     11  C   UNL     1      45.340  57.572  48.341  1.00  0.00    -0.000 C 
BRANCH  11  12
ATOM     12  C   UNL     1      44.231  57.094  47.386  1.00  0.00    -0.000 C 
BRANCH  12  13
ATOM     13  C   UNL     1      43.994  58.070  46.224  1.00  0.00    -0.003 C 
ATOM     14  C   UNL     1      43.290  57.418  45.034  1.00  0.00     0.004 C 
ENDBRANCH  12  13
ENDBRANCH  11  12
ENDBRANCH  10  11
ENDBRANCH   9  10
ENDBRANCH   1   9
TORSDOF 10
ENDMDL
MODEL 5
REMARK VINA RESULT:    -4.641      2.560      4.425
REMARK INTER + INTRA:          -8.656
REMARK INTER:                  -7.332
REMARK INTRA:                  -1.324
REMARK UNBOUND:                -1.301
REMARK SMILES CCCCCCCCCCCC(=O)[O-]
REMARK SMILES IDX 7 1 8 2 9 3 10 4 11 5 12 6 13 7 14 8 6 9 5 10 4 11 3 12 2 13
REMARK SMILES IDX 1 14
REMARK H PARENT
REMARK Flexibility Score: inf
ROOT
ATOM      1  C   UNL     1      42.600  57.134  44.960  1.00  0.00     0.000 C 
ENDROOT
BRANCH   1   2
ATOM      2  C   UNL     1      43.936  57.874  45.125  1.00  0.00     0.000 C 
BRANCH   2   3
ATOM      3  C   UNL     1      44.106  58.490  46.522  1.00  0.00     0.000 C 
BRANCH   3   4
ATOM      4  C   UNL     1      44.428  57.439  47.599  1.00  0.00     0.006 C 
BRANCH   4   5
ATOM      5  C   UNL     1      45.647  57.830  48.445  1.00  0.00     0.053 C 
BRANCH   5   6
ATOM      6  C   UNL     1      45.285  58.797  49.531  1.00  0.00     0.041 C 
ATOM      7  O   UNL     1      45.056  58.382  50.698  1.00  0.00    -0.550 OA
ATOM      8  O   UNL     1      45.174  60.153  49.248  1.00  0.00    -0.550 OA
ENDBRANCH   5   6
ENDBRANCH   4   5
ENDBRANCH   3   4
ENDBRANCH   2   3
ENDBRANCH   1   2
BRANCH   1   9
ATOM      9  C   UNL     1      41.435  57.979  45.486  1.00  0.00     0.000 C 
BRANCH   9  10
ATOM     10  C   UNL     1      40.387  57.099  46.184  1.00  0.00    -0.000 C 
BRANCH  10  11
ATOM     11  C   UNL     1      40.726  56.826  47.658  1.00  0.00    -0.000 C 
BRANCH  11  12
ATOM     12  C   UNL     1      40.308  57.982  48.585  1.00  0.00    -0.000 C 
BRANCH  12  13
ATOM     13  C   UNL     1      41.514  58.686  49.226  1.00  0.00    -0.003 C 
ATOM     14  C   UNL     1      41.757  60.085  48.656  1.00  0.00     0.004 C 
ENDBRANCH  12  13
ENDBRANCH  11  12
ENDBRANCH  10  11
ENDBRANCH   9  10
ENDBRANCH   1   9
TORSDOF 10
ENDMDL
MODEL 6
REMARK VINA RESULT:    -4.621      1.735      3.495
REMARK INTER + INTRA:          -8.624
REMARK INTER:                  -7.445
REMARK INTRA:                  -1.179
REMARK UNBOUND:                -1.301
REMARK SMILES CCCCCCCCCCCC(=O)[O-]
REMARK SMILES IDX 7 1 8 2 9 3 10 4 11 5 12 6 13 7 14 8 6 9 5 10 4 11 3 12 2 13
REMARK SMILES IDX 1 14
REMARK H PARENT
REMARK Flexibility Score: inf
ROOT
ATOM      1  C   UNL     1      44.439  57.026  47.503  1.00  0.00     0.000 C 
ENDROOT
BRANCH   1   2
ATOM      2  C   UNL     1      43.994  58.032  46.430  1.00  0.00     0.000 C 
BRANCH   2   3
ATOM      3  C   UNL     1      42.922  57.461  45.489  1.00  0.00     0.000 C 
BRANCH   3   4
ATOM      4  C   UNL     1      41.515  58.003  45.796  1.00  0.00     0.006 C 
BRANCH   4   5
ATOM      5  C   UNL     1      40.658  56.988  46.565  1.00  0.00     0.053 C 
BRANCH   5   6
ATOM      6  C   UNL     1      40.495  57.373  48.004  1.00  0.00     0.041 C 
ATOM      7  O   UNL     1      41.475  57.306  48.793  1.00  0.00    -0.550 OA
ATOM      8  O   UNL     1      39.254  57.777  48.481  1.00  0.00    -0.550 OA
ENDBRANCH   5   6
ENDBRANCH   4   5
ENDBRANCH   3   4
ENDBRANCH   2   3
ENDBRANCH   1   2
BRANCH   1   9
ATOM      9  C   UNL     1      45.513  57.633  48.414  1.00  0.00     0.000 C 
BRANCH   9  10
ATOM     10  C   UNL     1      44.876  58.411  49.574  1.00  0.00    -0.000 C 
BRANCH  10  11
ATOM     11  C   UNL     1      45.344  59.874  49.639  1.00  0.00    -0.000 C 
BRANCH  11  12
ATOM     12  C   UNL     1      44.317  60.850  49.039  1.00  0.00    -0.000 C 
BRANCH  12  13
ATOM     13  C   UNL     1      42.871  60.483  49.407  1.00  0.00    -0.003 C 
ATOM     14  C   UNL     1      41.895  60.678  48.247  1.00  0.00     0.004 C 
ENDBRANCH  12  13
ENDBRANCH  11  12
ENDBRANCH  10  11
ENDBRANCH   9  10
ENDBRANCH   1   9
TORSDOF 10
ENDMDL
MODEL 7
REMARK VINA RESULT:    -4.615      2.257      4.167
REMARK INTER + INTRA:          -8.613
REMARK INTER:                  -7.541
REMARK INTRA:                  -1.072
REMARK UNBOUND:                -1.301
REMARK SMILES CCCCCCCCCCCC(=O)[O-]
REMARK SMILES IDX 7 1 8 2 9 3 10 4 11 5 12 6 13 7 14 8 6 9 5 10 4 11 3 12 2 13
REMARK SMILES IDX 1 14
REMARK H PARENT
REMARK Flexibility Score: inf
ROOT
ATOM      1  C   UNL     1      44.008  57.955  46.130  1.00  0.00     0.000 C 
ENDROOT
BRANCH   1   2
ATOM      2  C   UNL     1      44.094  57.136  47.427  1.00  0.00     0.000 C 
BRANCH   2   3
ATOM      3  C   UNL     1      45.128  57.695  48.416  1.00  0.00     0.000 C 
BRANCH   3   4
ATOM      4  C   UNL     1      44.486  58.553  49.521  1.00  0.00     0.006 C 
BRANCH   4   5
ATOM      5  C   UNL     1      44.647  60.056  49.254  1.00  0.00     0.053 C 
BRANCH   5   6
ATOM      6  C   UNL     1      43.322  60.739  49.099  1.00  0.00     0.041 C 
ATOM      7  O   UNL     1      42.545  60.411  48.164  1.00  0.00    -0.550 OA
ATOM      8  O   UNL     1      42.958  61.759  49.971  1.00  0.00    -0.550 OA
ENDBRANCH   5   6
ENDBRANCH   4   5
ENDBRANCH   3   4
ENDBRANCH   2   3
ENDBRANCH   1   2
BRANCH   1   9
ATOM      9  C   UNL     1      42.862  57.458  45.241  1.00  0.00     0.000 C 
BRANCH   9  10
ATOM     10  C   UNL     1      41.544  58.162  45.597  1.00  0.00    -0.000 C 
BRANCH  10  11
ATOM     11  C   UNL     1      40.409  57.174  45.911  1.00  0.00    -0.000 C 
BRANCH  11  12
ATOM     12  C   UNL     1      40.440  56.683  47.370  1.00  0.00    -0.000 C 
BRANCH  12  13
ATOM     13  C   UNL     1      39.806  57.689  48.343  1.00  0.00    -0.003 C 
ATOM     14  C   UNL     1      40.738  58.072  49.493  1.00  0.00     0.004 C 
ENDBRANCH  12  13
ENDBRANCH  11  12
ENDBRANCH  10  11
ENDBRANCH   9  10
ENDBRANCH   1   9
TORSDOF 10
ENDMDL
MODEL 8
REMARK VINA RESULT:    -4.560      1.146      3.313
REMARK INTER + INTRA:          -8.526
REMARK INTER:                  -7.357
REMARK INTRA:                  -1.169
REMARK UNBOUND:                -1.301
REMARK SMILES CCCCCCCCCCCC(=O)[O-]
REMARK SMILES IDX 7 1 8 2 9 3 10 4 11 5 12 6 13 7 14 8 6 9 5 10 4 11 3 12 2 13
REMARK SMILES IDX 1 14
REMARK H PARENT
REMARK Flexibility Score: inf
ROOT
ATOM      1  C   UNL     1      41.849  61.149  49.050  1.00  0.00     0.000 C 
ENDROOT
BRANCH   1   2
ATOM      2  C   UNL     1      41.901  59.869  48.201  1.00  0.00     0.000 C 
BRANCH   2   3
ATOM      3  C   UNL     1      41.301  58.653  48.922  1.00  0.00     0.000 C 
BRANCH   3   4
ATOM      4  C   UNL     1      41.630  57.325  48.216  1.00  0.00     0.006 C 
BRANCH   4   5
ATOM      5  C   UNL     1      40.717  57.069  47.009  1.00  0.00     0.053 C 
BRANCH   5   6
ATOM      6  C   UNL     1      41.378  57.452  45.720  1.00  0.00     0.041 C 
ATOM      7  O   UNL     1      40.699  57.956  44.786  1.00  0.00    -0.550 OA
ATOM      8  O   UNL     1      42.737  57.226  45.539  1.00  0.00    -0.550 OA
ENDBRANCH   5   6
ENDBRANCH   4   5
ENDBRANCH   3   4
ENDBRANCH   2   3
ENDBRANCH   1   2
BRANCH   1   9
ATOM      9  C   UNL     1      43.190  61.400  49.749  1.00  0.00     0.000 C 
BRANCH   9  10
ATOM     10  C   UNL     1      44.341  60.722  48.992  1.00  0.00    -0.000 C 
BRANCH  10  11
ATOM     11  C   UNL     1      45.226  59.857  49.904  1.00  0.00    -0.000 C 
BRANCH  11  12
ATOM     12  C   UNL     1      45.041  58.350  49.650  1.00  0.00    -0.000 C 
BRANCH  12  13
ATOM     13  C   UNL     1      45.126  57.989  48.160  1.00  0.00    -0.003 C 
ATOM     14  C   UNL     1      45.465  56.517  47.923  1.00  0.00     0.004 C 
ENDBRANCH  12  13
ENDBRANCH  11  12
ENDBRANCH  10  11
ENDBRANCH   9  10
ENDBRANCH   1   9
TORSDOF 10
ENDMDL
MODEL 9
REMARK VINA RESULT:    -4.515      2.473      4.822
REMARK INTER + INTRA:          -8.455
REMARK INTER:                  -7.310
REMARK INTRA:                  -1.145
REMARK UNBOUND:                -1.301
REMARK SMILES CCCCCCCCCCCC(=O)[O-]
REMARK SMILES IDX 7 1 8 2 9 3 10 4 11 5 12 6 13 7 14 8 6 9 5 10 4 11 3 12 2 13
REMARK SMILES IDX 1 14
REMARK H PARENT
REMARK Flexibility Score: inf
ROOT
ATOM      1  C   UNL     1      40.446  58.025  49.557  1.00  0.00     0.000 C 
ENDROOT
BRANCH   1   2
ATOM      2  C   UNL     1      41.898  58.343  49.167  1.00  0.00     0.000 C 
BRANCH   2   3
ATOM      3  C   UNL     1      42.103  59.817  48.788  1.00  0.00     0.000 C 
BRANCH   3   4
ATOM      4  C   UNL     1      43.502  60.091  48.208  1.00  0.00     0.006 C 
BRANCH   4   5
ATOM      5  C   UNL     1      44.558  60.273  49.306  1.00  0.00     0.053 C 
BRANCH   5   6
ATOM      6  C   UNL     1      45.241  58.982  49.642  1.00  0.00     0.041 C 
ATOM      7  O   UNL     1      45.630  58.759  50.819  1.00  0.00    -0.550 OA
ATOM      8  O   UNL     1      45.474  58.038  48.650  1.00  0.00    -0.550 OA
ENDBRANCH   5   6
ENDBRANCH   4   5
ENDBRANCH   3   4
ENDBRANCH   2   3
ENDBRANCH   1   2
BRANCH   1   9
ATOM      9  C   UNL     1      39.626  57.608  48.331  1.00  0.00     0.000 C 
BRANCH   9  10
ATOM     10  C   UNL     1      40.482  56.801  47.345  1.00  0.00    -0.000 C 
BRANCH  10  11
ATOM     11  C   UNL     1      40.284  57.240  45.885  1.00  0.00    -0.000 C 
BRANCH  11  12
ATOM     12  C   UNL     1      41.550  57.875  45.282  1.00  0.00    -0.000 C 
BRANCH  12  13
ATOM     13  C   UNL     1      42.841  57.276  45.862  1.00  0.00    -0.003 C 
ATOM     14  C   UNL     1      44.100  57.994  45.375  1.00  0.00     0.004 C 
ENDBRANCH  12  13
ENDBRANCH  11  12
ENDBRANCH  10  11
ENDBRANCH   9  10
ENDBRANCH   1   9
TORSDOF 10
ENDMDL
