MODEL 1
REMARK VINA RESULT:    -5.986      0.000      0.000
REMARK INTER + INTRA:          -9.924
REMARK INTER:                  -8.610
REMARK INTRA:                  -1.314
REMARK UNBOUND:                -1.314
REMARK SMILES O=c1c(O[C@@H]2O[C@H](CO)[C@@H](O)[C@@H](O)[C@@H]2O)c(-c2ccc(O)cc2)oc2cc(O)cc(O)c12
REMARK SMILES IDX 4 1 3 2 16 3 24 4 2 5 25 6 1 7 32 8 26 9 30 10 27 11 29 12
REMARK SMILES IDX 17 13 18 14 19 15 20 16 23 17 22 18 21 19 31 21 28 23 5 25
REMARK SMILES IDX 14 26 6 27 12 28 7 29 10 30 15 31 13 33 8 35 9 36 11 38
REMARK H PARENT 21 20 31 22 28 24 15 32 13 34 9 37 11 39
REMARK Flexibility Score: inf
ROOT
ATOM      1  O   UNL     1      17.603  -3.266 -11.972  1.00  0.00    -0.454 OA
ENDROOT
BRANCH   1   2
ATOM      2  C   UNL     1      17.201  -4.055 -13.065  1.00  0.00     0.214 A 
ATOM      3  C   UNL     1      16.847  -3.418 -14.268  1.00  0.00     0.180 A 
ATOM      4  O   UNL     1      16.527  -4.141 -15.332  1.00  0.00    -0.452 OA
ATOM      5  C   UNL     1      17.158  -5.463 -13.009  1.00  0.00     0.239 A 
ATOM      6  C   UNL     1      16.476  -5.467 -15.328  1.00  0.00     0.146 A 
ATOM      7  O   UNL     1      17.502  -6.046 -11.950  1.00  0.00    -0.285 OA
ATOM      8  C   UNL     1      16.748  -6.202 -14.146  1.00  0.00     0.111 A 
ATOM      9  C   UNL     1      16.152  -6.125 -16.516  1.00  0.00     0.094 A 
ATOM     10  C   UNL     1      16.629  -7.625 -14.188  1.00  0.00     0.134 A 
ATOM     11  C   UNL     1      16.098  -7.516 -16.563  1.00  0.00     0.123 A 
ATOM     12  C   UNL     1      16.340  -8.257 -15.403  1.00  0.00     0.093 A 
BRANCH   3  13
ATOM     13  C   UNL     1      16.880  -1.945 -14.413  1.00  0.00     0.021 A 
ATOM     14  C   UNL     1      18.054  -1.322 -14.867  1.00  0.00     0.016 A 
ATOM     15  C   UNL     1      18.108   0.068 -15.010  1.00  0.00     0.047 A 
ATOM     16  C   UNL     1      16.985   0.850 -14.711  1.00  0.00     0.115 A 
ATOM     17  C   UNL     1      15.751  -1.154 -14.137  1.00  0.00     0.016 A 
ATOM     18  C   UNL     1      15.808   0.235 -14.278  1.00  0.00     0.047 A 
BRANCH  16  19
ATOM     19  O   UNL     1      17.029   2.236 -14.845  1.00  0.00    -0.508 OA
ATOM     20  H   UNL     1      16.384   2.837 -14.345  1.00  0.00     0.293 HD
ENDBRANCH  16  19
ENDBRANCH   3  13
BRANCH  10  21
ATOM     21  O   UNL     1      16.757  -8.454 -13.070  1.00  0.00    -0.507 OA
ATOM     22  H   UNL     1      17.615  -8.896 -12.775  1.00  0.00     0.293 HD
ENDBRANCH  10  21
BRANCH  11  23
ATOM     23  O   UNL     1      15.795  -8.153 -17.763  1.00  0.00    -0.508 OA
ATOM     24  H   UNL     1      15.843  -9.161 -17.855  1.00  0.00     0.293 HD
ENDBRANCH  11  23
ENDBRANCH   1   2
BRANCH   1  25
ATOM     25  C   UNL     1      16.723  -2.556 -11.097  1.00  0.00     0.339 C 
ATOM     26  C   UNL     1      16.668  -3.247  -9.724  1.00  0.00     0.214 C 
ATOM     27  O   UNL     1      17.070  -1.182 -10.996  1.00  0.00    -0.332 OA
ATOM     28  C   UNL     1      18.015  -3.113  -9.015  1.00  0.00     0.180 C 
ATOM     29  C   UNL     1      18.292  -0.924 -10.314  1.00  0.00     0.179 C 
ATOM     30  C   UNL     1      18.415  -1.628  -8.936  1.00  0.00     0.177 C 
BRANCH  26  31
ATOM     31  O   UNL     1      16.359  -4.609  -9.881  1.00  0.00    -0.384 OA
ATOM     32  H   UNL     1      15.638  -4.664 -10.561  1.00  0.00     0.211 HD
ENDBRANCH  26  31
BRANCH  28  33
ATOM     33  O   UNL     1      17.921  -3.666  -7.727  1.00  0.00    -0.387 OA
ATOM     34  H   UNL     1      18.277  -2.986  -7.098  1.00  0.00     0.211 HD
ENDBRANCH  28  33
BRANCH  29  35
ATOM     35  C   UNL     1      19.529  -1.053 -11.230  1.00  0.00     0.191 C 
BRANCH  35  36
ATOM     36  O   UNL     1      20.239  -2.233 -10.990  1.00  0.00    -0.394 OA
ATOM     37  H   UNL     1      20.863  -2.034 -10.244  1.00  0.00     0.210 HD
ENDBRANCH  35  36
ENDBRANCH  29  35
BRANCH  30  38
ATOM     38  O   UNL     1      17.585  -0.961  -8.015  1.00  0.00    -0.387 OA
ATOM     39  H   UNL     1      16.771  -1.516  -7.898  1.00  0.00     0.211 HD
ENDBRANCH  30  38
ENDBRANCH   1  25
TORSDOF 11
ENDMDL
MODEL 2
REMARK VINA RESULT:    -5.882      3.783      6.165
REMARK INTER + INTRA:          -9.774
REMARK INTER:                  -8.344
REMARK INTRA:                  -1.430
REMARK UNBOUND:                -1.314
REMARK SMILES O=c1c(O[C@@H]2O[C@H](CO)[C@@H](O)[C@@H](O)[C@@H]2O)c(-c2ccc(O)cc2)oc2cc(O)cc(O)c12
REMARK SMILES IDX 4 1 3 2 16 3 24 4 2 5 25 6 1 7 32 8 26 9 30 10 27 11 29 12
REMARK SMILES IDX 17 13 18 14 19 15 20 16 23 17 22 18 21 19 31 21 28 23 5 25
REMARK SMILES IDX 14 26 6 27 12 28 7 29 10 30 15 31 13 33 8 35 9 36 11 38
REMARK H PARENT 21 20 31 22 28 24 15 32 13 34 9 37 11 39
REMARK Flexibility Score: inf
ROOT
ATOM      1  O   UNL     1      18.926   0.684 -13.548  1.00  0.00    -0.454 OA
ENDROOT
BRANCH   1   2
ATOM      2  C   UNL     1      18.984   0.304 -14.901  1.00  0.00     0.214 A 
ATOM      3  C   UNL     1      17.949  -0.491 -15.427  1.00  0.00     0.180 A 
ATOM      4  O   UNL     1      17.947  -0.808 -16.715  1.00  0.00    -0.452 OA
ATOM      5  C   UNL     1      20.029   0.705 -15.758  1.00  0.00     0.239 A 
ATOM      6  C   UNL     1      18.907  -0.452 -17.559  1.00  0.00     0.146 A 
ATOM      7  O   UNL     1      20.943   1.442 -15.308  1.00  0.00    -0.285 OA
ATOM      8  C   UNL     1      20.028   0.292 -17.113  1.00  0.00     0.111 A 
ATOM      9  C   UNL     1      18.785  -0.821 -18.900  1.00  0.00     0.094 A 
ATOM     10  C   UNL     1      21.054   0.605 -18.056  1.00  0.00     0.134 A 
ATOM     11  C   UNL     1      19.761  -0.458 -19.825  1.00  0.00     0.123 A 
ATOM     12  C   UNL     1      20.886   0.254 -19.401  1.00  0.00     0.093 A 
BRANCH   3  13
ATOM     13  C   UNL     1      16.809  -0.941 -14.598  1.00  0.00     0.021 A 
ATOM     14  C   UNL     1      15.723  -0.074 -14.387  1.00  0.00     0.016 A 
ATOM     15  C   UNL     1      14.637  -0.478 -13.606  1.00  0.00     0.047 A 
ATOM     16  C   UNL     1      14.616  -1.757 -13.036  1.00  0.00     0.115 A 
ATOM     17  C   UNL     1      16.770  -2.231 -14.041  1.00  0.00     0.016 A 
ATOM     18  C   UNL     1      15.684  -2.631 -13.258  1.00  0.00     0.047 A 
BRANCH  16  19
ATOM     19  O   UNL     1      13.541  -2.169 -12.252  1.00  0.00    -0.508 OA
ATOM     20  H   UNL     1      13.079  -3.057 -12.410  1.00  0.00     0.293 HD
ENDBRANCH  16  19
ENDBRANCH   3  13
BRANCH  10  21
ATOM     21  O   UNL     1      22.260   1.230 -17.722  1.00  0.00    -0.507 OA
ATOM     22  H   UNL     1      22.384   2.227 -17.624  1.00  0.00     0.293 HD
ENDBRANCH  10  21
BRANCH  11  23
ATOM     23  O   UNL     1      19.610  -0.819 -21.161  1.00  0.00    -0.508 OA
ATOM     24  H   UNL     1      19.716  -0.141 -21.908  1.00  0.00     0.293 HD
ENDBRANCH  11  23
ENDBRANCH   1   2
BRANCH   1  25
ATOM     25  C   UNL     1      19.300  -0.139 -12.441  1.00  0.00     0.339 C 
ATOM     26  C   UNL     1      20.567   0.418 -11.770  1.00  0.00     0.214 C 
ATOM     27  O   UNL     1      18.233  -0.309 -11.520  1.00  0.00    -0.332 OA
ATOM     28  C   UNL     1      20.259   1.754 -11.096  1.00  0.00     0.180 C 
ATOM     29  C   UNL     1      17.878   0.864 -10.794  1.00  0.00     0.179 C 
ATOM     30  C   UNL     1      19.077   1.585 -10.124  1.00  0.00     0.177 C 
BRANCH  26  31
ATOM     31  O   UNL     1      21.580   0.602 -12.727  1.00  0.00    -0.384 OA
ATOM     32  H   UNL     1      22.159  -0.204 -12.692  1.00  0.00     0.211 HD
ENDBRANCH  26  31
BRANCH  28  33
ATOM     33  O   UNL     1      21.400   2.203 -10.410  1.00  0.00    -0.387 OA
ATOM     34  H   UNL     1      22.050   2.500 -11.099  1.00  0.00     0.211 HD
ENDBRANCH  28  33
BRANCH  29  35
ATOM     35  C   UNL     1      16.911   1.782 -11.575  1.00  0.00     0.191 C 
BRANCH  35  36
ATOM     36  O   UNL     1      15.629   1.791 -11.017  1.00  0.00    -0.394 OA
ATOM     37  H   UNL     1      15.666   1.187 -10.230  1.00  0.00     0.210 HD
ENDBRANCH  35  36
ENDBRANCH  29  35
BRANCH  30  38
ATOM     38  O   UNL     1      19.485   0.834  -9.005  1.00  0.00    -0.387 OA
ATOM     39  H   UNL     1      20.357   0.419  -9.233  1.00  0.00     0.211 HD
ENDBRANCH  30  38
ENDBRANCH   1  25
TORSDOF 11
ENDMDL
MODEL 3
REMARK VINA RESULT:    -5.686      3.771      6.325
REMARK INTER + INTRA:          -9.492
REMARK INTER:                  -8.424
REMARK INTRA:                  -1.069
REMARK UNBOUND:                -1.314
REMARK SMILES O=c1c(O[C@@H]2O[C@H](CO)[C@@H](O)[C@@H](O)[C@@H]2O)c(-c2ccc(O)cc2)oc2cc(O)cc(O)c12
REMARK SMILES IDX 4 1 3 2 16 3 24 4 2 5 25 6 1 7 32 8 26 9 30 10 27 11 29 12
REMARK SMILES IDX 17 13 18 14 19 15 20 16 23 17 22 18 21 19 31 21 28 23 5 25
REMARK SMILES IDX 14 26 6 27 12 28 7 29 10 30 15 31 13 33 8 35 9 36 11 38
REMARK H PARENT 21 20 31 22 28 24 15 32 13 34 9 37 11 39
REMARK Flexibility Score: inf
ROOT
ATOM      1  O   UNL     1      18.874   0.839 -13.526  1.00  0.00    -0.454 OA
ENDROOT
BRANCH   1   2
ATOM      2  C   UNL     1      18.946   0.405 -14.862  1.00  0.00     0.214 A 
ATOM      3  C   UNL     1      17.927  -0.427 -15.360  1.00  0.00     0.180 A 
ATOM      4  O   UNL     1      17.936  -0.797 -16.633  1.00  0.00    -0.452 OA
ATOM      5  C   UNL     1      19.988   0.788 -15.730  1.00  0.00     0.239 A 
ATOM      6  C   UNL     1      18.894  -0.459 -17.487  1.00  0.00     0.146 A 
ATOM      7  O   UNL     1      20.887   1.558 -15.307  1.00  0.00    -0.285 OA
ATOM      8  C   UNL     1      20.001   0.321 -17.067  1.00  0.00     0.111 A 
ATOM      9  C   UNL     1      18.786  -0.885 -18.813  1.00  0.00     0.094 A 
ATOM     10  C   UNL     1      21.026   0.613 -18.018  1.00  0.00     0.134 A 
ATOM     11  C   UNL     1      19.760  -0.544 -19.747  1.00  0.00     0.123 A 
ATOM     12  C   UNL     1      20.871   0.204 -19.348  1.00  0.00     0.093 A 
BRANCH   3  13
ATOM     13  C   UNL     1      16.789  -0.862 -14.518  1.00  0.00     0.021 A 
ATOM     14  C   UNL     1      15.741   0.035 -14.256  1.00  0.00     0.016 A 
ATOM     15  C   UNL     1      14.659  -0.354 -13.462  1.00  0.00     0.047 A 
ATOM     16  C   UNL     1      14.605  -1.649 -12.931  1.00  0.00     0.115 A 
ATOM     17  C   UNL     1      16.716  -2.167 -14.000  1.00  0.00     0.016 A 
ATOM     18  C   UNL     1      15.634  -2.553 -13.204  1.00  0.00     0.047 A 
BRANCH  16  19
ATOM     19  O   UNL     1      13.533  -2.047 -12.134  1.00  0.00    -0.508 OA
ATOM     20  H   UNL     1      13.626  -2.143 -11.130  1.00  0.00     0.293 HD
ENDBRANCH  16  19
ENDBRANCH   3  13
BRANCH  10  21
ATOM     21  O   UNL     1      22.219   1.271 -17.704  1.00  0.00    -0.507 OA
ATOM     22  H   UNL     1      23.115   1.072 -18.125  1.00  0.00     0.293 HD
ENDBRANCH  10  21
BRANCH  11  23
ATOM     23  O   UNL     1      19.621  -0.960 -21.069  1.00  0.00    -0.508 OA
ATOM     24  H   UNL     1      19.222  -1.863 -21.301  1.00  0.00     0.293 HD
ENDBRANCH  11  23
ENDBRANCH   1   2
BRANCH   1  25
ATOM     25  C   UNL     1      19.996   1.082 -12.675  1.00  0.00     0.339 C 
ATOM     26  C   UNL     1      19.996   2.545 -12.200  1.00  0.00     0.214 C 
ATOM     27  O   UNL     1      20.049   0.164 -11.592  1.00  0.00    -0.332 OA
ATOM     28  C   UNL     1      18.813   2.792 -11.264  1.00  0.00     0.180 C 
ATOM     29  C   UNL     1      19.018   0.322 -10.624  1.00  0.00     0.179 C 
ATOM     30  C   UNL     1      18.845   1.776 -10.108  1.00  0.00     0.177 C 
BRANCH  26  31
ATOM     31  O   UNL     1      19.905   3.411 -13.303  1.00  0.00    -0.384 OA
ATOM     32  H   UNL     1      20.024   2.854 -14.117  1.00  0.00     0.211 HD
ENDBRANCH  26  31
BRANCH  28  33
ATOM     33  O   UNL     1      18.880   4.105 -10.766  1.00  0.00    -0.387 OA
ATOM     34  H   UNL     1      18.389   4.108  -9.904  1.00  0.00     0.211 HD
ENDBRANCH  28  33
BRANCH  29  35
ATOM     35  C   UNL     1      17.708  -0.395 -11.021  1.00  0.00     0.191 C 
BRANCH  35  36
ATOM     36  O   UNL     1      16.582   0.229 -10.477  1.00  0.00    -0.394 OA
ATOM     37  H   UNL     1      16.668   0.147  -9.491  1.00  0.00     0.210 HD
ENDBRANCH  35  36
ENDBRANCH  29  35
BRANCH  30  38
ATOM     38  O   UNL     1      19.912   2.074  -9.240  1.00  0.00    -0.387 OA
ATOM     39  H   UNL     1      19.863   1.432  -8.485  1.00  0.00     0.211 HD
ENDBRANCH  30  38
ENDBRANCH   1  25
TORSDOF 11
ENDMDL
MODEL 4
REMARK VINA RESULT:    -5.646      2.477      6.004
REMARK INTER + INTRA:          -9.435
REMARK INTER:                  -8.155
REMARK INTRA:                  -1.279
REMARK UNBOUND:                -1.314
REMARK SMILES O=c1c(O[C@@H]2O[C@H](CO)[C@@H](O)[C@@H](O)[C@@H]2O)c(-c2ccc(O)cc2)oc2cc(O)cc(O)c12
REMARK SMILES IDX 4 1 3 2 16 3 24 4 2 5 25 6 1 7 32 8 26 9 30 10 27 11 29 12
REMARK SMILES IDX 17 13 18 14 19 15 20 16 23 17 22 18 21 19 31 21 28 23 5 25
REMARK SMILES IDX 14 26 6 27 12 28 7 29 10 30 15 31 13 33 8 35 9 36 11 38
REMARK H PARENT 21 20 31 22 28 24 15 32 13 34 9 37 11 39
REMARK Flexibility Score: inf
ROOT
ATOM      1  O   UNL     1      17.122  -3.032 -13.726  1.00  0.00    -0.454 OA
ENDROOT
BRANCH   1   2
ATOM      2  C   UNL     1      17.683  -2.788 -14.992  1.00  0.00     0.214 A 
ATOM      3  C   UNL     1      17.813  -3.860 -15.895  1.00  0.00     0.180 A 
ATOM      4  O   UNL     1      18.278  -3.644 -17.118  1.00  0.00    -0.452 OA
ATOM      5  C   UNL     1      18.104  -1.507 -15.402  1.00  0.00     0.239 A 
ATOM      6  C   UNL     1      18.683  -2.455 -17.548  1.00  0.00     0.146 A 
ATOM      7  O   UNL     1      17.964  -0.535 -14.617  1.00  0.00    -0.285 OA
ATOM      8  C   UNL     1      18.658  -1.325 -16.693  1.00  0.00     0.111 A 
ATOM      9  C   UNL     1      19.131  -2.341 -18.866  1.00  0.00     0.094 A 
ATOM     10  C   UNL     1      19.152  -0.082 -17.195  1.00  0.00     0.134 A 
ATOM     11  C   UNL     1      19.553  -1.112 -19.365  1.00  0.00     0.123 A 
ATOM     12  C   UNL     1      19.559   0.009 -18.531  1.00  0.00     0.093 A 
BRANCH   3  13
ATOM     13  C   UNL     1      17.381  -5.232 -15.548  1.00  0.00     0.021 A 
ATOM     14  C   UNL     1      16.123  -5.690 -15.974  1.00  0.00     0.016 A 
ATOM     15  C   UNL     1      15.694  -6.981 -15.655  1.00  0.00     0.047 A 
ATOM     16  C   UNL     1      16.523  -7.836 -14.918  1.00  0.00     0.115 A 
ATOM     17  C   UNL     1      18.216  -6.104 -14.828  1.00  0.00     0.016 A 
ATOM     18  C   UNL     1      17.784  -7.395 -14.508  1.00  0.00     0.047 A 
BRANCH  16  19
ATOM     19  O   UNL     1      16.105  -9.125 -14.591  1.00  0.00    -0.508 OA
ATOM     20  H   UNL     1      16.084  -9.446 -13.631  1.00  0.00     0.293 HD
ENDBRANCH  16  19
ENDBRANCH   3  13
BRANCH  10  21
ATOM     21  O   UNL     1      19.289   1.075 -16.422  1.00  0.00    -0.507 OA
ATOM     22  H   UNL     1      18.613   1.822 -16.379  1.00  0.00     0.293 HD
ENDBRANCH  10  21
BRANCH  11  23
ATOM     23  O   UNL     1      19.976  -1.016 -20.689  1.00  0.00    -0.508 OA
ATOM     24  H   UNL     1      20.952  -1.118 -20.942  1.00  0.00     0.293 HD
ENDBRANCH  11  23
ENDBRANCH   1   2
BRANCH   1  25
ATOM     25  C   UNL     1      17.861  -3.254 -12.523  1.00  0.00     0.339 C 
ATOM     26  C   UNL     1      17.525  -2.168 -11.486  1.00  0.00     0.214 C 
ATOM     27  O   UNL     1      17.666  -4.565 -12.013  1.00  0.00    -0.332 OA
ATOM     28  C   UNL     1      16.079  -2.322 -11.016  1.00  0.00     0.180 C 
ATOM     29  C   UNL     1      16.361  -4.820 -11.503  1.00  0.00     0.179 C 
ATOM     30  C   UNL     1      15.851  -3.753 -10.498  1.00  0.00     0.177 C 
BRANCH  26  31
ATOM     31  O   UNL     1      17.698  -0.893 -12.049  1.00  0.00    -0.384 OA
ATOM     32  H   UNL     1      16.790  -0.529 -12.223  1.00  0.00     0.211 HD
ENDBRANCH  26  31
BRANCH  28  33
ATOM     33  O   UNL     1      15.817  -1.384 -10.003  1.00  0.00    -0.387 OA
ATOM     34  H   UNL     1      16.693  -1.005  -9.732  1.00  0.00     0.211 HD
ENDBRANCH  28  33
BRANCH  29  35
ATOM     35  C   UNL     1      15.354  -5.218 -12.606  1.00  0.00     0.191 C 
BRANCH  35  36
ATOM     36  O   UNL     1      14.034  -4.952 -12.232  1.00  0.00    -0.394 OA
ATOM     37  H   UNL     1      13.538  -4.772 -13.073  1.00  0.00     0.210 HD
ENDBRANCH  35  36
ENDBRANCH  29  35
BRANCH  30  38
ATOM     38  O   UNL     1      16.526  -3.930  -9.275  1.00  0.00    -0.387 OA
ATOM     39  H   UNL     1      16.751  -4.894  -9.202  1.00  0.00     0.211 HD
ENDBRANCH  30  38
ENDBRANCH   1  25
TORSDOF 11
ENDMDL
MODEL 5
REMARK VINA RESULT:    -5.569      3.051      7.472
REMARK INTER + INTRA:          -9.324
REMARK INTER:                  -8.004
REMARK INTRA:                  -1.320
REMARK UNBOUND:                -1.314
REMARK SMILES O=c1c(O[C@@H]2O[C@H](CO)[C@@H](O)[C@@H](O)[C@@H]2O)c(-c2ccc(O)cc2)oc2cc(O)cc(O)c12
REMARK SMILES IDX 4 1 3 2 16 3 24 4 2 5 25 6 1 7 32 8 26 9 30 10 27 11 29 12
REMARK SMILES IDX 17 13 18 14 19 15 20 16 23 17 22 18 21 19 31 21 28 23 5 25
REMARK SMILES IDX 14 26 6 27 12 28 7 29 10 30 15 31 13 33 8 35 9 36 11 38
REMARK H PARENT 21 20 31 22 28 24 15 32 13 34 9 37 11 39
REMARK Flexibility Score: inf
ROOT
ATOM      1  O   UNL     1      16.489  -2.243 -11.828  1.00  0.00    -0.454 OA
ENDROOT
BRANCH   1   2
ATOM      2  C   UNL     1      15.721  -1.162 -11.357  1.00  0.00     0.214 A 
ATOM      3  C   UNL     1      16.002  -0.636 -10.083  1.00  0.00     0.180 A 
ATOM      4  O   UNL     1      15.337   0.423  -9.643  1.00  0.00    -0.452 OA
ATOM      5  C   UNL     1      14.694  -0.571 -12.120  1.00  0.00     0.239 A 
ATOM      6  C   UNL     1      14.365   1.014 -10.326  1.00  0.00     0.146 A 
ATOM      7  O   UNL     1      14.456  -1.012 -13.273  1.00  0.00    -0.285 OA
ATOM      8  C   UNL     1      13.960   0.518 -11.591  1.00  0.00     0.111 A 
ATOM      9  C   UNL     1      13.751   2.140  -9.773  1.00  0.00     0.094 A 
ATOM     10  C   UNL     1      12.875   1.165 -12.259  1.00  0.00     0.134 A 
ATOM     11  C   UNL     1      12.736   2.801 -10.460  1.00  0.00     0.123 A 
ATOM     12  C   UNL     1      12.306   2.314 -11.697  1.00  0.00     0.093 A 
BRANCH   3  13
ATOM     13  C   UNL     1      17.074  -1.190  -9.225  1.00  0.00     0.021 A 
ATOM     14  C   UNL     1      18.110  -0.350  -8.785  1.00  0.00     0.016 A 
ATOM     15  C   UNL     1      19.133  -0.852  -7.976  1.00  0.00     0.047 A 
ATOM     16  C   UNL     1      19.127  -2.198  -7.588  1.00  0.00     0.115 A 
ATOM     17  C   UNL     1      17.063  -2.534  -8.812  1.00  0.00     0.016 A 
ATOM     18  C   UNL     1      18.088  -3.034  -8.005  1.00  0.00     0.047 A 
BRANCH  16  19
ATOM     19  O   UNL     1      20.144  -2.711  -6.785  1.00  0.00    -0.508 OA
ATOM     20  H   UNL     1      20.013  -2.853  -5.791  1.00  0.00     0.293 HD
ENDBRANCH  16  19
ENDBRANCH   3  13
BRANCH  10  21
ATOM     21  O   UNL     1      12.306   0.707 -13.451  1.00  0.00    -0.507 OA
ATOM     22  H   UNL     1      11.648  -0.055 -13.520  1.00  0.00     0.293 HD
ENDBRANCH  10  21
BRANCH  11  23
ATOM     23  O   UNL     1      12.153   3.935  -9.901  1.00  0.00    -0.508 OA
ATOM     24  H   UNL     1      11.161   3.972  -9.691  1.00  0.00     0.293 HD
ENDBRANCH  11  23
ENDBRANCH   1   2
BRANCH   1  25
ATOM     25  C   UNL     1      17.261  -2.246 -13.031  1.00  0.00     0.339 C 
ATOM     26  C   UNL     1      18.678  -2.774 -12.751  1.00  0.00     0.214 C 
ATOM     27  O   UNL     1      16.615  -2.963 -14.074  1.00  0.00    -0.332 OA
ATOM     28  C   UNL     1      18.624  -4.258 -12.392  1.00  0.00     0.180 C 
ATOM     29  C   UNL     1      16.539  -4.370 -13.874  1.00  0.00     0.179 C 
ATOM     30  C   UNL     1      17.891  -5.034 -13.502  1.00  0.00     0.177 C 
BRANCH  26  31
ATOM     31  O   UNL     1      19.259  -2.059 -11.690  1.00  0.00    -0.384 OA
ATOM     32  H   UNL     1      19.804  -2.707 -11.171  1.00  0.00     0.211 HD
ENDBRANCH  26  31
BRANCH  28  33
ATOM     33  O   UNL     1      19.932  -4.746 -12.232  1.00  0.00    -0.387 OA
ATOM     34  H   UNL     1      20.540  -3.968 -12.327  1.00  0.00     0.211 HD
ENDBRANCH  28  33
BRANCH  29  35
ATOM     35  C   UNL     1      15.338  -4.786 -12.996  1.00  0.00     0.191 C 
BRANCH  35  36
ATOM     36  O   UNL     1      14.243  -3.935 -13.167  1.00  0.00    -0.394 OA
ATOM     37  H   UNL     1      14.617  -3.030 -13.328  1.00  0.00     0.210 HD
ENDBRANCH  35  36
ENDBRANCH  29  35
BRANCH  30  38
ATOM     38  O   UNL     1      18.697  -5.091 -14.655  1.00  0.00    -0.387 OA
ATOM     39  H   UNL     1      19.590  -4.737 -14.405  1.00  0.00     0.211 HD
ENDBRANCH  30  38
ENDBRANCH   1  25
TORSDOF 11
ENDMDL
MODEL 6
REMARK VINA RESULT:    -5.547      3.573      6.392
REMARK INTER + INTRA:          -9.292
REMARK INTER:                  -7.959
REMARK INTRA:                  -1.333
REMARK UNBOUND:                -1.314
REMARK SMILES O=c1c(O[C@@H]2O[C@H](CO)[C@@H](O)[C@@H](O)[C@@H]2O)c(-c2ccc(O)cc2)oc2cc(O)cc(O)c12
REMARK SMILES IDX 4 1 3 2 16 3 24 4 2 5 25 6 1 7 32 8 26 9 30 10 27 11 29 12
REMARK SMILES IDX 17 13 18 14 19 15 20 16 23 17 22 18 21 19 31 21 28 23 5 25
REMARK SMILES IDX 14 26 6 27 12 28 7 29 10 30 15 31 13 33 8 35 9 36 11 38
REMARK H PARENT 21 20 31 22 28 24 15 32 13 34 9 37 11 39
REMARK Flexibility Score: inf
ROOT
ATOM      1  O   UNL     1      18.569   0.064  -9.867  1.00  0.00    -0.454 OA
ENDROOT
BRANCH   1   2
ATOM      2  C   UNL     1      17.722  -1.012 -10.187  1.00  0.00     0.214 A 
ATOM      3  C   UNL     1      17.883  -2.229  -9.500  1.00  0.00     0.180 A 
ATOM      4  O   UNL     1      17.056  -3.238  -9.736  1.00  0.00    -0.452 OA
ATOM      5  C   UNL     1      16.703  -0.914 -11.156  1.00  0.00     0.239 A 
ATOM      6  C   UNL     1      16.082  -3.191 -10.636  1.00  0.00     0.146 A 
ATOM      7  O   UNL     1      16.528   0.178 -11.754  1.00  0.00    -0.285 OA
ATOM      8  C   UNL     1      15.880  -2.034 -11.430  1.00  0.00     0.111 A 
ATOM      9  C   UNL     1      15.255  -4.307 -10.781  1.00  0.00     0.094 A 
ATOM     10  C   UNL     1      14.847  -2.058 -12.416  1.00  0.00     0.134 A 
ATOM     11  C   UNL     1      14.212  -4.299 -11.704  1.00  0.00     0.123 A 
ATOM     12  C   UNL     1      14.011  -3.177 -12.512  1.00  0.00     0.093 A 
BRANCH   3  13
ATOM     13  C   UNL     1      18.919  -2.409  -8.458  1.00  0.00     0.021 A 
ATOM     14  C   UNL     1      18.531  -2.709  -7.142  1.00  0.00     0.016 A 
ATOM     15  C   UNL     1      19.492  -2.880  -6.142  1.00  0.00     0.047 A 
ATOM     16  C   UNL     1      20.854  -2.768  -6.448  1.00  0.00     0.115 A 
ATOM     17  C   UNL     1      20.289  -2.320  -8.761  1.00  0.00     0.016 A 
ATOM     18  C   UNL     1      21.248  -2.490  -7.759  1.00  0.00     0.047 A 
BRANCH  16  19
ATOM     19  O   UNL     1      21.822  -2.933  -5.459  1.00  0.00    -0.508 OA
ATOM     20  H   UNL     1      22.811  -2.903  -5.675  1.00  0.00     0.293 HD
ENDBRANCH  16  19
ENDBRANCH   3  13
BRANCH  10  21
ATOM     21  O   UNL     1      14.620  -1.031 -13.337  1.00  0.00    -0.507 OA
ATOM     22  H   UNL     1      15.196  -0.208 -13.436  1.00  0.00     0.293 HD
ENDBRANCH  10  21
BRANCH  11  23
ATOM     23  O   UNL     1      13.385  -5.414 -11.817  1.00  0.00    -0.508 OA
ATOM     24  H   UNL     1      12.724  -5.508 -12.580  1.00  0.00     0.293 HD
ENDBRANCH  11  23
ENDBRANCH   1   2
BRANCH   1  25
ATOM     25  C   UNL     1      18.140   1.333  -9.367  1.00  0.00     0.339 C 
ATOM     26  C   UNL     1      18.889   1.671  -8.066  1.00  0.00     0.214 C 
ATOM     27  O   UNL     1      18.264   2.358 -10.342  1.00  0.00    -0.332 OA
ATOM     28  C   UNL     1      20.368   1.917  -8.361  1.00  0.00     0.180 C 
ATOM     29  C   UNL     1      19.604   2.708 -10.673  1.00  0.00     0.179 C 
ATOM     30  C   UNL     1      20.508   3.001  -9.446  1.00  0.00     0.177 C 
BRANCH  26  31
ATOM     31  O   UNL     1      18.767   0.614  -7.149  1.00  0.00    -0.384 OA
ATOM     32  H   UNL     1      18.114   0.904  -6.459  1.00  0.00     0.211 HD
ENDBRANCH  26  31
BRANCH  28  33
ATOM     33  O   UNL     1      21.018   2.316  -7.181  1.00  0.00    -0.387 OA
ATOM     34  H   UNL     1      21.040   3.309  -7.189  1.00  0.00     0.211 HD
ENDBRANCH  28  33
BRANCH  29  35
ATOM     35  C   UNL     1      20.222   1.774 -11.737  1.00  0.00     0.191 C 
BRANCH  35  36
ATOM     36  O   UNL     1      19.250   1.204 -12.564  1.00  0.00    -0.394 OA
ATOM     37  H   UNL     1      18.598   0.761 -11.961  1.00  0.00     0.210 HD
ENDBRANCH  35  36
ENDBRANCH  29  35
BRANCH  30  38
ATOM     38  O   UNL     1      20.151   4.255  -8.915  1.00  0.00    -0.387 OA
ATOM     39  H   UNL     1      19.330   4.550  -9.387  1.00  0.00     0.211 HD
ENDBRANCH  30  38
ENDBRANCH   1  25
TORSDOF 11
ENDMDL
MODEL 7
REMARK VINA RESULT:    -5.507      3.487      6.584
REMARK INTER + INTRA:          -9.235
REMARK INTER:                  -7.914
REMARK INTRA:                  -1.321
REMARK UNBOUND:                -1.314
REMARK SMILES O=c1c(O[C@@H]2O[C@H](CO)[C@@H](O)[C@@H](O)[C@@H]2O)c(-c2ccc(O)cc2)oc2cc(O)cc(O)c12
REMARK SMILES IDX 4 1 3 2 16 3 24 4 2 5 25 6 1 7 32 8 26 9 30 10 27 11 29 12
REMARK SMILES IDX 17 13 18 14 19 15 20 16 23 17 22 18 21 19 31 21 28 23 5 25
REMARK SMILES IDX 14 26 6 27 12 28 7 29 10 30 15 31 13 33 8 35 9 36 11 38
REMARK H PARENT 21 20 31 22 28 24 15 32 13 34 9 37 11 39
REMARK Flexibility Score: inf
ROOT
ATOM      1  O   UNL     1      18.483   0.029  -9.503  1.00  0.00    -0.454 OA
ENDROOT
BRANCH   1   2
ATOM      2  C   UNL     1      17.748  -1.094  -9.924  1.00  0.00     0.214 A 
ATOM      3  C   UNL     1      18.062  -2.353  -9.379  1.00  0.00     0.180 A 
ATOM      4  O   UNL     1      17.343  -3.416  -9.710  1.00  0.00    -0.452 OA
ATOM      5  C   UNL     1      16.694  -1.006 -10.856  1.00  0.00     0.239 A 
ATOM      6  C   UNL     1      16.341  -3.381 -10.580  1.00  0.00     0.146 A 
ATOM      7  O   UNL     1      16.383   0.118 -11.325  1.00  0.00    -0.285 OA
ATOM      8  C   UNL     1      15.989  -2.174 -11.236  1.00  0.00     0.111 A 
ATOM      9  C   UNL     1      15.636  -4.560 -10.832  1.00  0.00     0.094 A 
ATOM     10  C   UNL     1      14.935  -2.207 -12.199  1.00  0.00     0.134 A 
ATOM     11  C   UNL     1      14.570  -4.568 -11.728  1.00  0.00     0.123 A 
ATOM     12  C   UNL     1      14.223  -3.395 -12.402  1.00  0.00     0.093 A 
BRANCH   3  13
ATOM     13  C   UNL     1      19.144  -2.528  -8.384  1.00  0.00     0.021 A 
ATOM     14  C   UNL     1      18.818  -2.654  -7.024  1.00  0.00     0.016 A 
ATOM     15  C   UNL     1      19.823  -2.818  -6.067  1.00  0.00     0.047 A 
ATOM     16  C   UNL     1      21.167  -2.870  -6.460  1.00  0.00     0.115 A 
ATOM     17  C   UNL     1      20.493  -2.603  -8.772  1.00  0.00     0.016 A 
ATOM     18  C   UNL     1      21.497  -2.765  -7.813  1.00  0.00     0.047 A 
BRANCH  16  19
ATOM     19  O   UNL     1      22.178  -3.029  -5.514  1.00  0.00    -0.508 OA
ATOM     20  H   UNL     1      22.559  -3.942  -5.295  1.00  0.00     0.293 HD
ENDBRANCH  16  19
ENDBRANCH   3  13
BRANCH  10  21
ATOM     21  O   UNL     1      14.569  -1.118 -12.995  1.00  0.00    -0.507 OA
ATOM     22  H   UNL     1      14.585  -0.154 -12.697  1.00  0.00     0.293 HD
ENDBRANCH  10  21
BRANCH  11  23
ATOM     23  O   UNL     1      13.866  -5.750 -11.948  1.00  0.00    -0.508 OA
ATOM     24  H   UNL     1      14.123  -6.388 -12.693  1.00  0.00     0.293 HD
ENDBRANCH  11  23
ENDBRANCH   1   2
BRANCH   1  25
ATOM     25  C   UNL     1      19.628   0.565 -10.169  1.00  0.00     0.339 C 
ATOM     26  C   UNL     1      19.353   2.011 -10.616  1.00  0.00     0.214 C 
ATOM     27  O   UNL     1      20.802   0.460  -9.376  1.00  0.00    -0.332 OA
ATOM     28  C   UNL     1      19.227   2.922  -9.396  1.00  0.00     0.180 C 
ATOM     29  C   UNL     1      20.822   1.297  -8.225  1.00  0.00     0.179 C 
ATOM     30  C   UNL     1      20.481   2.783  -8.512  1.00  0.00     0.177 C 
BRANCH  26  31
ATOM     31  O   UNL     1      18.165   2.068 -11.364  1.00  0.00    -0.384 OA
ATOM     32  H   UNL     1      17.849   1.133 -11.474  1.00  0.00     0.211 HD
ENDBRANCH  26  31
BRANCH  28  33
ATOM     33  O   UNL     1      19.070   4.252  -9.821  1.00  0.00    -0.387 OA
ATOM     34  H   UNL     1      19.363   4.829  -9.069  1.00  0.00     0.211 HD
ENDBRANCH  28  33
BRANCH  29  35
ATOM     35  C   UNL     1      20.086   0.675  -7.018  1.00  0.00     0.191 C 
BRANCH  35  36
ATOM     36  O   UNL     1      18.729   1.010  -7.001  1.00  0.00    -0.394 OA
ATOM     37  H   UNL     1      18.230   0.153  -7.048  1.00  0.00     0.210 HD
ENDBRANCH  35  36
ENDBRANCH  29  35
BRANCH  30  38
ATOM     38  O   UNL     1      21.582   3.382  -9.152  1.00  0.00    -0.387 OA
ATOM     39  H   UNL     1      21.524   3.148 -10.115  1.00  0.00     0.211 HD
ENDBRANCH  30  38
ENDBRANCH   1  25
TORSDOF 11
ENDMDL
MODEL 8
REMARK VINA RESULT:    -5.464      3.023      6.608
REMARK INTER + INTRA:          -9.174
REMARK INTER:                  -7.807
REMARK INTRA:                  -1.366
REMARK UNBOUND:                -1.314
REMARK SMILES O=c1c(O[C@@H]2O[C@H](CO)[C@@H](O)[C@@H](O)[C@@H]2O)c(-c2ccc(O)cc2)oc2cc(O)cc(O)c12
REMARK SMILES IDX 4 1 3 2 16 3 24 4 2 5 25 6 1 7 32 8 26 9 30 10 27 11 29 12
REMARK SMILES IDX 17 13 18 14 19 15 20 16 23 17 22 18 21 19 31 21 28 23 5 25
REMARK SMILES IDX 14 26 6 27 12 28 7 29 10 30 15 31 13 33 8 35 9 36 11 38
REMARK H PARENT 21 20 31 22 28 24 15 32 13 34 9 37 11 39
REMARK Flexibility Score: inf
ROOT
ATOM      1  O   UNL     1      16.861  -0.790  -9.678  1.00  0.00    -0.454 OA
ENDROOT
BRANCH   1   2
ATOM      2  C   UNL     1      15.772  -0.507 -10.521  1.00  0.00     0.214 A 
ATOM      3  C   UNL     1      15.481  -1.396 -11.572  1.00  0.00     0.180 A 
ATOM      4  O   UNL     1      14.421  -1.188 -12.342  1.00  0.00    -0.452 OA
ATOM      5  C   UNL     1      14.947   0.622 -10.344  1.00  0.00     0.239 A 
ATOM      6  C   UNL     1      13.615  -0.142 -12.210  1.00  0.00     0.146 A 
ATOM      7  O   UNL     1      15.177   1.406  -9.389  1.00  0.00    -0.285 OA
ATOM      8  C   UNL     1      13.862   0.848 -11.225  1.00  0.00     0.111 A 
ATOM      9  C   UNL     1      12.513  -0.039 -13.062  1.00  0.00     0.094 A 
ATOM     10  C   UNL     1      12.988   1.977 -11.163  1.00  0.00     0.134 A 
ATOM     11  C   UNL     1      11.632   1.034 -12.953  1.00  0.00     0.123 A 
ATOM     12  C   UNL     1      11.871   2.032 -12.005  1.00  0.00     0.093 A 
BRANCH   3  13
ATOM     13  C   UNL     1      16.289  -2.612 -11.817  1.00  0.00     0.021 A 
ATOM     14  C   UNL     1      16.034  -3.773 -11.069  1.00  0.00     0.016 A 
ATOM     15  C   UNL     1      16.786  -4.931 -11.282  1.00  0.00     0.047 A 
ATOM     16  C   UNL     1      17.795  -4.947 -12.254  1.00  0.00     0.115 A 
ATOM     17  C   UNL     1      17.288  -2.642 -12.806  1.00  0.00     0.016 A 
ATOM     18  C   UNL     1      18.041  -3.801 -13.015  1.00  0.00     0.047 A 
BRANCH  16  19
ATOM     19  O   UNL     1      18.555  -6.094 -12.472  1.00  0.00    -0.508 OA
ATOM     20  H   UNL     1      18.129  -7.013 -12.501  1.00  0.00     0.293 HD
ENDBRANCH  16  19
ENDBRANCH   3  13
BRANCH  10  21
ATOM     21  O   UNL     1      13.187   3.074 -10.319  1.00  0.00    -0.507 OA
ATOM     22  H   UNL     1      13.543   3.971 -10.614  1.00  0.00     0.293 HD
ENDBRANCH  10  21
BRANCH  11  23
ATOM     23  O   UNL     1      10.527   1.106 -13.797  1.00  0.00    -0.508 OA
ATOM     24  H   UNL     1       9.606   0.810 -13.492  1.00  0.00     0.293 HD
ENDBRANCH  11  23
ENDBRANCH   1   2
BRANCH   1  25
ATOM     25  C   UNL     1      18.238  -0.611 -10.017  1.00  0.00     0.339 C 
ATOM     26  C   UNL     1      18.847   0.529  -9.182  1.00  0.00     0.214 C 
ATOM     27  O   UNL     1      18.975  -1.819  -9.900  1.00  0.00    -0.332 OA
ATOM     28  C   UNL     1      18.922   0.118  -7.712  1.00  0.00     0.180 C 
ATOM     29  C   UNL     1      19.151  -2.284  -8.566  1.00  0.00     0.179 C 
ATOM     30  C   UNL     1      19.688  -1.211  -7.582  1.00  0.00     0.177 C 
BRANCH  26  31
ATOM     31  O   UNL     1      18.063   1.688  -9.302  1.00  0.00    -0.384 OA
ATOM     32  H   UNL     1      17.155   1.457  -8.970  1.00  0.00     0.211 HD
ENDBRANCH  26  31
BRANCH  28  33
ATOM     33  O   UNL     1      19.565   1.130  -6.978  1.00  0.00    -0.387 OA
ATOM     34  H   UNL     1      20.513   0.852  -6.881  1.00  0.00     0.211 HD
ENDBRANCH  28  33
BRANCH  29  35
ATOM     35  C   UNL     1      17.944  -3.101  -8.053  1.00  0.00     0.191 C 
BRANCH  35  36
ATOM     36  O   UNL     1      17.718  -2.904  -6.688  1.00  0.00    -0.394 OA
ATOM     37  H   UNL     1      17.488  -1.944  -6.581  1.00  0.00     0.210 HD
ENDBRANCH  35  36
ENDBRANCH  29  35
BRANCH  30  38
ATOM     38  O   UNL     1      21.054  -1.001  -7.848  1.00  0.00    -0.387 OA
ATOM     39  H   UNL     1      21.488  -0.769  -6.986  1.00  0.00     0.211 HD
ENDBRANCH  30  38
ENDBRANCH   1  25
TORSDOF 11
ENDMDL
MODEL 9
REMARK VINA RESULT:    -5.369      4.272      5.736
REMARK INTER + INTRA:          -9.037
REMARK INTER:                  -7.651
REMARK INTRA:                  -1.386
REMARK UNBOUND:                -1.314
REMARK SMILES O=c1c(O[C@@H]2O[C@H](CO)[C@@H](O)[C@@H](O)[C@@H]2O)c(-c2ccc(O)cc2)oc2cc(O)cc(O)c12
REMARK SMILES IDX 4 1 3 2 16 3 24 4 2 5 25 6 1 7 32 8 26 9 30 10 27 11 29 12
REMARK SMILES IDX 17 13 18 14 19 15 20 16 23 17 22 18 21 19 31 21 28 23 5 25
REMARK SMILES IDX 14 26 6 27 12 28 7 29 10 30 15 31 13 33 8 35 9 36 11 38
REMARK H PARENT 21 20 31 22 28 24 15 32 13 34 9 37 11 39
REMARK Flexibility Score: inf
ROOT
ATOM      1  O   UNL     1      19.395  -1.152 -10.060  1.00  0.00    -0.454 OA
ENDROOT
BRANCH   1   2
ATOM      2  C   UNL     1      18.647  -0.611 -11.122  1.00  0.00     0.214 A 
ATOM      3  C   UNL     1      19.271   0.296 -11.997  1.00  0.00     0.180 A 
ATOM      4  O   UNL     1      18.608   0.769 -13.044  1.00  0.00    -0.452 OA
ATOM      5  C   UNL     1      17.301  -0.958 -11.356  1.00  0.00     0.239 A 
ATOM      6  C   UNL     1      17.342   0.470 -13.306  1.00  0.00     0.146 A 
ATOM      7  O   UNL     1      16.742  -1.792 -10.600  1.00  0.00    -0.285 OA
ATOM      8  C   UNL     1      16.603  -0.382 -12.446  1.00  0.00     0.111 A 
ATOM      9  C   UNL     1      16.754   1.008 -14.452  1.00  0.00     0.094 A 
ATOM     10  C   UNL     1      15.230  -0.630 -12.752  1.00  0.00     0.134 A 
ATOM     11  C   UNL     1      15.432   0.711 -14.775  1.00  0.00     0.123 A 
ATOM     12  C   UNL     1      14.680  -0.107 -13.927  1.00  0.00     0.093 A 
BRANCH   3  13
ATOM     13  C   UNL     1      20.685   0.700 -11.829  1.00  0.00     0.021 A 
ATOM     14  C   UNL     1      21.706  -0.172 -12.242  1.00  0.00     0.016 A 
ATOM     15  C   UNL     1      23.048   0.188 -12.091  1.00  0.00     0.047 A 
ATOM     16  C   UNL     1      23.386   1.430 -11.537  1.00  0.00     0.115 A 
ATOM     17  C   UNL     1      21.032   1.953 -11.295  1.00  0.00     0.016 A 
ATOM     18  C   UNL     1      22.375   2.310 -11.143  1.00  0.00     0.047 A 
BRANCH  16  19
ATOM     19  O   UNL     1      24.720   1.798 -11.377  1.00  0.00    -0.508 OA
ATOM     20  H   UNL     1      25.418   1.577 -12.078  1.00  0.00     0.293 HD
ENDBRANCH  16  19
ENDBRANCH   3  13
BRANCH  10  21
ATOM     21  O   UNL     1      14.364  -1.354 -11.927  1.00  0.00    -0.507 OA
ATOM     22  H   UNL     1      14.651  -2.073 -11.279  1.00  0.00     0.293 HD
ENDBRANCH  10  21
BRANCH  11  23
ATOM     23  O   UNL     1      14.871   1.240 -15.934  1.00  0.00    -0.508 OA
ATOM     24  H   UNL     1      14.942   2.228 -16.154  1.00  0.00     0.293 HD
ENDBRANCH  11  23
ENDBRANCH   1   2
BRANCH   1  25
ATOM     25  C   UNL     1      19.647  -0.503  -8.812  1.00  0.00     0.339 C 
ATOM     26  C   UNL     1      18.822  -1.163  -7.694  1.00  0.00     0.214 C 
ATOM     27  O   UNL     1      21.033  -0.460  -8.506  1.00  0.00    -0.332 OA
ATOM     28  C   UNL     1      19.331  -2.581  -7.435  1.00  0.00     0.180 C 
ATOM     29  C   UNL     1      21.617  -1.722  -8.203  1.00  0.00     0.179 C 
ATOM     30  C   UNL     1      20.841  -2.545  -7.140  1.00  0.00     0.177 C 
BRANCH  26  31
ATOM     31  O   UNL     1      17.467  -1.215  -8.059  1.00  0.00    -0.384 OA
ATOM     32  H   UNL     1      17.132  -0.280  -8.058  1.00  0.00     0.211 HD
ENDBRANCH  26  31
BRANCH  28  33
ATOM     33  O   UNL     1      18.631  -3.136  -6.351  1.00  0.00    -0.387 OA
ATOM     34  H   UNL     1      19.072  -2.803  -5.526  1.00  0.00     0.211 HD
ENDBRANCH  28  33
BRANCH  29  35
ATOM     35  C   UNL     1      22.034  -2.508  -9.466  1.00  0.00     0.191 C 
BRANCH  35  36
ATOM     36  O   UNL     1      21.088  -3.474  -9.820  1.00  0.00    -0.394 OA
ATOM     37  H   UNL     1      21.472  -3.970 -10.590  1.00  0.00     0.210 HD
ENDBRANCH  35  36
ENDBRANCH  29  35
BRANCH  30  38
ATOM     38  O   UNL     1      21.066  -1.969  -5.875  1.00  0.00    -0.387 OA
ATOM     39  H   UNL     1      21.735  -2.536  -5.410  1.00  0.00     0.211 HD
ENDBRANCH  30  38
ENDBRANCH   1  25
TORSDOF 11
ENDMDL
