MODEL 1
REMARK VINA RESULT:   102.477      0.000      0.000
REMARK INTER + INTRA:         111.313
REMARK INTER:                 111.463
REMARK INTRA:                  -0.151
REMARK UNBOUND:                -0.151
REMARK SMILES C[C@H]1[C@H](C)CC[C@]2(C(=O)[O-])CC[C@]3(C)C(=CC[C@H]4[C@@]5(C)CC[C@@H](O)C(C)(C)[C@H]5CC[C@]43C)[C@H]12
REMARK SMILES IDX 7 1 6 2 11 3 33 4 5 5 12 6 15 7 2 8 3 9 13 10 16 11 1 12
REMARK SMILES IDX 4 13 14 14 31 15 17 16 18 17 30 18 32 19 19 20 29 21 28 22
REMARK SMILES IDX 21 23 20 24 25 25 22 26 23 27 26 28 27 29 8 30 9 31 10 32
REMARK SMILES IDX 24 33
REMARK H PARENT 24 34
REMARK Flexibility Score: inf
ROOT
ATOM      1  C   UNL     1       4.363 -13.726   6.968  1.00  0.00     0.017 C 
ATOM      2  C   UNL     1       4.729 -12.370   7.626  1.00  0.00     0.014 C 
ATOM      3  C   UNL     1       3.962 -13.499   5.492  1.00  0.00     0.014 C 
ATOM      4  C   UNL     1       3.203 -14.474   7.739  1.00  0.00     0.030 C 
ATOM      5  C   UNL     1       5.062 -12.522   9.105  1.00  0.00     0.004 C 
ATOM      6  C   UNL     1       2.638 -12.752   5.321  1.00  0.00     0.013 C 
ATOM      7  C   UNL     1       1.774 -14.337   7.155  1.00  0.00    -0.063 C 
ATOM      8  C   UNL     1       3.212 -14.308   9.326  1.00  0.00    -0.003 C 
ATOM      9  C   UNL     1       3.844 -12.999   9.904  1.00  0.00    -0.011 C 
ATOM     10  C   UNL     1       1.380 -13.449   5.953  1.00  0.00    -0.006 C 
ATOM     11  C   UNL     1       0.835 -15.178   7.646  1.00  0.00    -0.027 C 
ATOM     12  C   UNL     1       3.827 -15.536  10.034  1.00  0.00     0.008 C 
ATOM     13  C   UNL     1       2.810 -11.877  10.096  1.00  0.00     0.008 C 
ATOM     14  C   UNL     1       0.516 -12.271   6.512  1.00  0.00     0.017 C 
ATOM     15  C   UNL     1       0.545 -14.332   4.864  1.00  0.00    -0.020 C 
ATOM     16  C   UNL     1      -0.541 -15.263   7.064  1.00  0.00     0.032 C 
ATOM     17  C   UNL     1      -0.456 -15.391   5.522  1.00  0.00     0.006 C 
ATOM     18  C   UNL     1      -0.256 -13.392   3.934  1.00  0.00     0.008 C 
ATOM     19  C   UNL     1       1.541 -15.154   3.980  1.00  0.00     0.012 C 
ATOM     20  C   UNL     1      -1.882 -15.638   4.819  1.00  0.00    -0.025 C 
ATOM     21  C   UNL     1      -1.038 -14.100   2.837  1.00  0.00     0.005 C 
ATOM     22  C   UNL     1      -1.822 -15.392   3.246  1.00  0.00     0.003 C 
ATOM     23  C   UNL     1      -2.999 -14.734   5.434  1.00  0.00     0.010 C 
ATOM     24  C   UNL     1      -2.242 -17.142   5.111  1.00  0.00     0.012 C 
ATOM     25  C   UNL     1      -3.230 -15.472   2.495  1.00  0.00    -0.006 C 
ATOM     26  C   UNL     1      -4.366 -14.826   4.724  1.00  0.00     0.033 C 
ATOM     27  C   UNL     1      -4.290 -14.569   3.207  1.00  0.00     0.120 C 
ATOM     28  C   UNL     1      -3.761 -16.936   2.418  1.00  0.00     0.014 C 
ATOM     29  C   UNL     1      -3.098 -15.044   0.997  1.00  0.00     0.014 C 
ENDROOT
BRANCH   1  30
ATOM     30  C   UNL     1       5.646 -14.566   6.922  1.00  0.00     0.048 C 
ATOM     31  O   UNL     1       5.650 -15.780   7.269  1.00  0.00    -0.550 OA
ATOM     32  O   UNL     1       6.855 -13.981   6.547  1.00  0.00    -0.550 OA
ENDBRANCH   1  30
BRANCH  27  33
ATOM     33  O   UNL     1      -4.026 -13.203   2.984  1.00  0.00    -0.393 OA
ATOM     34  H   UNL     1      -4.883 -12.781   2.704  1.00  0.00     0.210 HD
ENDBRANCH  27  33
TORSDOF 2
ENDMDL
MODEL 2
REMARK VINA RESULT:   104.670     13.071     15.214
REMARK INTER + INTRA:         113.698
REMARK INTER:                 113.336
REMARK INTRA:                   0.362
REMARK UNBOUND:                -0.151
REMARK SMILES C[C@H]1[C@H](C)CC[C@]2(C(=O)[O-])CC[C@]3(C)C(=CC[C@H]4[C@@]5(C)CC[C@@H](O)C(C)(C)[C@H]5CC[C@]43C)[C@H]12
REMARK SMILES IDX 7 1 6 2 11 3 33 4 5 5 12 6 15 7 2 8 3 9 13 10 16 11 1 12
REMARK SMILES IDX 4 13 14 14 31 15 17 16 18 17 30 18 32 19 19 20 29 21 28 22
REMARK SMILES IDX 21 23 20 24 25 25 22 26 23 27 26 28 27 29 8 30 9 31 10 32
REMARK SMILES IDX 24 33
REMARK H PARENT 24 34
REMARK Flexibility Score: inf
ROOT
ATOM      1  C   UNL     1       3.854 -24.110  -5.733  1.00  0.00     0.017 C 
ATOM      2  C   UNL     1       4.386 -25.007  -4.585  1.00  0.00     0.014 C 
ATOM      3  C   UNL     1       3.389 -22.750  -5.160  1.00  0.00     0.014 C 
ATOM      4  C   UNL     1       2.675 -24.795  -6.534  1.00  0.00     0.030 C 
ATOM      5  C   UNL     1       4.790 -26.390  -5.080  1.00  0.00     0.004 C 
ATOM      6  C   UNL     1       2.135 -22.845  -4.290  1.00  0.00     0.013 C 
ATOM      7  C   UNL     1       1.233 -24.367  -6.160  1.00  0.00    -0.063 C 
ATOM      8  C   UNL     1       2.795 -26.376  -6.717  1.00  0.00    -0.003 C 
ATOM      9  C   UNL     1       3.582 -27.164  -5.619  1.00  0.00    -0.011 C 
ATOM     10  C   UNL     1       0.855 -23.413  -5.004  1.00  0.00    -0.006 C 
ATOM     11  C   UNL     1       0.249 -24.742  -7.009  1.00  0.00    -0.027 C 
ATOM     12  C   UNL     1       3.330 -26.759  -8.115  1.00  0.00     0.008 C 
ATOM     13  C   UNL     1       2.672 -27.669  -4.486  1.00  0.00     0.008 C 
ATOM     14  C   UNL     1       0.142 -24.274  -3.909  1.00  0.00     0.017 C 
ATOM     15  C   UNL     1      -0.124 -22.232  -5.560  1.00  0.00    -0.020 C 
ATOM     16  C   UNL     1      -1.160 -24.265  -6.855  1.00  0.00     0.032 C 
ATOM     17  C   UNL     1      -1.180 -22.729  -6.652  1.00  0.00     0.006 C 
ATOM     18  C   UNL     1      -0.885 -21.587  -4.380  1.00  0.00     0.008 C 
ATOM     19  C   UNL     1       0.735 -21.120  -6.248  1.00  0.00     0.012 C 
ATOM     20  C   UNL     1      -2.662 -22.104  -6.626  1.00  0.00    -0.025 C 
ATOM     21  C   UNL     1      -1.795 -20.430  -4.768  1.00  0.00     0.005 C 
ATOM     22  C   UNL     1      -2.673 -20.619  -6.050  1.00  0.00     0.003 C 
ATOM     23  C   UNL     1      -3.650 -22.981  -5.789  1.00  0.00     0.010 C 
ATOM     24  C   UNL     1      -3.147 -22.100  -8.123  1.00  0.00     0.012 C 
ATOM     25  C   UNL     1      -4.124 -19.980  -5.853  1.00  0.00    -0.006 C 
ATOM     26  C   UNL     1      -5.059 -22.377  -5.615  1.00  0.00     0.033 C 
ATOM     27  C   UNL     1      -5.049 -20.947  -5.042  1.00  0.00     0.120 C 
ATOM     28  C   UNL     1      -4.797 -19.639  -7.218  1.00  0.00     0.014 C 
ATOM     29  C   UNL     1      -4.042 -18.600  -5.122  1.00  0.00     0.014 C 
ENDROOT
BRANCH   1  30
ATOM     30  C   UNL     1       5.046 -23.787  -6.644  1.00  0.00     0.048 C 
ATOM     31  O   UNL     1       5.906 -24.664  -6.935  1.00  0.00    -0.550 OA
ATOM     32  O   UNL     1       5.233 -22.491  -7.122  1.00  0.00    -0.550 OA
ENDBRANCH   1  30
BRANCH  27  33
ATOM     33  O   UNL     1      -4.670 -20.996  -3.687  1.00  0.00    -0.393 OA
ATOM     34  H   UNL     1      -4.602 -20.056  -3.367  1.00  0.00     0.210 HD
ENDBRANCH  27  33
TORSDOF 2
ENDMDL
