MODEL 1
REMARK VINA RESULT:    -3.528      0.000      0.000
REMARK INTER + INTRA:          -9.306
REMARK INTER:                  -6.829
REMARK INTRA:                  -2.477
REMARK UNBOUND:                -2.477
REMARK SMILES CCCCCCCCCCCCCCCCCC(=O)[O-]
REMARK SMILES IDX 10 1 11 2 12 3 13 4 14 5 15 6 16 7 17 8 18 9 19 10 20 11
REMARK SMILES IDX 9 12 8 13 7 14 6 15 5 16 4 17 3 18 2 19 1 20
REMARK H PARENT
REMARK Flexibility Score: inf
ROOT
ATOM      1  C   UNL     1     -17.295 -19.530   1.765  1.00  0.00     0.000 C 
ENDROOT
BRANCH   1   2
ATOM      2  C   UNL     1     -17.844 -18.296   2.506  1.00  0.00     0.000 C 
BRANCH   2   3
ATOM      3  C   UNL     1     -18.126 -17.092   1.578  1.00  0.00     0.000 C 
BRANCH   3   4
ATOM      4  C   UNL     1     -19.623 -16.765   1.433  1.00  0.00     0.000 C 
BRANCH   4   5
ATOM      5  C   UNL     1     -20.520 -17.956   1.818  1.00  0.00     0.000 C 
BRANCH   5   6
ATOM      6  C   UNL     1     -21.313 -18.507   0.624  1.00  0.00     0.000 C 
BRANCH   6   7
ATOM      7  C   UNL     1     -20.756 -19.846   0.110  1.00  0.00     0.006 C 
BRANCH   7   8
ATOM      8  C   UNL     1     -21.609 -20.429  -1.025  1.00  0.00     0.053 C 
BRANCH   8   9
ATOM      9  C   UNL     1     -22.732 -21.268  -0.499  1.00  0.00     0.041 C 
ATOM     10  O   UNL     1     -22.498 -22.396   0.009  1.00  0.00    -0.550 OA
ATOM     11  O   UNL     1     -24.035 -20.789  -0.537  1.00  0.00    -0.550 OA
ENDBRANCH   8   9
ENDBRANCH   7   8
ENDBRANCH   6   7
ENDBRANCH   5   6
ENDBRANCH   4   5
ENDBRANCH   3   4
ENDBRANCH   2   3
ENDBRANCH   1   2
BRANCH   1  12
ATOM     12  C   UNL     1     -16.074 -20.189   2.433  1.00  0.00     0.000 C 
BRANCH  12  13
ATOM     13  C   UNL     1     -15.683 -19.596   3.803  1.00  0.00    -0.000 C 
BRANCH  13  14
ATOM     14  C   UNL     1     -16.150 -20.407   5.030  1.00  0.00    -0.000 C 
BRANCH  14  15
ATOM     15  C   UNL     1     -17.245 -19.739   5.881  1.00  0.00    -0.000 C 
BRANCH  15  16
ATOM     16  C   UNL     1     -18.645 -20.314   5.608  1.00  0.00    -0.000 C 
BRANCH  16  17
ATOM     17  C   UNL     1     -18.664 -21.853   5.575  1.00  0.00    -0.000 C 
BRANCH  17  18
ATOM     18  C   UNL     1     -19.064 -22.479   4.222  1.00  0.00    -0.000 C 
BRANCH  18  19
ATOM     19  C   UNL     1     -19.788 -21.528   3.254  1.00  0.00    -0.003 C 
ATOM     20  C   UNL     1     -21.310 -21.638   3.337  1.00  0.00     0.004 C 
ENDBRANCH  18  19
ENDBRANCH  17  18
ENDBRANCH  16  17
ENDBRANCH  15  16
ENDBRANCH  14  15
ENDBRANCH  13  14
ENDBRANCH  12  13
ENDBRANCH   1  12
TORSDOF 16
ENDMDL
MODEL 2
REMARK VINA RESULT:    -3.497      2.237      5.454
REMARK INTER + INTRA:          -9.246
REMARK INTER:                  -6.713
REMARK INTRA:                  -2.533
REMARK UNBOUND:                -2.477
REMARK SMILES CCCCCCCCCCCCCCCCCC(=O)[O-]
REMARK SMILES IDX 10 1 11 2 12 3 13 4 14 5 15 6 16 7 17 8 18 9 19 10 20 11
REMARK SMILES IDX 9 12 8 13 7 14 6 15 5 16 4 17 3 18 2 19 1 20
REMARK H PARENT
REMARK Flexibility Score: inf
ROOT
ATOM      1  C   UNL     1     -18.822 -17.122   1.796  1.00  0.00     0.000 C 
ENDROOT
BRANCH   1   2
ATOM      2  C   UNL     1     -17.859 -17.987   2.633  1.00  0.00     0.000 C 
BRANCH   2   3
ATOM      3  C   UNL     1     -17.296 -19.205   1.864  1.00  0.00     0.000 C 
BRANCH   3   4
ATOM      4  C   UNL     1     -16.995 -20.415   2.766  1.00  0.00     0.000 C 
BRANCH   4   5
ATOM      5  C   UNL     1     -18.133 -20.696   3.764  1.00  0.00     0.000 C 
BRANCH   5   6
ATOM      6  C   UNL     1     -18.666 -22.132   3.662  1.00  0.00     0.000 C 
BRANCH   6   7
ATOM      7  C   UNL     1     -19.709 -22.456   4.746  1.00  0.00     0.006 C 
BRANCH   7   8
ATOM      8  C   UNL     1     -21.009 -23.011   4.150  1.00  0.00     0.053 C 
BRANCH   8   9
ATOM      9  C   UNL     1     -21.174 -24.470   4.443  1.00  0.00     0.041 C 
ATOM     10  O   UNL     1     -22.169 -25.099   3.994  1.00  0.00    -0.550 OA
ATOM     11  O   UNL     1     -20.211 -25.144   5.182  1.00  0.00    -0.550 OA
ENDBRANCH   8   9
ENDBRANCH   7   8
ENDBRANCH   6   7
ENDBRANCH   5   6
ENDBRANCH   4   5
ENDBRANCH   3   4
ENDBRANCH   2   3
ENDBRANCH   1   2
BRANCH   1  12
ATOM     12  C   UNL     1     -20.076 -17.861   1.293  1.00  0.00     0.000 C 
BRANCH  12  13
ATOM     13  C   UNL     1     -21.118 -18.188   2.383  1.00  0.00    -0.000 C 
BRANCH  13  14
ATOM     14  C   UNL     1     -21.582 -19.658   2.431  1.00  0.00    -0.000 C 
BRANCH  14  15
ATOM     15  C   UNL     1     -20.974 -20.574   1.355  1.00  0.00    -0.000 C 
BRANCH  15  16
ATOM     16  C   UNL     1     -21.920 -21.713   0.937  1.00  0.00    -0.000 C 
BRANCH  16  17
ATOM     17  C   UNL     1     -22.405 -21.585  -0.519  1.00  0.00    -0.000 C 
BRANCH  17  18
ATOM     18  C   UNL     1     -21.674 -20.522  -1.366  1.00  0.00    -0.000 C 
BRANCH  18  19
ATOM     19  C   UNL     1     -22.522 -19.294  -1.742  1.00  0.00    -0.003 C 
ATOM     20  C   UNL     1     -23.772 -19.146  -0.876  1.00  0.00     0.004 C 
ENDBRANCH  18  19
ENDBRANCH  17  18
ENDBRANCH  16  17
ENDBRANCH  15  16
ENDBRANCH  14  15
ENDBRANCH  13  14
ENDBRANCH  12  13
ENDBRANCH   1  12
TORSDOF 16
ENDMDL
MODEL 3
REMARK VINA RESULT:    -3.432      7.340     10.237
REMARK INTER + INTRA:          -9.119
REMARK INTER:                  -6.569
REMARK INTRA:                  -2.550
REMARK UNBOUND:                -2.477
REMARK SMILES CCCCCCCCCCCCCCCCCC(=O)[O-]
REMARK SMILES IDX 10 1 11 2 12 3 13 4 14 5 15 6 16 7 17 8 18 9 19 10 20 11
REMARK SMILES IDX 9 12 8 13 7 14 6 15 5 16 4 17 3 18 2 19 1 20
REMARK H PARENT
REMARK Flexibility Score: inf
ROOT
ATOM      1  C   UNL     1     -13.302 -10.877   0.631  1.00  0.00     0.000 C 
ENDROOT
BRANCH   1   2
ATOM      2  C   UNL     1     -12.044 -11.732   0.870  1.00  0.00     0.000 C 
BRANCH   2   3
ATOM      3  C   UNL     1     -12.294 -13.252   0.732  1.00  0.00     0.000 C 
BRANCH   3   4
ATOM      4  C   UNL     1     -12.268 -14.003   2.074  1.00  0.00     0.000 C 
BRANCH   4   5
ATOM      5  C   UNL     1     -12.138 -13.048   3.275  1.00  0.00     0.000 C 
BRANCH   5   6
ATOM      6  C   UNL     1     -13.426 -12.968   4.106  1.00  0.00     0.000 C 
BRANCH   6   7
ATOM      7  C   UNL     1     -13.935 -14.352   4.546  1.00  0.00     0.006 C 
BRANCH   7   8
ATOM      8  C   UNL     1     -13.013 -15.002   5.586  1.00  0.00     0.053 C 
BRANCH   8   9
ATOM      9  C   UNL     1     -12.650 -16.404   5.205  1.00  0.00     0.041 C 
ATOM     10  O   UNL     1     -13.421 -17.359   5.486  1.00  0.00    -0.550 OA
ATOM     11  O   UNL     1     -11.475 -16.651   4.506  1.00  0.00    -0.550 OA
ENDBRANCH   8   9
ENDBRANCH   7   8
ENDBRANCH   6   7
ENDBRANCH   5   6
ENDBRANCH   4   5
ENDBRANCH   3   4
ENDBRANCH   2   3
ENDBRANCH   1   2
BRANCH   1  12
ATOM     12  C   UNL     1     -14.513 -11.654   0.083  1.00  0.00     0.000 C 
BRANCH  12  13
ATOM     13  C   UNL     1     -15.740 -11.689   1.018  1.00  0.00    -0.000 C 
BRANCH  13  14
ATOM     14  C   UNL     1     -16.082 -13.074   1.606  1.00  0.00    -0.000 C 
BRANCH  14  15
ATOM     15  C   UNL     1     -16.036 -14.242   0.604  1.00  0.00    -0.000 C 
BRANCH  15  16
ATOM     16  C   UNL     1     -17.308 -14.340  -0.255  1.00  0.00    -0.000 C 
BRANCH  16  17
ATOM     17  C   UNL     1     -17.016 -14.758  -1.708  1.00  0.00    -0.000 C 
BRANCH  17  18
ATOM     18  C   UNL     1     -17.205 -13.648  -2.764  1.00  0.00    -0.000 C 
BRANCH  18  19
ATOM     19  C   UNL     1     -17.602 -12.274  -2.199  1.00  0.00    -0.003 C 
ATOM     20  C   UNL     1     -16.693 -11.145  -2.684  1.00  0.00     0.004 C 
ENDBRANCH  18  19
ENDBRANCH  17  18
ENDBRANCH  16  17
ENDBRANCH  15  16
ENDBRANCH  14  15
ENDBRANCH  13  14
ENDBRANCH  12  13
ENDBRANCH   1  12
TORSDOF 16
ENDMDL
MODEL 4
REMARK VINA RESULT:    -3.393      4.565      6.117
REMARK INTER + INTRA:          -9.044
REMARK INTER:                  -7.391
REMARK INTRA:                  -1.653
REMARK UNBOUND:                -2.477
REMARK SMILES CCCCCCCCCCCCCCCCCC(=O)[O-]
REMARK SMILES IDX 10 1 11 2 12 3 13 4 14 5 15 6 16 7 17 8 18 9 19 10 20 11
REMARK SMILES IDX 9 12 8 13 7 14 6 15 5 16 4 17 3 18 2 19 1 20
REMARK H PARENT
REMARK Flexibility Score: inf
ROOT
ATOM      1  C   UNL     1     -18.797 -17.325   2.040  1.00  0.00     0.000 C 
ENDROOT
BRANCH   1   2
ATOM      2  C   UNL     1     -17.923 -16.335   1.247  1.00  0.00     0.000 C 
BRANCH   2   3
ATOM      3  C   UNL     1     -18.738 -15.265   0.484  1.00  0.00     0.000 C 
BRANCH   3   4
ATOM      4  C   UNL     1     -17.880 -14.107  -0.055  1.00  0.00     0.000 C 
BRANCH   4   5
ATOM      5  C   UNL     1     -16.785 -14.593  -1.022  1.00  0.00     0.000 C 
BRANCH   5   6
ATOM      6  C   UNL     1     -17.280 -14.686  -2.473  1.00  0.00     0.000 C 
BRANCH   6   7
ATOM      7  C   UNL     1     -17.821 -13.346  -3.002  1.00  0.00     0.006 C 
BRANCH   7   8
ATOM      8  C   UNL     1     -19.333 -13.396  -3.262  1.00  0.00     0.053 C 
BRANCH   8   9
ATOM      9  C   UNL     1     -19.829 -12.128  -3.883  1.00  0.00     0.041 C 
ATOM     10  O   UNL     1     -20.051 -11.114  -3.168  1.00  0.00    -0.550 OA
ATOM     11  O   UNL     1     -20.015 -12.053  -5.257  1.00  0.00    -0.550 OA
ENDBRANCH   8   9
ENDBRANCH   7   8
ENDBRANCH   6   7
ENDBRANCH   5   6
ENDBRANCH   4   5
ENDBRANCH   3   4
ENDBRANCH   2   3
ENDBRANCH   1   2
BRANCH   1  12
ATOM     12  C   UNL     1     -20.033 -17.842   1.280  1.00  0.00     0.000 C 
BRANCH  12  13
ATOM     13  C   UNL     1     -20.001 -19.345   0.934  1.00  0.00    -0.000 C 
BRANCH  13  14
ATOM     14  C   UNL     1     -20.901 -20.242   1.808  1.00  0.00    -0.000 C 
BRANCH  14  15
ATOM     15  C   UNL     1     -20.389 -20.491   3.239  1.00  0.00    -0.000 C 
BRANCH  15  16
ATOM     16  C   UNL     1     -19.722 -21.867   3.402  1.00  0.00    -0.000 C 
BRANCH  16  17
ATOM     17  C   UNL     1     -18.186 -21.784   3.457  1.00  0.00    -0.000 C 
BRANCH  17  18
ATOM     18  C   UNL     1     -17.616 -20.457   4.001  1.00  0.00    -0.000 C 
BRANCH  18  19
ATOM     19  C   UNL     1     -16.319 -19.981   3.325  1.00  0.00    -0.003 C 
ATOM     20  C   UNL     1     -16.322 -20.191   1.812  1.00  0.00     0.004 C 
ENDBRANCH  18  19
ENDBRANCH  17  18
ENDBRANCH  16  17
ENDBRANCH  15  16
ENDBRANCH  14  15
ENDBRANCH  13  14
ENDBRANCH  12  13
ENDBRANCH   1  12
TORSDOF 16
ENDMDL
MODEL 5
REMARK VINA RESULT:    -3.381      3.845      5.515
REMARK INTER + INTRA:          -9.021
REMARK INTER:                  -7.038
REMARK INTRA:                  -1.984
REMARK UNBOUND:                -2.477
REMARK SMILES CCCCCCCCCCCCCCCCCC(=O)[O-]
REMARK SMILES IDX 10 1 11 2 12 3 13 4 14 5 15 6 16 7 17 8 18 9 19 10 20 11
REMARK SMILES IDX 9 12 8 13 7 14 6 15 5 16 4 17 3 18 2 19 1 20
REMARK H PARENT
REMARK Flexibility Score: inf
ROOT
ATOM      1  C   UNL     1     -20.156 -19.098   1.336  1.00  0.00     0.000 C 
ENDROOT
BRANCH   1   2
ATOM      2  C   UNL     1     -20.681 -17.897   2.145  1.00  0.00     0.000 C 
BRANCH   2   3
ATOM      3  C   UNL     1     -19.938 -16.575   1.843  1.00  0.00     0.000 C 
BRANCH   3   4
ATOM      4  C   UNL     1     -18.504 -16.781   1.324  1.00  0.00     0.000 C 
BRANCH   4   5
ATOM      5  C   UNL     1     -17.815 -15.449   0.974  1.00  0.00     0.000 C 
BRANCH   5   6
ATOM      6  C   UNL     1     -18.138 -14.975  -0.450  1.00  0.00     0.000 C 
BRANCH   6   7
ATOM      7  C   UNL     1     -16.878 -14.603  -1.251  1.00  0.00     0.006 C 
BRANCH   7   8
ATOM      8  C   UNL     1     -17.137 -14.592  -2.764  1.00  0.00     0.053 C 
BRANCH   8   9
ATOM      9  C   UNL     1     -18.169 -13.576  -3.142  1.00  0.00     0.041 C 
ATOM     10  O   UNL     1     -19.182 -13.916  -3.809  1.00  0.00    -0.550 OA
ATOM     11  O   UNL     1     -18.032 -12.258  -2.726  1.00  0.00    -0.550 OA
ENDBRANCH   8   9
ENDBRANCH   7   8
ENDBRANCH   6   7
ENDBRANCH   5   6
ENDBRANCH   4   5
ENDBRANCH   3   4
ENDBRANCH   2   3
ENDBRANCH   1   2
BRANCH   1  12
ATOM     12  C   UNL     1     -20.918 -20.414   1.572  1.00  0.00     0.000 C 
BRANCH  12  13
ATOM     13  C   UNL     1     -20.766 -21.008   2.989  1.00  0.00    -0.000 C 
BRANCH  13  14
ATOM     14  C   UNL     1     -19.369 -21.572   3.320  1.00  0.00    -0.000 C 
BRANCH  14  15
ATOM     15  C   UNL     1     -18.746 -21.055   4.629  1.00  0.00    -0.000 C 
BRANCH  15  16
ATOM     16  C   UNL     1     -18.724 -19.519   4.714  1.00  0.00    -0.000 C 
BRANCH  16  17
ATOM     17  C   UNL     1     -17.370 -18.917   4.297  1.00  0.00    -0.000 C 
BRANCH  17  18
ATOM     18  C   UNL     1     -16.184 -19.903   4.287  1.00  0.00    -0.000 C 
BRANCH  18  19
ATOM     19  C   UNL     1     -15.561 -20.159   2.904  1.00  0.00    -0.003 C 
ATOM     20  C   UNL     1     -16.557 -19.977   1.759  1.00  0.00     0.004 C 
ENDBRANCH  18  19
ENDBRANCH  17  18
ENDBRANCH  16  17
ENDBRANCH  15  16
ENDBRANCH  14  15
ENDBRANCH  13  14
ENDBRANCH  12  13
ENDBRANCH   1  12
TORSDOF 16
ENDMDL
MODEL 6
REMARK VINA RESULT:    -3.380      4.964      8.729
REMARK INTER + INTRA:          -9.019
REMARK INTER:                  -7.567
REMARK INTRA:                  -1.452
REMARK UNBOUND:                -2.477
REMARK SMILES CCCCCCCCCCCCCCCCCC(=O)[O-]
REMARK SMILES IDX 10 1 11 2 12 3 13 4 14 5 15 6 16 7 17 8 18 9 19 10 20 11
REMARK SMILES IDX 9 12 8 13 7 14 6 15 5 16 4 17 3 18 2 19 1 20
REMARK H PARENT
REMARK Flexibility Score: inf
ROOT
ATOM      1  C   UNL     1     -17.617 -15.400   0.944  1.00  0.00     0.000 C 
ENDROOT
BRANCH   1   2
ATOM      2  C   UNL     1     -18.577 -16.568   1.242  1.00  0.00     0.000 C 
BRANCH   2   3
ATOM      3  C   UNL     1     -17.993 -17.614   2.219  1.00  0.00     0.000 C 
BRANCH   3   4
ATOM      4  C   UNL     1     -18.793 -18.928   2.264  1.00  0.00     0.000 C 
BRANCH   4   5
ATOM      5  C   UNL     1     -17.903 -20.143   2.580  1.00  0.00     0.000 C 
BRANCH   5   6
ATOM      6  C   UNL     1     -16.464 -19.966   2.073  1.00  0.00     0.000 C 
BRANCH   6   7
ATOM      7  C   UNL     1     -15.415 -20.194   3.175  1.00  0.00     0.006 C 
BRANCH   7   8
ATOM      8  C   UNL     1     -15.851 -19.599   4.520  1.00  0.00     0.053 C 
BRANCH   8   9
ATOM      9  C   UNL     1     -15.853 -20.628   5.607  1.00  0.00     0.041 C 
ATOM     10  O   UNL     1     -14.766 -21.069   6.066  1.00  0.00    -0.550 OA
ATOM     11  O   UNL     1     -17.056 -21.076   6.139  1.00  0.00    -0.550 OA
ENDBRANCH   8   9
ENDBRANCH   7   8
ENDBRANCH   6   7
ENDBRANCH   5   6
ENDBRANCH   4   5
ENDBRANCH   3   4
ENDBRANCH   2   3
ENDBRANCH   1   2
BRANCH   1  12
ATOM     12  C   UNL     1     -17.921 -14.636  -0.357  1.00  0.00     0.000 C 
BRANCH  12  13
ATOM     13  C   UNL     1     -16.939 -14.908  -1.516  1.00  0.00    -0.000 C 
BRANCH  13  14
ATOM     14  C   UNL     1     -17.259 -14.177  -2.836  1.00  0.00    -0.000 C 
BRANCH  14  15
ATOM     15  C   UNL     1     -17.937 -12.805  -2.680  1.00  0.00    -0.000 C 
BRANCH  15  16
ATOM     16  C   UNL     1     -16.928 -11.658  -2.496  1.00  0.00    -0.000 C 
BRANCH  16  17
ATOM     17  C   UNL     1     -17.045 -10.974  -1.122  1.00  0.00    -0.000 C 
BRANCH  17  18
ATOM     18  C   UNL     1     -15.725 -10.420  -0.547  1.00  0.00    -0.000 C 
BRANCH  18  19
ATOM     19  C   UNL     1     -14.630 -11.472  -0.302  1.00  0.00    -0.003 C 
ATOM     20  C   UNL     1     -15.061 -12.564   0.676  1.00  0.00     0.004 C 
ENDBRANCH  18  19
ENDBRANCH  17  18
ENDBRANCH  16  17
ENDBRANCH  15  16
ENDBRANCH  14  15
ENDBRANCH  13  14
ENDBRANCH  12  13
ENDBRANCH   1  12
TORSDOF 16
ENDMDL
MODEL 7
REMARK VINA RESULT:    -3.374      2.843      6.104
REMARK INTER + INTRA:          -9.007
REMARK INTER:                  -6.647
REMARK INTRA:                  -2.361
REMARK UNBOUND:                -2.477
REMARK SMILES CCCCCCCCCCCCCCCCCC(=O)[O-]
REMARK SMILES IDX 10 1 11 2 12 3 13 4 14 5 15 6 16 7 17 8 18 9 19 10 20 11
REMARK SMILES IDX 9 12 8 13 7 14 6 15 5 16 4 17 3 18 2 19 1 20
REMARK H PARENT
REMARK Flexibility Score: inf
ROOT
ATOM      1  C   UNL     1     -22.635 -16.924  -0.005  1.00  0.00     0.000 C 
ENDROOT
BRANCH   1   2
ATOM      2  C   UNL     1     -22.721 -17.680   1.334  1.00  0.00     0.000 C 
BRANCH   2   3
ATOM      3  C   UNL     1     -21.399 -17.668   2.136  1.00  0.00     0.000 C 
BRANCH   3   4
ATOM      4  C   UNL     1     -20.153 -17.925   1.271  1.00  0.00     0.000 C 
BRANCH   4   5
ATOM      5  C   UNL     1     -18.972 -17.020   1.666  1.00  0.00     0.000 C 
BRANCH   5   6
ATOM      6  C   UNL     1     -17.719 -17.820   2.052  1.00  0.00     0.000 C 
BRANCH   6   7
ATOM      7  C   UNL     1     -17.787 -19.286   1.591  1.00  0.00     0.006 C 
BRANCH   7   8
ATOM      8  C   UNL     1     -16.470 -20.033   1.842  1.00  0.00     0.053 C 
BRANCH   8   9
ATOM      9  C   UNL     1     -16.209 -20.219   3.304  1.00  0.00     0.041 C 
ATOM     10  O   UNL     1     -17.140 -20.571   4.076  1.00  0.00    -0.550 OA
ATOM     11  O   UNL     1     -14.929 -20.038   3.810  1.00  0.00    -0.550 OA
ENDBRANCH   8   9
ENDBRANCH   7   8
ENDBRANCH   6   7
ENDBRANCH   5   6
ENDBRANCH   4   5
ENDBRANCH   3   4
ENDBRANCH   2   3
ENDBRANCH   1   2
BRANCH   1  12
ATOM     12  C   UNL     1     -23.362 -17.609  -1.177  1.00  0.00     0.000 C 
BRANCH  12  13
ATOM     13  C   UNL     1     -23.373 -19.151  -1.122  1.00  0.00    -0.000 C 
BRANCH  13  14
ATOM     14  C   UNL     1     -22.085 -19.838  -1.622  1.00  0.00    -0.000 C 
BRANCH  14  15
ATOM     15  C   UNL     1     -21.646 -21.075  -0.818  1.00  0.00    -0.000 C 
BRANCH  15  16
ATOM     16  C   UNL     1     -22.757 -21.615   0.099  1.00  0.00    -0.000 C 
BRANCH  16  17
ATOM     17  C   UNL     1     -22.456 -21.399   1.593  1.00  0.00    -0.000 C 
BRANCH  17  18
ATOM     18  C   UNL     1     -20.962 -21.442   1.978  1.00  0.00    -0.000 C 
BRANCH  18  19
ATOM     19  C   UNL     1     -20.679 -21.435   3.490  1.00  0.00    -0.003 C 
ATOM     20  C   UNL     1     -20.842 -22.811   4.133  1.00  0.00     0.004 C 
ENDBRANCH  18  19
ENDBRANCH  17  18
ENDBRANCH  16  17
ENDBRANCH  15  16
ENDBRANCH  14  15
ENDBRANCH  13  14
ENDBRANCH  12  13
ENDBRANCH   1  12
TORSDOF 16
ENDMDL
MODEL 8
REMARK VINA RESULT:    -3.353      2.250      5.342
REMARK INTER + INTRA:          -8.966
REMARK INTER:                  -7.206
REMARK INTRA:                  -1.760
REMARK UNBOUND:                -2.477
REMARK SMILES CCCCCCCCCCCCCCCCCC(=O)[O-]
REMARK SMILES IDX 10 1 11 2 12 3 13 4 14 5 15 6 16 7 17 8 18 9 19 10 20 11
REMARK SMILES IDX 9 12 8 13 7 14 6 15 5 16 4 17 3 18 2 19 1 20
REMARK H PARENT
REMARK Flexibility Score: inf
ROOT
ATOM      1  C   UNL     1     -16.866 -20.501   2.945  1.00  0.00     0.000 C 
ENDROOT
BRANCH   1   2
ATOM      2  C   UNL     1     -18.050 -21.455   3.189  1.00  0.00     0.000 C 
BRANCH   2   3
ATOM      3  C   UNL     1     -18.992 -20.995   4.325  1.00  0.00     0.000 C 
BRANCH   3   4
ATOM      4  C   UNL     1     -20.218 -20.209   3.827  1.00  0.00     0.000 C 
BRANCH   4   5
ATOM      5  C   UNL     1     -20.595 -20.572   2.380  1.00  0.00     0.000 C 
BRANCH   5   6
ATOM      6  C   UNL     1     -21.576 -19.569   1.757  1.00  0.00     0.000 C 
BRANCH   6   7
ATOM      7  C   UNL     1     -21.291 -19.307   0.267  1.00  0.00     0.006 C 
BRANCH   7   8
ATOM      8  C   UNL     1     -21.207 -20.609  -0.542  1.00  0.00     0.053 C 
BRANCH   8   9
ATOM      9  C   UNL     1     -22.530 -21.306  -0.607  1.00  0.00     0.041 C 
ATOM     10  O   UNL     1     -22.602 -22.550  -0.429  1.00  0.00    -0.550 OA
ATOM     11  O   UNL     1     -23.691 -20.576  -0.831  1.00  0.00    -0.550 OA
ENDBRANCH   8   9
ENDBRANCH   7   8
ENDBRANCH   6   7
ENDBRANCH   5   6
ENDBRANCH   4   5
ENDBRANCH   3   4
ENDBRANCH   2   3
ENDBRANCH   1   2
BRANCH   1  12
ATOM     12  C   UNL     1     -17.111 -19.438   1.858  1.00  0.00     0.000 C 
BRANCH  12  13
ATOM     13  C   UNL     1     -17.612 -18.076   2.382  1.00  0.00    -0.000 C 
BRANCH  13  14
ATOM     14  C   UNL     1     -18.522 -17.291   1.414  1.00  0.00    -0.000 C 
BRANCH  14  15
ATOM     15  C   UNL     1     -19.042 -15.945   1.948  1.00  0.00    -0.000 C 
BRANCH  15  16
ATOM     16  C   UNL     1     -18.770 -14.776   0.986  1.00  0.00    -0.000 C 
BRANCH  16  17
ATOM     17  C   UNL     1     -17.507 -14.987   0.131  1.00  0.00    -0.000 C 
BRANCH  17  18
ATOM     18  C   UNL     1     -17.296 -13.959  -1.000  1.00  0.00    -0.000 C 
BRANCH  18  19
ATOM     19  C   UNL     1     -17.171 -14.559  -2.410  1.00  0.00    -0.003 C 
ATOM     20  C   UNL     1     -18.218 -14.018  -3.383  1.00  0.00     0.004 C 
ENDBRANCH  18  19
ENDBRANCH  17  18
ENDBRANCH  16  17
ENDBRANCH  15  16
ENDBRANCH  14  15
ENDBRANCH  13  14
ENDBRANCH  12  13
ENDBRANCH   1  12
TORSDOF 16
ENDMDL
MODEL 9
REMARK VINA RESULT:    -3.306      7.160      9.565
REMARK INTER + INTRA:          -8.875
REMARK INTER:                  -6.335
REMARK INTRA:                  -2.539
REMARK UNBOUND:                -2.477
REMARK SMILES CCCCCCCCCCCCCCCCCC(=O)[O-]
REMARK SMILES IDX 10 1 11 2 12 3 13 4 14 5 15 6 16 7 17 8 18 9 19 10 20 11
REMARK SMILES IDX 9 12 8 13 7 14 6 15 5 16 4 17 3 18 2 19 1 20
REMARK H PARENT
REMARK Flexibility Score: inf
ROOT
ATOM      1  C   UNL     1     -17.664 -13.333   1.502  1.00  0.00     0.000 C 
ENDROOT
BRANCH   1   2
ATOM      2  C   UNL     1     -16.858 -14.418   0.764  1.00  0.00     0.000 C 
BRANCH   2   3
ATOM      3  C   UNL     1     -17.559 -14.953  -0.505  1.00  0.00     0.000 C 
BRANCH   3   4
ATOM      4  C   UNL     1     -16.872 -14.525  -1.814  1.00  0.00     0.000 C 
BRANCH   4   5
ATOM      5  C   UNL     1     -17.831 -13.779  -2.759  1.00  0.00     0.000 C 
BRANCH   5   6
ATOM      6  C   UNL     1     -19.214 -13.548  -2.133  1.00  0.00     0.000 C 
BRANCH   6   7
ATOM      7  C   UNL     1     -19.707 -12.100  -2.304  1.00  0.00     0.006 C 
BRANCH   7   8
ATOM      8  C   UNL     1     -19.316 -11.514  -3.668  1.00  0.00     0.053 C 
BRANCH   8   9
ATOM      9  C   UNL     1     -20.241 -11.972  -4.753  1.00  0.00     0.041 C 
ATOM     10  O   UNL     1     -21.421 -12.315  -4.478  1.00  0.00    -0.550 OA
ATOM     11  O   UNL     1     -19.811 -11.986  -6.073  1.00  0.00    -0.550 OA
ENDBRANCH   8   9
ENDBRANCH   7   8
ENDBRANCH   6   7
ENDBRANCH   5   6
ENDBRANCH   4   5
ENDBRANCH   3   4
ENDBRANCH   2   3
ENDBRANCH   1   2
BRANCH   1  12
ATOM     12  C   UNL     1     -17.059 -11.919   1.423  1.00  0.00     0.000 C 
BRANCH  12  13
ATOM     13  C   UNL     1     -17.676 -11.008   0.341  1.00  0.00    -0.000 C 
BRANCH  13  14
ATOM     14  C   UNL     1     -16.711 -10.567  -0.778  1.00  0.00    -0.000 C 
BRANCH  14  15
ATOM     15  C   UNL     1     -15.352 -11.290  -0.797  1.00  0.00    -0.000 C 
BRANCH  15  16
ATOM     16  C   UNL     1     -14.186 -10.378  -0.379  1.00  0.00    -0.000 C 
BRANCH  16  17
ATOM     17  C   UNL     1     -13.127 -11.111   0.465  1.00  0.00    -0.000 C 
BRANCH  17  18
ATOM     18  C   UNL     1     -13.651 -12.307   1.287  1.00  0.00    -0.000 C 
BRANCH  18  19
ATOM     19  C   UNL     1     -12.893 -13.627   1.070  1.00  0.00    -0.003 C 
ATOM     20  C   UNL     1     -12.011 -14.011   2.257  1.00  0.00     0.004 C 
ENDBRANCH  18  19
ENDBRANCH  17  18
ENDBRANCH  16  17
ENDBRANCH  15  16
ENDBRANCH  14  15
ENDBRANCH  13  14
ENDBRANCH  12  13
ENDBRANCH   1  12
TORSDOF 16
ENDMDL
