MODEL 1
REMARK VINA RESULT:    -5.371      0.000      0.000
REMARK INTER + INTRA:          -6.665
REMARK INTER:                  -6.470
REMARK INTRA:                  -0.195
REMARK UNBOUND:                -0.195
REMARK SMILES O=c1c(O)c(-c2ccc(O)c(O)c2)oc2cc(O)cc(O)c12
REMARK SMILES IDX 5 1 3 2 2 3 1 4 22 5 20 6 19 7 17 8 16 9 15 10 14 11 6 12
REMARK SMILES IDX 7 13 8 14 9 15 13 16 11 17 10 18 12 20 4 22 21 24 18 26
REMARK H PARENT 10 19 12 21 4 23 21 25 18 27
REMARK Flexibility Score: inf
ROOT
ATOM      1  C   UNL     1       2.959 107.898 179.718  1.00  0.00     0.180 A 
ATOM      2  C   UNL     1       1.905 107.963 178.790  1.00  0.00     0.208 A 
ATOM      3  C   UNL     1       1.892 107.066 177.709  1.00  0.00     0.238 A 
ATOM      4  O   UNL     1       0.919 107.093 176.913  1.00  0.00    -0.285 OA
ATOM      5  C   UNL     1       2.940 106.125 177.563  1.00  0.00     0.111 A 
ATOM      6  C   UNL     1       3.050 105.196 176.485  1.00  0.00     0.134 A 
ATOM      7  C   UNL     1       4.058 104.225 176.511  1.00  0.00     0.093 A 
ATOM      8  C   UNL     1       5.001 104.192 177.542  1.00  0.00     0.123 A 
ATOM      9  C   UNL     1       4.937 105.132 178.568  1.00  0.00     0.094 A 
ATOM     10  C   UNL     1       3.921 106.090 178.588  1.00  0.00     0.146 A 
ATOM     11  O   UNL     1       3.891 106.961 179.590  1.00  0.00    -0.452 OA
ENDROOT
BRANCH   1  12
ATOM     12  C   UNL     1       3.054 108.826 180.868  1.00  0.00     0.025 A 
ATOM     13  C   UNL     1       4.051 109.811 180.879  1.00  0.00     0.016 A 
ATOM     14  C   UNL     1       4.146 110.709 181.944  1.00  0.00     0.051 A 
ATOM     15  C   UNL     1       3.240 110.652 183.009  1.00  0.00     0.157 A 
ATOM     16  C   UNL     1       2.128 108.779 181.925  1.00  0.00     0.062 A 
ATOM     17  C   UNL     1       2.213 109.679 182.996  1.00  0.00     0.158 A 
BRANCH  15  18
ATOM     18  O   UNL     1       3.393 111.573 184.046  1.00  0.00    -0.504 OA
ATOM     19  H   UNL     1       3.623 112.547 183.908  1.00  0.00     0.293 HD
ENDBRANCH  15  18
BRANCH  17  20
ATOM     20  O   UNL     1       1.261 109.573 184.012  1.00  0.00    -0.504 OA
ATOM     21  H   UNL     1       0.812 110.365 184.449  1.00  0.00     0.293 HD
ENDBRANCH  17  20
ENDBRANCH   1  12
BRANCH   2  22
ATOM     22  O   UNL     1       0.869 108.885 178.966  1.00  0.00    -0.502 OA
ATOM     23  H   UNL     1       0.516 109.458 178.209  1.00  0.00     0.293 HD
ENDBRANCH   2  22
BRANCH   6  24
ATOM     24  O   UNL     1       2.217 105.202 175.362  1.00  0.00    -0.507 OA
ATOM     25  H   UNL     1       2.217 104.495 174.643  1.00  0.00     0.293 HD
ENDBRANCH   6  24
BRANCH   8  26
ATOM     26  O   UNL     1       6.011 103.231 177.552  1.00  0.00    -0.508 OA
ATOM     27  H   UNL     1       6.645 103.123 176.769  1.00  0.00     0.293 HD
ENDBRANCH   8  26
TORSDOF 6
ENDMDL
MODEL 2
REMARK VINA RESULT:    -5.315      1.279      2.979
REMARK INTER + INTRA:          -6.598
REMARK INTER:                  -6.421
REMARK INTRA:                  -0.177
REMARK UNBOUND:                -0.195
REMARK SMILES O=c1c(O)c(-c2ccc(O)c(O)c2)oc2cc(O)cc(O)c12
REMARK SMILES IDX 5 1 3 2 2 3 1 4 22 5 20 6 19 7 17 8 16 9 15 10 14 11 6 12
REMARK SMILES IDX 7 13 8 14 9 15 13 16 11 17 10 18 12 20 4 22 21 24 18 26
REMARK H PARENT 10 19 12 21 4 23 21 25 18 27
REMARK Flexibility Score: inf
ROOT
ATOM      1  C   UNL     1       4.064 107.613 180.560  1.00  0.00     0.180 A 
ATOM      2  C   UNL     1       5.251 106.876 180.712  1.00  0.00     0.208 A 
ATOM      3  C   UNL     1       5.542 105.856 179.791  1.00  0.00     0.238 A 
ATOM      4  O   UNL     1       6.631 105.236 179.901  1.00  0.00    -0.285 OA
ATOM      5  C   UNL     1       4.636 105.577 178.740  1.00  0.00     0.111 A 
ATOM      6  C   UNL     1       4.811 104.541 177.774  1.00  0.00     0.134 A 
ATOM      7  C   UNL     1       3.917 104.439 176.701  1.00  0.00     0.093 A 
ATOM      8  C   UNL     1       2.818 105.296 176.595  1.00  0.00     0.123 A 
ATOM      9  C   UNL     1       2.606 106.272 177.566  1.00  0.00     0.094 A 
ATOM     10  C   UNL     1       3.501 106.421 178.628  1.00  0.00     0.146 A 
ATOM     11  O   UNL     1       3.267 107.372 179.525  1.00  0.00    -0.452 OA
ENDROOT
BRANCH   1  12
ATOM     12  C   UNL     1       3.676 108.687 181.505  1.00  0.00     0.025 A 
ATOM     13  C   UNL     1       4.419 109.874 181.542  1.00  0.00     0.016 A 
ATOM     14  C   UNL     1       4.059 110.906 182.410  1.00  0.00     0.051 A 
ATOM     15  C   UNL     1       2.944 110.780 183.246  1.00  0.00     0.157 A 
ATOM     16  C   UNL     1       2.542 108.564 182.326  1.00  0.00     0.062 A 
ATOM     17  C   UNL     1       2.171 109.595 183.198  1.00  0.00     0.158 A 
BRANCH  15  18
ATOM     18  O   UNL     1       2.641 111.844 184.096  1.00  0.00    -0.504 OA
ATOM     19  H   UNL     1       1.707 112.070 184.409  1.00  0.00     0.293 HD
ENDBRANCH  15  18
BRANCH  17  20
ATOM     20  O   UNL     1       1.034 109.404 183.986  1.00  0.00    -0.504 OA
ATOM     21  H   UNL     1       0.463 108.571 183.962  1.00  0.00     0.293 HD
ENDBRANCH  17  20
ENDBRANCH   1  12
BRANCH   2  22
ATOM     22  O   UNL     1       6.141 107.184 181.745  1.00  0.00    -0.502 OA
ATOM     23  H   UNL     1       7.069 106.779 181.802  1.00  0.00     0.293 HD
ENDBRANCH   2  22
BRANCH   6  24
ATOM     24  O   UNL     1       5.821 103.577 177.838  1.00  0.00    -0.507 OA
ATOM     25  H   UNL     1       5.803 102.692 177.355  1.00  0.00     0.293 HD
ENDBRANCH   6  24
BRANCH   8  26
ATOM     26  O   UNL     1       1.924 105.178 175.533  1.00  0.00    -0.508 OA
ATOM     27  H   UNL     1       1.119 104.565 175.583  1.00  0.00     0.293 HD
ENDBRANCH   8  26
TORSDOF 6
ENDMDL
MODEL 3
REMARK VINA RESULT:    -5.275      3.259      6.147
REMARK INTER + INTRA:          -6.549
REMARK INTER:                  -6.233
REMARK INTRA:                  -0.315
REMARK UNBOUND:                -0.195
REMARK SMILES O=c1c(O)c(-c2ccc(O)c(O)c2)oc2cc(O)cc(O)c12
REMARK SMILES IDX 5 1 3 2 2 3 1 4 22 5 20 6 19 7 17 8 16 9 15 10 14 11 6 12
REMARK SMILES IDX 7 13 8 14 9 15 13 16 11 17 10 18 12 20 4 22 21 24 18 26
REMARK H PARENT 10 19 12 21 4 23 21 25 18 27
REMARK Flexibility Score: inf
ROOT
ATOM      1  C   UNL     1       4.509 111.111 183.208  1.00  0.00     0.180 A 
ATOM      2  C   UNL     1       5.560 110.553 183.955  1.00  0.00     0.208 A 
ATOM      3  C   UNL     1       5.845 109.185 183.814  1.00  0.00     0.238 A 
ATOM      4  O   UNL     1       6.820 108.701 184.444  1.00  0.00    -0.285 OA
ATOM      5  C   UNL     1       5.065 108.390 182.938  1.00  0.00     0.111 A 
ATOM      6  C   UNL     1       5.238 106.986 182.747  1.00  0.00     0.134 A 
ATOM      7  C   UNL     1       4.496 106.328 181.759  1.00  0.00     0.093 A 
ATOM      8  C   UNL     1       3.540 107.009 181.001  1.00  0.00     0.123 A 
ATOM      9  C   UNL     1       3.322 108.367 181.222  1.00  0.00     0.094 A 
ATOM     10  C   UNL     1       4.073 109.059 182.176  1.00  0.00     0.146 A 
ATOM     11  O   UNL     1       3.840 110.355 182.346  1.00  0.00    -0.452 OA
ENDROOT
BRANCH   1  12
ATOM     12  C   UNL     1       4.134 112.540 183.323  1.00  0.00     0.025 A 
ATOM     13  C   UNL     1       3.283 112.949 184.358  1.00  0.00     0.016 A 
ATOM     14  C   UNL     1       2.933 114.293 184.496  1.00  0.00     0.051 A 
ATOM     15  C   UNL     1       3.437 115.257 183.615  1.00  0.00     0.157 A 
ATOM     16  C   UNL     1       4.660 113.507 182.448  1.00  0.00     0.062 A 
ATOM     17  C   UNL     1       4.318 114.859 182.581  1.00  0.00     0.158 A 
BRANCH  15  18
ATOM     18  O   UNL     1       3.043 116.583 183.802  1.00  0.00    -0.504 OA
ATOM     19  H   UNL     1       2.366 116.880 184.490  1.00  0.00     0.293 HD
ENDBRANCH  15  18
BRANCH  17  20
ATOM     20  O   UNL     1       4.876 115.764 181.677  1.00  0.00    -0.504 OA
ATOM     21  H   UNL     1       4.908 115.618 180.678  1.00  0.00     0.293 HD
ENDBRANCH  17  20
ENDBRANCH   1  12
BRANCH   2  22
ATOM     22  O   UNL     1       6.331 111.360 184.797  1.00  0.00    -0.502 OA
ATOM     23  H   UNL     1       5.954 111.789 185.634  1.00  0.00     0.293 HD
ENDBRANCH   2  22
BRANCH   6  24
ATOM     24  O   UNL     1       6.099 106.196 183.513  1.00  0.00    -0.507 OA
ATOM     25  H   UNL     1       6.870 106.547 184.059  1.00  0.00     0.293 HD
ENDBRANCH   6  24
BRANCH   8  26
ATOM     26  O   UNL     1       2.794 106.342 180.031  1.00  0.00    -0.508 OA
ATOM     27  H   UNL     1       3.169 105.545 179.531  1.00  0.00     0.293 HD
ENDBRANCH   8  26
TORSDOF 6
ENDMDL
MODEL 4
REMARK VINA RESULT:    -5.248      4.676      6.631
REMARK INTER + INTRA:          -6.516
REMARK INTER:                  -6.232
REMARK INTRA:                  -0.284
REMARK UNBOUND:                -0.195
REMARK SMILES O=c1c(O)c(-c2ccc(O)c(O)c2)oc2cc(O)cc(O)c12
REMARK SMILES IDX 5 1 3 2 2 3 1 4 22 5 20 6 19 7 17 8 16 9 15 10 14 11 6 12
REMARK SMILES IDX 7 13 8 14 9 15 13 16 11 17 10 18 12 20 4 22 21 24 18 26
REMARK H PARENT 10 19 12 21 4 23 21 25 18 27
REMARK Flexibility Score: inf
ROOT
ATOM      1  C   UNL     1       6.284 106.555 182.385  1.00  0.00     0.180 A 
ATOM      2  C   UNL     1       5.998 106.052 181.104  1.00  0.00     0.208 A 
ATOM      3  C   UNL     1       4.767 106.367 180.507  1.00  0.00     0.238 A 
ATOM      4  O   UNL     1       4.539 105.958 179.339  1.00  0.00    -0.285 OA
ATOM      5  C   UNL     1       3.831 107.169 181.204  1.00  0.00     0.111 A 
ATOM      6  C   UNL     1       2.537 107.517 180.712  1.00  0.00     0.134 A 
ATOM      7  C   UNL     1       1.747 108.423 181.429  1.00  0.00     0.093 A 
ATOM      8  C   UNL     1       2.177 108.942 182.654  1.00  0.00     0.123 A 
ATOM      9  C   UNL     1       3.413 108.561 183.171  1.00  0.00     0.094 A 
ATOM     10  C   UNL     1       4.239 107.687 182.460  1.00  0.00     0.146 A 
ATOM     11  O   UNL     1       5.414 107.359 182.985  1.00  0.00    -0.452 OA
ENDROOT
BRANCH   1  12
ATOM     12  C   UNL     1       7.550 106.246 183.089  1.00  0.00     0.025 A 
ATOM     13  C   UNL     1       8.531 107.239 183.212  1.00  0.00     0.016 A 
ATOM     14  C   UNL     1       9.723 106.975 183.889  1.00  0.00     0.051 A 
ATOM     15  C   UNL     1       9.953 105.722 184.468  1.00  0.00     0.157 A 
ATOM     16  C   UNL     1       7.767 104.993 183.688  1.00  0.00     0.062 A 
ATOM     17  C   UNL     1       8.958 104.719 184.372  1.00  0.00     0.158 A 
BRANCH  15  18
ATOM     18  O   UNL     1      11.167 105.518 185.125  1.00  0.00    -0.504 OA
ATOM     19  H   UNL     1      12.072 105.674 184.703  1.00  0.00     0.293 HD
ENDBRANCH  15  18
BRANCH  17  20
ATOM     20  O   UNL     1       9.107 103.453 184.941  1.00  0.00    -0.504 OA
ATOM     21  H   UNL     1       9.358 102.625 184.419  1.00  0.00     0.293 HD
ENDBRANCH  17  20
ENDBRANCH   1  12
BRANCH   2  22
ATOM     22  O   UNL     1       6.946 105.280 180.425  1.00  0.00    -0.502 OA
ATOM     23  H   UNL     1       7.846 105.045 180.827  1.00  0.00     0.293 HD
ENDBRANCH   2  22
BRANCH   6  24
ATOM     24  O   UNL     1       1.976 106.985 179.548  1.00  0.00    -0.507 OA
ATOM     25  H   UNL     1       2.244 107.242 178.610  1.00  0.00     0.293 HD
ENDBRANCH   6  24
BRANCH   8  26
ATOM     26  O   UNL     1       1.377 109.831 183.370  1.00  0.00    -0.508 OA
ATOM     27  H   UNL     1       1.485 110.834 183.277  1.00  0.00     0.293 HD
ENDBRANCH   8  26
TORSDOF 6
ENDMDL
MODEL 5
REMARK VINA RESULT:    -5.179      2.175      7.078
REMARK INTER + INTRA:          -6.433
REMARK INTER:                  -6.180
REMARK INTRA:                  -0.253
REMARK UNBOUND:                -0.195
REMARK SMILES O=c1c(O)c(-c2ccc(O)c(O)c2)oc2cc(O)cc(O)c12
REMARK SMILES IDX 5 1 3 2 2 3 1 4 22 5 20 6 19 7 17 8 16 9 15 10 14 11 6 12
REMARK SMILES IDX 7 13 8 14 9 15 13 16 11 17 10 18 12 20 4 22 21 24 18 26
REMARK H PARENT 10 19 12 21 4 23 21 25 18 27
REMARK Flexibility Score: inf
ROOT
ATOM      1  C   UNL     1       4.887 105.431 178.432  1.00  0.00     0.180 A 
ATOM      2  C   UNL     1       3.810 106.133 177.862  1.00  0.00     0.208 A 
ATOM      3  C   UNL     1       3.052 106.993 178.674  1.00  0.00     0.238 A 
ATOM      4  O   UNL     1       2.123 107.658 178.146  1.00  0.00    -0.285 OA
ATOM      5  C   UNL     1       3.370 107.128 180.046  1.00  0.00     0.111 A 
ATOM      6  C   UNL     1       2.645 107.940 180.970  1.00  0.00     0.134 A 
ATOM      7  C   UNL     1       3.127 108.101 182.274  1.00  0.00     0.093 A 
ATOM      8  C   UNL     1       4.273 107.427 182.708  1.00  0.00     0.123 A 
ATOM      9  C   UNL     1       4.953 106.586 181.830  1.00  0.00     0.094 A 
ATOM     10  C   UNL     1       4.516 106.434 180.512  1.00  0.00     0.146 A 
ATOM     11  O   UNL     1       5.201 105.631 179.707  1.00  0.00    -0.452 OA
ENDROOT
BRANCH   1  12
ATOM     12  C   UNL     1       5.717 104.488 177.647  1.00  0.00     0.025 A 
ATOM     13  C   UNL     1       7.051 104.811 177.367  1.00  0.00     0.016 A 
ATOM     14  C   UNL     1       7.856 103.928 176.647  1.00  0.00     0.051 A 
ATOM     15  C   UNL     1       7.351 102.701 176.204  1.00  0.00     0.157 A 
ATOM     16  C   UNL     1       5.211 103.247 177.223  1.00  0.00     0.062 A 
ATOM     17  C   UNL     1       6.012 102.352 176.502  1.00  0.00     0.158 A 
BRANCH  15  18
ATOM     18  O   UNL     1       8.205 101.865 175.482  1.00  0.00    -0.504 OA
ATOM     19  H   UNL     1       9.012 101.404 175.876  1.00  0.00     0.293 HD
ENDBRANCH  15  18
BRANCH  17  20
ATOM     20  O   UNL     1       5.445 101.138 176.112  1.00  0.00    -0.504 OA
ATOM     21  H   UNL     1       5.938 100.257 176.115  1.00  0.00     0.293 HD
ENDBRANCH  17  20
ENDBRANCH   1  12
BRANCH   2  22
ATOM     22  O   UNL     1       3.527 106.000 176.500  1.00  0.00    -0.502 OA
ATOM     23  H   UNL     1       3.291 105.110 176.077  1.00  0.00     0.293 HD
ENDBRANCH   2  22
BRANCH   6  24
ATOM     24  O   UNL     1       1.441 108.581 180.666  1.00  0.00    -0.507 OA
ATOM     25  H   UNL     1       1.230 109.543 180.885  1.00  0.00     0.293 HD
ENDBRANCH   6  24
BRANCH   8  26
ATOM     26  O   UNL     1       4.737 107.581 184.013  1.00  0.00    -0.508 OA
ATOM     27  H   UNL     1       4.100 107.630 184.799  1.00  0.00     0.293 HD
ENDBRANCH   8  26
TORSDOF 6
ENDMDL
MODEL 6
REMARK VINA RESULT:    -5.179      4.554      5.780
REMARK INTER + INTRA:          -6.433
REMARK INTER:                  -6.157
REMARK INTRA:                  -0.276
REMARK UNBOUND:                -0.195
REMARK SMILES O=c1c(O)c(-c2ccc(O)c(O)c2)oc2cc(O)cc(O)c12
REMARK SMILES IDX 5 1 3 2 2 3 1 4 22 5 20 6 19 7 17 8 16 9 15 10 14 11 6 12
REMARK SMILES IDX 7 13 8 14 9 15 13 16 11 17 10 18 12 20 4 22 21 24 18 26
REMARK H PARENT 10 19 12 21 4 23 21 25 18 27
REMARK Flexibility Score: inf
ROOT
ATOM      1  C   UNL     1       5.874 106.601 182.431  1.00  0.00     0.180 A 
ATOM      2  C   UNL     1       4.898 107.422 183.021  1.00  0.00     0.208 A 
ATOM      3  C   UNL     1       3.703 107.667 182.326  1.00  0.00     0.238 A 
ATOM      4  O   UNL     1       2.811 108.358 182.882  1.00  0.00    -0.285 OA
ATOM      5  C   UNL     1       3.505 107.100 181.043  1.00  0.00     0.111 A 
ATOM      6  C   UNL     1       2.351 107.314 180.232  1.00  0.00     0.134 A 
ATOM      7  C   UNL     1       2.204 106.599 179.037  1.00  0.00     0.093 A 
ATOM      8  C   UNL     1       3.202 105.727 178.592  1.00  0.00     0.123 A 
ATOM      9  C   UNL     1       4.360 105.558 179.348  1.00  0.00     0.094 A 
ATOM     10  C   UNL     1       4.518 106.230 180.562  1.00  0.00     0.146 A 
ATOM     11  O   UNL     1       5.632 106.031 181.256  1.00  0.00    -0.452 OA
ENDROOT
BRANCH   1  12
ATOM     12  C   UNL     1       7.170 106.318 183.092  1.00  0.00     0.025 A 
ATOM     13  C   UNL     1       8.166 107.303 183.109  1.00  0.00     0.016 A 
ATOM     14  C   UNL     1       9.386 107.064 183.744  1.00  0.00     0.051 A 
ATOM     15  C   UNL     1       9.630 105.845 184.385  1.00  0.00     0.157 A 
ATOM     16  C   UNL     1       7.402 105.099 183.753  1.00  0.00     0.062 A 
ATOM     17  C   UNL     1       8.622 104.851 184.396  1.00  0.00     0.158 A 
BRANCH  15  18
ATOM     18  O   UNL     1      10.873 105.665 184.995  1.00  0.00    -0.504 OA
ATOM     19  H   UNL     1      10.996 105.311 185.933  1.00  0.00     0.293 HD
ENDBRANCH  15  18
BRANCH  17  20
ATOM     20  O   UNL     1       8.785 103.619 185.031  1.00  0.00    -0.504 OA
ATOM     21  H   UNL     1       8.804 102.732 184.548  1.00  0.00     0.293 HD
ENDBRANCH  17  20
ENDBRANCH   1  12
BRANCH   2  22
ATOM     22  O   UNL     1       5.105 107.953 184.298  1.00  0.00    -0.502 OA
ATOM     23  H   UNL     1       4.690 107.549 185.129  1.00  0.00     0.293 HD
ENDBRANCH   2  22
BRANCH   6  24
ATOM     24  O   UNL     1       1.340 108.230 180.539  1.00  0.00    -0.507 OA
ATOM     25  H   UNL     1       0.372 107.990 180.689  1.00  0.00     0.293 HD
ENDBRANCH   6  24
BRANCH   8  26
ATOM     26  O   UNL     1       3.056 105.032 177.393  1.00  0.00    -0.508 OA
ATOM     27  H   UNL     1       2.992 105.515 176.505  1.00  0.00     0.293 HD
ENDBRANCH   8  26
TORSDOF 6
ENDMDL
MODEL 7
REMARK VINA RESULT:    -5.143      2.483      6.252
REMARK INTER + INTRA:          -6.389
REMARK INTER:                  -6.076
REMARK INTRA:                  -0.314
REMARK UNBOUND:                -0.195
REMARK SMILES O=c1c(O)c(-c2ccc(O)c(O)c2)oc2cc(O)cc(O)c12
REMARK SMILES IDX 5 1 3 2 2 3 1 4 22 5 20 6 19 7 17 8 16 9 15 10 14 11 6 12
REMARK SMILES IDX 7 13 8 14 9 15 13 16 11 17 10 18 12 20 4 22 21 24 18 26
REMARK H PARENT 10 19 12 21 4 23 21 25 18 27
REMARK Flexibility Score: inf
ROOT
ATOM      1  C   UNL     1       2.801 106.869 179.236  1.00  0.00     0.180 A 
ATOM      2  C   UNL     1       2.220 107.759 180.156  1.00  0.00     0.208 A 
ATOM      3  C   UNL     1       2.878 108.007 181.372  1.00  0.00     0.238 A 
ATOM      4  O   UNL     1       2.381 108.844 182.169  1.00  0.00    -0.285 OA
ATOM      5  C   UNL     1       4.101 107.352 181.657  1.00  0.00     0.111 A 
ATOM      6  C   UNL     1       4.834 107.498 182.873  1.00  0.00     0.134 A 
ATOM      7  C   UNL     1       6.096 106.904 182.994  1.00  0.00     0.093 A 
ATOM      8  C   UNL     1       6.623 106.115 181.967  1.00  0.00     0.123 A 
ATOM      9  C   UNL     1       5.888 105.918 180.800  1.00  0.00     0.094 A 
ATOM     10  C   UNL     1       4.642 106.528 180.636  1.00  0.00     0.146 A 
ATOM     11  O   UNL     1       3.981 106.322 179.503  1.00  0.00    -0.452 OA
ENDROOT
BRANCH   1  12
ATOM     12  C   UNL     1       2.153 106.538 177.944  1.00  0.00     0.025 A 
ATOM     13  C   UNL     1       1.314 105.419 177.860  1.00  0.00     0.016 A 
ATOM     14  C   UNL     1       0.678 105.101 176.659  1.00  0.00     0.051 A 
ATOM     15  C   UNL     1       0.856 105.900 175.524  1.00  0.00     0.157 A 
ATOM     16  C   UNL     1       2.317 107.357 176.813  1.00  0.00     0.062 A 
ATOM     17  C   UNL     1       1.681 107.048 175.604  1.00  0.00     0.158 A 
BRANCH  15  18
ATOM     18  O   UNL     1       0.198 105.524 174.352  1.00  0.00    -0.504 OA
ATOM     19  H   UNL     1       0.321 105.986 173.461  1.00  0.00     0.293 HD
ENDBRANCH  15  18
BRANCH  17  20
ATOM     20  O   UNL     1       1.889 107.903 174.521  1.00  0.00    -0.504 OA
ATOM     21  H   UNL     1       2.289 107.612 173.640  1.00  0.00     0.293 HD
ENDBRANCH  17  20
ENDBRANCH   1  12
BRANCH   2  22
ATOM     22  O   UNL     1       1.023 108.411 179.845  1.00  0.00    -0.502 OA
ATOM     23  H   UNL     1       0.122 108.080 180.171  1.00  0.00     0.293 HD
ENDBRANCH   2  22
BRANCH   6  24
ATOM     24  O   UNL     1       4.359 108.187 183.992  1.00  0.00    -0.507 OA
ATOM     25  H   UNL     1       4.370 107.830 184.935  1.00  0.00     0.293 HD
ENDBRANCH   6  24
BRANCH   8  26
ATOM     26  O   UNL     1       7.873 105.515 182.102  1.00  0.00    -0.508 OA
ATOM     27  H   UNL     1       8.007 104.693 182.680  1.00  0.00     0.293 HD
ENDBRANCH   8  26
TORSDOF 6
ENDMDL
MODEL 8
REMARK VINA RESULT:    -5.138      3.139      7.599
REMARK INTER + INTRA:          -6.384
REMARK INTER:                  -6.055
REMARK INTRA:                  -0.328
REMARK UNBOUND:                -0.195
REMARK SMILES O=c1c(O)c(-c2ccc(O)c(O)c2)oc2cc(O)cc(O)c12
REMARK SMILES IDX 5 1 3 2 2 3 1 4 22 5 20 6 19 7 17 8 16 9 15 10 14 11 6 12
REMARK SMILES IDX 7 13 8 14 9 15 13 16 11 17 10 18 12 20 4 22 21 24 18 26
REMARK H PARENT 10 19 12 21 4 23 21 25 18 27
REMARK Flexibility Score: inf
ROOT
ATOM      1  C   UNL     1       4.825 104.627 178.004  1.00  0.00     0.180 A 
ATOM      2  C   UNL     1       3.613 104.765 178.702  1.00  0.00     0.208 A 
ATOM      3  C   UNL     1       3.610 105.432 179.938  1.00  0.00     0.238 A 
ATOM      4  O   UNL     1       2.514 105.598 180.532  1.00  0.00    -0.285 OA
ATOM      5  C   UNL     1       4.821 105.939 180.467  1.00  0.00     0.111 A 
ATOM      6  C   UNL     1       4.942 106.596 181.729  1.00  0.00     0.134 A 
ATOM      7  C   UNL     1       6.165 107.173 182.092  1.00  0.00     0.093 A 
ATOM      8  C   UNL     1       7.289 107.059 181.269  1.00  0.00     0.123 A 
ATOM      9  C   UNL     1       7.195 106.368 180.063  1.00  0.00     0.094 A 
ATOM     10  C   UNL     1       5.979 105.813 179.657  1.00  0.00     0.146 A 
ATOM     11  O   UNL     1       5.933 105.173 178.495  1.00  0.00    -0.452 OA
ENDROOT
BRANCH   1  12
ATOM     12  C   UNL     1       4.912 103.915 176.708  1.00  0.00     0.025 A 
ATOM     13  C   UNL     1       4.751 104.633 175.515  1.00  0.00     0.016 A 
ATOM     14  C   UNL     1       4.849 103.985 174.282  1.00  0.00     0.051 A 
ATOM     15  C   UNL     1       5.124 102.615 174.215  1.00  0.00     0.157 A 
ATOM     16  C   UNL     1       5.211 102.543 176.645  1.00  0.00     0.062 A 
ATOM     17  C   UNL     1       5.315 101.886 175.413  1.00  0.00     0.158 A 
BRANCH  15  18
ATOM     18  O   UNL     1       5.202 102.025 172.952  1.00  0.00    -0.504 OA
ATOM     19  H   UNL     1       4.409 101.886 172.343  1.00  0.00     0.293 HD
ENDBRANCH  15  18
BRANCH  17  20
ATOM     20  O   UNL     1       5.612 100.521 175.426  1.00  0.00    -0.504 OA
ATOM     21  H   UNL     1       5.447  99.915 176.217  1.00  0.00     0.293 HD
ENDBRANCH  17  20
ENDBRANCH   1  12
BRANCH   2  22
ATOM     22  O   UNL     1       2.426 104.275 178.151  1.00  0.00    -0.502 OA
ATOM     23  H   UNL     1       1.927 104.760 177.413  1.00  0.00     0.293 HD
ENDBRANCH   2  22
BRANCH   6  24
ATOM     24  O   UNL     1       3.907 106.685 182.664  1.00  0.00    -0.507 OA
ATOM     25  H   UNL     1       3.026 107.148 182.505  1.00  0.00     0.293 HD
ENDBRANCH   6  24
BRANCH   8  26
ATOM     26  O   UNL     1       8.506 107.623 181.646  1.00  0.00    -0.508 OA
ATOM     27  H   UNL     1       9.009 107.299 182.464  1.00  0.00     0.293 HD
ENDBRANCH   8  26
TORSDOF 6
ENDMDL
MODEL 9
REMARK VINA RESULT:    -5.054      2.040      2.710
REMARK INTER + INTRA:          -6.282
REMARK INTER:                  -6.183
REMARK INTRA:                  -0.099
REMARK UNBOUND:                -0.195
REMARK SMILES O=c1c(O)c(-c2ccc(O)c(O)c2)oc2cc(O)cc(O)c12
REMARK SMILES IDX 5 1 3 2 2 3 1 4 22 5 20 6 19 7 17 8 16 9 15 10 14 11 6 12
REMARK SMILES IDX 7 13 8 14 9 15 13 16 11 17 10 18 12 20 4 22 21 24 18 26
REMARK H PARENT 10 19 12 21 4 23 21 25 18 27
REMARK Flexibility Score: inf
ROOT
ATOM      1  C   UNL     1       3.292 107.588 180.764  1.00  0.00     0.180 A 
ATOM      2  C   UNL     1       1.953 107.999 180.660  1.00  0.00     0.208 A 
ATOM      3  C   UNL     1       1.200 107.592 179.546  1.00  0.00     0.238 A 
ATOM      4  O   UNL     1      -0.014 107.919 179.484  1.00  0.00    -0.285 OA
ATOM      5  C   UNL     1       1.800 106.790 178.546  1.00  0.00     0.111 A 
ATOM      6  C   UNL     1       1.144 106.352 177.356  1.00  0.00     0.134 A 
ATOM      7  C   UNL     1       1.793 105.455 176.499  1.00  0.00     0.093 A 
ATOM      8  C   UNL     1       3.101 105.032 176.756  1.00  0.00     0.123 A 
ATOM      9  C   UNL     1       3.771 105.500 177.884  1.00  0.00     0.094 A 
ATOM     10  C   UNL     1       3.135 106.368 178.775  1.00  0.00     0.146 A 
ATOM     11  O   UNL     1       3.807 106.781 179.843  1.00  0.00    -0.452 OA
ENDROOT
BRANCH   1  12
ATOM     12  C   UNL     1       4.156 107.998 181.896  1.00  0.00     0.025 A 
ATOM     13  C   UNL     1       4.824 107.019 182.644  1.00  0.00     0.016 A 
ATOM     14  C   UNL     1       5.659 107.385 183.701  1.00  0.00     0.051 A 
ATOM     15  C   UNL     1       5.855 108.732 184.023  1.00  0.00     0.157 A 
ATOM     16  C   UNL     1       4.367 109.354 182.202  1.00  0.00     0.062 A 
ATOM     17  C   UNL     1       5.205 109.731 183.258  1.00  0.00     0.158 A 
BRANCH  15  18
ATOM     18  O   UNL     1       6.696 109.032 185.096  1.00  0.00    -0.504 OA
ATOM     19  H   UNL     1       6.497 109.738 185.791  1.00  0.00     0.293 HD
ENDBRANCH  15  18
BRANCH  17  20
ATOM     20  O   UNL     1       5.367 111.095 183.506  1.00  0.00    -0.504 OA
ATOM     21  H   UNL     1       4.634 111.780 183.396  1.00  0.00     0.293 HD
ENDBRANCH  17  20
ENDBRANCH   1  12
BRANCH   2  22
ATOM     22  O   UNL     1       1.373 108.773 181.670  1.00  0.00    -0.502 OA
ATOM     23  H   UNL     1       1.924 109.337 182.307  1.00  0.00     0.293 HD
ENDBRANCH   2  22
BRANCH   6  24
ATOM     24  O   UNL     1      -0.124 106.787 176.960  1.00  0.00    -0.507 OA
ATOM     25  H   UNL     1      -0.984 106.291 177.137  1.00  0.00     0.293 HD
ENDBRANCH   6  24
BRANCH   8  26
ATOM     26  O   UNL     1       3.745 104.151 175.890  1.00  0.00    -0.508 OA
ATOM     27  H   UNL     1       4.584 104.420 175.389  1.00  0.00     0.293 HD
ENDBRANCH   8  26
TORSDOF 6
ENDMDL
