MODEL 1
REMARK VINA RESULT:    -6.802      0.000      0.000
REMARK INTER + INTRA:         -11.186
REMARK INTER:                  -9.984
REMARK INTRA:                  -1.203
REMARK UNBOUND:                -1.203
REMARK SMILES O=c1c(O[C@@H]2O[C@@H](CO)[C@@H](O)[C@H](O)[C@@H]2O)c(-c2ccc(O)c(O)c2)oc2cc(O)cc(O)c12
REMARK SMILES IDX 4 1 3 2 16 3 25 4 2 5 26 6 1 7 33 8 27 9 31 10 28 11 30 12
REMARK SMILES IDX 17 13 18 14 19 15 20 16 24 17 22 18 21 19 23 21 32 23 29 25
REMARK SMILES IDX 5 27 14 28 6 29 12 30 7 31 10 32 15 33 13 35 8 37 9 38 11 40
REMARK H PARENT 21 20 23 22 32 24 29 26 15 34 13 36 9 39 11 41
REMARK Flexibility Score: inf
ROOT
ATOM      1  O   UNL     1      -9.473  32.479   6.439  1.00  0.00    -0.454 OA
ENDROOT
BRANCH   1   2
ATOM      2  C   UNL     1      -9.788  33.782   6.862  1.00  0.00     0.214 A 
ATOM      3  C   UNL     1     -10.721  33.977   7.898  1.00  0.00     0.180 A 
ATOM      4  O   UNL     1     -11.083  35.208   8.244  1.00  0.00    -0.452 OA
ATOM      5  C   UNL     1      -9.182  34.910   6.279  1.00  0.00     0.239 A 
ATOM      6  C   UNL     1     -10.573  36.301   7.686  1.00  0.00     0.146 A 
ATOM      7  O   UNL     1      -8.268  34.758   5.421  1.00  0.00    -0.285 OA
ATOM      8  C   UNL     1      -9.583  36.202   6.680  1.00  0.00     0.111 A 
ATOM      9  C   UNL     1     -11.019  37.555   8.115  1.00  0.00     0.094 A 
ATOM     10  C   UNL     1      -9.040  37.388   6.127  1.00  0.00     0.134 A 
ATOM     11  C   UNL     1     -10.484  38.723   7.562  1.00  0.00     0.123 A 
ATOM     12  C   UNL     1      -9.497  38.636   6.575  1.00  0.00     0.093 A 
BRANCH   3  13
ATOM     13  C   UNL     1     -11.341  32.841   8.610  1.00  0.00     0.025 A 
ATOM     14  C   UNL     1     -12.401  32.119   8.038  1.00  0.00     0.016 A 
ATOM     15  C   UNL     1     -12.992  31.065   8.738  1.00  0.00     0.051 A 
ATOM     16  C   UNL     1     -12.524  30.708  10.010  1.00  0.00     0.157 A 
ATOM     17  C   UNL     1     -10.855  32.464   9.871  1.00  0.00     0.062 A 
ATOM     18  C   UNL     1     -11.447  31.410  10.576  1.00  0.00     0.158 A 
BRANCH  16  19
ATOM     19  O   UNL     1     -13.125  29.660  10.709  1.00  0.00    -0.504 OA
ATOM     20  H   UNL     1     -14.034  29.768  11.149  1.00  0.00     0.293 HD
ENDBRANCH  16  19
BRANCH  18  21
ATOM     21  O   UNL     1     -10.953  31.077  11.837  1.00  0.00    -0.504 OA
ATOM     22  H   UNL     1      -9.964  31.105  12.051  1.00  0.00     0.293 HD
ENDBRANCH  18  21
ENDBRANCH   3  13
BRANCH  10  23
ATOM     23  O   UNL     1      -8.054  37.336   5.138  1.00  0.00    -0.507 OA
ATOM     24  H   UNL     1      -7.534  38.163   4.858  1.00  0.00     0.293 HD
ENDBRANCH  10  23
BRANCH  11  25
ATOM     25  O   UNL     1     -10.923  39.976   7.985  1.00  0.00    -0.508 OA
ATOM     26  H   UNL     1     -11.199  40.694   7.324  1.00  0.00     0.293 HD
ENDBRANCH  11  25
ENDBRANCH   1   2
BRANCH   1  27
ATOM     27  C   UNL     1      -8.827  31.511   7.275  1.00  0.00     0.339 C 
ATOM     28  C   UNL     1      -9.087  30.076   6.761  1.00  0.00     0.214 C 
ATOM     29  O   UNL     1      -7.439  31.783   7.398  1.00  0.00    -0.332 OA
ATOM     30  C   UNL     1      -8.307  29.794   5.463  1.00  0.00     0.180 C 
ATOM     31  C   UNL     1      -6.765  31.656   6.156  1.00  0.00     0.179 C 
ATOM     32  C   UNL     1      -6.835  30.203   5.634  1.00  0.00     0.177 C 
BRANCH  28  33
ATOM     33  O   UNL     1     -10.462  29.867   6.552  1.00  0.00    -0.384 OA
ATOM     34  H   UNL     1     -10.937  30.574   7.062  1.00  0.00     0.211 HD
ENDBRANCH  28  33
BRANCH  30  35
ATOM     35  O   UNL     1      -8.868  30.504   4.389  1.00  0.00    -0.387 OA
ATOM     36  H   UNL     1      -9.841  30.304   4.379  1.00  0.00     0.211 HD
ENDBRANCH  30  35
BRANCH  31  37
ATOM     37  C   UNL     1      -5.312  32.110   6.325  1.00  0.00     0.191 C 
BRANCH  37  38
ATOM     38  O   UNL     1      -4.851  31.738   7.595  1.00  0.00    -0.394 OA
ATOM     39  H   UNL     1      -3.899  32.021   7.633  1.00  0.00     0.210 HD
ENDBRANCH  37  38
ENDBRANCH  31  37
BRANCH  32  40
ATOM     40  O   UNL     1      -6.196  29.340   6.540  1.00  0.00    -0.387 OA
ATOM     41  H   UNL     1      -6.137  28.452   6.097  1.00  0.00     0.211 HD
ENDBRANCH  32  40
ENDBRANCH   1  27
TORSDOF 12
ENDMDL
MODEL 2
REMARK VINA RESULT:    -6.633      1.202      2.437
REMARK INTER + INTRA:         -10.938
REMARK INTER:                  -9.260
REMARK INTRA:                  -1.678
REMARK UNBOUND:                -1.203
REMARK SMILES O=c1c(O[C@@H]2O[C@@H](CO)[C@@H](O)[C@H](O)[C@@H]2O)c(-c2ccc(O)c(O)c2)oc2cc(O)cc(O)c12
REMARK SMILES IDX 4 1 3 2 16 3 25 4 2 5 26 6 1 7 33 8 27 9 31 10 28 11 30 12
REMARK SMILES IDX 17 13 18 14 19 15 20 16 24 17 22 18 21 19 23 21 32 23 29 25
REMARK SMILES IDX 5 27 14 28 6 29 12 30 7 31 10 32 15 33 13 35 8 37 9 38 11 40
REMARK H PARENT 21 20 23 22 32 24 29 26 15 34 13 36 9 39 11 41
REMARK Flexibility Score: inf
ROOT
ATOM      1  O   UNL     1      -8.883  33.523   6.952  1.00  0.00    -0.454 OA
ENDROOT
BRANCH   1   2
ATOM      2  C   UNL     1      -9.704  34.633   7.214  1.00  0.00     0.214 A 
ATOM      3  C   UNL     1     -10.809  34.501   8.077  1.00  0.00     0.180 A 
ATOM      4  O   UNL     1     -11.634  35.525   8.262  1.00  0.00    -0.452 OA
ATOM      5  C   UNL     1      -9.445  35.891   6.639  1.00  0.00     0.239 A 
ATOM      6  C   UNL     1     -11.455  36.716   7.701  1.00  0.00     0.146 A 
ATOM      7  O   UNL     1      -8.404  36.060   5.945  1.00  0.00    -0.285 OA
ATOM      8  C   UNL     1     -10.337  36.960   6.868  1.00  0.00     0.111 A 
ATOM      9  C   UNL     1     -12.380  37.734   7.954  1.00  0.00     0.094 A 
ATOM     10  C   UNL     1     -10.161  38.249   6.309  1.00  0.00     0.134 A 
ATOM     11  C   UNL     1     -12.205  39.004   7.394  1.00  0.00     0.123 A 
ATOM     12  C   UNL     1     -11.098  39.258   6.579  1.00  0.00     0.093 A 
BRANCH   3  13
ATOM     13  C   UNL     1     -11.101  33.233   8.777  1.00  0.00     0.025 A 
ATOM     14  C   UNL     1     -11.797  32.196   8.137  1.00  0.00     0.016 A 
ATOM     15  C   UNL     1     -12.088  31.014   8.823  1.00  0.00     0.051 A 
ATOM     16  C   UNL     1     -11.675  30.848  10.152  1.00  0.00     0.157 A 
ATOM     17  C   UNL     1     -10.663  33.054  10.098  1.00  0.00     0.062 A 
ATOM     18  C   UNL     1     -10.955  31.873  10.790  1.00  0.00     0.158 A 
BRANCH  16  19
ATOM     19  O   UNL     1     -11.976  29.670  10.838  1.00  0.00    -0.504 OA
ATOM     20  H   UNL     1     -12.848  29.174  10.682  1.00  0.00     0.293 HD
ENDBRANCH  16  19
BRANCH  18  21
ATOM     21  O   UNL     1     -10.524  31.737  12.110  1.00  0.00    -0.504 OA
ATOM     22  H   UNL     1      -9.727  31.163  12.358  1.00  0.00     0.293 HD
ENDBRANCH  18  21
ENDBRANCH   3  13
BRANCH  10  23
ATOM     23  O   UNL     1      -9.066  38.534   5.489  1.00  0.00    -0.507 OA
ATOM     24  H   UNL     1      -8.133  38.672   5.871  1.00  0.00     0.293 HD
ENDBRANCH  10  23
BRANCH  11  25
ATOM     25  O   UNL     1     -13.122  40.023   7.642  1.00  0.00    -0.508 OA
ATOM     26  H   UNL     1     -13.470  40.209   8.577  1.00  0.00     0.293 HD
ENDBRANCH  11  25
ENDBRANCH   1   2
BRANCH   1  27
ATOM     27  C   UNL     1      -8.631  33.019   5.634  1.00  0.00     0.339 C 
ATOM     28  C   UNL     1      -7.115  32.844   5.390  1.00  0.00     0.214 C 
ATOM     29  O   UNL     1      -9.346  31.814   5.400  1.00  0.00    -0.332 OA
ATOM     30  C   UNL     1      -6.551  31.653   6.187  1.00  0.00     0.180 C 
ATOM     31  C   UNL     1      -8.904  30.767   6.249  1.00  0.00     0.179 C 
ATOM     32  C   UNL     1      -7.428  30.410   5.966  1.00  0.00     0.177 C 
BRANCH  28  33
ATOM     33  O   UNL     1      -6.421  34.020   5.726  1.00  0.00    -0.384 OA
ATOM     34  H   UNL     1      -5.475  33.877   5.461  1.00  0.00     0.211 HD
ENDBRANCH  28  33
BRANCH  30  35
ATOM     35  O   UNL     1      -6.507  31.956   7.558  1.00  0.00    -0.387 OA
ATOM     36  H   UNL     1      -6.805  32.898   7.661  1.00  0.00     0.211 HD
ENDBRANCH  30  35
BRANCH  31  37
ATOM     37  C   UNL     1      -9.812  29.549   6.057  1.00  0.00     0.191 C 
BRANCH  37  38
ATOM     38  O   UNL     1     -10.145  29.424   4.701  1.00  0.00    -0.394 OA
ATOM     39  H   UNL     1      -9.740  28.569   4.398  1.00  0.00     0.210 HD
ENDBRANCH  37  38
ENDBRANCH  31  37
BRANCH  32  40
ATOM     40  O   UNL     1      -7.293  29.953   4.644  1.00  0.00    -0.387 OA
ATOM     41  H   UNL     1      -6.395  30.242   4.331  1.00  0.00     0.211 HD
ENDBRANCH  32  40
ENDBRANCH   1  27
TORSDOF 12
ENDMDL
MODEL 3
REMARK VINA RESULT:    -6.203      1.238      2.314
REMARK INTER + INTRA:         -10.306
REMARK INTER:                  -8.553
REMARK INTRA:                  -1.754
REMARK UNBOUND:                -1.203
REMARK SMILES O=c1c(O[C@@H]2O[C@@H](CO)[C@@H](O)[C@H](O)[C@@H]2O)c(-c2ccc(O)c(O)c2)oc2cc(O)cc(O)c12
REMARK SMILES IDX 4 1 3 2 16 3 25 4 2 5 26 6 1 7 33 8 27 9 31 10 28 11 30 12
REMARK SMILES IDX 17 13 18 14 19 15 20 16 24 17 22 18 21 19 23 21 32 23 29 25
REMARK SMILES IDX 5 27 14 28 6 29 12 30 7 31 10 32 15 33 13 35 8 37 9 38 11 40
REMARK H PARENT 21 20 23 22 32 24 29 26 15 34 13 36 9 39 11 41
REMARK Flexibility Score: inf
ROOT
ATOM      1  O   UNL     1      -9.254  31.953   7.093  1.00  0.00    -0.454 OA
ENDROOT
BRANCH   1   2
ATOM      2  C   UNL     1      -9.619  33.301   7.241  1.00  0.00     0.214 A 
ATOM      3  C   UNL     1     -10.623  33.661   8.161  1.00  0.00     0.180 A 
ATOM      4  O   UNL     1     -11.028  34.923   8.243  1.00  0.00    -0.452 OA
ATOM      5  C   UNL     1      -8.996  34.318   6.492  1.00  0.00     0.239 A 
ATOM      6  C   UNL     1     -10.502  35.907   7.521  1.00  0.00     0.146 A 
ATOM      7  O   UNL     1      -8.025  34.034   5.737  1.00  0.00    -0.285 OA
ATOM      8  C   UNL     1      -9.445  35.649   6.616  1.00  0.00     0.111 A 
ATOM      9  C   UNL     1     -10.997  37.205   7.676  1.00  0.00     0.094 A 
ATOM     10  C   UNL     1      -8.888  36.725   5.882  1.00  0.00     0.134 A 
ATOM     11  C   UNL     1     -10.447  38.264   6.945  1.00  0.00     0.123 A 
ATOM     12  C   UNL     1      -9.395  38.022   6.056  1.00  0.00     0.093 A 
BRANCH   3  13
ATOM     13  C   UNL     1     -11.269  32.661   9.036  1.00  0.00     0.025 A 
ATOM     14  C   UNL     1     -12.461  32.026   8.653  1.00  0.00     0.016 A 
ATOM     15  C   UNL     1     -13.072  31.103   9.505  1.00  0.00     0.051 A 
ATOM     16  C   UNL     1     -12.494  30.791  10.743  1.00  0.00     0.157 A 
ATOM     17  C   UNL     1     -10.676  32.327  10.262  1.00  0.00     0.062 A 
ATOM     18  C   UNL     1     -11.287  31.405  11.120  1.00  0.00     0.158 A 
BRANCH  16  19
ATOM     19  O   UNL     1     -13.113  29.876  11.596  1.00  0.00    -0.504 OA
ATOM     20  H   UNL     1     -14.023  30.063  12.004  1.00  0.00     0.293 HD
ENDBRANCH  16  19
BRANCH  18  21
ATOM     21  O   UNL     1     -10.682  31.112  12.342  1.00  0.00    -0.504 OA
ATOM     22  H   UNL     1     -11.220  30.847  13.159  1.00  0.00     0.293 HD
ENDBRANCH  18  21
ENDBRANCH   3  13
BRANCH  10  23
ATOM     23  O   UNL     1      -7.838  36.517   4.985  1.00  0.00    -0.507 OA
ATOM     24  H   UNL     1      -7.769  37.036   4.112  1.00  0.00     0.293 HD
ENDBRANCH  10  23
BRANCH  11  25
ATOM     25  O   UNL     1     -10.935  39.560   7.095  1.00  0.00    -0.508 OA
ATOM     26  H   UNL     1     -11.820  39.844   6.692  1.00  0.00     0.293 HD
ENDBRANCH  11  25
ENDBRANCH   1   2
BRANCH   1  27
ATOM     27  C   UNL     1      -9.896  31.055   6.179  1.00  0.00     0.339 C 
ATOM     28  C   UNL     1      -8.897  30.533   5.122  1.00  0.00     0.214 C 
ATOM     29  O   UNL     1     -10.536  29.991   6.870  1.00  0.00    -0.332 OA
ATOM     30  C   UNL     1      -7.897  29.536   5.737  1.00  0.00     0.180 C 
ATOM     31  C   UNL     1      -9.602  29.167   7.549  1.00  0.00     0.179 C 
ATOM     32  C   UNL     1      -8.650  28.471   6.550  1.00  0.00     0.177 C 
BRANCH  28  33
ATOM     33  O   UNL     1      -8.205  31.603   4.526  1.00  0.00    -0.384 OA
ATOM     34  H   UNL     1      -7.488  31.202   3.968  1.00  0.00     0.211 HD
ENDBRANCH  28  33
BRANCH  30  35
ATOM     35  O   UNL     1      -6.987  30.205   6.571  1.00  0.00    -0.387 OA
ATOM     36  H   UNL     1      -6.281  29.552   6.821  1.00  0.00     0.211 HD
ENDBRANCH  30  35
BRANCH  31  37
ATOM     37  C   UNL     1     -10.361  28.139   8.393  1.00  0.00     0.191 C 
BRANCH  37  38
ATOM     38  O   UNL     1      -9.488  27.111   8.773  1.00  0.00    -0.394 OA
ATOM     39  H   UNL     1      -9.967  26.590   9.470  1.00  0.00     0.210 HD
ENDBRANCH  37  38
ENDBRANCH  31  37
BRANCH  32  40
ATOM     40  O   UNL     1      -9.387  27.638   5.691  1.00  0.00    -0.387 OA
ATOM     41  H   UNL     1     -10.009  28.226   5.186  1.00  0.00     0.211 HD
ENDBRANCH  32  40
ENDBRANCH   1  27
TORSDOF 12
ENDMDL
MODEL 4
REMARK VINA RESULT:    -6.068      1.558      4.982
REMARK INTER + INTRA:         -10.108
REMARK INTER:                  -8.937
REMARK INTRA:                  -1.170
REMARK UNBOUND:                -1.203
REMARK SMILES O=c1c(O[C@@H]2O[C@@H](CO)[C@@H](O)[C@H](O)[C@@H]2O)c(-c2ccc(O)c(O)c2)oc2cc(O)cc(O)c12
REMARK SMILES IDX 4 1 3 2 16 3 25 4 2 5 26 6 1 7 33 8 27 9 31 10 28 11 30 12
REMARK SMILES IDX 17 13 18 14 19 15 20 16 24 17 22 18 21 19 23 21 32 23 29 25
REMARK SMILES IDX 5 27 14 28 6 29 12 30 7 31 10 32 15 33 13 35 8 37 9 38 11 40
REMARK H PARENT 21 20 23 22 32 24 29 26 15 34 13 36 9 39 11 41
REMARK Flexibility Score: inf
ROOT
ATOM      1  O   UNL     1     -10.549  32.695   7.107  1.00  0.00    -0.454 OA
ENDROOT
BRANCH   1   2
ATOM      2  C   UNL     1      -9.956  33.940   6.841  1.00  0.00     0.214 A 
ATOM      3  C   UNL     1      -8.618  34.003   6.408  1.00  0.00     0.180 A 
ATOM      4  O   UNL     1      -8.029  35.182   6.236  1.00  0.00    -0.452 OA
ATOM      5  C   UNL     1     -10.674  35.143   6.989  1.00  0.00     0.239 A 
ATOM      6  C   UNL     1      -8.654  36.341   6.411  1.00  0.00     0.146 A 
ATOM      7  O   UNL     1     -11.903  35.108   7.277  1.00  0.00    -0.285 OA
ATOM      8  C   UNL     1     -10.018  36.375   6.786  1.00  0.00     0.111 A 
ATOM      9  C   UNL     1      -7.949  37.532   6.208  1.00  0.00     0.094 A 
ATOM     10  C   UNL     1     -10.661  37.628   6.936  1.00  0.00     0.134 A 
ATOM     11  C   UNL     1      -8.587  38.767   6.364  1.00  0.00     0.123 A 
ATOM     12  C   UNL     1      -9.937  38.811   6.723  1.00  0.00     0.093 A 
BRANCH   3  13
ATOM     13  C   UNL     1      -7.825  32.782   6.157  1.00  0.00     0.025 A 
ATOM     14  C   UNL     1      -8.258  31.813   5.237  1.00  0.00     0.016 A 
ATOM     15  C   UNL     1      -7.508  30.653   5.032  1.00  0.00     0.051 A 
ATOM     16  C   UNL     1      -6.311  30.451   5.731  1.00  0.00     0.157 A 
ATOM     17  C   UNL     1      -6.612  32.592   6.835  1.00  0.00     0.062 A 
ATOM     18  C   UNL     1      -5.859  31.429   6.634  1.00  0.00     0.158 A 
BRANCH  16  19
ATOM     19  O   UNL     1      -5.570  29.285   5.532  1.00  0.00    -0.504 OA
ATOM     20  H   UNL     1      -5.325  28.966   4.600  1.00  0.00     0.293 HD
ENDBRANCH  16  19
BRANCH  18  21
ATOM     21  O   UNL     1      -4.669  31.261   7.342  1.00  0.00    -0.504 OA
ATOM     22  H   UNL     1      -4.642  31.257   8.354  1.00  0.00     0.293 HD
ENDBRANCH  18  21
ENDBRANCH   3  13
BRANCH  10  23
ATOM     23  O   UNL     1     -12.009  37.707   7.296  1.00  0.00    -0.507 OA
ATOM     24  H   UNL     1     -12.474  38.601   7.435  1.00  0.00     0.293 HD
ENDBRANCH  10  23
BRANCH  11  25
ATOM     25  O   UNL     1      -7.891  39.957   6.162  1.00  0.00    -0.508 OA
ATOM     26  H   UNL     1      -7.044  40.170   6.678  1.00  0.00     0.293 HD
ENDBRANCH  11  25
ENDBRANCH   1   2
BRANCH   1  27
ATOM     27  C   UNL     1     -10.187  31.867   8.219  1.00  0.00     0.339 C 
ATOM     28  C   UNL     1     -10.970  32.272   9.489  1.00  0.00     0.214 C 
ATOM     29  O   UNL     1     -10.357  30.491   7.911  1.00  0.00    -0.332 OA
ATOM     30  C   UNL     1     -12.451  31.863   9.390  1.00  0.00     0.180 C 
ATOM     31  C   UNL     1     -11.719  30.167   7.683  1.00  0.00     0.179 C 
ATOM     32  C   UNL     1     -12.563  30.392   8.958  1.00  0.00     0.177 C 
BRANCH  28  33
ATOM     33  O   UNL     1     -10.866  33.657   9.713  1.00  0.00    -0.384 OA
ATOM     34  H   UNL     1     -11.171  34.102   8.879  1.00  0.00     0.211 HD
ENDBRANCH  28  33
BRANCH  30  35
ATOM     35  O   UNL     1     -13.125  32.675   8.463  1.00  0.00    -0.387 OA
ATOM     36  H   UNL     1     -12.891  33.617   8.673  1.00  0.00     0.211 HD
ENDBRANCH  30  35
BRANCH  31  37
ATOM     37  C   UNL     1     -11.817  28.715   7.207  1.00  0.00     0.191 C 
BRANCH  37  38
ATOM     38  O   UNL     1     -10.888  27.931   7.906  1.00  0.00    -0.394 OA
ATOM     39  H   UNL     1     -11.409  27.193   8.318  1.00  0.00     0.210 HD
ENDBRANCH  37  38
ENDBRANCH  31  37
BRANCH  32  40
ATOM     40  O   UNL     1     -12.106  29.550   9.986  1.00  0.00    -0.387 OA
ATOM     41  H   UNL     1     -12.885  29.004  10.276  1.00  0.00     0.211 HD
ENDBRANCH  32  40
ENDBRANCH   1  27
TORSDOF 12
ENDMDL
MODEL 5
REMARK VINA RESULT:    -5.728      2.128      5.868
REMARK INTER + INTRA:          -9.609
REMARK INTER:                  -8.172
REMARK INTRA:                  -1.437
REMARK UNBOUND:                -1.203
REMARK SMILES O=c1c(O[C@@H]2O[C@@H](CO)[C@@H](O)[C@H](O)[C@@H]2O)c(-c2ccc(O)c(O)c2)oc2cc(O)cc(O)c12
REMARK SMILES IDX 4 1 3 2 16 3 25 4 2 5 26 6 1 7 33 8 27 9 31 10 28 11 30 12
REMARK SMILES IDX 17 13 18 14 19 15 20 16 24 17 22 18 21 19 23 21 32 23 29 25
REMARK SMILES IDX 5 27 14 28 6 29 12 30 7 31 10 32 15 33 13 35 8 37 9 38 11 40
REMARK H PARENT 21 20 23 22 32 24 29 26 15 34 13 36 9 39 11 41
REMARK Flexibility Score: inf
ROOT
ATOM      1  O   UNL     1      -9.446  29.892   7.161  1.00  0.00    -0.454 OA
ENDROOT
BRANCH   1   2
ATOM      2  C   UNL     1      -9.108  31.183   6.722  1.00  0.00     0.214 A 
ATOM      3  C   UNL     1      -8.100  31.355   5.755  1.00  0.00     0.180 A 
ATOM      4  O   UNL     1      -7.720  32.578   5.399  1.00  0.00    -0.452 OA
ATOM      5  C   UNL     1      -9.764  32.324   7.222  1.00  0.00     0.239 A 
ATOM      6  C   UNL     1      -8.278  33.683   5.881  1.00  0.00     0.146 A 
ATOM      7  O   UNL     1     -10.740  32.191   8.012  1.00  0.00    -0.285 OA
ATOM      8  C   UNL     1      -9.343  33.607   6.811  1.00  0.00     0.111 A 
ATOM      9  C   UNL     1      -7.809  34.927   5.447  1.00  0.00     0.094 A 
ATOM     10  C   UNL     1      -9.933  34.804   7.283  1.00  0.00     0.134 A 
ATOM     11  C   UNL     1      -8.393  36.107   5.921  1.00  0.00     0.123 A 
ATOM     12  C   UNL     1      -9.452  36.042   6.832  1.00  0.00     0.093 A 
BRANCH   3  13
ATOM     13  C   UNL     1      -7.419  30.203   5.128  1.00  0.00     0.025 A 
ATOM     14  C   UNL     1      -7.938  29.595   3.974  1.00  0.00     0.016 A 
ATOM     15  C   UNL     1      -7.297  28.490   3.411  1.00  0.00     0.051 A 
ATOM     16  C   UNL     1      -6.121  27.986   3.984  1.00  0.00     0.157 A 
ATOM     17  C   UNL     1      -6.227  29.715   5.684  1.00  0.00     0.062 A 
ATOM     18  C   UNL     1      -5.583  28.606   5.125  1.00  0.00     0.158 A 
BRANCH  16  19
ATOM     19  O   UNL     1      -5.488  26.875   3.425  1.00  0.00    -0.504 OA
ATOM     20  H   UNL     1      -5.697  25.932   3.738  1.00  0.00     0.293 HD
ENDBRANCH  16  19
BRANCH  18  21
ATOM     21  O   UNL     1      -4.412  28.133   5.716  1.00  0.00    -0.504 OA
ATOM     22  H   UNL     1      -3.521  28.600   5.592  1.00  0.00     0.293 HD
ENDBRANCH  18  21
ENDBRANCH   3  13
BRANCH  10  23
ATOM     23  O   UNL     1     -10.992  34.773   8.195  1.00  0.00    -0.507 OA
ATOM     24  H   UNL     1     -11.723  35.480   8.189  1.00  0.00     0.293 HD
ENDBRANCH  10  23
BRANCH  11  25
ATOM     25  O   UNL     1      -7.931  37.350   5.493  1.00  0.00    -0.508 OA
ATOM     26  H   UNL     1      -8.209  38.208   5.955  1.00  0.00     0.293 HD
ENDBRANCH  11  25
ENDBRANCH   1   2
BRANCH   1  27
ATOM     27  C   UNL     1     -10.513  29.119   6.598  1.00  0.00     0.339 C 
ATOM     28  C   UNL     1     -10.232  27.605   6.734  1.00  0.00     0.214 C 
ATOM     29  O   UNL     1     -11.763  29.477   7.171  1.00  0.00    -0.332 OA
ATOM     30  C   UNL     1     -10.374  27.137   8.195  1.00  0.00     0.180 C 
ATOM     31  C   UNL     1     -11.817  29.165   8.554  1.00  0.00     0.179 C 
ATOM     32  C   UNL     1     -11.701  27.641   8.783  1.00  0.00     0.177 C 
BRANCH  28  33
ATOM     33  O   UNL     1      -8.948  27.296   6.252  1.00  0.00    -0.384 OA
ATOM     34  H   UNL     1      -9.029  26.440   5.755  1.00  0.00     0.211 HD
ENDBRANCH  28  33
BRANCH  30  35
ATOM     35  O   UNL     1      -9.306  27.618   8.971  1.00  0.00    -0.387 OA
ATOM     36  H   UNL     1      -9.475  27.340   9.909  1.00  0.00     0.211 HD
ENDBRANCH  30  35
BRANCH  31  37
ATOM     37  C   UNL     1     -13.121  29.713   9.141  1.00  0.00     0.191 C 
BRANCH  37  38
ATOM     38  O   UNL     1     -12.902  31.002   9.643  1.00  0.00    -0.394 OA
ATOM     39  H   UNL     1     -12.332  31.463   8.972  1.00  0.00     0.210 HD
ENDBRANCH  37  38
ENDBRANCH  31  37
BRANCH  32  40
ATOM     40  O   UNL     1     -12.782  26.984   8.170  1.00  0.00    -0.387 OA
ATOM     41  H   UNL     1     -12.404  26.205   7.682  1.00  0.00     0.211 HD
ENDBRANCH  32  40
ENDBRANCH   1  27
TORSDOF 12
ENDMDL
MODEL 6
REMARK VINA RESULT:    -5.636      2.089      6.424
REMARK INTER + INTRA:          -9.475
REMARK INTER:                  -7.724
REMARK INTRA:                  -1.751
REMARK UNBOUND:                -1.203
REMARK SMILES O=c1c(O[C@@H]2O[C@@H](CO)[C@@H](O)[C@H](O)[C@@H]2O)c(-c2ccc(O)c(O)c2)oc2cc(O)cc(O)c12
REMARK SMILES IDX 4 1 3 2 16 3 25 4 2 5 26 6 1 7 33 8 27 9 31 10 28 11 30 12
REMARK SMILES IDX 17 13 18 14 19 15 20 16 24 17 22 18 21 19 23 21 32 23 29 25
REMARK SMILES IDX 5 27 14 28 6 29 12 30 7 31 10 32 15 33 13 35 8 37 9 38 11 40
REMARK H PARENT 21 20 23 22 32 24 29 26 15 34 13 36 9 39 11 41
REMARK Flexibility Score: inf
ROOT
ATOM      1  O   UNL     1      -9.988  31.961   7.060  1.00  0.00    -0.454 OA
ENDROOT
BRANCH   1   2
ATOM      2  C   UNL     1     -10.669  31.178   8.006  1.00  0.00     0.214 A 
ATOM      3  C   UNL     1     -11.547  31.788   8.923  1.00  0.00     0.180 A 
ATOM      4  O   UNL     1     -12.128  31.062   9.872  1.00  0.00    -0.452 OA
ATOM      5  C   UNL     1     -10.504  29.781   8.059  1.00  0.00     0.239 A 
ATOM      6  C   UNL     1     -11.962  29.748   9.989  1.00  0.00     0.146 A 
ATOM      7  O   UNL     1      -9.804  29.199   7.184  1.00  0.00    -0.285 OA
ATOM      8  C   UNL     1     -11.148  29.040   9.073  1.00  0.00     0.111 A 
ATOM      9  C   UNL     1     -12.615  29.070  11.023  1.00  0.00     0.094 A 
ATOM     10  C   UNL     1     -11.015  27.637   9.210  1.00  0.00     0.134 A 
ATOM     11  C   UNL     1     -12.476  27.684  11.157  1.00  0.00     0.123 A 
ATOM     12  C   UNL     1     -11.682  26.974  10.251  1.00  0.00     0.093 A 
BRANCH   3  13
ATOM     13  C   UNL     1     -11.830  33.237   8.880  1.00  0.00     0.025 A 
ATOM     14  C   UNL     1     -12.834  33.755   8.047  1.00  0.00     0.016 A 
ATOM     15  C   UNL     1     -13.070  35.131   8.000  1.00  0.00     0.051 A 
ATOM     16  C   UNL     1     -12.316  36.006   8.794  1.00  0.00     0.157 A 
ATOM     17  C   UNL     1     -11.096  34.111   9.696  1.00  0.00     0.062 A 
ATOM     18  C   UNL     1     -11.326  35.491   9.649  1.00  0.00     0.158 A 
BRANCH  16  19
ATOM     19  O   UNL     1     -12.547  37.381   8.737  1.00  0.00    -0.504 OA
ATOM     20  H   UNL     1     -11.922  38.043   9.185  1.00  0.00     0.293 HD
ENDBRANCH  16  19
BRANCH  18  21
ATOM     21  O   UNL     1     -10.563  36.333  10.457  1.00  0.00    -0.504 OA
ATOM     22  H   UNL     1      -9.615  36.597  10.214  1.00  0.00     0.293 HD
ENDBRANCH  18  21
ENDBRANCH   3  13
BRANCH  10  23
ATOM     23  O   UNL     1     -10.228  26.898   8.322  1.00  0.00    -0.507 OA
ATOM     24  H   UNL     1     -10.248  25.882   8.309  1.00  0.00     0.293 HD
ENDBRANCH  10  23
BRANCH  11  25
ATOM     25  O   UNL     1     -13.124  27.001  12.184  1.00  0.00    -0.508 OA
ATOM     26  H   UNL     1     -13.193  27.389  13.118  1.00  0.00     0.293 HD
ENDBRANCH  11  25
ENDBRANCH   1   2
BRANCH   1  27
ATOM     27  C   UNL     1      -8.826  32.742   7.367  1.00  0.00     0.339 C 
ATOM     28  C   UNL     1      -7.616  32.291   6.517  1.00  0.00     0.214 C 
ATOM     29  O   UNL     1      -9.087  34.130   7.219  1.00  0.00    -0.332 OA
ATOM     30  C   UNL     1      -7.776  32.714   5.044  1.00  0.00     0.180 C 
ATOM     31  C   UNL     1      -9.372  34.471   5.872  1.00  0.00     0.179 C 
ATOM     32  C   UNL     1      -8.153  34.201   4.962  1.00  0.00     0.177 C 
BRANCH  28  33
ATOM     33  O   UNL     1      -7.444  30.898   6.602  1.00  0.00    -0.384 OA
ATOM     34  H   UNL     1      -6.520  30.707   6.294  1.00  0.00     0.211 HD
ENDBRANCH  28  33
BRANCH  30  35
ATOM     35  O   UNL     1      -8.769  31.943   4.417  1.00  0.00    -0.387 OA
ATOM     36  H   UNL     1      -8.334  31.115   4.086  1.00  0.00     0.211 HD
ENDBRANCH  30  35
BRANCH  31  37
ATOM     37  C   UNL     1      -9.793  35.943   5.806  1.00  0.00     0.191 C 
BRANCH  37  38
ATOM     38  O   UNL     1      -9.278  36.626   6.916  1.00  0.00    -0.394 OA
ATOM     39  H   UNL     1      -9.218  35.954   7.646  1.00  0.00     0.210 HD
ENDBRANCH  37  38
ENDBRANCH  31  37
BRANCH  32  40
ATOM     40  O   UNL     1      -7.070  34.998   5.368  1.00  0.00    -0.387 OA
ATOM     41  H   UNL     1      -6.578  35.256   4.543  1.00  0.00     0.211 HD
ENDBRANCH  32  40
ENDBRANCH   1  27
TORSDOF 12
ENDMDL
MODEL 7
REMARK VINA RESULT:    -5.547      1.780      5.084
REMARK INTER + INTRA:          -9.344
REMARK INTER:                  -8.802
REMARK INTRA:                  -0.542
REMARK UNBOUND:                -1.203
REMARK SMILES O=c1c(O[C@@H]2O[C@@H](CO)[C@@H](O)[C@H](O)[C@@H]2O)c(-c2ccc(O)c(O)c2)oc2cc(O)cc(O)c12
REMARK SMILES IDX 4 1 3 2 16 3 25 4 2 5 26 6 1 7 33 8 27 9 31 10 28 11 30 12
REMARK SMILES IDX 17 13 18 14 19 15 20 16 24 17 22 18 21 19 23 21 32 23 29 25
REMARK SMILES IDX 5 27 14 28 6 29 12 30 7 31 10 32 15 33 13 35 8 37 9 38 11 40
REMARK H PARENT 21 20 23 22 32 24 29 26 15 34 13 36 9 39 11 41
REMARK Flexibility Score: inf
ROOT
ATOM      1  O   UNL     1      -9.698  31.371   7.467  1.00  0.00    -0.454 OA
ENDROOT
BRANCH   1   2
ATOM      2  C   UNL     1      -9.419  32.684   7.050  1.00  0.00     0.214 A 
ATOM      3  C   UNL     1      -8.173  32.986   6.467  1.00  0.00     0.180 A 
ATOM      4  O   UNL     1      -7.875  34.241   6.148  1.00  0.00    -0.452 OA
ATOM      5  C   UNL     1     -10.365  33.716   7.190  1.00  0.00     0.239 A 
ATOM      6  C   UNL     1      -8.720  35.254   6.309  1.00  0.00     0.146 A 
ATOM      7  O   UNL     1     -11.525  33.450   7.614  1.00  0.00    -0.285 OA
ATOM      8  C   UNL     1     -10.018  35.035   6.829  1.00  0.00     0.111 A 
ATOM      9  C   UNL     1      -8.315  36.542   5.945  1.00  0.00     0.094 A 
ATOM     10  C   UNL     1     -10.903  36.133   6.960  1.00  0.00     0.134 A 
ATOM     11  C   UNL     1      -9.191  37.624   6.083  1.00  0.00     0.123 A 
ATOM     12  C   UNL     1     -10.479  37.416   6.585  1.00  0.00     0.093 A 
BRANCH   3  13
ATOM     13  C   UNL     1      -7.159  31.942   6.217  1.00  0.00     0.025 A 
ATOM     14  C   UNL     1      -7.371  30.941   5.255  1.00  0.00     0.016 A 
ATOM     15  C   UNL     1      -6.412  29.946   5.051  1.00  0.00     0.051 A 
ATOM     16  C   UNL     1      -5.223  29.945   5.793  1.00  0.00     0.157 A 
ATOM     17  C   UNL     1      -5.956  31.956   6.939  1.00  0.00     0.062 A 
ATOM     18  C   UNL     1      -4.994  30.959   6.739  1.00  0.00     0.158 A 
BRANCH  16  19
ATOM     19  O   UNL     1      -4.273  28.944   5.594  1.00  0.00    -0.504 OA
ATOM     20  H   UNL     1      -3.621  28.677   6.325  1.00  0.00     0.293 HD
ENDBRANCH  16  19
BRANCH  18  21
ATOM     21  O   UNL     1      -3.819  30.991   7.491  1.00  0.00    -0.504 OA
ATOM     22  H   UNL     1      -3.829  31.086   8.499  1.00  0.00     0.293 HD
ENDBRANCH  18  21
ENDBRANCH   3  13
BRANCH  10  23
ATOM     23  O   UNL     1     -12.196  35.959   7.460  1.00  0.00    -0.507 OA
ATOM     24  H   UNL     1     -12.824  35.253   7.085  1.00  0.00     0.293 HD
ENDBRANCH  10  23
BRANCH  11  25
ATOM     25  O   UNL     1      -8.794  38.910   5.721  1.00  0.00    -0.508 OA
ATOM     26  H   UNL     1      -8.532  39.600   6.416  1.00  0.00     0.293 HD
ENDBRANCH  11  25
ENDBRANCH   1   2
BRANCH   1  27
ATOM     27  C   UNL     1     -10.946  30.711   7.223  1.00  0.00     0.339 C 
ATOM     28  C   UNL     1     -10.749  29.468   6.326  1.00  0.00     0.214 C 
ATOM     29  O   UNL     1     -11.601  30.386   8.440  1.00  0.00    -0.332 OA
ATOM     30  C   UNL     1     -10.049  28.329   7.092  1.00  0.00     0.180 C 
ATOM     31  C   UNL     1     -10.864  29.439   9.197  1.00  0.00     0.179 C 
ATOM     32  C   UNL     1     -10.748  28.096   8.441  1.00  0.00     0.177 C 
BRANCH  28  33
ATOM     33  O   UNL     1     -10.010  29.799   5.176  1.00  0.00    -0.384 OA
ATOM     34  H   UNL     1     -10.228  30.744   4.961  1.00  0.00     0.211 HD
ENDBRANCH  28  33
BRANCH  30  35
ATOM     35  O   UNL     1      -8.698  28.642   7.313  1.00  0.00    -0.387 OA
ATOM     36  H   UNL     1      -8.550  29.563   6.973  1.00  0.00     0.211 HD
ENDBRANCH  30  35
BRANCH  31  37
ATOM     37  C   UNL     1     -11.541  29.248  10.557  1.00  0.00     0.191 C 
BRANCH  37  38
ATOM     38  O   UNL     1     -11.233  27.975  11.057  1.00  0.00    -0.394 OA
ATOM     39  H   UNL     1     -12.082  27.614  11.425  1.00  0.00     0.210 HD
ENDBRANCH  37  38
ENDBRANCH  31  37
BRANCH  32  40
ATOM     40  O   UNL     1     -12.028  27.553   8.235  1.00  0.00    -0.387 OA
ATOM     41  H   UNL     1     -12.159  27.495   7.251  1.00  0.00     0.211 HD
ENDBRANCH  32  40
ENDBRANCH   1  27
TORSDOF 12
ENDMDL
MODEL 8
REMARK VINA RESULT:    -5.490      1.395      4.858
REMARK INTER + INTRA:          -9.261
REMARK INTER:                  -9.196
REMARK INTRA:                  -0.065
REMARK UNBOUND:                -1.203
REMARK SMILES O=c1c(O[C@@H]2O[C@@H](CO)[C@@H](O)[C@H](O)[C@@H]2O)c(-c2ccc(O)c(O)c2)oc2cc(O)cc(O)c12
REMARK SMILES IDX 4 1 3 2 16 3 25 4 2 5 26 6 1 7 33 8 27 9 31 10 28 11 30 12
REMARK SMILES IDX 17 13 18 14 19 15 20 16 24 17 22 18 21 19 23 21 32 23 29 25
REMARK SMILES IDX 5 27 14 28 6 29 12 30 7 31 10 32 15 33 13 35 8 37 9 38 11 40
REMARK H PARENT 21 20 23 22 32 24 29 26 15 34 13 36 9 39 11 41
REMARK Flexibility Score: inf
ROOT
ATOM      1  O   UNL     1     -10.965  32.481   7.598  1.00  0.00    -0.454 OA
ENDROOT
BRANCH   1   2
ATOM      2  C   UNL     1     -10.377  33.696   7.207  1.00  0.00     0.214 A 
ATOM      3  C   UNL     1      -9.099  33.700   6.616  1.00  0.00     0.180 A 
ATOM      4  O   UNL     1      -8.505  34.851   6.321  1.00  0.00    -0.452 OA
ATOM      5  C   UNL     1     -11.041  34.924   7.384  1.00  0.00     0.239 A 
ATOM      6  C   UNL     1      -9.075  36.036   6.516  1.00  0.00     0.146 A 
ATOM      7  O   UNL     1     -12.227  34.939   7.816  1.00  0.00    -0.285 OA
ATOM      8  C   UNL     1     -10.384  36.127   7.048  1.00  0.00     0.111 A 
ATOM      9  C   UNL     1      -8.370  37.195   6.177  1.00  0.00     0.094 A 
ATOM     10  C   UNL     1     -10.973  37.404   7.216  1.00  0.00     0.134 A 
ATOM     11  C   UNL     1      -8.955  38.454   6.350  1.00  0.00     0.123 A 
ATOM     12  C   UNL     1     -10.251  38.554   6.864  1.00  0.00     0.093 A 
BRANCH   3  13
ATOM     13  C   UNL     1      -8.372  32.446   6.329  1.00  0.00     0.025 A 
ATOM     14  C   UNL     1      -8.998  31.383   5.658  1.00  0.00     0.016 A 
ATOM     15  C   UNL     1      -8.304  30.195   5.419  1.00  0.00     0.051 A 
ATOM     16  C   UNL     1      -6.972  30.058   5.833  1.00  0.00     0.157 A 
ATOM     17  C   UNL     1      -7.030  32.317   6.717  1.00  0.00     0.062 A 
ATOM     18  C   UNL     1      -6.332  31.127   6.482  1.00  0.00     0.158 A 
BRANCH  16  19
ATOM     19  O   UNL     1      -6.285  28.865   5.601  1.00  0.00    -0.504 OA
ATOM     20  H   UNL     1      -6.161  28.498   4.663  1.00  0.00     0.293 HD
ENDBRANCH  16  19
BRANCH  18  21
ATOM     21  O   UNL     1      -5.006  31.026   6.901  1.00  0.00    -0.504 OA
ATOM     22  H   UNL     1      -4.611  31.654   7.591  1.00  0.00     0.293 HD
ENDBRANCH  18  21
ENDBRANCH   3  13
BRANCH  10  23
ATOM     23  O   UNL     1     -12.266  37.539   7.729  1.00  0.00    -0.507 OA
ATOM     24  H   UNL     1     -12.542  38.351   8.276  1.00  0.00     0.293 HD
ENDBRANCH  10  23
BRANCH  11  25
ATOM     25  O   UNL     1      -8.258  39.612   6.013  1.00  0.00    -0.508 OA
ATOM     26  H   UNL     1      -8.623  40.533   6.229  1.00  0.00     0.293 HD
ENDBRANCH  11  25
ENDBRANCH   1   2
BRANCH   1  27
ATOM     27  C   UNL     1     -12.132  32.397   8.425  1.00  0.00     0.339 C 
ATOM     28  C   UNL     1     -12.842  31.035   8.243  1.00  0.00     0.214 C 
ATOM     29  O   UNL     1     -11.817  32.650   9.786  1.00  0.00    -0.332 OA
ATOM     30  C   UNL     1     -12.037  29.892   8.890  1.00  0.00     0.180 C 
ATOM     31  C   UNL     1     -10.956  31.656  10.320  1.00  0.00     0.179 C 
ATOM     32  C   UNL     1     -11.645  30.273  10.327  1.00  0.00     0.177 C 
BRANCH  28  33
ATOM     33  O   UNL     1     -13.051  30.765   6.879  1.00  0.00    -0.384 OA
ATOM     34  H   UNL     1     -13.538  29.901   6.832  1.00  0.00     0.211 HD
ENDBRANCH  28  33
BRANCH  30  35
ATOM     35  O   UNL     1     -10.878  29.624   8.144  1.00  0.00    -0.387 OA
ATOM     36  H   UNL     1     -10.235  30.359   8.324  1.00  0.00     0.211 HD
ENDBRANCH  30  35
BRANCH  31  37
ATOM     37  C   UNL     1     -10.533  32.067  11.734  1.00  0.00     0.191 C 
BRANCH  37  38
ATOM     38  O   UNL     1     -10.139  33.412  11.731  1.00  0.00    -0.394 OA
ATOM     39  H   UNL     1     -10.307  33.747  12.651  1.00  0.00     0.210 HD
ENDBRANCH  37  38
ENDBRANCH  31  37
BRANCH  32  40
ATOM     40  O   UNL     1     -12.786  30.313  11.145  1.00  0.00    -0.387 OA
ATOM     41  H   UNL     1     -13.573  30.345  10.538  1.00  0.00     0.211 HD
ENDBRANCH  32  40
ENDBRANCH   1  27
TORSDOF 12
ENDMDL
