MODEL 1
REMARK VINA RESULT:    -7.326      0.000      0.000
REMARK INTER + INTRA:          -8.782
REMARK INTER:                  -8.825
REMARK INTRA:                   0.043
REMARK UNBOUND:                 0.043
REMARK SMILES O=c1c(O)c(-c2ccc(O)c(O)c2)oc2cc(O)cc(O)c12
REMARK SMILES IDX 5 1 3 2 2 3 1 4 22 5 20 6 19 7 17 8 16 9 15 10 14 11 6 12
REMARK SMILES IDX 7 13 8 14 9 15 13 16 11 17 10 18 12 20 4 22 21 24 18 26
REMARK H PARENT 10 19 12 21 4 23 21 25 18 27
REMARK Flexibility Score: inf
ROOT
ATOM      1  C   UNL     1      58.430  22.319  29.559  1.00  0.00     0.180 A 
ATOM      2  C   UNL     1      58.371  23.178  28.448  1.00  0.00     0.208 A 
ATOM      3  C   UNL     1      57.269  23.095  27.582  1.00  0.00     0.238 A 
ATOM      4  O   UNL     1      57.194  23.904  26.620  1.00  0.00    -0.285 OA
ATOM      5  C   UNL     1      56.249  22.144  27.827  1.00  0.00     0.111 A 
ATOM      6  C   UNL     1      55.108  21.945  26.992  1.00  0.00     0.134 A 
ATOM      7  C   UNL     1      54.098  21.066  27.402  1.00  0.00     0.093 A 
ATOM      8  C   UNL     1      54.218  20.331  28.583  1.00  0.00     0.123 A 
ATOM      9  C   UNL     1      55.356  20.472  29.373  1.00  0.00     0.094 A 
ATOM     10  C   UNL     1      56.364  21.369  29.010  1.00  0.00     0.146 A 
ATOM     11  O   UNL     1      57.427  21.481  29.798  1.00  0.00    -0.452 OA
ENDROOT
BRANCH   1  12
ATOM     12  C   UNL     1      59.572  22.329  30.502  1.00  0.00     0.025 A 
ATOM     13  C   UNL     1      59.374  22.426  31.889  1.00  0.00     0.016 A 
ATOM     14  C   UNL     1      60.467  22.456  32.759  1.00  0.00     0.051 A 
ATOM     15  C   UNL     1      61.774  22.406  32.255  1.00  0.00     0.157 A 
ATOM     16  C   UNL     1      60.884  22.299  29.999  1.00  0.00     0.062 A 
ATOM     17  C   UNL     1      61.981  22.330  30.867  1.00  0.00     0.158 A 
BRANCH  15  18
ATOM     18  O   UNL     1      62.862  22.435  33.125  1.00  0.00    -0.504 OA
ATOM     19  H   UNL     1      63.486  21.642  33.220  1.00  0.00     0.293 HD
ENDBRANCH  15  18
BRANCH  17  20
ATOM     20  O   UNL     1      63.269  22.285  30.333  1.00  0.00    -0.504 OA
ATOM     21  H   UNL     1      63.924  23.049  30.444  1.00  0.00     0.293 HD
ENDBRANCH  17  20
ENDBRANCH   1  12
BRANCH   2  22
ATOM     22  O   UNL     1      59.377  24.125  28.237  1.00  0.00    -0.502 OA
ATOM     23  H   UNL     1      60.143  23.971  27.593  1.00  0.00     0.293 HD
ENDBRANCH   2  22
BRANCH   6  24
ATOM     24  O   UNL     1      54.934  22.562  25.750  1.00  0.00    -0.507 OA
ATOM     25  H   UNL     1      54.051  22.654  25.273  1.00  0.00     0.293 HD
ENDBRANCH   6  24
BRANCH   8  26
ATOM     26  O   UNL     1      53.216  19.447  28.975  1.00  0.00    -0.508 OA
ATOM     27  H   UNL     1      53.410  18.467  29.147  1.00  0.00     0.293 HD
ENDBRANCH   8  26
TORSDOF 6
ENDMDL
MODEL 2
REMARK VINA RESULT:    -5.439     13.859     15.013
REMARK INTER + INTRA:          -6.508
REMARK INTER:                  -6.433
REMARK INTRA:                  -0.075
REMARK UNBOUND:                 0.043
REMARK SMILES O=c1c(O)c(-c2ccc(O)c(O)c2)oc2cc(O)cc(O)c12
REMARK SMILES IDX 5 1 3 2 2 3 1 4 22 5 20 6 19 7 17 8 16 9 15 10 14 11 6 12
REMARK SMILES IDX 7 13 8 14 9 15 13 16 11 17 10 18 12 20 4 22 21 24 18 26
REMARK H PARENT 10 19 12 21 4 23 21 25 18 27
REMARK Flexibility Score: inf
ROOT
ATOM      1  C   UNL     1      63.385   8.939  31.480  1.00  0.00     0.180 A 
ATOM      2  C   UNL     1      63.965   7.890  32.212  1.00  0.00     0.208 A 
ATOM      3  C   UNL     1      63.528   6.576  31.982  1.00  0.00     0.238 A 
ATOM      4  O   UNL     1      64.090   5.634  32.600  1.00  0.00    -0.285 OA
ATOM      5  C   UNL     1      62.503   6.329  31.036  1.00  0.00     0.111 A 
ATOM      6  C   UNL     1      61.954   5.042  30.752  1.00  0.00     0.134 A 
ATOM      7  C   UNL     1      61.036   4.899  29.704  1.00  0.00     0.093 A 
ATOM      8  C   UNL     1      60.599   6.006  28.973  1.00  0.00     0.123 A 
ATOM      9  C   UNL     1      61.083   7.275  29.283  1.00  0.00     0.094 A 
ATOM     10  C   UNL     1      62.028   7.445  30.299  1.00  0.00     0.146 A 
ATOM     11  O   UNL     1      62.471   8.669  30.554  1.00  0.00    -0.452 OA
ENDROOT
BRANCH   1  12
ATOM     12  C   UNL     1      63.775  10.353  31.685  1.00  0.00     0.025 A 
ATOM     13  C   UNL     1      63.741  10.944  32.959  1.00  0.00     0.016 A 
ATOM     14  C   UNL     1      64.092  12.287  33.125  1.00  0.00     0.051 A 
ATOM     15  C   UNL     1      64.467  13.062  32.019  1.00  0.00     0.157 A 
ATOM     16  C   UNL     1      64.132  11.139  30.577  1.00  0.00     0.062 A 
ATOM     17  C   UNL     1      64.484  12.483  30.738  1.00  0.00     0.158 A 
BRANCH  15  18
ATOM     18  O   UNL     1      64.818  14.399  32.188  1.00  0.00    -0.504 OA
ATOM     19  H   UNL     1      65.209  14.945  31.428  1.00  0.00     0.293 HD
ENDBRANCH  15  18
BRANCH  17  20
ATOM     20  O   UNL     1      64.847  13.229  29.616  1.00  0.00    -0.504 OA
ATOM     21  H   UNL     1      65.021  12.797  28.717  1.00  0.00     0.293 HD
ENDBRANCH  17  20
ENDBRANCH   1  12
BRANCH   2  22
ATOM     22  O   UNL     1      64.991   8.152  33.125  1.00  0.00    -0.502 OA
ATOM     23  H   UNL     1      65.861   8.593  32.854  1.00  0.00     0.293 HD
ENDBRANCH   2  22
BRANCH   6  24
ATOM     24  O   UNL     1      62.255   3.888  31.481  1.00  0.00    -0.507 OA
ATOM     25  H   UNL     1      63.035   3.794  32.113  1.00  0.00     0.293 HD
ENDBRANCH   6  24
BRANCH   8  26
ATOM     26  O   UNL     1      59.674   5.858  27.943  1.00  0.00    -0.508 OA
ATOM     27  H   UNL     1      59.728   6.414  27.097  1.00  0.00     0.293 HD
ENDBRANCH   8  26
TORSDOF 6
ENDMDL
MODEL 3
REMARK VINA RESULT:    -5.188     13.633     14.799
REMARK INTER + INTRA:          -6.207
REMARK INTER:                  -6.127
REMARK INTRA:                  -0.080
REMARK UNBOUND:                 0.043
REMARK SMILES O=c1c(O)c(-c2ccc(O)c(O)c2)oc2cc(O)cc(O)c12
REMARK SMILES IDX 5 1 3 2 2 3 1 4 22 5 20 6 19 7 17 8 16 9 15 10 14 11 6 12
REMARK SMILES IDX 7 13 8 14 9 15 13 16 11 17 10 18 12 20 4 22 21 24 18 26
REMARK H PARENT 10 19 12 21 4 23 21 25 18 27
REMARK Flexibility Score: inf
ROOT
ATOM      1  C   UNL     1      62.985   9.473  31.579  1.00  0.00     0.180 A 
ATOM      2  C   UNL     1      61.747   9.253  30.952  1.00  0.00     0.208 A 
ATOM      3  C   UNL     1      61.273   7.937  30.824  1.00  0.00     0.238 A 
ATOM      4  O   UNL     1      60.139   7.750  30.312  1.00  0.00    -0.285 OA
ATOM      5  C   UNL     1      62.051   6.858  31.309  1.00  0.00     0.111 A 
ATOM      6  C   UNL     1      61.687   5.482  31.196  1.00  0.00     0.134 A 
ATOM      7  C   UNL     1      62.470   4.507  31.827  1.00  0.00     0.093 A 
ATOM      8  C   UNL     1      63.638   4.853  32.511  1.00  0.00     0.123 A 
ATOM      9  C   UNL     1      64.033   6.187  32.575  1.00  0.00     0.094 A 
ATOM     10  C   UNL     1      63.254   7.186  31.987  1.00  0.00     0.146 A 
ATOM     11  O   UNL     1      63.661   8.446  32.081  1.00  0.00    -0.452 OA
ENDROOT
BRANCH   1  12
ATOM     12  C   UNL     1      63.562  10.829  31.728  1.00  0.00     0.025 A 
ATOM     13  C   UNL     1      63.849  11.367  32.993  1.00  0.00     0.016 A 
ATOM     14  C   UNL     1      64.372  12.658  33.110  1.00  0.00     0.051 A 
ATOM     15  C   UNL     1      64.602  13.435  31.967  1.00  0.00     0.157 A 
ATOM     16  C   UNL     1      63.775  11.619  30.585  1.00  0.00     0.062 A 
ATOM     17  C   UNL     1      64.298  12.912  30.698  1.00  0.00     0.158 A 
BRANCH  15  18
ATOM     18  O   UNL     1      65.125  14.720  32.087  1.00  0.00    -0.504 OA
ATOM     19  H   UNL     1      65.061  15.392  31.330  1.00  0.00     0.293 HD
ENDBRANCH  15  18
BRANCH  17  20
ATOM     20  O   UNL     1      64.509  13.661  29.541  1.00  0.00    -0.504 OA
ATOM     21  H   UNL     1      64.214  14.627  29.465  1.00  0.00     0.293 HD
ENDBRANCH  17  20
ENDBRANCH   1  12
BRANCH   2  22
ATOM     22  O   UNL     1      60.984  10.334  30.501  1.00  0.00    -0.502 OA
ATOM     23  H   UNL     1      61.399  11.214  30.221  1.00  0.00     0.293 HD
ENDBRANCH   2  22
BRANCH   6  24
ATOM     24  O   UNL     1      60.592   5.023  30.460  1.00  0.00    -0.507 OA
ATOM     25  H   UNL     1      59.659   4.912  30.826  1.00  0.00     0.293 HD
ENDBRANCH   6  24
BRANCH   8  26
ATOM     26  O   UNL     1      64.419   3.875  33.123  1.00  0.00    -0.508 OA
ATOM     27  H   UNL     1      64.178   2.892  33.067  1.00  0.00     0.293 HD
ENDBRANCH   8  26
TORSDOF 6
ENDMDL
