MODEL 1
REMARK VINA RESULT:    -6.264      0.000      0.000
REMARK INTER + INTRA:          -7.357
REMARK INTER:                  -7.546
REMARK INTRA:                   0.189
REMARK UNBOUND:                 0.189
REMARK SMILES O=c1c(O)c(-c2ccc(O)c(O)c2)oc2cc(O)cc(O)c12
REMARK SMILES IDX 5 1 3 2 2 3 1 4 22 5 20 6 19 7 17 8 16 9 15 10 14 11 6 12
REMARK SMILES IDX 7 13 8 14 9 15 13 16 11 17 10 18 12 20 4 22 21 24 18 26
REMARK H PARENT 10 19 12 21 4 23 21 25 18 27
REMARK Flexibility Score: inf
ROOT
ATOM      1  C   UNL     1     117.863  73.615  43.817  1.00  0.00     0.180 A 
ATOM      2  C   UNL     1     118.276  73.830  42.490  1.00  0.00     0.208 A 
ATOM      3  C   UNL     1     119.585  73.480  42.119  1.00  0.00     0.238 A 
ATOM      4  O   UNL     1     119.931  73.624  40.918  1.00  0.00    -0.285 OA
ATOM      5  C   UNL     1     120.467  72.936  43.083  1.00  0.00     0.111 A 
ATOM      6  C   UNL     1     121.828  72.584  42.828  1.00  0.00     0.134 A 
ATOM      7  C   UNL     1     122.570  71.932  43.821  1.00  0.00     0.093 A 
ATOM      8  C   UNL     1     122.021  71.679  45.080  1.00  0.00     0.123 A 
ATOM      9  C   UNL     1     120.714  72.073  45.358  1.00  0.00     0.094 A 
ATOM     10  C   UNL     1     119.937  72.692  44.377  1.00  0.00     0.146 A 
ATOM     11  O   UNL     1     118.693  73.042  44.679  1.00  0.00    -0.452 OA
ENDROOT
BRANCH   1  12
ATOM     12  C   UNL     1     116.507  73.981  44.288  1.00  0.00     0.025 A 
ATOM     13  C   UNL     1     116.351  74.564  45.555  1.00  0.00     0.016 A 
ATOM     14  C   UNL     1     115.083  74.936  46.012  1.00  0.00     0.051 A 
ATOM     15  C   UNL     1     113.958  74.745  45.205  1.00  0.00     0.157 A 
ATOM     16  C   UNL     1     115.376  73.809  43.470  1.00  0.00     0.062 A 
ATOM     17  C   UNL     1     114.104  74.183  43.927  1.00  0.00     0.158 A 
BRANCH  15  18
ATOM     18  O   UNL     1     112.706  75.124  45.689  1.00  0.00    -0.504 OA
ATOM     19  H   UNL     1     112.579  75.491  46.625  1.00  0.00     0.293 HD
ENDBRANCH  15  18
BRANCH  17  20
ATOM     20  O   UNL     1     112.986  74.002  43.112  1.00  0.00    -0.504 OA
ATOM     21  H   UNL     1     112.877  73.177  42.535  1.00  0.00     0.293 HD
ENDBRANCH  17  20
ENDBRANCH   1  12
BRANCH   2  22
ATOM     22  O   UNL     1     117.381  74.348  41.550  1.00  0.00    -0.502 OA
ATOM     23  H   UNL     1     117.038  73.803  40.768  1.00  0.00     0.293 HD
ENDBRANCH   2  22
BRANCH   6  24
ATOM     24  O   UNL     1     122.498  72.874  41.637  1.00  0.00    -0.507 OA
ATOM     25  H   UNL     1     122.247  73.617  41.002  1.00  0.00     0.293 HD
ENDBRANCH   6  24
BRANCH   8  26
ATOM     26  O   UNL     1     122.772  71.044  46.068  1.00  0.00    -0.508 OA
ATOM     27  H   UNL     1     122.358  70.363  46.692  1.00  0.00     0.293 HD
ENDBRANCH   8  26
TORSDOF 6
ENDMDL
MODEL 2
REMARK VINA RESULT:    -6.111      1.269      2.901
REMARK INTER + INTRA:          -7.172
REMARK INTER:                  -7.619
REMARK INTRA:                   0.447
REMARK UNBOUND:                 0.189
REMARK SMILES O=c1c(O)c(-c2ccc(O)c(O)c2)oc2cc(O)cc(O)c12
REMARK SMILES IDX 5 1 3 2 2 3 1 4 22 5 20 6 19 7 17 8 16 9 15 10 14 11 6 12
REMARK SMILES IDX 7 13 8 14 9 15 13 16 11 17 10 18 12 20 4 22 21 24 18 26
REMARK H PARENT 10 19 12 21 4 23 21 25 18 27
REMARK Flexibility Score: inf
ROOT
ATOM      1  C   UNL     1     117.638  73.270  44.706  1.00  0.00     0.180 A 
ATOM      2  C   UNL     1     118.482  72.846  45.747  1.00  0.00     0.208 A 
ATOM      3  C   UNL     1     119.809  72.498  45.449  1.00  0.00     0.238 A 
ATOM      4  O   UNL     1     120.575  72.171  46.392  1.00  0.00    -0.285 OA
ATOM      5  C   UNL     1     120.269  72.560  44.111  1.00  0.00     0.111 A 
ATOM      6  C   UNL     1     121.583  72.192  43.688  1.00  0.00     0.134 A 
ATOM      7  C   UNL     1     121.970  72.419  42.362  1.00  0.00     0.093 A 
ATOM      8  C   UNL     1     121.071  72.940  41.429  1.00  0.00     0.123 A 
ATOM      9  C   UNL     1     119.769  73.247  41.818  1.00  0.00     0.094 A 
ATOM     10  C   UNL     1     119.364  73.067  43.142  1.00  0.00     0.146 A 
ATOM     11  O   UNL     1     118.118  73.382  43.474  1.00  0.00    -0.452 OA
ENDROOT
BRANCH   1  12
ATOM     12  C   UNL     1     116.220  73.631  44.939  1.00  0.00     0.025 A 
ATOM     13  C   UNL     1     115.798  73.971  46.233  1.00  0.00     0.016 A 
ATOM     14  C   UNL     1     114.470  74.335  46.473  1.00  0.00     0.051 A 
ATOM     15  C   UNL     1     113.549  74.378  45.421  1.00  0.00     0.157 A 
ATOM     16  C   UNL     1     115.297  73.695  43.880  1.00  0.00     0.062 A 
ATOM     17  C   UNL     1     113.964  74.061  44.118  1.00  0.00     0.158 A 
BRANCH  15  18
ATOM     18  O   UNL     1     112.230  74.742  45.691  1.00  0.00    -0.504 OA
ATOM     19  H   UNL     1     111.835  74.681  46.622  1.00  0.00     0.293 HD
ENDBRANCH  15  18
BRANCH  17  20
ATOM     20  O   UNL     1     113.054  74.116  43.063  1.00  0.00    -0.504 OA
ATOM     21  H   UNL     1     113.105  73.471  42.283  1.00  0.00     0.293 HD
ENDBRANCH  17  20
ENDBRANCH   1  12
BRANCH   2  22
ATOM     22  O   UNL     1     118.013  72.813  47.063  1.00  0.00    -0.502 OA
ATOM     23  H   UNL     1     117.128  72.390  47.315  1.00  0.00     0.293 HD
ENDBRANCH   2  22
BRANCH   6  24
ATOM     24  O   UNL     1     122.526  71.579  44.518  1.00  0.00    -0.507 OA
ATOM     25  H   UNL     1     123.093  72.062  45.197  1.00  0.00     0.293 HD
ENDBRANCH   6  24
BRANCH   8  26
ATOM     26  O   UNL     1     121.460  73.148  40.107  1.00  0.00    -0.508 OA
ATOM     27  H   UNL     1     121.567  74.080  39.727  1.00  0.00     0.293 HD
ENDBRANCH   8  26
TORSDOF 6
ENDMDL
MODEL 3
REMARK VINA RESULT:    -6.104      1.940      2.314
REMARK INTER + INTRA:          -7.164
REMARK INTER:                  -6.872
REMARK INTRA:                  -0.292
REMARK UNBOUND:                 0.189
REMARK SMILES O=c1c(O)c(-c2ccc(O)c(O)c2)oc2cc(O)cc(O)c12
REMARK SMILES IDX 5 1 3 2 2 3 1 4 22 5 20 6 19 7 17 8 16 9 15 10 14 11 6 12
REMARK SMILES IDX 7 13 8 14 9 15 13 16 11 17 10 18 12 20 4 22 21 24 18 26
REMARK H PARENT 10 19 12 21 4 23 21 25 18 27
REMARK Flexibility Score: inf
ROOT
ATOM      1  C   UNL     1     118.219  73.372  44.691  1.00  0.00     0.180 A 
ATOM      2  C   UNL     1     117.879  73.663  43.359  1.00  0.00     0.208 A 
ATOM      3  C   UNL     1     118.841  73.472  42.353  1.00  0.00     0.238 A 
ATOM      4  O   UNL     1     118.514  73.682  41.156  1.00  0.00    -0.285 OA
ATOM      5  C   UNL     1     120.134  73.011  42.695  1.00  0.00     0.111 A 
ATOM      6  C   UNL     1     121.200  72.821  41.763  1.00  0.00     0.134 A 
ATOM      7  C   UNL     1     122.397  72.235  42.193  1.00  0.00     0.093 A 
ATOM      8  C   UNL     1     122.591  71.893  43.534  1.00  0.00     0.123 A 
ATOM      9  C   UNL     1     121.579  72.129  44.461  1.00  0.00     0.094 A 
ATOM     10  C   UNL     1     120.360  72.678  44.057  1.00  0.00     0.146 A 
ATOM     11  O   UNL     1     119.419  72.877  44.971  1.00  0.00    -0.452 OA
ENDROOT
BRANCH   1  12
ATOM     12  C   UNL     1     117.267  73.571  45.808  1.00  0.00     0.025 A 
ATOM     13  C   UNL     1     117.056  74.862  46.314  1.00  0.00     0.016 A 
ATOM     14  C   UNL     1     116.146  75.076  47.354  1.00  0.00     0.051 A 
ATOM     15  C   UNL     1     115.425  74.007  47.892  1.00  0.00     0.157 A 
ATOM     16  C   UNL     1     116.525  72.499  46.337  1.00  0.00     0.062 A 
ATOM     17  C   UNL     1     115.611  72.713  47.380  1.00  0.00     0.158 A 
BRANCH  15  18
ATOM     18  O   UNL     1     114.527  74.250  48.931  1.00  0.00    -0.504 OA
ATOM     19  H   UNL     1     113.738  74.877  48.824  1.00  0.00     0.293 HD
ENDBRANCH  15  18
BRANCH  17  20
ATOM     20  O   UNL     1     114.884  71.643  47.903  1.00  0.00    -0.504 OA
ATOM     21  H   UNL     1     113.970  71.396  47.543  1.00  0.00     0.293 HD
ENDBRANCH  17  20
ENDBRANCH   1  12
BRANCH   2  22
ATOM     22  O   UNL     1     116.589  74.097  43.040  1.00  0.00    -0.502 OA
ATOM     23  H   UNL     1     116.128  73.844  42.175  1.00  0.00     0.293 HD
ENDBRANCH   2  22
BRANCH   6  24
ATOM     24  O   UNL     1     121.143  73.212  40.423  1.00  0.00    -0.507 OA
ATOM     25  H   UNL     1     121.729  72.843  39.691  1.00  0.00     0.293 HD
ENDBRANCH   6  24
BRANCH   8  26
ATOM     26  O   UNL     1     123.791  71.325  43.956  1.00  0.00    -0.508 OA
ATOM     27  H   UNL     1     124.116  71.421  44.910  1.00  0.00     0.293 HD
ENDBRANCH   8  26
TORSDOF 6
ENDMDL
MODEL 4
REMARK VINA RESULT:    -5.872      1.593      7.238
REMARK INTER + INTRA:          -6.885
REMARK INTER:                  -6.963
REMARK INTRA:                   0.079
REMARK UNBOUND:                 0.189
REMARK SMILES O=c1c(O)c(-c2ccc(O)c(O)c2)oc2cc(O)cc(O)c12
REMARK SMILES IDX 5 1 3 2 2 3 1 4 22 5 20 6 19 7 17 8 16 9 15 10 14 11 6 12
REMARK SMILES IDX 7 13 8 14 9 15 13 16 11 17 10 18 12 20 4 22 21 24 18 26
REMARK H PARENT 10 19 12 21 4 23 21 25 18 27
REMARK Flexibility Score: inf
ROOT
ATOM      1  C   UNL     1     118.337  73.242  44.676  1.00  0.00     0.180 A 
ATOM      2  C   UNL     1     118.168  72.943  46.039  1.00  0.00     0.208 A 
ATOM      3  C   UNL     1     116.912  73.151  46.631  1.00  0.00     0.238 A 
ATOM      4  O   UNL     1     116.752  72.831  47.837  1.00  0.00    -0.285 OA
ATOM      5  C   UNL     1     115.846  73.671  45.857  1.00  0.00     0.111 A 
ATOM      6  C   UNL     1     114.542  73.959  46.363  1.00  0.00     0.134 A 
ATOM      7  C   UNL     1     113.528  74.346  45.479  1.00  0.00     0.093 A 
ATOM      8  C   UNL     1     113.788  74.518  44.117  1.00  0.00     0.123 A 
ATOM      9  C   UNL     1     115.071  74.297  43.623  1.00  0.00     0.094 A 
ATOM     10  C   UNL     1     116.095  73.875  44.474  1.00  0.00     0.146 A 
ATOM     11  O   UNL     1     117.301  73.664  43.962  1.00  0.00    -0.452 OA
ENDROOT
BRANCH   1  12
ATOM     12  C   UNL     1     119.638  73.073  43.988  1.00  0.00     0.025 A 
ATOM     13  C   UNL     1     120.348  71.872  44.140  1.00  0.00     0.016 A 
ATOM     14  C   UNL     1     121.568  71.683  43.484  1.00  0.00     0.051 A 
ATOM     15  C   UNL     1     122.086  72.682  42.655  1.00  0.00     0.157 A 
ATOM     16  C   UNL     1     120.151  74.068  43.137  1.00  0.00     0.062 A 
ATOM     17  C   UNL     1     121.374  73.878  42.476  1.00  0.00     0.158 A 
BRANCH  15  18
ATOM     18  O   UNL     1     123.306  72.465  42.015  1.00  0.00    -0.504 OA
ATOM     19  H   UNL     1     123.705  73.141  41.374  1.00  0.00     0.293 HD
ENDBRANCH  15  18
BRANCH  17  20
ATOM     20  O   UNL     1     121.879  74.873  41.639  1.00  0.00    -0.504 OA
ATOM     21  H   UNL     1     122.201  75.761  42.005  1.00  0.00     0.293 HD
ENDBRANCH  17  20
ENDBRANCH   1  12
BRANCH   2  22
ATOM     22  O   UNL     1     119.227  72.411  46.779  1.00  0.00    -0.502 OA
ATOM     23  H   UNL     1     119.963  71.858  46.356  1.00  0.00     0.293 HD
ENDBRANCH   2  22
BRANCH   6  24
ATOM     24  O   UNL     1     114.203  73.907  47.718  1.00  0.00    -0.507 OA
ATOM     25  H   UNL     1     113.408  73.412  48.093  1.00  0.00     0.293 HD
ENDBRANCH   6  24
BRANCH   8  26
ATOM     26  O   UNL     1     112.776  74.919  43.246  1.00  0.00    -0.508 OA
ATOM     27  H   UNL     1     111.961  75.421  43.576  1.00  0.00     0.293 HD
ENDBRANCH   8  26
TORSDOF 6
ENDMDL
MODEL 5
REMARK VINA RESULT:    -5.754      1.518      6.839
REMARK INTER + INTRA:          -6.743
REMARK INTER:                  -6.487
REMARK INTRA:                  -0.256
REMARK UNBOUND:                 0.189
REMARK SMILES O=c1c(O)c(-c2ccc(O)c(O)c2)oc2cc(O)cc(O)c12
REMARK SMILES IDX 5 1 3 2 2 3 1 4 22 5 20 6 19 7 17 8 16 9 15 10 14 11 6 12
REMARK SMILES IDX 7 13 8 14 9 15 13 16 11 17 10 18 12 20 4 22 21 24 18 26
REMARK H PARENT 10 19 12 21 4 23 21 25 18 27
REMARK Flexibility Score: inf
ROOT
ATOM      1  C   UNL     1     118.891  73.092  44.384  1.00  0.00     0.180 A 
ATOM      2  C   UNL     1     118.500  73.877  43.285  1.00  0.00     0.208 A 
ATOM      3  C   UNL     1     117.186  74.371  43.235  1.00  0.00     0.238 A 
ATOM      4  O   UNL     1     116.858  75.118  42.276  1.00  0.00    -0.285 OA
ATOM      5  C   UNL     1     116.276  74.059  44.273  1.00  0.00     0.111 A 
ATOM      6  C   UNL     1     114.910  74.472  44.305  1.00  0.00     0.134 A 
ATOM      7  C   UNL     1     114.137  74.218  45.445  1.00  0.00     0.093 A 
ATOM      8  C   UNL     1     114.663  73.508  46.527  1.00  0.00     0.123 A 
ATOM      9  C   UNL     1     115.978  73.049  46.481  1.00  0.00     0.094 A 
ATOM     10  C   UNL     1     116.785  73.319  45.373  1.00  0.00     0.146 A 
ATOM     11  O   UNL     1     118.034  72.873  45.374  1.00  0.00    -0.452 OA
ENDROOT
BRANCH   1  12
ATOM     12  C   UNL     1     120.251  72.516  44.496  1.00  0.00     0.025 A 
ATOM     13  C   UNL     1     120.610  71.431  43.682  1.00  0.00     0.016 A 
ATOM     14  C   UNL     1     121.894  70.884  43.756  1.00  0.00     0.051 A 
ATOM     15  C   UNL     1     122.842  71.424  44.631  1.00  0.00     0.157 A 
ATOM     16  C   UNL     1     121.212  73.070  45.360  1.00  0.00     0.062 A 
ATOM     17  C   UNL     1     122.502  72.524  45.434  1.00  0.00     0.158 A 
BRANCH  15  18
ATOM     18  O   UNL     1     124.114  70.855  44.685  1.00  0.00    -0.504 OA
ATOM     19  H   UNL     1     124.378  70.070  44.101  1.00  0.00     0.293 HD
ENDBRANCH  15  18
BRANCH  17  20
ATOM     20  O   UNL     1     123.447  73.075  46.299  1.00  0.00    -0.504 OA
ATOM     21  H   UNL     1     124.395  73.266  45.997  1.00  0.00     0.293 HD
ENDBRANCH  17  20
ENDBRANCH   1  12
BRANCH   2  22
ATOM     22  O   UNL     1     119.420  74.191  42.282  1.00  0.00    -0.502 OA
ATOM     23  H   UNL     1     120.155  74.876  42.412  1.00  0.00     0.293 HD
ENDBRANCH   2  22
BRANCH   6  24
ATOM     24  O   UNL     1     114.262  75.106  43.241  1.00  0.00    -0.507 OA
ATOM     25  H   UNL     1     114.708  75.728  42.585  1.00  0.00     0.293 HD
ENDBRANCH   6  24
BRANCH   8  26
ATOM     26  O   UNL     1     113.883  73.245  47.651  1.00  0.00    -0.508 OA
ATOM     27  H   UNL     1     113.374  73.980  48.126  1.00  0.00     0.293 HD
ENDBRANCH   8  26
TORSDOF 6
ENDMDL
MODEL 6
REMARK VINA RESULT:    -5.584      2.867      6.871
REMARK INTER + INTRA:          -6.538
REMARK INTER:                  -6.398
REMARK INTRA:                  -0.140
REMARK UNBOUND:                 0.189
REMARK SMILES O=c1c(O)c(-c2ccc(O)c(O)c2)oc2cc(O)cc(O)c12
REMARK SMILES IDX 5 1 3 2 2 3 1 4 22 5 20 6 19 7 17 8 16 9 15 10 14 11 6 12
REMARK SMILES IDX 7 13 8 14 9 15 13 16 11 17 10 18 12 20 4 22 21 24 18 26
REMARK H PARENT 10 19 12 21 4 23 21 25 18 27
REMARK Flexibility Score: inf
ROOT
ATOM      1  C   UNL     1     121.498  70.714  45.047  1.00  0.00     0.180 A 
ATOM      2  C   UNL     1     122.467  70.995  44.068  1.00  0.00     0.208 A 
ATOM      3  C   UNL     1     122.251  72.064  43.183  1.00  0.00     0.238 A 
ATOM      4  O   UNL     1     123.147  72.344  42.345  1.00  0.00    -0.285 OA
ATOM      5  C   UNL     1     121.062  72.827  43.278  1.00  0.00     0.111 A 
ATOM      6  C   UNL     1     120.721  73.907  42.407  1.00  0.00     0.134 A 
ATOM      7  C   UNL     1     119.582  74.676  42.675  1.00  0.00     0.093 A 
ATOM      8  C   UNL     1     118.737  74.363  43.742  1.00  0.00     0.123 A 
ATOM      9  C   UNL     1     119.029  73.275  44.561  1.00  0.00     0.094 A 
ATOM     10  C   UNL     1     120.178  72.511  44.342  1.00  0.00     0.146 A 
ATOM     11  O   UNL     1     120.425  71.490  45.152  1.00  0.00    -0.452 OA
ENDROOT
BRANCH   1  12
ATOM     12  C   UNL     1     121.643  69.589  45.999  1.00  0.00     0.025 A 
ATOM     13  C   UNL     1     122.683  69.610  46.939  1.00  0.00     0.016 A 
ATOM     14  C   UNL     1     122.827  68.569  47.861  1.00  0.00     0.051 A 
ATOM     15  C   UNL     1     121.925  67.501  47.865  1.00  0.00     0.157 A 
ATOM     16  C   UNL     1     120.724  68.524  46.019  1.00  0.00     0.062 A 
ATOM     17  C   UNL     1     120.866  67.479  46.944  1.00  0.00     0.158 A 
BRANCH  15  18
ATOM     18  O   UNL     1     122.095  66.475  48.795  1.00  0.00    -0.504 OA
ATOM     19  H   UNL     1     122.036  66.638  49.793  1.00  0.00     0.293 HD
ENDBRANCH  15  18
BRANCH  17  20
ATOM     20  O   UNL     1     119.955  66.423  46.952  1.00  0.00    -0.504 OA
ATOM     21  H   UNL     1     120.130  65.575  47.477  1.00  0.00     0.293 HD
ENDBRANCH  17  20
ENDBRANCH   1  12
BRANCH   2  22
ATOM     22  O   UNL     1     123.643  70.243  44.007  1.00  0.00    -0.502 OA
ATOM     23  H   UNL     1     124.145  69.950  44.836  1.00  0.00     0.293 HD
ENDBRANCH   2  22
BRANCH   6  24
ATOM     24  O   UNL     1     121.447  74.244  41.261  1.00  0.00    -0.507 OA
ATOM     25  H   UNL     1     121.038  74.469  40.368  1.00  0.00     0.293 HD
ENDBRANCH   6  24
BRANCH   8  26
ATOM     26  O   UNL     1     117.596  75.124  43.991  1.00  0.00    -0.508 OA
ATOM     27  H   UNL     1     117.007  75.458  43.239  1.00  0.00     0.293 HD
ENDBRANCH   8  26
TORSDOF 6
ENDMDL
MODEL 7
REMARK VINA RESULT:    -5.583      2.728      5.346
REMARK INTER + INTRA:          -6.536
REMARK INTER:                  -6.217
REMARK INTRA:                  -0.319
REMARK UNBOUND:                 0.189
REMARK SMILES O=c1c(O)c(-c2ccc(O)c(O)c2)oc2cc(O)cc(O)c12
REMARK SMILES IDX 5 1 3 2 2 3 1 4 22 5 20 6 19 7 17 8 16 9 15 10 14 11 6 12
REMARK SMILES IDX 7 13 8 14 9 15 13 16 11 17 10 18 12 20 4 22 21 24 18 26
REMARK H PARENT 10 19 12 21 4 23 21 25 18 27
REMARK Flexibility Score: inf
ROOT
ATOM      1  C   UNL     1     120.956  71.557  44.654  1.00  0.00     0.180 A 
ATOM      2  C   UNL     1     122.142  72.136  45.138  1.00  0.00     0.208 A 
ATOM      3  C   UNL     1     122.873  71.461  46.129  1.00  0.00     0.238 A 
ATOM      4  O   UNL     1     123.962  71.957  46.520  1.00  0.00    -0.285 OA
ATOM      5  C   UNL     1     122.400  70.227  46.635  1.00  0.00     0.111 A 
ATOM      6  C   UNL     1     123.038  69.476  47.669  1.00  0.00     0.134 A 
ATOM      7  C   UNL     1     122.554  68.205  47.999  1.00  0.00     0.093 A 
ATOM      8  C   UNL     1     121.416  67.684  47.379  1.00  0.00     0.123 A 
ATOM      9  C   UNL     1     120.751  68.434  46.412  1.00  0.00     0.094 A 
ATOM     10  C   UNL     1     121.231  69.690  46.034  1.00  0.00     0.146 A 
ATOM     11  O   UNL     1     120.574  70.367  45.100  1.00  0.00    -0.452 OA
ENDROOT
BRANCH   1  12
ATOM     12  C   UNL     1     120.119  72.220  43.627  1.00  0.00     0.025 A 
ATOM     13  C   UNL     1     120.395  72.007  42.268  1.00  0.00     0.016 A 
ATOM     14  C   UNL     1     119.605  72.605  41.282  1.00  0.00     0.051 A 
ATOM     15  C   UNL     1     118.521  73.411  41.639  1.00  0.00     0.157 A 
ATOM     16  C   UNL     1     119.015  73.014  43.984  1.00  0.00     0.062 A 
ATOM     17  C   UNL     1     118.220  73.615  42.996  1.00  0.00     0.158 A 
BRANCH  15  18
ATOM     18  O   UNL     1     117.753  73.998  40.634  1.00  0.00    -0.504 OA
ATOM     19  H   UNL     1     116.871  74.457  40.829  1.00  0.00     0.293 HD
ENDBRANCH  15  18
BRANCH  17  20
ATOM     20  O   UNL     1     117.131  74.407  43.359  1.00  0.00    -0.504 OA
ATOM     21  H   UNL     1     116.927  74.616  44.328  1.00  0.00     0.293 HD
ENDBRANCH  17  20
ENDBRANCH   1  12
BRANCH   2  22
ATOM     22  O   UNL     1     122.602  73.344  44.609  1.00  0.00    -0.502 OA
ATOM     23  H   UNL     1     123.571  73.492  44.353  1.00  0.00     0.293 HD
ENDBRANCH   2  22
BRANCH   6  24
ATOM     24  O   UNL     1     124.125  69.943  48.414  1.00  0.00    -0.507 OA
ATOM     25  H   UNL     1     124.072  70.261  49.370  1.00  0.00     0.293 HD
ENDBRANCH   6  24
BRANCH   8  26
ATOM     26  O   UNL     1     120.931  66.425  47.725  1.00  0.00    -0.508 OA
ATOM     27  H   UNL     1     120.044  66.310  48.200  1.00  0.00     0.293 HD
ENDBRANCH   8  26
TORSDOF 6
ENDMDL
MODEL 8
REMARK VINA RESULT:    -5.295      1.669      6.848
REMARK INTER + INTRA:          -6.189
REMARK INTER:                  -5.872
REMARK INTRA:                  -0.318
REMARK UNBOUND:                 0.189
REMARK SMILES O=c1c(O)c(-c2ccc(O)c(O)c2)oc2cc(O)cc(O)c12
REMARK SMILES IDX 5 1 3 2 2 3 1 4 22 5 20 6 19 7 17 8 16 9 15 10 14 11 6 12
REMARK SMILES IDX 7 13 8 14 9 15 13 16 11 17 10 18 12 20 4 22 21 24 18 26
REMARK H PARENT 10 19 12 21 4 23 21 25 18 27
REMARK Flexibility Score: inf
ROOT
ATOM      1  C   UNL     1     120.374  72.211  44.797  1.00  0.00     0.180 A 
ATOM      2  C   UNL     1     120.645  72.464  43.441  1.00  0.00     0.208 A 
ATOM      3  C   UNL     1     119.701  73.169  42.678  1.00  0.00     0.238 A 
ATOM      4  O   UNL     1     119.973  73.441  41.480  1.00  0.00    -0.285 OA
ATOM      5  C   UNL     1     118.490  73.595  43.275  1.00  0.00     0.111 A 
ATOM      6  C   UNL     1     117.444  74.281  42.586  1.00  0.00     0.134 A 
ATOM      7  C   UNL     1     116.348  74.771  43.307  1.00  0.00     0.093 A 
ATOM      8  C   UNL     1     116.229  74.543  44.680  1.00  0.00     0.123 A 
ATOM      9  C   UNL     1     117.215  73.823  45.350  1.00  0.00     0.094 A 
ATOM     10  C   UNL     1     118.338  73.353  44.666  1.00  0.00     0.146 A 
ATOM     11  O   UNL     1     119.260  72.681  45.344  1.00  0.00    -0.452 OA
ENDROOT
BRANCH   1  12
ATOM     12  C   UNL     1     121.310  71.453  45.659  1.00  0.00     0.025 A 
ATOM     13  C   UNL     1     121.271  70.050  45.655  1.00  0.00     0.016 A 
ATOM     14  C   UNL     1     122.159  69.314  46.445  1.00  0.00     0.051 A 
ATOM     15  C   UNL     1     123.107  69.968  47.237  1.00  0.00     0.157 A 
ATOM     16  C   UNL     1     122.279  72.108  46.441  1.00  0.00     0.062 A 
ATOM     17  C   UNL     1     123.171  71.371  47.233  1.00  0.00     0.158 A 
BRANCH  15  18
ATOM     18  O   UNL     1     123.978  69.207  48.017  1.00  0.00    -0.504 OA
ATOM     19  H   UNL     1     124.245  68.264  47.761  1.00  0.00     0.293 HD
ENDBRANCH  15  18
BRANCH  17  20
ATOM     20  O   UNL     1     124.125  72.028  48.010  1.00  0.00    -0.504 OA
ATOM     21  H   UNL     1     125.092  71.728  48.030  1.00  0.00     0.293 HD
ENDBRANCH  17  20
ENDBRANCH   1  12
BRANCH   2  22
ATOM     22  O   UNL     1     121.856  72.054  42.878  1.00  0.00    -0.502 OA
ATOM     23  H   UNL     1     122.240  72.480  42.042  1.00  0.00     0.293 HD
ENDBRANCH   2  22
BRANCH   6  24
ATOM     24  O   UNL     1     117.421  74.481  41.203  1.00  0.00    -0.507 OA
ATOM     25  H   UNL     1     118.237  74.490  40.610  1.00  0.00     0.293 HD
ENDBRANCH   6  24
BRANCH   8  26
ATOM     26  O   UNL     1     115.127  75.021  45.386  1.00  0.00    -0.508 OA
ATOM     27  H   UNL     1     114.354  74.415  45.636  1.00  0.00     0.293 HD
ENDBRANCH   8  26
TORSDOF 6
ENDMDL
MODEL 9
REMARK VINA RESULT:    -5.208      2.197      3.673
REMARK INTER + INTRA:          -6.085
REMARK INTER:                  -5.848
REMARK INTRA:                  -0.237
REMARK UNBOUND:                 0.189
REMARK SMILES O=c1c(O)c(-c2ccc(O)c(O)c2)oc2cc(O)cc(O)c12
REMARK SMILES IDX 5 1 3 2 2 3 1 4 22 5 20 6 19 7 17 8 16 9 15 10 14 11 6 12
REMARK SMILES IDX 7 13 8 14 9 15 13 16 11 17 10 18 12 20 4 22 21 24 18 26
REMARK H PARENT 10 19 12 21 4 23 21 25 18 27
REMARK Flexibility Score: inf
ROOT
ATOM      1  C   UNL     1     118.830  73.079  45.646  1.00  0.00     0.180 A 
ATOM      2  C   UNL     1     119.932  72.578  46.361  1.00  0.00     0.208 A 
ATOM      3  C   UNL     1     121.102  72.243  45.661  1.00  0.00     0.238 A 
ATOM      4  O   UNL     1     122.104  71.847  46.313  1.00  0.00    -0.285 OA
ATOM      5  C   UNL     1     121.149  72.396  44.255  1.00  0.00     0.111 A 
ATOM      6  C   UNL     1     122.269  72.049  43.439  1.00  0.00     0.134 A 
ATOM      7  C   UNL     1     122.254  72.366  42.075  1.00  0.00     0.093 A 
ATOM      8  C   UNL     1     121.134  72.956  41.485  1.00  0.00     0.123 A 
ATOM      9  C   UNL     1     120.014  73.243  42.261  1.00  0.00     0.094 A 
ATOM     10  C   UNL     1     120.012  72.973  43.632  1.00  0.00     0.146 A 
ATOM     11  O   UNL     1     118.928  73.273  44.337  1.00  0.00    -0.452 OA
ENDROOT
BRANCH   1  12
ATOM     12  C   UNL     1     117.554  73.431  46.311  1.00  0.00     0.025 A 
ATOM     13  C   UNL     1     117.144  74.772  46.352  1.00  0.00     0.016 A 
ATOM     14  C   UNL     1     115.933  75.125  46.955  1.00  0.00     0.051 A 
ATOM     15  C   UNL     1     115.110  74.142  47.512  1.00  0.00     0.157 A 
ATOM     16  C   UNL     1     116.714  72.442  46.854  1.00  0.00     0.062 A 
ATOM     17  C   UNL     1     115.498  72.794  47.459  1.00  0.00     0.158 A 
BRANCH  15  18
ATOM     18  O   UNL     1     113.909  74.525  48.111  1.00  0.00    -0.504 OA
ATOM     19  H   UNL     1     113.078  74.726  47.568  1.00  0.00     0.293 HD
ENDBRANCH  15  18
BRANCH  17  20
ATOM     20  O   UNL     1     114.674  71.808  48.001  1.00  0.00    -0.504 OA
ATOM     21  H   UNL     1     113.762  71.605  47.610  1.00  0.00     0.293 HD
ENDBRANCH  17  20
ENDBRANCH   1  12
BRANCH   2  22
ATOM     22  O   UNL     1     119.871  72.456  47.752  1.00  0.00    -0.502 OA
ATOM     23  H   UNL     1     120.701  72.403  48.330  1.00  0.00     0.293 HD
ENDBRANCH   2  22
BRANCH   6  24
ATOM     24  O   UNL     1     123.399  71.375  43.911  1.00  0.00    -0.507 OA
ATOM     25  H   UNL     1     124.171  71.812  44.390  1.00  0.00     0.293 HD
ENDBRANCH   6  24
BRANCH   8  26
ATOM     26  O   UNL     1     121.121  73.253  40.124  1.00  0.00    -0.508 OA
ATOM     27  H   UNL     1     121.013  72.529  39.424  1.00  0.00     0.293 HD
ENDBRANCH   8  26
TORSDOF 6
ENDMDL
