MODEL 1
REMARK VINA RESULT:    -5.256      0.000      0.000
REMARK INTER + INTRA:         -12.813
REMARK INTER:                 -10.171
REMARK INTRA:                  -2.642
REMARK UNBOUND:                -2.642
REMARK SMILES CCCCCCCCCCCCCCCCCC(=O)[O-]
REMARK SMILES IDX 10 1 11 2 12 3 13 4 14 5 15 6 16 7 17 8 18 9 19 10 20 11
REMARK SMILES IDX 9 12 8 13 7 14 6 15 5 16 4 17 3 18 2 19 1 20
REMARK H PARENT
REMARK Flexibility Score: inf
ROOT
ATOM      1  C   UNL     1     122.251 177.797 126.167  1.00  0.00     0.000 C 
ENDROOT
BRANCH   1   2
ATOM      2  C   UNL     1     121.369 176.574 125.854  1.00  0.00     0.000 C 
BRANCH   2   3
ATOM      3  C   UNL     1     120.713 176.575 124.457  1.00  0.00     0.000 C 
BRANCH   3   4
ATOM      4  C   UNL     1     119.921 177.848 124.107  1.00  0.00     0.000 C 
BRANCH   4   5
ATOM      5  C   UNL     1     118.574 177.993 124.840  1.00  0.00     0.000 C 
BRANCH   5   6
ATOM      6  C   UNL     1     118.546 179.149 125.863  1.00  0.00     0.000 C 
BRANCH   6   7
ATOM      7  C   UNL     1     117.381 179.025 126.860  1.00  0.00     0.006 C 
BRANCH   7   8
ATOM      8  C   UNL     1     116.069 179.579 126.291  1.00  0.00     0.053 C 
BRANCH   8   9
ATOM      9  C   UNL     1     115.120 178.483 125.917  1.00  0.00     0.041 C 
ATOM     10  O   UNL     1     114.460 177.886 126.807  1.00  0.00    -0.550 OA
ATOM     11  O   UNL     1     114.940 178.141 124.583  1.00  0.00    -0.550 OA
ENDBRANCH   8   9
ENDBRANCH   7   8
ENDBRANCH   6   7
ENDBRANCH   5   6
ENDBRANCH   4   5
ENDBRANCH   3   4
ENDBRANCH   2   3
ENDBRANCH   1   2
BRANCH   1  12
ATOM     12  C   UNL     1     121.956 178.411 127.546  1.00  0.00     0.000 C 
BRANCH  12  13
ATOM     13  C   UNL     1     120.838 177.669 128.296  1.00  0.00    -0.000 C 
BRANCH  13  14
ATOM     14  C   UNL     1     120.819 177.984 129.799  1.00  0.00    -0.000 C 
BRANCH  14  15
ATOM     15  C   UNL     1     119.492 177.540 130.434  1.00  0.00    -0.000 C 
BRANCH  15  16
ATOM     16  C   UNL     1     119.460 176.036 130.751  1.00  0.00    -0.000 C 
BRANCH  16  17
ATOM     17  C   UNL     1     118.262 175.320 130.109  1.00  0.00    -0.000 C 
BRANCH  17  18
ATOM     18  C   UNL     1     117.763 176.085 128.875  1.00  0.00    -0.000 C 
BRANCH  18  19
ATOM     19  C   UNL     1     118.085 175.360 127.560  1.00  0.00    -0.003 C 
ATOM     20  C   UNL     1     116.864 175.207 126.653  1.00  0.00     0.004 C 
ENDBRANCH  18  19
ENDBRANCH  17  18
ENDBRANCH  16  17
ENDBRANCH  15  16
ENDBRANCH  14  15
ENDBRANCH  13  14
ENDBRANCH  12  13
ENDBRANCH   1  12
TORSDOF 16
ENDMDL
MODEL 2
REMARK VINA RESULT:    -5.230      1.189      3.896
REMARK INTER + INTRA:         -12.764
REMARK INTER:                 -10.080
REMARK INTRA:                  -2.684
REMARK UNBOUND:                -2.642
REMARK SMILES CCCCCCCCCCCCCCCCCC(=O)[O-]
REMARK SMILES IDX 10 1 11 2 12 3 13 4 14 5 15 6 16 7 17 8 18 9 19 10 20 11
REMARK SMILES IDX 9 12 8 13 7 14 6 15 5 16 4 17 3 18 2 19 1 20
REMARK H PARENT
REMARK Flexibility Score: inf
ROOT
ATOM      1  C   UNL     1     119.548 175.257 129.728  1.00  0.00     0.000 C 
ENDROOT
BRANCH   1   2
ATOM      2  C   UNL     1     118.249 174.552 129.300  1.00  0.00     0.000 C 
BRANCH   2   3
ATOM      3  C   UNL     1     116.945 175.257 129.728  1.00  0.00     0.000 C 
BRANCH   3   4
ATOM      4  C   UNL     1     116.228 176.040 128.612  1.00  0.00     0.000 C 
BRANCH   4   5
ATOM      5  C   UNL     1     116.779 175.798 127.195  1.00  0.00     0.000 C 
BRANCH   5   6
ATOM      6  C   UNL     1     117.508 177.020 126.596  1.00  0.00     0.000 C 
BRANCH   6   7
ATOM      7  C   UNL     1     117.074 178.344 127.249  1.00  0.00     0.006 C 
BRANCH   7   8
ATOM      8  C   UNL     1     116.297 179.241 126.278  1.00  0.00     0.053 C 
BRANCH   8   9
ATOM      9  C   UNL     1     115.056 178.570 125.774  1.00  0.00     0.041 C 
ATOM     10  O   UNL     1     114.149 178.231 126.578  1.00  0.00    -0.550 OA
ATOM     11  O   UNL     1     114.888 178.347 124.413  1.00  0.00    -0.550 OA
ENDBRANCH   8   9
ENDBRANCH   7   8
ENDBRANCH   6   7
ENDBRANCH   5   6
ENDBRANCH   4   5
ENDBRANCH   3   4
ENDBRANCH   2   3
ENDBRANCH   1   2
BRANCH   1  12
ATOM     12  C   UNL     1     119.312 176.375 130.757  1.00  0.00     0.000 C 
BRANCH  12  13
ATOM     13  C   UNL     1     120.023 177.685 130.378  1.00  0.00    -0.000 C 
BRANCH  13  14
ATOM     14  C   UNL     1     120.335 177.779 128.877  1.00  0.00    -0.000 C 
BRANCH  14  15
ATOM     15  C   UNL     1     121.751 178.330 128.647  1.00  0.00    -0.000 C 
BRANCH  15  16
ATOM     16  C   UNL     1     122.033 178.643 127.168  1.00  0.00    -0.000 C 
BRANCH  16  17
ATOM     17  C   UNL     1     121.122 177.857 126.212  1.00  0.00    -0.000 C 
BRANCH  17  18
ATOM     18  C   UNL     1     121.900 176.733 125.513  1.00  0.00    -0.000 C 
BRANCH  18  19
ATOM     19  C   UNL     1     120.981 175.627 124.972  1.00  0.00    -0.003 C 
ATOM     20  C   UNL     1     120.388 174.754 126.078  1.00  0.00     0.004 C 
ENDBRANCH  18  19
ENDBRANCH  17  18
ENDBRANCH  16  17
ENDBRANCH  15  16
ENDBRANCH  14  15
ENDBRANCH  13  14
ENDBRANCH  12  13
ENDBRANCH   1  12
TORSDOF 16
ENDMDL
MODEL 3
REMARK VINA RESULT:    -5.195      1.342      4.217
REMARK INTER + INTRA:         -12.697
REMARK INTER:                  -9.705
REMARK INTRA:                  -2.992
REMARK UNBOUND:                -2.642
REMARK SMILES CCCCCCCCCCCCCCCCCC(=O)[O-]
REMARK SMILES IDX 10 1 11 2 12 3 13 4 14 5 15 6 16 7 17 8 18 9 19 10 20 11
REMARK SMILES IDX 9 12 8 13 7 14 6 15 5 16 4 17 3 18 2 19 1 20
REMARK H PARENT
REMARK Flexibility Score: inf
ROOT
ATOM      1  C   UNL     1     119.898 177.180 130.263  1.00  0.00     0.000 C 
ENDROOT
BRANCH   1   2
ATOM      2  C   UNL     1     120.089 175.656 130.157  1.00  0.00     0.000 C 
BRANCH   2   3
ATOM      3  C   UNL     1     118.825 174.859 129.771  1.00  0.00     0.000 C 
BRANCH   3   4
ATOM      4  C   UNL     1     117.544 175.259 130.525  1.00  0.00     0.000 C 
BRANCH   4   5
ATOM      5  C   UNL     1     116.354 175.635 129.624  1.00  0.00     0.000 C 
BRANCH   5   6
ATOM      6  C   UNL     1     116.711 175.709 128.123  1.00  0.00     0.000 C 
BRANCH   6   7
ATOM      7  C   UNL     1     116.198 176.999 127.459  1.00  0.00     0.006 C 
BRANCH   7   8
ATOM      8  C   UNL     1     115.560 176.730 126.090  1.00  0.00     0.053 C 
BRANCH   8   9
ATOM      9  C   UNL     1     115.352 177.997 125.317  1.00  0.00     0.041 C 
ATOM     10  O   UNL     1     115.304 179.103 125.915  1.00  0.00    -0.550 OA
ATOM     11  O   UNL     1     115.242 177.958 123.933  1.00  0.00    -0.550 OA
ENDBRANCH   8   9
ENDBRANCH   7   8
ENDBRANCH   6   7
ENDBRANCH   5   6
ENDBRANCH   4   5
ENDBRANCH   3   4
ENDBRANCH   2   3
ENDBRANCH   1   2
BRANCH   1  12
ATOM     12  C   UNL     1     119.733 177.860 128.893  1.00  0.00     0.000 C 
BRANCH  12  13
ATOM     13  C   UNL     1     121.073 178.052 128.165  1.00  0.00    -0.000 C 
BRANCH  13  14
ATOM     14  C   UNL     1     120.902 178.600 126.740  1.00  0.00    -0.000 C 
BRANCH  14  15
ATOM     15  C   UNL     1     119.416 178.795 126.404  1.00  0.00    -0.000 C 
BRANCH  15  16
ATOM     16  C   UNL     1     119.056 178.297 124.995  1.00  0.00    -0.000 C 
BRANCH  16  17
ATOM     17  C   UNL     1     119.745 176.970 124.641  1.00  0.00    -0.000 C 
BRANCH  17  18
ATOM     18  C   UNL     1     119.118 175.802 125.417  1.00  0.00    -0.000 C 
BRANCH  18  19
ATOM     19  C   UNL     1     120.164 174.957 126.159  1.00  0.00    -0.003 C 
ATOM     20  C   UNL     1     121.526 174.957 125.465  1.00  0.00     0.004 C 
ENDBRANCH  18  19
ENDBRANCH  17  18
ENDBRANCH  16  17
ENDBRANCH  15  16
ENDBRANCH  14  15
ENDBRANCH  13  14
ENDBRANCH  12  13
ENDBRANCH   1  12
TORSDOF 16
ENDMDL
MODEL 4
REMARK VINA RESULT:    -5.112      2.504      5.293
REMARK INTER + INTRA:         -12.536
REMARK INTER:                  -9.892
REMARK INTRA:                  -2.644
REMARK UNBOUND:                -2.642
REMARK SMILES CCCCCCCCCCCCCCCCCC(=O)[O-]
REMARK SMILES IDX 10 1 11 2 12 3 13 4 14 5 15 6 16 7 17 8 18 9 19 10 20 11
REMARK SMILES IDX 9 12 8 13 7 14 6 15 5 16 4 17 3 18 2 19 1 20
REMARK H PARENT
REMARK Flexibility Score: inf
ROOT
ATOM      1  C   UNL     1     118.518 179.184 125.723  1.00  0.00     0.000 C 
ENDROOT
BRANCH   1   2
ATOM      2  C   UNL     1     117.454 178.984 126.817  1.00  0.00     0.000 C 
BRANCH   2   3
ATOM      3  C   UNL     1     115.991 179.008 126.325  1.00  0.00     0.000 C 
BRANCH   3   4
ATOM      4  C   UNL     1     115.166 177.754 126.666  1.00  0.00     0.000 C 
BRANCH   4   5
ATOM      5  C   UNL     1     115.963 176.616 127.331  1.00  0.00     0.000 C 
BRANCH   5   6
ATOM      6  C   UNL     1     116.367 175.489 126.356  1.00  0.00     0.000 C 
BRANCH   6   7
ATOM      7  C   UNL     1     117.348 174.486 126.989  1.00  0.00     0.006 C 
BRANCH   7   8
ATOM      8  C   UNL     1     118.663 175.151 127.414  1.00  0.00     0.053 C 
BRANCH   8   9
ATOM      9  C   UNL     1     119.740 174.140 127.665  1.00  0.00     0.041 C 
ATOM     10  O   UNL     1     120.436 173.707 126.710  1.00  0.00    -0.550 OA
ATOM     11  O   UNL     1     119.995 173.700 128.957  1.00  0.00    -0.550 OA
ENDBRANCH   8   9
ENDBRANCH   7   8
ENDBRANCH   6   7
ENDBRANCH   5   6
ENDBRANCH   4   5
ENDBRANCH   3   4
ENDBRANCH   2   3
ENDBRANCH   1   2
BRANCH   1  12
ATOM     12  C   UNL     1     118.342 178.225 124.533  1.00  0.00     0.000 C 
BRANCH  12  13
ATOM     13  C   UNL     1     119.280 177.010 124.611  1.00  0.00    -0.000 C 
BRANCH  13  14
ATOM     14  C   UNL     1     120.761 177.392 124.481  1.00  0.00    -0.000 C 
BRANCH  14  15
ATOM     15  C   UNL     1     121.581 176.808 125.641  1.00  0.00    -0.000 C 
BRANCH  15  16
ATOM     16  C   UNL     1     122.514 177.844 126.290  1.00  0.00    -0.000 C 
BRANCH  16  17
ATOM     17  C   UNL     1     121.788 178.740 127.306  1.00  0.00    -0.000 C 
BRANCH  17  18
ATOM     18  C   UNL     1     121.653 178.034 128.663  1.00  0.00    -0.000 C 
BRANCH  18  19
ATOM     19  C   UNL     1     120.195 177.939 129.137  1.00  0.00    -0.003 C 
ATOM     20  C   UNL     1     120.023 177.015 130.343  1.00  0.00     0.004 C 
ENDBRANCH  18  19
ENDBRANCH  17  18
ENDBRANCH  16  17
ENDBRANCH  15  16
ENDBRANCH  14  15
ENDBRANCH  13  14
ENDBRANCH  12  13
ENDBRANCH   1  12
TORSDOF 16
ENDMDL
MODEL 5
REMARK VINA RESULT:    -5.107      1.332      3.063
REMARK INTER + INTRA:         -12.526
REMARK INTER:                  -9.444
REMARK INTRA:                  -3.082
REMARK UNBOUND:                -2.642
REMARK SMILES CCCCCCCCCCCCCCCCCC(=O)[O-]
REMARK SMILES IDX 10 1 11 2 12 3 13 4 14 5 15 6 16 7 17 8 18 9 19 10 20 11
REMARK SMILES IDX 9 12 8 13 7 14 6 15 5 16 4 17 3 18 2 19 1 20
REMARK H PARENT
REMARK Flexibility Score: inf
ROOT
ATOM      1  C   UNL     1     122.251 177.035 125.493  1.00  0.00     0.000 C 
ENDROOT
BRANCH   1   2
ATOM      2  C   UNL     1     121.753 177.409 126.899  1.00  0.00     0.000 C 
BRANCH   2   3
ATOM      3  C   UNL     1     120.863 178.669 126.969  1.00  0.00     0.000 C 
BRANCH   3   4
ATOM      4  C   UNL     1     119.389 178.450 126.584  1.00  0.00     0.000 C 
BRANCH   4   5
ATOM      5  C   UNL     1     119.040 178.814 125.129  1.00  0.00     0.000 C 
BRANCH   5   6
ATOM      6  C   UNL     1     118.216 177.731 124.399  1.00  0.00     0.000 C 
BRANCH   6   7
ATOM      7  C   UNL     1     117.086 177.161 125.275  1.00  0.00     0.006 C 
BRANCH   7   8
ATOM      8  C   UNL     1     115.707 177.678 124.849  1.00  0.00     0.053 C 
BRANCH   8   9
ATOM      9  C   UNL     1     115.097 178.559 125.896  1.00  0.00     0.041 C 
ATOM     10  O   UNL     1     114.121 178.152 126.578  1.00  0.00    -0.550 OA
ATOM     11  O   UNL     1     115.628 179.820 126.140  1.00  0.00    -0.550 OA
ENDBRANCH   8   9
ENDBRANCH   7   8
ENDBRANCH   6   7
ENDBRANCH   5   6
ENDBRANCH   4   5
ENDBRANCH   3   4
ENDBRANCH   2   3
ENDBRANCH   1   2
BRANCH   1  12
ATOM     12  C   UNL     1     121.446 175.887 124.858  1.00  0.00     0.000 C 
BRANCH  12  13
ATOM     13  C   UNL     1     121.089 174.787 125.871  1.00  0.00    -0.000 C 
BRANCH  13  14
ATOM     14  C   UNL     1     119.574 174.633 126.072  1.00  0.00    -0.000 C 
BRANCH  14  15
ATOM     15  C   UNL     1     119.256 174.194 127.510  1.00  0.00    -0.000 C 
BRANCH  15  16
ATOM     16  C   UNL     1     118.175 175.064 128.171  1.00  0.00    -0.000 C 
BRANCH  16  17
ATOM     17  C   UNL     1     118.760 176.088 129.157  1.00  0.00    -0.000 C 
BRANCH  17  18
ATOM     18  C   UNL     1     120.040 175.549 129.812  1.00  0.00    -0.000 C 
BRANCH  18  19
ATOM     19  C   UNL     1     120.896 176.660 130.438  1.00  0.00    -0.003 C 
ATOM     20  C   UNL     1     120.111 177.951 130.673  1.00  0.00     0.004 C 
ENDBRANCH  18  19
ENDBRANCH  17  18
ENDBRANCH  16  17
ENDBRANCH  15  16
ENDBRANCH  14  15
ENDBRANCH  13  14
ENDBRANCH  12  13
ENDBRANCH   1  12
TORSDOF 16
ENDMDL
MODEL 6
REMARK VINA RESULT:    -5.081      2.226      4.828
REMARK INTER + INTRA:         -12.475
REMARK INTER:                  -9.556
REMARK INTRA:                  -2.918
REMARK UNBOUND:                -2.642
REMARK SMILES CCCCCCCCCCCCCCCCCC(=O)[O-]
REMARK SMILES IDX 10 1 11 2 12 3 13 4 14 5 15 6 16 7 17 8 18 9 19 10 20 11
REMARK SMILES IDX 9 12 8 13 7 14 6 15 5 16 4 17 3 18 2 19 1 20
REMARK H PARENT
REMARK Flexibility Score: inf
ROOT
ATOM      1  C   UNL     1     122.376 177.927 126.417  1.00  0.00     0.000 C 
ENDROOT
BRANCH   1   2
ATOM      2  C   UNL     1     121.772 178.686 127.611  1.00  0.00     0.000 C 
BRANCH   2   3
ATOM      3  C   UNL     1     121.381 177.809 128.820  1.00  0.00     0.000 C 
BRANCH   3   4
ATOM      4  C   UNL     1     119.956 178.034 129.357  1.00  0.00     0.000 C 
BRANCH   4   5
ATOM      5  C   UNL     1     119.243 176.761 129.851  1.00  0.00     0.000 C 
BRANCH   5   6
ATOM      6  C   UNL     1     120.168 175.528 129.943  1.00  0.00     0.000 C 
BRANCH   6   7
ATOM      7  C   UNL     1     119.756 174.409 128.970  1.00  0.00     0.006 C 
BRANCH   7   8
ATOM      8  C   UNL     1     118.938 174.942 127.787  1.00  0.00     0.053 C 
BRANCH   8   9
ATOM      9  C   UNL     1     118.713 173.887 126.748  1.00  0.00     0.041 C 
ATOM     10  O   UNL     1     119.631 173.588 125.941  1.00  0.00    -0.550 OA
ATOM     11  O   UNL     1     117.500 173.213 126.691  1.00  0.00    -0.550 OA
ENDBRANCH   8   9
ENDBRANCH   7   8
ENDBRANCH   6   7
ENDBRANCH   5   6
ENDBRANCH   4   5
ENDBRANCH   3   4
ENDBRANCH   2   3
ENDBRANCH   1   2
BRANCH   1  12
ATOM     12  C   UNL     1     121.566 176.678 126.029  1.00  0.00     0.000 C 
BRANCH  12  13
ATOM     13  C   UNL     1     120.922 176.801 124.638  1.00  0.00    -0.000 C 
BRANCH  13  14
ATOM     14  C   UNL     1     119.413 177.078 124.704  1.00  0.00    -0.000 C 
BRANCH  14  15
ATOM     15  C   UNL     1     119.121 178.572 124.494  1.00  0.00    -0.000 C 
BRANCH  15  16
ATOM     16  C   UNL     1     118.596 179.258 125.766  1.00  0.00    -0.000 C 
BRANCH  16  17
ATOM     17  C   UNL     1     117.109 178.970 126.025  1.00  0.00    -0.000 C 
BRANCH  17  18
ATOM     18  C   UNL     1     116.920 178.211 127.347  1.00  0.00    -0.000 C 
BRANCH  18  19
ATOM     19  C   UNL     1     115.793 177.170 127.274  1.00  0.00    -0.003 C 
ATOM     20  C   UNL     1     115.867 176.303 126.017  1.00  0.00     0.004 C 
ENDBRANCH  18  19
ENDBRANCH  17  18
ENDBRANCH  16  17
ENDBRANCH  15  16
ENDBRANCH  14  15
ENDBRANCH  13  14
ENDBRANCH  12  13
ENDBRANCH   1  12
TORSDOF 16
ENDMDL
MODEL 7
REMARK VINA RESULT:    -5.039      1.981      4.573
REMARK INTER + INTRA:         -12.395
REMARK INTER:                  -9.623
REMARK INTRA:                  -2.772
REMARK UNBOUND:                -2.642
REMARK SMILES CCCCCCCCCCCCCCCCCC(=O)[O-]
REMARK SMILES IDX 10 1 11 2 12 3 13 4 14 5 15 6 16 7 17 8 18 9 19 10 20 11
REMARK SMILES IDX 9 12 8 13 7 14 6 15 5 16 4 17 3 18 2 19 1 20
REMARK H PARENT
REMARK Flexibility Score: inf
ROOT
ATOM      1  C   UNL     1     121.441 176.957 124.725  1.00  0.00     0.000 C 
ENDROOT
BRANCH   1   2
ATOM      2  C   UNL     1     122.292 177.048 126.004  1.00  0.00     0.000 C 
BRANCH   2   3
ATOM      3  C   UNL     1     122.361 178.447 126.651  1.00  0.00     0.000 C 
BRANCH   3   4
ATOM      4  C   UNL     1     121.705 178.559 128.039  1.00  0.00     0.000 C 
BRANCH   4   5
ATOM      5  C   UNL     1     120.845 177.349 128.448  1.00  0.00     0.000 C 
BRANCH   5   6
ATOM      6  C   UNL     1     119.627 177.721 129.321  1.00  0.00     0.000 C 
BRANCH   6   7
ATOM      7  C   UNL     1     118.588 176.588 129.396  1.00  0.00     0.006 C 
BRANCH   7   8
ATOM      8  C   UNL     1     119.122 175.273 128.815  1.00  0.00     0.053 C 
BRANCH   8   9
ATOM      9  C   UNL     1     118.013 174.320 128.488  1.00  0.00     0.041 C 
ATOM     10  O   UNL     1     117.438 174.377 127.370  1.00  0.00    -0.550 OA
ATOM     11  O   UNL     1     117.635 173.350 129.408  1.00  0.00    -0.550 OA
ENDBRANCH   8   9
ENDBRANCH   7   8
ENDBRANCH   6   7
ENDBRANCH   5   6
ENDBRANCH   4   5
ENDBRANCH   3   4
ENDBRANCH   2   3
ENDBRANCH   1   2
BRANCH   1  12
ATOM     12  C   UNL     1     120.226 176.027 124.878  1.00  0.00     0.000 C 
BRANCH  12  13
ATOM     13  C   UNL     1     118.939 176.791 125.228  1.00  0.00    -0.000 C 
BRANCH  13  14
ATOM     14  C   UNL     1     118.875 178.179 124.573  1.00  0.00    -0.000 C 
BRANCH  14  15
ATOM     15  C   UNL     1     118.802 179.284 125.639  1.00  0.00    -0.000 C 
BRANCH  15  16
ATOM     16  C   UNL     1     117.716 179.021 126.694  1.00  0.00    -0.000 C 
BRANCH  16  17
ATOM     17  C   UNL     1     116.415 179.788 126.409  1.00  0.00    -0.000 C 
BRANCH  17  18
ATOM     18  C   UNL     1     115.315 178.839 125.913  1.00  0.00    -0.000 C 
BRANCH  18  19
ATOM     19  C   UNL     1     115.573 177.377 126.309  1.00  0.00    -0.003 C 
ATOM     20  C   UNL     1     115.284 177.103 127.785  1.00  0.00     0.004 C 
ENDBRANCH  18  19
ENDBRANCH  17  18
ENDBRANCH  16  17
ENDBRANCH  15  16
ENDBRANCH  14  15
ENDBRANCH  13  14
ENDBRANCH  12  13
ENDBRANCH   1  12
TORSDOF 16
ENDMDL
MODEL 8
REMARK VINA RESULT:    -5.030      4.231      6.241
REMARK INTER + INTRA:         -12.377
REMARK INTER:                 -10.471
REMARK INTRA:                  -1.906
REMARK UNBOUND:                -2.642
REMARK SMILES CCCCCCCCCCCCCCCCCC(=O)[O-]
REMARK SMILES IDX 10 1 11 2 12 3 13 4 14 5 15 6 16 7 17 8 18 9 19 10 20 11
REMARK SMILES IDX 9 12 8 13 7 14 6 15 5 16 4 17 3 18 2 19 1 20
REMARK H PARENT
REMARK Flexibility Score: inf
ROOT
ATOM      1  C   UNL     1     121.655 178.413 126.759  1.00  0.00     0.000 C 
ENDROOT
BRANCH   1   2
ATOM      2  C   UNL     1     122.699 177.586 125.987  1.00  0.00     0.000 C 
BRANCH   2   3
ATOM      3  C   UNL     1     122.200 176.225 125.458  1.00  0.00     0.000 C 
BRANCH   3   4
ATOM      4  C   UNL     1     122.437 175.980 123.957  1.00  0.00     0.000 C 
BRANCH   4   5
ATOM      5  C   UNL     1     123.578 176.810 123.338  1.00  0.00     0.000 C 
BRANCH   5   6
ATOM      6  C   UNL     1     123.780 176.557 121.828  1.00  0.00     0.000 C 
BRANCH   6   7
ATOM      7  C   UNL     1     122.710 177.250 120.967  1.00  0.00     0.006 C 
BRANCH   7   8
ATOM      8  C   UNL     1     122.284 176.390 119.771  1.00  0.00     0.053 C 
BRANCH   8   9
ATOM      9  C   UNL     1     122.960 176.824 118.506  1.00  0.00     0.041 C 
ATOM     10  O   UNL     1     123.802 177.759 118.528  1.00  0.00    -0.550 OA
ATOM     11  O   UNL     1     122.684 176.175 117.310  1.00  0.00    -0.550 OA
ENDBRANCH   8   9
ENDBRANCH   7   8
ENDBRANCH   6   7
ENDBRANCH   5   6
ENDBRANCH   4   5
ENDBRANCH   3   4
ENDBRANCH   2   3
ENDBRANCH   1   2
BRANCH   1  12
ATOM     12  C   UNL     1     121.998 178.568 128.251  1.00  0.00     0.000 C 
BRANCH  12  13
ATOM     13  C   UNL     1     120.946 177.922 129.167  1.00  0.00    -0.000 C 
BRANCH  13  14
ATOM     14  C   UNL     1     119.892 177.120 128.390  1.00  0.00    -0.000 C 
BRANCH  14  15
ATOM     15  C   UNL     1     118.516 177.800 128.473  1.00  0.00    -0.000 C 
BRANCH  15  16
ATOM     16  C   UNL     1     118.068 178.399 127.130  1.00  0.00    -0.000 C 
BRANCH  16  17
ATOM     17  C   UNL     1     118.189 177.402 125.967  1.00  0.00    -0.000 C 
BRANCH  17  18
ATOM     18  C   UNL     1     118.121 178.127 124.614  1.00  0.00    -0.000 C 
BRANCH  18  19
ATOM     19  C   UNL     1     119.409 177.963 123.792  1.00  0.00    -0.003 C 
ATOM     20  C   UNL     1     119.385 178.761 122.488  1.00  0.00     0.004 C 
ENDBRANCH  18  19
ENDBRANCH  17  18
ENDBRANCH  16  17
ENDBRANCH  15  16
ENDBRANCH  14  15
ENDBRANCH  13  14
ENDBRANCH  12  13
ENDBRANCH   1  12
TORSDOF 16
ENDMDL
MODEL 9
REMARK VINA RESULT:    -5.001      1.122      4.256
REMARK INTER + INTRA:         -12.321
REMARK INTER:                  -9.975
REMARK INTRA:                  -2.346
REMARK UNBOUND:                -2.642
REMARK SMILES CCCCCCCCCCCCCCCCCC(=O)[O-]
REMARK SMILES IDX 10 1 11 2 12 3 13 4 14 5 15 6 16 7 17 8 18 9 19 10 20 11
REMARK SMILES IDX 9 12 8 13 7 14 6 15 5 16 4 17 3 18 2 19 1 20
REMARK H PARENT
REMARK Flexibility Score: inf
ROOT
ATOM      1  C   UNL     1     120.885 176.743 130.495  1.00  0.00     0.000 C 
ENDROOT
BRANCH   1   2
ATOM      2  C   UNL     1     119.408 176.649 130.916  1.00  0.00     0.000 C 
BRANCH   2   3
ATOM      3  C   UNL     1     118.587 175.557 130.199  1.00  0.00     0.000 C 
BRANCH   3   4
ATOM      4  C   UNL     1     119.329 174.811 129.076  1.00  0.00     0.000 C 
BRANCH   4   5
ATOM      5  C   UNL     1     118.609 174.808 127.715  1.00  0.00     0.000 C 
BRANCH   5   6
ATOM      6  C   UNL     1     117.880 176.131 127.396  1.00  0.00     0.000 C 
BRANCH   6   7
ATOM      7  C   UNL     1     116.357 175.951 127.275  1.00  0.00     0.006 C 
BRANCH   7   8
ATOM      8  C   UNL     1     115.606 177.285 127.371  1.00  0.00     0.053 C 
BRANCH   8   9
ATOM      9  C   UNL     1     115.817 178.129 126.151  1.00  0.00     0.041 C 
ATOM     10  O   UNL     1     116.322 179.277 126.255  1.00  0.00    -0.550 OA
ATOM     11  O   UNL     1     115.483 177.635 124.896  1.00  0.00    -0.550 OA
ENDBRANCH   8   9
ENDBRANCH   7   8
ENDBRANCH   6   7
ENDBRANCH   5   6
ENDBRANCH   4   5
ENDBRANCH   3   4
ENDBRANCH   2   3
ENDBRANCH   1   2
BRANCH   1  12
ATOM     12  C   UNL     1     121.237 178.087 129.835  1.00  0.00     0.000 C 
BRANCH  12  13
ATOM     13  C   UNL     1     120.907 178.111 128.334  1.00  0.00    -0.000 C 
BRANCH  13  14
ATOM     14  C   UNL     1     122.025 178.742 127.490  1.00  0.00    -0.000 C 
BRANCH  14  15
ATOM     15  C   UNL     1     122.403 177.829 126.313  1.00  0.00    -0.000 C 
BRANCH  15  16
ATOM     16  C   UNL     1     121.409 176.673 126.115  1.00  0.00    -0.000 C 
BRANCH  16  17
ATOM     17  C   UNL     1     120.617 176.791 124.804  1.00  0.00    -0.000 C 
BRANCH  17  18
ATOM     18  C   UNL     1     119.635 177.971 124.861  1.00  0.00    -0.000 C 
BRANCH  18  19
ATOM     19  C   UNL     1     118.737 178.051 123.617  1.00  0.00    -0.003 C 
ATOM     20  C   UNL     1     119.429 178.716 122.428  1.00  0.00     0.004 C 
ENDBRANCH  18  19
ENDBRANCH  17  18
ENDBRANCH  16  17
ENDBRANCH  15  16
ENDBRANCH  14  15
ENDBRANCH  13  14
ENDBRANCH  12  13
ENDBRANCH   1  12
TORSDOF 16
ENDMDL
