MODEL 1
REMARK VINA RESULT:    -3.884      0.000      0.000
REMARK INTER + INTRA:         -11.933
REMARK INTER:                  -8.425
REMARK INTRA:                  -3.508
REMARK UNBOUND:                -3.508
REMARK SMILES CCCCCCCCCCCCCCCCCCCCCC(=O)[O-]
REMARK SMILES IDX 12 1 11 2 10 3 9 4 8 5 7 6 6 7 5 8 4 9 3 10 2 11 1 12 13 13
REMARK SMILES IDX 14 14 15 15 16 16 17 17 18 18 19 19 20 20 21 21 22 22 23 23
REMARK SMILES IDX 24 24
REMARK H PARENT
REMARK Flexibility Score: inf
ROOT
ATOM      1  C   UNL     1     -42.403 -48.028  34.423  1.00  0.00     0.000 C 
ENDROOT
BRANCH   1   2
ATOM      2  C   UNL     1     -40.869 -48.074  34.561  1.00  0.00     0.000 C 
BRANCH   2   3
ATOM      3  C   UNL     1     -40.323 -47.692  35.950  1.00  0.00     0.000 C 
BRANCH   3   4
ATOM      4  C   UNL     1     -39.377 -48.729  36.583  1.00  0.00    -0.000 C 
BRANCH   4   5
ATOM      5  C   UNL     1     -40.008 -50.128  36.683  1.00  0.00    -0.000 C 
BRANCH   5   6
ATOM      6  C   UNL     1     -40.493 -50.457  38.103  1.00  0.00    -0.000 C 
BRANCH   6   7
ATOM      7  C   UNL     1     -41.945 -50.971  38.127  1.00  0.00    -0.000 C 
BRANCH   7   8
ATOM      8  C   UNL     1     -42.667 -50.621  39.445  1.00  0.00    -0.000 C 
BRANCH   8   9
ATOM      9  C   UNL     1     -42.083 -49.388  40.158  1.00  0.00    -0.000 C 
BRANCH   9  10
ATOM     10  C   UNL     1     -42.995 -48.158  40.075  1.00  0.00    -0.000 C 
BRANCH  10  11
ATOM     11  C   UNL     1     -42.310 -47.015  39.318  1.00  0.00    -0.003 C 
ATOM     12  C   UNL     1     -40.803 -47.020  39.560  1.00  0.00     0.004 C 
ENDBRANCH  10  11
ENDBRANCH   9  10
ENDBRANCH   8   9
ENDBRANCH   7   8
ENDBRANCH   6   7
ENDBRANCH   5   6
ENDBRANCH   4   5
ENDBRANCH   3   4
ENDBRANCH   2   3
ENDBRANCH   1   2
BRANCH   1  13
ATOM     13  C   UNL     1     -43.065 -49.421  34.354  1.00  0.00     0.000 C 
BRANCH  13  14
ATOM     14  C   UNL     1     -44.072 -49.654  35.494  1.00  0.00     0.000 C 
BRANCH  14  15
ATOM     15  C   UNL     1     -44.108 -48.494  36.500  1.00  0.00     0.000 C 
BRANCH  15  16
ATOM     16  C   UNL     1     -45.443 -48.409  37.260  1.00  0.00     0.000 C 
BRANCH  16  17
ATOM     17  C   UNL     1     -45.782 -49.719  37.990  1.00  0.00     0.000 C 
BRANCH  17  18
ATOM     18  C   UNL     1     -46.875 -50.521  37.267  1.00  0.00     0.000 C 
BRANCH  18  19
ATOM     19  C   UNL     1     -46.538 -52.020  37.243  1.00  0.00     0.000 C 
BRANCH  19  20
ATOM     20  C   UNL     1     -47.698 -52.895  37.744  1.00  0.00     0.006 C 
BRANCH  20  21
ATOM     21  C   UNL     1     -47.417 -53.528  39.115  1.00  0.00     0.053 C 
BRANCH  21  22
ATOM     22  C   UNL     1     -47.902 -52.646  40.224  1.00  0.00     0.041 C 
ATOM     23  O   UNL     1     -47.119 -51.822  40.768  1.00  0.00    -0.550 OA
ATOM     24  O   UNL     1     -49.203 -52.770  40.696  1.00  0.00    -0.550 OA
ENDBRANCH  21  22
ENDBRANCH  20  21
ENDBRANCH  19  20
ENDBRANCH  18  19
ENDBRANCH  17  18
ENDBRANCH  16  17
ENDBRANCH  15  16
ENDBRANCH  14  15
ENDBRANCH  13  14
ENDBRANCH   1  13
TORSDOF 20
ENDMDL
MODEL 2
REMARK VINA RESULT:    -3.765      1.311      3.115
REMARK INTER + INTRA:         -11.674
REMARK INTER:                  -7.830
REMARK INTRA:                  -3.844
REMARK UNBOUND:                -3.508
REMARK SMILES CCCCCCCCCCCCCCCCCCCCCC(=O)[O-]
REMARK SMILES IDX 12 1 11 2 10 3 9 4 8 5 7 6 6 7 5 8 4 9 3 10 2 11 1 12 13 13
REMARK SMILES IDX 14 14 15 15 16 16 17 17 18 18 19 19 20 20 21 21 22 22 23 23
REMARK SMILES IDX 24 24
REMARK H PARENT
REMARK Flexibility Score: inf
ROOT
ATOM      1  C   UNL     1     -40.144 -50.369  36.375  1.00  0.00     0.000 C 
ENDROOT
BRANCH   1   2
ATOM      2  C   UNL     1     -39.747 -48.964  36.869  1.00  0.00     0.000 C 
BRANCH   2   3
ATOM      3  C   UNL     1     -40.292 -47.794  36.029  1.00  0.00     0.000 C 
BRANCH   3   4
ATOM      4  C   UNL     1     -40.689 -48.161  34.587  1.00  0.00    -0.000 C 
BRANCH   4   5
ATOM      5  C   UNL     1     -42.174 -47.887  34.290  1.00  0.00    -0.000 C 
BRANCH   5   6
ATOM      6  C   UNL     1     -42.972 -49.174  34.032  1.00  0.00    -0.000 C 
BRANCH   6   7
ATOM      7  C   UNL     1     -43.894 -49.543  35.210  1.00  0.00    -0.000 C 
BRANCH   7   8
ATOM      8  C   UNL     1     -43.983 -48.413  36.258  1.00  0.00    -0.000 C 
BRANCH   8   9
ATOM      9  C   UNL     1     -43.951 -48.918  37.712  1.00  0.00    -0.000 C 
BRANCH   9  10
ATOM     10  C   UNL     1     -43.013 -48.101  38.609  1.00  0.00    -0.000 C 
BRANCH  10  11
ATOM     11  C   UNL     1     -43.255 -48.415  40.089  1.00  0.00    -0.003 C 
ATOM     12  C   UNL     1     -43.859 -49.805  40.266  1.00  0.00     0.004 C 
ENDBRANCH  10  11
ENDBRANCH   9  10
ENDBRANCH   8   9
ENDBRANCH   7   8
ENDBRANCH   6   7
ENDBRANCH   5   6
ENDBRANCH   4   5
ENDBRANCH   3   4
ENDBRANCH   2   3
ENDBRANCH   1   2
BRANCH   1  13
ATOM     13  C   UNL     1     -41.171 -51.081  37.281  1.00  0.00     0.000 C 
BRANCH  13  14
ATOM     14  C   UNL     1     -41.991 -52.141  36.525  1.00  0.00     0.000 C 
BRANCH  14  15
ATOM     15  C   UNL     1     -43.230 -52.601  37.309  1.00  0.00     0.000 C 
BRANCH  15  16
ATOM     16  C   UNL     1     -44.393 -53.015  36.390  1.00  0.00     0.000 C 
BRANCH  16  17
ATOM     17  C   UNL     1     -45.753 -52.947  37.105  1.00  0.00     0.000 C 
BRANCH  17  18
ATOM     18  C   UNL     1     -46.292 -51.511  37.192  1.00  0.00     0.000 C 
BRANCH  18  19
ATOM     19  C   UNL     1     -46.880 -51.224  38.582  1.00  0.00     0.000 C 
BRANCH  19  20
ATOM     20  C   UNL     1     -46.587 -52.346  39.591  1.00  0.00     0.006 C 
BRANCH  20  21
ATOM     21  C   UNL     1     -47.863 -52.953  40.192  1.00  0.00     0.053 C 
BRANCH  21  22
ATOM     22  C   UNL     1     -48.175 -52.343  41.524  1.00  0.00     0.041 C 
ATOM     23  O   UNL     1     -48.764 -51.231  41.591  1.00  0.00    -0.550 OA
ATOM     24  O   UNL     1     -47.766 -52.974  42.693  1.00  0.00    -0.550 OA
ENDBRANCH  21  22
ENDBRANCH  20  21
ENDBRANCH  19  20
ENDBRANCH  18  19
ENDBRANCH  17  18
ENDBRANCH  16  17
ENDBRANCH  15  16
ENDBRANCH  14  15
ENDBRANCH  13  14
ENDBRANCH   1  13
TORSDOF 20
ENDMDL
MODEL 3
REMARK VINA RESULT:    -3.680      1.227      3.339
REMARK INTER + INTRA:         -11.490
REMARK INTER:                  -7.762
REMARK INTRA:                  -3.728
REMARK UNBOUND:                -3.508
REMARK SMILES CCCCCCCCCCCCCCCCCCCCCC(=O)[O-]
REMARK SMILES IDX 12 1 11 2 10 3 9 4 8 5 7 6 6 7 5 8 4 9 3 10 2 11 1 12 13 13
REMARK SMILES IDX 14 14 15 15 16 16 17 17 18 18 19 19 20 20 21 21 22 22 23 23
REMARK SMILES IDX 24 24
REMARK H PARENT
REMARK Flexibility Score: inf
ROOT
ATOM      1  C   UNL     1     -39.569 -48.654  35.700  1.00  0.00     0.000 C 
ENDROOT
BRANCH   1   2
ATOM      2  C   UNL     1     -40.149 -47.655  36.719  1.00  0.00     0.000 C 
BRANCH   2   3
ATOM      3  C   UNL     1     -40.942 -48.287  37.879  1.00  0.00     0.000 C 
BRANCH   3   4
ATOM      4  C   UNL     1     -41.126 -47.379  39.109  1.00  0.00    -0.000 C 
BRANCH   4   5
ATOM      5  C   UNL     1     -42.579 -46.907  39.290  1.00  0.00    -0.000 C 
BRANCH   5   6
ATOM      6  C   UNL     1     -43.521 -48.043  39.715  1.00  0.00    -0.000 C 
BRANCH   6   7
ATOM      7  C   UNL     1     -42.982 -48.838  40.920  1.00  0.00    -0.000 C 
BRANCH   7   8
ATOM      8  C   UNL     1     -43.470 -50.303  40.917  1.00  0.00    -0.000 C 
BRANCH   8   9
ATOM      9  C   UNL     1     -43.616 -50.901  39.507  1.00  0.00    -0.000 C 
BRANCH   9  10
ATOM     10  C   UNL     1     -42.311 -51.504  38.973  1.00  0.00    -0.000 C 
BRANCH  10  11
ATOM     11  C   UNL     1     -42.445 -51.886  37.495  1.00  0.00    -0.003 C 
ATOM     12  C   UNL     1     -41.094 -51.825  36.787  1.00  0.00     0.004 C 
ENDBRANCH  10  11
ENDBRANCH   9  10
ENDBRANCH   8   9
ENDBRANCH   7   8
ENDBRANCH   6   7
ENDBRANCH   5   6
ENDBRANCH   4   5
ENDBRANCH   3   4
ENDBRANCH   2   3
ENDBRANCH   1   2
BRANCH   1  13
ATOM     13  C   UNL     1     -40.157 -48.508  34.280  1.00  0.00     0.000 C 
BRANCH  13  14
ATOM     14  C   UNL     1     -41.384 -47.581  34.240  1.00  0.00     0.000 C 
BRANCH  14  15
ATOM     15  C   UNL     1     -42.654 -48.299  33.760  1.00  0.00     0.000 C 
BRANCH  15  16
ATOM     16  C   UNL     1     -43.110 -49.405  34.727  1.00  0.00     0.000 C 
BRANCH  16  17
ATOM     17  C   UNL     1     -43.894 -48.846  35.926  1.00  0.00     0.000 C 
BRANCH  17  18
ATOM     18  C   UNL     1     -45.116 -49.710  36.275  1.00  0.00     0.000 C 
BRANCH  18  19
ATOM     19  C   UNL     1     -45.947 -49.066  37.395  1.00  0.00     0.000 C 
BRANCH  19  20
ATOM     20  C   UNL     1     -46.930 -50.054  38.045  1.00  0.00     0.006 C 
BRANCH  20  21
ATOM     21  C   UNL     1     -46.845 -51.462  37.439  1.00  0.00     0.053 C 
BRANCH  21  22
ATOM     22  C   UNL     1     -47.315 -52.497  38.415  1.00  0.00     0.041 C 
ATOM     23  O   UNL     1     -47.688 -53.630  38.008  1.00  0.00    -0.550 OA
ATOM     24  O   UNL     1     -47.393 -52.194  39.769  1.00  0.00    -0.550 OA
ENDBRANCH  21  22
ENDBRANCH  20  21
ENDBRANCH  19  20
ENDBRANCH  18  19
ENDBRANCH  17  18
ENDBRANCH  16  17
ENDBRANCH  15  16
ENDBRANCH  14  15
ENDBRANCH  13  14
ENDBRANCH   1  13
TORSDOF 20
ENDMDL
MODEL 4
REMARK VINA RESULT:    -3.679      1.313      3.715
REMARK INTER + INTRA:         -11.488
REMARK INTER:                  -8.418
REMARK INTRA:                  -3.070
REMARK UNBOUND:                -3.508
REMARK SMILES CCCCCCCCCCCCCCCCCCCCCC(=O)[O-]
REMARK SMILES IDX 12 1 11 2 10 3 9 4 8 5 7 6 6 7 5 8 4 9 3 10 2 11 1 12 13 13
REMARK SMILES IDX 14 14 15 15 16 16 17 17 18 18 19 19 20 20 21 21 22 22 23 23
REMARK SMILES IDX 24 24
REMARK H PARENT
REMARK Flexibility Score: inf
ROOT
ATOM      1  C   UNL     1     -43.542 -48.878  39.390  1.00  0.00     0.000 C 
ENDROOT
BRANCH   1   2
ATOM      2  C   UNL     1     -42.014 -48.793  39.210  1.00  0.00     0.000 C 
BRANCH   2   3
ATOM      3  C   UNL     1     -41.538 -47.880  38.064  1.00  0.00     0.000 C 
BRANCH   3   4
ATOM      4  C   UNL     1     -40.357 -48.431  37.243  1.00  0.00    -0.000 C 
BRANCH   4   5
ATOM      5  C   UNL     1     -40.043 -47.577  36.003  1.00  0.00    -0.000 C 
BRANCH   5   6
ATOM      6  C   UNL     1     -40.545 -48.220  34.701  1.00  0.00    -0.000 C 
BRANCH   6   7
ATOM      7  C   UNL     1     -41.911 -47.665  34.255  1.00  0.00    -0.000 C 
BRANCH   7   8
ATOM      8  C   UNL     1     -43.017 -48.741  34.290  1.00  0.00    -0.000 C 
BRANCH   8   9
ATOM      9  C   UNL     1     -42.478 -50.175  34.442  1.00  0.00    -0.000 C 
BRANCH   9  10
ATOM     10  C   UNL     1     -43.292 -51.020  35.428  1.00  0.00    -0.000 C 
BRANCH  10  11
ATOM     11  C   UNL     1     -42.476 -51.338  36.685  1.00  0.00    -0.003 C 
ATOM     12  C   UNL     1     -42.676 -52.788  37.120  1.00  0.00     0.004 C 
ENDBRANCH  10  11
ENDBRANCH   9  10
ENDBRANCH   8   9
ENDBRANCH   7   8
ENDBRANCH   6   7
ENDBRANCH   5   6
ENDBRANCH   4   5
ENDBRANCH   3   4
ENDBRANCH   2   3
ENDBRANCH   1   2
BRANCH   1  13
ATOM     13  C   UNL     1     -44.324 -47.809  38.597  1.00  0.00     0.000 C 
BRANCH  13  14
ATOM     14  C   UNL     1     -44.893 -48.353  37.275  1.00  0.00     0.000 C 
BRANCH  14  15
ATOM     15  C   UNL     1     -46.426 -48.464  37.291  1.00  0.00     0.000 C 
BRANCH  15  16
ATOM     16  C   UNL     1     -46.921 -49.875  36.931  1.00  0.00     0.000 C 
BRANCH  16  17
ATOM     17  C   UNL     1     -46.511 -50.923  37.979  1.00  0.00     0.000 C 
BRANCH  17  18
ATOM     18  C   UNL     1     -46.342 -52.322  37.366  1.00  0.00     0.000 C 
BRANCH  18  19
ATOM     19  C   UNL     1     -47.235 -53.349  38.077  1.00  0.00     0.000 C 
BRANCH  19  20
ATOM     20  C   UNL     1     -47.986 -52.750  39.279  1.00  0.00     0.006 C 
BRANCH  20  21
ATOM     21  C   UNL     1     -47.515 -53.326  40.622  1.00  0.00     0.053 C 
BRANCH  21  22
ATOM     22  C   UNL     1     -47.931 -52.446  41.760  1.00  0.00     0.041 C 
ATOM     23  O   UNL     1     -47.534 -52.692  42.931  1.00  0.00    -0.550 OA
ATOM     24  O   UNL     1     -48.803 -51.386  41.540  1.00  0.00    -0.550 OA
ENDBRANCH  21  22
ENDBRANCH  20  21
ENDBRANCH  19  20
ENDBRANCH  18  19
ENDBRANCH  17  18
ENDBRANCH  16  17
ENDBRANCH  15  16
ENDBRANCH  14  15
ENDBRANCH  13  14
ENDBRANCH   1  13
TORSDOF 20
ENDMDL
MODEL 5
REMARK VINA RESULT:    -3.672      4.316      7.303
REMARK INTER + INTRA:         -11.473
REMARK INTER:                  -7.397
REMARK INTRA:                  -4.076
REMARK UNBOUND:                -3.508
REMARK SMILES CCCCCCCCCCCCCCCCCCCCCC(=O)[O-]
REMARK SMILES IDX 12 1 11 2 10 3 9 4 8 5 7 6 6 7 5 8 4 9 3 10 2 11 1 12 13 13
REMARK SMILES IDX 14 14 15 15 16 16 17 17 18 18 19 19 20 20 21 21 22 22 23 23
REMARK SMILES IDX 24 24
REMARK H PARENT
REMARK Flexibility Score: inf
ROOT
ATOM      1  C   UNL     1     -41.999 -50.682  37.507  1.00  0.00     0.000 C 
ENDROOT
BRANCH   1   2
ATOM      2  C   UNL     1     -40.602 -50.123  37.839  1.00  0.00     0.000 C 
BRANCH   2   3
ATOM      3  C   UNL     1     -40.519 -48.588  37.948  1.00  0.00     0.000 C 
BRANCH   3   4
ATOM      4  C   UNL     1     -41.872 -47.857  37.859  1.00  0.00    -0.000 C 
BRANCH   4   5
ATOM      5  C   UNL     1     -42.452 -47.506  39.239  1.00  0.00    -0.000 C 
BRANCH   5   6
ATOM      6  C   UNL     1     -43.914 -47.948  39.396  1.00  0.00    -0.000 C 
BRANCH   6   7
ATOM      7  C   UNL     1     -44.666 -47.992  38.052  1.00  0.00    -0.000 C 
BRANCH   7   8
ATOM      8  C   UNL     1     -45.646 -49.182  37.970  1.00  0.00    -0.000 C 
BRANCH   8   9
ATOM      9  C   UNL     1     -45.377 -50.275  39.020  1.00  0.00    -0.000 C 
BRANCH   9  10
ATOM     10  C   UNL     1     -45.523 -51.694  38.459  1.00  0.00    -0.000 C 
BRANCH  10  11
ATOM     11  C   UNL     1     -46.601 -51.749  37.372  1.00  0.00    -0.003 C 
ATOM     12  C   UNL     1     -47.596 -52.876  37.637  1.00  0.00     0.004 C 
ENDBRANCH  10  11
ENDBRANCH   9  10
ENDBRANCH   8   9
ENDBRANCH   7   8
ENDBRANCH   6   7
ENDBRANCH   5   6
ENDBRANCH   4   5
ENDBRANCH   3   4
ENDBRANCH   2   3
ENDBRANCH   1   2
BRANCH   1  13
ATOM     13  C   UNL     1     -42.111 -51.280  36.088  1.00  0.00     0.000 C 
BRANCH  13  14
ATOM     14  C   UNL     1     -43.492 -51.042  35.454  1.00  0.00     0.000 C 
BRANCH  14  15
ATOM     15  C   UNL     1     -43.712 -49.578  35.044  1.00  0.00     0.000 C 
BRANCH  15  16
ATOM     16  C   UNL     1     -42.791 -49.140  33.893  1.00  0.00     0.000 C 
BRANCH  16  17
ATOM     17  C   UNL     1     -42.070 -47.816  34.194  1.00  0.00     0.000 C 
BRANCH  17  18
ATOM     18  C   UNL     1     -40.557 -48.006  34.378  1.00  0.00     0.000 C 
BRANCH  18  19
ATOM     19  C   UNL     1     -40.126 -49.428  33.988  1.00  0.00     0.000 C 
BRANCH  19  20
ATOM     20  C   UNL     1     -38.785 -49.834  34.621  1.00  0.00     0.006 C 
BRANCH  20  21
ATOM     21  C   UNL     1     -37.903 -48.627  34.972  1.00  0.00     0.053 C 
BRANCH  21  22
ATOM     22  C   UNL     1     -36.878 -48.381  33.907  1.00  0.00     0.041 C 
ATOM     23  O   UNL     1     -36.374 -47.235  33.765  1.00  0.00    -0.550 OA
ATOM     24  O   UNL     1     -36.520 -49.402  33.035  1.00  0.00    -0.550 OA
ENDBRANCH  21  22
ENDBRANCH  20  21
ENDBRANCH  19  20
ENDBRANCH  18  19
ENDBRANCH  17  18
ENDBRANCH  16  17
ENDBRANCH  15  16
ENDBRANCH  14  15
ENDBRANCH  13  14
ENDBRANCH   1  13
TORSDOF 20
ENDMDL
MODEL 6
REMARK VINA RESULT:    -3.662      1.615      2.703
REMARK INTER + INTRA:         -11.450
REMARK INTER:                  -9.165
REMARK INTRA:                  -2.285
REMARK UNBOUND:                -3.508
REMARK SMILES CCCCCCCCCCCCCCCCCCCCCC(=O)[O-]
REMARK SMILES IDX 12 1 11 2 10 3 9 4 8 5 7 6 6 7 5 8 4 9 3 10 2 11 1 12 13 13
REMARK SMILES IDX 14 14 15 15 16 16 17 17 18 18 19 19 20 20 21 21 22 22 23 23
REMARK SMILES IDX 24 24
REMARK H PARENT
REMARK Flexibility Score: inf
ROOT
ATOM      1  C   UNL     1     -44.012 -49.830  35.537  1.00  0.00     0.000 C 
ENDROOT
BRANCH   1   2
ATOM      2  C   UNL     1     -43.142 -49.347  34.361  1.00  0.00     0.000 C 
BRANCH   2   3
ATOM      3  C   UNL     1     -42.392 -48.022  34.600  1.00  0.00     0.000 C 
BRANCH   3   4
ATOM      4  C   UNL     1     -40.887 -48.173  34.886  1.00  0.00    -0.000 C 
BRANCH   4   5
ATOM      5  C   UNL     1     -40.485 -47.626  36.267  1.00  0.00    -0.000 C 
BRANCH   5   6
ATOM      6  C   UNL     1     -40.994 -48.503  37.421  1.00  0.00    -0.000 C 
BRANCH   6   7
ATOM      7  C   UNL     1     -42.159 -47.852  38.189  1.00  0.00    -0.000 C 
BRANCH   7   8
ATOM      8  C   UNL     1     -41.667 -46.960  39.349  1.00  0.00    -0.000 C 
BRANCH   8   9
ATOM      9  C   UNL     1     -42.748 -46.012  39.898  1.00  0.00    -0.000 C 
BRANCH   9  10
ATOM     10  C   UNL     1     -42.366 -45.382  41.243  1.00  0.00    -0.000 C 
BRANCH  10  11
ATOM     11  C   UNL     1     -41.499 -44.136  41.041  1.00  0.00    -0.003 C 
ATOM     12  C   UNL     1     -40.203 -44.231  41.843  1.00  0.00     0.004 C 
ENDBRANCH  10  11
ENDBRANCH   9  10
ENDBRANCH   8   9
ENDBRANCH   7   8
ENDBRANCH   6   7
ENDBRANCH   5   6
ENDBRANCH   4   5
ENDBRANCH   3   4
ENDBRANCH   2   3
ENDBRANCH   1   2
BRANCH   1  13
ATOM     13  C   UNL     1     -43.447 -51.071  36.262  1.00  0.00     0.000 C 
BRANCH  13  14
ATOM     14  C   UNL     1     -43.891 -51.150  37.733  1.00  0.00     0.000 C 
BRANCH  14  15
ATOM     15  C   UNL     1     -45.001 -50.144  38.072  1.00  0.00     0.000 C 
BRANCH  15  16
ATOM     16  C   UNL     1     -46.329 -50.828  38.439  1.00  0.00     0.000 C 
BRANCH  16  17
ATOM     17  C   UNL     1     -46.973 -51.534  37.234  1.00  0.00     0.000 C 
BRANCH  17  18
ATOM     18  C   UNL     1     -47.593 -52.887  37.616  1.00  0.00     0.000 C 
BRANCH  18  19
ATOM     19  C   UNL     1     -46.666 -53.676  38.554  1.00  0.00     0.000 C 
BRANCH  19  20
ATOM     20  C   UNL     1     -47.377 -54.139  39.836  1.00  0.00     0.006 C 
BRANCH  20  21
ATOM     21  C   UNL     1     -46.859 -53.428  41.094  1.00  0.00     0.053 C 
BRANCH  21  22
ATOM     22  C   UNL     1     -47.963 -52.698  41.794  1.00  0.00     0.041 C 
ATOM     23  O   UNL     1     -48.894 -52.168  41.131  1.00  0.00    -0.550 OA
ATOM     24  O   UNL     1     -47.938 -52.555  43.177  1.00  0.00    -0.550 OA
ENDBRANCH  21  22
ENDBRANCH  20  21
ENDBRANCH  19  20
ENDBRANCH  18  19
ENDBRANCH  17  18
ENDBRANCH  16  17
ENDBRANCH  15  16
ENDBRANCH  14  15
ENDBRANCH  13  14
ENDBRANCH   1  13
TORSDOF 20
ENDMDL
MODEL 7
REMARK VINA RESULT:    -3.649      1.461      3.780
REMARK INTER + INTRA:         -11.423
REMARK INTER:                  -7.878
REMARK INTRA:                  -3.545
REMARK UNBOUND:                -3.508
REMARK SMILES CCCCCCCCCCCCCCCCCCCCCC(=O)[O-]
REMARK SMILES IDX 12 1 11 2 10 3 9 4 8 5 7 6 6 7 5 8 4 9 3 10 2 11 1 12 13 13
REMARK SMILES IDX 14 14 15 15 16 16 17 17 18 18 19 19 20 20 21 21 22 22 23 23
REMARK SMILES IDX 24 24
REMARK H PARENT
REMARK Flexibility Score: inf
ROOT
ATOM      1  C   UNL     1     -41.388 -50.231  38.337  1.00  0.00     0.000 C 
ENDROOT
BRANCH   1   2
ATOM      2  C   UNL     1     -40.774 -48.861  37.989  1.00  0.00     0.000 C 
BRANCH   2   3
ATOM      3  C   UNL     1     -39.995 -48.808  36.661  1.00  0.00     0.000 C 
BRANCH   3   4
ATOM      4  C   UNL     1     -40.363 -47.630  35.740  1.00  0.00    -0.000 C 
BRANCH   4   5
ATOM      5  C   UNL     1     -40.918 -48.088  34.380  1.00  0.00    -0.000 C 
BRANCH   5   6
ATOM      6  C   UNL     1     -42.447 -47.970  34.294  1.00  0.00    -0.000 C 
BRANCH   6   7
ATOM      7  C   UNL     1     -43.141 -49.342  34.205  1.00  0.00    -0.000 C 
BRANCH   7   8
ATOM      8  C   UNL     1     -43.965 -49.663  35.470  1.00  0.00    -0.000 C 
BRANCH   8   9
ATOM      9  C   UNL     1     -44.090 -48.475  36.442  1.00  0.00    -0.000 C 
BRANCH   9  10
ATOM     10  C   UNL     1     -44.956 -48.791  37.667  1.00  0.00    -0.000 C 
BRANCH  10  11
ATOM     11  C   UNL     1     -46.352 -49.263  37.248  1.00  0.00    -0.003 C 
ATOM     12  C   UNL     1     -47.278 -48.079  36.986  1.00  0.00     0.004 C 
ENDBRANCH  10  11
ENDBRANCH   9  10
ENDBRANCH   8   9
ENDBRANCH   7   8
ENDBRANCH   6   7
ENDBRANCH   5   6
ENDBRANCH   4   5
ENDBRANCH   3   4
ENDBRANCH   2   3
ENDBRANCH   1   2
BRANCH   1  13
ATOM     13  C   UNL     1     -41.282 -51.268  37.199  1.00  0.00     0.000 C 
BRANCH  13  14
ATOM     14  C   UNL     1     -42.040 -52.570  37.512  1.00  0.00     0.000 C 
BRANCH  14  15
ATOM     15  C   UNL     1     -43.454 -52.316  38.055  1.00  0.00     0.000 C 
BRANCH  15  16
ATOM     16  C   UNL     1     -44.444 -53.430  37.672  1.00  0.00     0.000 C 
BRANCH  16  17
ATOM     17  C   UNL     1     -45.424 -52.987  36.572  1.00  0.00     0.000 C 
BRANCH  17  18
ATOM     18  C   UNL     1     -46.810 -52.640  37.135  1.00  0.00     0.000 C 
BRANCH  18  19
ATOM     19  C   UNL     1     -47.230 -53.634  38.229  1.00  0.00     0.000 C 
BRANCH  19  20
ATOM     20  C   UNL     1     -47.980 -52.956  39.387  1.00  0.00     0.006 C 
BRANCH  20  21
ATOM     21  C   UNL     1     -47.199 -51.783  39.997  1.00  0.00     0.053 C 
BRANCH  21  22
ATOM     22  C   UNL     1     -46.407 -52.224  41.189  1.00  0.00     0.041 C 
ATOM     23  O   UNL     1     -46.971 -52.839  42.134  1.00  0.00    -0.550 OA
ATOM     24  O   UNL     1     -45.057 -51.910  41.285  1.00  0.00    -0.550 OA
ENDBRANCH  21  22
ENDBRANCH  20  21
ENDBRANCH  19  20
ENDBRANCH  18  19
ENDBRANCH  17  18
ENDBRANCH  16  17
ENDBRANCH  15  16
ENDBRANCH  14  15
ENDBRANCH  13  14
ENDBRANCH   1  13
TORSDOF 20
ENDMDL
MODEL 8
REMARK VINA RESULT:    -3.623      1.248      3.616
REMARK INTER + INTRA:         -11.366
REMARK INTER:                  -7.548
REMARK INTRA:                  -3.818
REMARK UNBOUND:                -3.508
REMARK SMILES CCCCCCCCCCCCCCCCCCCCCC(=O)[O-]
REMARK SMILES IDX 12 1 11 2 10 3 9 4 8 5 7 6 6 7 5 8 4 9 3 10 2 11 1 12 13 13
REMARK SMILES IDX 14 14 15 15 16 16 17 17 18 18 19 19 20 20 21 21 22 22 23 23
REMARK SMILES IDX 24 24
REMARK H PARENT
REMARK Flexibility Score: inf
ROOT
ATOM      1  C   UNL     1     -41.407 -47.796  39.290  1.00  0.00     0.000 C 
ENDROOT
BRANCH   1   2
ATOM      2  C   UNL     1     -40.408 -48.951  39.498  1.00  0.00     0.000 C 
BRANCH   2   3
ATOM      3  C   UNL     1     -40.813 -50.292  38.857  1.00  0.00     0.000 C 
BRANCH   3   4
ATOM      4  C   UNL     1     -39.899 -50.765  37.711  1.00  0.00    -0.000 C 
BRANCH   4   5
ATOM      5  C   UNL     1     -40.686 -51.332  36.517  1.00  0.00    -0.000 C 
BRANCH   5   6
ATOM      6  C   UNL     1     -42.203 -51.334  36.756  1.00  0.00    -0.000 C 
BRANCH   6   7
ATOM      7  C   UNL     1     -43.009 -51.319  35.443  1.00  0.00    -0.000 C 
BRANCH   7   8
ATOM      8  C   UNL     1     -42.300 -50.515  34.332  1.00  0.00    -0.000 C 
BRANCH   8   9
ATOM      9  C   UNL     1     -43.055 -49.240  33.918  1.00  0.00    -0.000 C 
BRANCH   9  10
ATOM     10  C   UNL     1     -42.323 -47.953  34.318  1.00  0.00    -0.000 C 
BRANCH  10  11
ATOM     11  C   UNL     1     -40.823 -48.207  34.500  1.00  0.00    -0.003 C 
ATOM     12  C   UNL     1     -40.330 -47.661  35.838  1.00  0.00     0.004 C 
ENDBRANCH  10  11
ENDBRANCH   9  10
ENDBRANCH   8   9
ENDBRANCH   7   8
ENDBRANCH   6   7
ENDBRANCH   5   6
ENDBRANCH   4   5
ENDBRANCH   3   4
ENDBRANCH   2   3
ENDBRANCH   1   2
BRANCH   1  13
ATOM     13  C   UNL     1     -42.649 -47.873  40.204  1.00  0.00     0.000 C 
BRANCH  13  14
ATOM     14  C   UNL     1     -43.895 -48.393  39.466  1.00  0.00     0.000 C 
BRANCH  14  15
ATOM     15  C   UNL     1     -43.788 -48.240  37.941  1.00  0.00     0.000 C 
BRANCH  15  16
ATOM     16  C   UNL     1     -45.156 -48.039  37.268  1.00  0.00     0.000 C 
BRANCH  16  17
ATOM     17  C   UNL     1     -45.640 -49.304  36.540  1.00  0.00     0.000 C 
BRANCH  17  18
ATOM     18  C   UNL     1     -46.868 -49.931  37.218  1.00  0.00     0.000 C 
BRANCH  18  19
ATOM     19  C   UNL     1     -46.615 -51.405  37.568  1.00  0.00     0.000 C 
BRANCH  19  20
ATOM     20  C   UNL     1     -45.835 -51.576  38.883  1.00  0.00     0.006 C 
BRANCH  20  21
ATOM     21  C   UNL     1     -46.579 -50.996  40.095  1.00  0.00     0.053 C 
BRANCH  21  22
ATOM     22  C   UNL     1     -47.288 -52.073  40.857  1.00  0.00     0.041 C 
ATOM     23  O   UNL     1     -48.377 -52.540  40.431  1.00  0.00    -0.550 OA
ATOM     24  O   UNL     1     -46.775 -52.523  42.068  1.00  0.00    -0.550 OA
ENDBRANCH  21  22
ENDBRANCH  20  21
ENDBRANCH  19  20
ENDBRANCH  18  19
ENDBRANCH  17  18
ENDBRANCH  16  17
ENDBRANCH  15  16
ENDBRANCH  14  15
ENDBRANCH  13  14
ENDBRANCH   1  13
TORSDOF 20
ENDMDL
MODEL 9
REMARK VINA RESULT:    -3.586      3.345      6.935
REMARK INTER + INTRA:         -11.286
REMARK INTER:                  -7.597
REMARK INTRA:                  -3.689
REMARK UNBOUND:                -3.508
REMARK SMILES CCCCCCCCCCCCCCCCCCCCCC(=O)[O-]
REMARK SMILES IDX 12 1 11 2 10 3 9 4 8 5 7 6 6 7 5 8 4 9 3 10 2 11 1 12 13 13
REMARK SMILES IDX 14 14 15 15 16 16 17 17 18 18 19 19 20 20 21 21 22 22 23 23
REMARK SMILES IDX 24 24
REMARK H PARENT
REMARK Flexibility Score: inf
ROOT
ATOM      1  C   UNL     1     -44.788 -51.079  40.665  1.00  0.00     0.000 C 
ENDROOT
BRANCH   1   2
ATOM      2  C   UNL     1     -45.930 -50.375  39.907  1.00  0.00     0.000 C 
BRANCH   2   3
ATOM      3  C   UNL     1     -46.945 -51.315  39.228  1.00  0.00     0.000 C 
BRANCH   3   4
ATOM      4  C   UNL     1     -46.874 -51.342  37.690  1.00  0.00    -0.000 C 
BRANCH   4   5
ATOM      5  C   UNL     1     -46.645 -52.756  37.129  1.00  0.00    -0.000 C 
BRANCH   5   6
ATOM      6  C   UNL     1     -45.158 -53.140  37.085  1.00  0.00    -0.000 C 
BRANCH   6   7
ATOM      7  C   UNL     1     -44.903 -54.575  37.585  1.00  0.00    -0.000 C 
BRANCH   7   8
ATOM      8  C   UNL     1     -46.122 -55.157  38.333  1.00  0.00    -0.000 C 
BRANCH   8   9
ATOM      9  C   UNL     1     -45.975 -55.128  39.865  1.00  0.00    -0.000 C 
BRANCH   9  10
ATOM     10  C   UNL     1     -47.222 -54.590  40.577  1.00  0.00    -0.000 C 
BRANCH  10  11
ATOM     11  C   UNL     1     -46.853 -53.924  41.907  1.00  0.00    -0.003 C 
ATOM     12  C   UNL     1     -47.938 -52.948  42.354  1.00  0.00     0.004 C 
ENDBRANCH  10  11
ENDBRANCH   9  10
ENDBRANCH   8   9
ENDBRANCH   7   8
ENDBRANCH   6   7
ENDBRANCH   5   6
ENDBRANCH   4   5
ENDBRANCH   3   4
ENDBRANCH   2   3
ENDBRANCH   1   2
BRANCH   1  13
ATOM     13  C   UNL     1     -43.498 -51.244  39.835  1.00  0.00     0.000 C 
BRANCH  13  14
ATOM     14  C   UNL     1     -42.305 -50.481  40.436  1.00  0.00     0.000 C 
BRANCH  14  15
ATOM     15  C   UNL     1     -42.724 -49.171  41.120  1.00  0.00     0.000 C 
BRANCH  15  16
ATOM     16  C   UNL     1     -42.389 -47.928  40.276  1.00  0.00     0.000 C 
BRANCH  16  17
ATOM     17  C   UNL     1     -43.527 -47.555  39.312  1.00  0.00     0.000 C 
BRANCH  17  18
ATOM     18  C   UNL     1     -43.268 -48.061  37.884  1.00  0.00     0.000 C 
BRANCH  18  19
ATOM     19  C   UNL     1     -44.587 -48.355  37.153  1.00  0.00     0.000 C 
BRANCH  19  20
ATOM     20  C   UNL     1     -44.418 -49.381  36.020  1.00  0.00     0.006 C 
BRANCH  20  21
ATOM     21  C   UNL     1     -42.968 -49.491  35.527  1.00  0.00     0.053 C 
BRANCH  21  22
ATOM     22  C   UNL     1     -42.785 -48.768  34.228  1.00  0.00     0.041 C 
ATOM     23  O   UNL     1     -42.396 -47.570  34.218  1.00  0.00    -0.550 OA
ATOM     24  O   UNL     1     -43.096 -49.399  33.029  1.00  0.00    -0.550 OA
ENDBRANCH  21  22
ENDBRANCH  20  21
ENDBRANCH  19  20
ENDBRANCH  18  19
ENDBRANCH  17  18
ENDBRANCH  16  17
ENDBRANCH  15  16
ENDBRANCH  14  15
ENDBRANCH  13  14
ENDBRANCH   1  13
TORSDOF 20
ENDMDL
