MODEL 1
REMARK VINA RESULT:    -5.074      0.000      0.000
REMARK INTER + INTRA:         -10.108
REMARK INTER:                  -9.226
REMARK INTRA:                  -0.882
REMARK UNBOUND:                -0.882
REMARK SMILES CCCCCCCCCCCCCCCC(=O)[O-]
REMARK SMILES IDX 9 1 10 2 11 3 12 4 13 5 14 6 15 7 16 8 17 9 18 10 8 11 7 12
REMARK SMILES IDX 6 13 5 14 4 15 3 16 2 17 1 18
REMARK H PARENT
REMARK Flexibility Score: inf
ROOT
ATOM      1  C   UNL     1       3.507 -17.137   3.616  1.00  0.00     0.000 C 
ENDROOT
BRANCH   1   2
ATOM      2  C   UNL     1       4.627 -16.309   4.278  1.00  0.00     0.000 C 
BRANCH   2   3
ATOM      3  C   UNL     1       6.047 -16.588   3.745  1.00  0.00     0.000 C 
BRANCH   3   4
ATOM      4  C   UNL     1       7.178 -16.413   4.779  1.00  0.00     0.000 C 
BRANCH   4   5
ATOM      5  C   UNL     1       6.993 -15.231   5.748  1.00  0.00     0.000 C 
BRANCH   5   6
ATOM      6  C   UNL     1       7.882 -15.339   6.998  1.00  0.00     0.006 C 
BRANCH   6   7
ATOM      7  C   UNL     1       9.024 -14.314   6.987  1.00  0.00     0.053 C 
BRANCH   7   8
ATOM      8  C   UNL     1       8.595 -13.011   6.384  1.00  0.00     0.041 C 
ATOM      9  O   UNL     1       9.001 -12.680   5.240  1.00  0.00    -0.550 OA
ATOM     10  O   UNL     1       7.777 -12.148   7.101  1.00  0.00    -0.550 OA
ENDBRANCH   7   8
ENDBRANCH   6   7
ENDBRANCH   5   6
ENDBRANCH   4   5
ENDBRANCH   3   4
ENDBRANCH   2   3
ENDBRANCH   1   2
BRANCH   1  11
ATOM     11  C   UNL     1       3.804 -18.640   3.474  1.00  0.00     0.000 C 
BRANCH  11  12
ATOM     12  C   UNL     1       3.684 -19.138   2.023  1.00  0.00    -0.000 C 
BRANCH  12  13
ATOM     13  C   UNL     1       3.796 -17.998   0.998  1.00  0.00    -0.000 C 
BRANCH  13  14
ATOM     14  C   UNL     1       4.904 -18.244  -0.040  1.00  0.00    -0.000 C 
BRANCH  14  15
ATOM     15  C   UNL     1       4.394 -18.127  -1.486  1.00  0.00    -0.000 C 
BRANCH  15  16
ATOM     16  C   UNL     1       2.892 -17.797  -1.561  1.00  0.00    -0.000 C 
BRANCH  16  17
ATOM     17  C   UNL     1       2.295 -18.089  -2.945  1.00  0.00    -0.003 C 
ATOM     18  C   UNL     1       3.117 -19.102  -3.741  1.00  0.00     0.004 C 
ENDBRANCH  16  17
ENDBRANCH  15  16
ENDBRANCH  14  15
ENDBRANCH  13  14
ENDBRANCH  12  13
ENDBRANCH  11  12
ENDBRANCH   1  11
TORSDOF 14
ENDMDL
MODEL 2
REMARK VINA RESULT:    -4.992      7.782     11.403
REMARK INTER + INTRA:          -9.959
REMARK INTER:                  -9.091
REMARK INTRA:                  -0.868
REMARK UNBOUND:                -0.882
REMARK SMILES CCCCCCCCCCCCCCCC(=O)[O-]
REMARK SMILES IDX 9 1 10 2 11 3 12 4 13 5 14 6 15 7 16 8 17 9 18 10 8 11 7 12
REMARK SMILES IDX 6 13 5 14 4 15 3 16 2 17 1 18
REMARK H PARENT
REMARK Flexibility Score: inf
ROOT
ATOM      1  C   UNL     1      12.375  -9.057   4.392  1.00  0.00     0.000 C 
ENDROOT
BRANCH   1   2
ATOM      2  C   UNL     1      12.441  -8.334   3.031  1.00  0.00     0.000 C 
BRANCH   2   3
ATOM      3  C   UNL     1      12.455  -9.261   1.800  1.00  0.00     0.000 C 
BRANCH   3   4
ATOM      4  C   UNL     1      12.690  -8.550   0.451  1.00  0.00     0.000 C 
BRANCH   4   5
ATOM      5  C   UNL     1      14.034  -8.873  -0.226  1.00  0.00     0.000 C 
BRANCH   5   6
ATOM      6  C   UNL     1      14.499  -7.767  -1.189  1.00  0.00     0.006 C 
BRANCH   6   7
ATOM      7  C   UNL     1      14.289  -8.153  -2.659  1.00  0.00     0.053 C 
BRANCH   7   8
ATOM      8  C   UNL     1      13.002  -7.607  -3.198  1.00  0.00     0.041 C 
ATOM      9  O   UNL     1      12.374  -8.234  -4.090  1.00  0.00    -0.550 OA
ATOM     10  O   UNL     1      12.517  -6.389  -2.741  1.00  0.00    -0.550 OA
ENDBRANCH   7   8
ENDBRANCH   6   7
ENDBRANCH   5   6
ENDBRANCH   4   5
ENDBRANCH   3   4
ENDBRANCH   2   3
ENDBRANCH   1   2
BRANCH   1  11
ATOM     11  C   UNL     1      12.655 -10.570   4.340  1.00  0.00     0.000 C 
BRANCH  11  12
ATOM     12  C   UNL     1      11.499 -11.411   4.910  1.00  0.00    -0.000 C 
BRANCH  12  13
ATOM     13  C   UNL     1      10.183 -11.199   4.144  1.00  0.00    -0.000 C 
BRANCH  13  14
ATOM     14  C   UNL     1       9.030 -12.046   4.708  1.00  0.00    -0.000 C 
BRANCH  14  15
ATOM     15  C   UNL     1       9.081 -12.167   6.240  1.00  0.00    -0.000 C 
BRANCH  15  16
ATOM     16  C   UNL     1       7.866 -12.917   6.817  1.00  0.00    -0.000 C 
BRANCH  16  17
ATOM     17  C   UNL     1       8.009 -14.442   6.701  1.00  0.00    -0.003 C 
ATOM     18  C   UNL     1       9.417 -14.931   7.038  1.00  0.00     0.004 C 
ENDBRANCH  16  17
ENDBRANCH  15  16
ENDBRANCH  14  15
ENDBRANCH  13  14
ENDBRANCH  12  13
ENDBRANCH  11  12
ENDBRANCH   1  11
TORSDOF 14
ENDMDL
MODEL 3
REMARK VINA RESULT:    -4.988     10.819     14.317
REMARK INTER + INTRA:          -9.952
REMARK INTER:                  -8.952
REMARK INTRA:                  -1.000
REMARK UNBOUND:                -0.882
REMARK SMILES CCCCCCCCCCCCCCCC(=O)[O-]
REMARK SMILES IDX 9 1 10 2 11 3 12 4 13 5 14 6 15 7 16 8 17 9 18 10 8 11 7 12
REMARK SMILES IDX 6 13 5 14 4 15 3 16 2 17 1 18
REMARK H PARENT
REMARK Flexibility Score: inf
ROOT
ATOM      1  C   UNL     1      10.921 -12.479  -7.246  1.00  0.00     0.000 C 
ENDROOT
BRANCH   1   2
ATOM      2  C   UNL     1       9.561 -11.878  -6.835  1.00  0.00     0.000 C 
BRANCH   2   3
ATOM      3  C   UNL     1       8.354 -12.373  -7.656  1.00  0.00     0.000 C 
BRANCH   3   4
ATOM      4  C   UNL     1       8.345 -13.885  -7.956  1.00  0.00     0.000 C 
BRANCH   4   5
ATOM      5  C   UNL     1       7.330 -14.328  -9.026  1.00  0.00     0.000 C 
BRANCH   5   6
ATOM      6  C   UNL     1       6.538 -15.581  -8.615  1.00  0.00     0.006 C 
BRANCH   6   7
ATOM      7  C   UNL     1       5.707 -15.352  -7.347  1.00  0.00     0.053 C 
BRANCH   7   8
ATOM      8  C   UNL     1       4.764 -14.198  -7.501  1.00  0.00     0.041 C 
ATOM      9  O   UNL     1       3.880 -14.220  -8.396  1.00  0.00    -0.550 OA
ATOM     10  O   UNL     1       4.887 -13.085  -6.680  1.00  0.00    -0.550 OA
ENDBRANCH   7   8
ENDBRANCH   6   7
ENDBRANCH   5   6
ENDBRANCH   4   5
ENDBRANCH   3   4
ENDBRANCH   2   3
ENDBRANCH   1   2
BRANCH   1  11
ATOM     11  C   UNL     1      11.854 -11.519  -8.005  1.00  0.00     0.000 C 
BRANCH  11  12
ATOM     12  C   UNL     1      11.447 -10.044  -7.851  1.00  0.00    -0.000 C 
BRANCH  12  13
ATOM     13  C   UNL     1      12.328  -9.292  -6.840  1.00  0.00    -0.000 C 
BRANCH  13  14
ATOM     14  C   UNL     1      11.623  -9.075  -5.490  1.00  0.00    -0.000 C 
BRANCH  14  15
ATOM     15  C   UNL     1      12.605  -9.073  -4.306  1.00  0.00    -0.000 C 
BRANCH  15  16
ATOM     16  C   UNL     1      12.519  -7.785  -3.467  1.00  0.00    -0.000 C 
BRANCH  16  17
ATOM     17  C   UNL     1      13.776  -7.554  -2.614  1.00  0.00    -0.003 C 
ATOM     18  C   UNL     1      14.794  -8.686  -2.745  1.00  0.00     0.004 C 
ENDBRANCH  16  17
ENDBRANCH  15  16
ENDBRANCH  14  15
ENDBRANCH  13  14
ENDBRANCH  12  13
ENDBRANCH  11  12
ENDBRANCH   1  11
TORSDOF 14
ENDMDL
MODEL 4
REMARK VINA RESULT:    -4.970      7.074     10.517
REMARK INTER + INTRA:          -9.919
REMARK INTER:                  -9.063
REMARK INTRA:                  -0.856
REMARK UNBOUND:                -0.882
REMARK SMILES CCCCCCCCCCCCCCCC(=O)[O-]
REMARK SMILES IDX 9 1 10 2 11 3 12 4 13 5 14 6 15 7 16 8 17 9 18 10 8 11 7 12
REMARK SMILES IDX 6 13 5 14 4 15 3 16 2 17 1 18
REMARK H PARENT
REMARK Flexibility Score: inf
ROOT
ATOM      1  C   UNL     1      12.220  -8.547   4.232  1.00  0.00     0.000 C 
ENDROOT
BRANCH   1   2
ATOM      2  C   UNL     1      13.019  -9.835   4.518  1.00  0.00     0.000 C 
BRANCH   2   3
ATOM      3  C   UNL     1      12.228 -10.949   5.232  1.00  0.00     0.000 C 
BRANCH   3   4
ATOM      4  C   UNL     1      10.746 -11.062   4.823  1.00  0.00     0.000 C 
BRANCH   4   5
ATOM      5  C   UNL     1      10.011 -12.295   5.379  1.00  0.00     0.000 C 
BRANCH   5   6
ATOM      6  C   UNL     1       8.673 -11.941   6.051  1.00  0.00     0.006 C 
BRANCH   6   7
ATOM      7  C   UNL     1       8.155 -13.077   6.942  1.00  0.00     0.053 C 
BRANCH   7   8
ATOM      8  C   UNL     1       7.769 -14.281   6.139  1.00  0.00     0.041 C 
ATOM      9  O   UNL     1       6.983 -14.165   5.163  1.00  0.00    -0.550 OA
ATOM     10  O   UNL     1       8.250 -15.535   6.491  1.00  0.00    -0.550 OA
ENDBRANCH   7   8
ENDBRANCH   6   7
ENDBRANCH   5   6
ENDBRANCH   4   5
ENDBRANCH   3   4
ENDBRANCH   2   3
ENDBRANCH   1   2
BRANCH   1  11
ATOM     11  C   UNL     1      12.237  -8.082   2.765  1.00  0.00     0.000 C 
BRANCH  11  12
ATOM     12  C   UNL     1      11.795  -9.182   1.785  1.00  0.00    -0.000 C 
BRANCH  12  13
ATOM     13  C   UNL     1      12.907  -9.570   0.795  1.00  0.00    -0.000 C 
BRANCH  13  14
ATOM     14  C   UNL     1      13.446  -8.361   0.011  1.00  0.00    -0.000 C 
BRANCH  14  15
ATOM     15  C   UNL     1      14.174  -8.773  -1.280  1.00  0.00    -0.000 C 
BRANCH  15  16
ATOM     16  C   UNL     1      14.556  -7.567  -2.156  1.00  0.00    -0.000 C 
BRANCH  16  17
ATOM     17  C   UNL     1      13.328  -6.857  -2.747  1.00  0.00    -0.003 C 
ATOM     18  C   UNL     1      12.486  -7.774  -3.634  1.00  0.00     0.004 C 
ENDBRANCH  16  17
ENDBRANCH  15  16
ENDBRANCH  14  15
ENDBRANCH  13  14
ENDBRANCH  12  13
ENDBRANCH  11  12
ENDBRANCH   1  11
TORSDOF 14
ENDMDL
MODEL 5
REMARK VINA RESULT:    -4.936     11.328     14.702
REMARK INTER + INTRA:          -9.859
REMARK INTER:                  -8.783
REMARK INTRA:                  -1.076
REMARK UNBOUND:                -0.882
REMARK SMILES CCCCCCCCCCCCCCCC(=O)[O-]
REMARK SMILES IDX 9 1 10 2 11 3 12 4 13 5 14 6 15 7 16 8 17 9 18 10 8 11 7 12
REMARK SMILES IDX 6 13 5 14 4 15 3 16 2 17 1 18
REMARK H PARENT
REMARK Flexibility Score: inf
ROOT
ATOM      1  C   UNL     1      12.188  -9.615  -7.452  1.00  0.00     0.000 C 
ENDROOT
BRANCH   1   2
ATOM      2  C   UNL     1      11.148 -10.293  -8.366  1.00  0.00     0.000 C 
BRANCH   2   3
ATOM      3  C   UNL     1       9.679  -9.950  -8.050  1.00  0.00     0.000 C 
BRANCH   3   4
ATOM      4  C   UNL     1       8.843 -11.119  -7.488  1.00  0.00     0.000 C 
BRANCH   4   5
ATOM      5  C   UNL     1       9.625 -12.425  -7.260  1.00  0.00     0.000 C 
BRANCH   5   6
ATOM      6  C   UNL     1       8.731 -13.675  -7.319  1.00  0.00     0.006 C 
BRANCH   6   7
ATOM      7  C   UNL     1       7.298 -13.341  -7.754  1.00  0.00     0.053 C 
BRANCH   7   8
ATOM      8  C   UNL     1       6.588 -14.544  -8.295  1.00  0.00     0.041 C 
ATOM      9  O   UNL     1       5.629 -15.053  -7.658  1.00  0.00    -0.550 OA
ATOM     10  O   UNL     1       7.009 -15.123  -9.485  1.00  0.00    -0.550 OA
ENDBRANCH   7   8
ENDBRANCH   6   7
ENDBRANCH   5   6
ENDBRANCH   4   5
ENDBRANCH   3   4
ENDBRANCH   2   3
ENDBRANCH   1   2
BRANCH   1  11
ATOM     11  C   UNL     1      12.089  -9.989  -5.962  1.00  0.00     0.000 C 
BRANCH  11  12
ATOM     12  C   UNL     1      11.707  -8.796  -5.070  1.00  0.00    -0.000 C 
BRANCH  12  13
ATOM     13  C   UNL     1      12.486  -8.778  -3.745  1.00  0.00    -0.000 C 
BRANCH  13  14
ATOM     14  C   UNL     1      13.655  -9.778  -3.735  1.00  0.00    -0.000 C 
BRANCH  14  15
ATOM     15  C   UNL     1      14.737  -9.411  -2.705  1.00  0.00    -0.000 C 
BRANCH  15  16
ATOM     16  C   UNL     1      14.707  -7.920  -2.320  1.00  0.00    -0.000 C 
BRANCH  16  17
ATOM     17  C   UNL     1      14.595  -7.709  -0.802  1.00  0.00    -0.003 C 
ATOM     18  C   UNL     1      13.543  -8.611  -0.157  1.00  0.00     0.004 C 
ENDBRANCH  16  17
ENDBRANCH  15  16
ENDBRANCH  14  15
ENDBRANCH  13  14
ENDBRANCH  12  13
ENDBRANCH  11  12
ENDBRANCH   1  11
TORSDOF 14
ENDMDL
MODEL 6
REMARK VINA RESULT:    -4.931      4.410      9.076
REMARK INTER + INTRA:          -9.848
REMARK INTER:                  -8.984
REMARK INTRA:                  -0.864
REMARK UNBOUND:                -0.882
REMARK SMILES CCCCCCCCCCCCCCCC(=O)[O-]
REMARK SMILES IDX 9 1 10 2 11 3 12 4 13 5 14 6 15 7 16 8 17 9 18 10 8 11 7 12
REMARK SMILES IDX 6 13 5 14 4 15 3 16 2 17 1 18
REMARK H PARENT
REMARK Flexibility Score: inf
ROOT
ATOM      1  C   UNL     1       4.192 -18.535   3.349  1.00  0.00     0.000 C 
ENDROOT
BRANCH   1   2
ATOM      2  C   UNL     1       3.808 -18.759   1.873  1.00  0.00     0.000 C 
BRANCH   2   3
ATOM      3  C   UNL     1       4.903 -18.395   0.851  1.00  0.00     0.000 C 
BRANCH   3   4
ATOM      4  C   UNL     1       4.415 -18.256  -0.606  1.00  0.00     0.000 C 
BRANCH   4   5
ATOM      5  C   UNL     1       3.046 -17.570  -0.769  1.00  0.00     0.000 C 
BRANCH   5   6
ATOM      6  C   UNL     1       2.375 -17.888  -2.116  1.00  0.00     0.006 C 
BRANCH   6   7
ATOM      7  C   UNL     1       3.042 -17.149  -3.283  1.00  0.00     0.053 C 
BRANCH   7   8
ATOM      8  C   UNL     1       3.610 -18.100  -4.292  1.00  0.00     0.041 C 
ATOM      9  O   UNL     1       3.136 -19.260  -4.404  1.00  0.00    -0.550 OA
ATOM     10  O   UNL     1       4.685 -17.715  -5.082  1.00  0.00    -0.550 OA
ENDBRANCH   7   8
ENDBRANCH   6   7
ENDBRANCH   5   6
ENDBRANCH   4   5
ENDBRANCH   3   4
ENDBRANCH   2   3
ENDBRANCH   1   2
BRANCH   1  11
ATOM     11  C   UNL     1       3.551 -17.301   4.010  1.00  0.00     0.000 C 
BRANCH  11  12
ATOM     12  C   UNL     1       4.142 -15.976   3.499  1.00  0.00    -0.000 C 
BRANCH  12  13
ATOM     13  C   UNL     1       5.663 -15.892   3.704  1.00  0.00    -0.000 C 
BRANCH  13  14
ATOM     14  C   UNL     1       6.067 -16.015   5.183  1.00  0.00    -0.000 C 
BRANCH  14  15
ATOM     15  C   UNL     1       7.572 -15.793   5.405  1.00  0.00    -0.000 C 
BRANCH  15  16
ATOM     16  C   UNL     1       7.895 -15.281   6.820  1.00  0.00    -0.000 C 
BRANCH  16  17
ATOM     17  C   UNL     1       8.720 -13.985   6.802  1.00  0.00    -0.003 C 
ATOM     18  C   UNL     1       7.852 -12.732   6.916  1.00  0.00     0.004 C 
ENDBRANCH  16  17
ENDBRANCH  15  16
ENDBRANCH  14  15
ENDBRANCH  13  14
ENDBRANCH  12  13
ENDBRANCH  11  12
ENDBRANCH   1  11
TORSDOF 14
ENDMDL
MODEL 7
REMARK VINA RESULT:    -4.921      2.796      5.265
REMARK INTER + INTRA:          -9.830
REMARK INTER:                  -8.693
REMARK INTRA:                  -1.136
REMARK UNBOUND:                -0.882
REMARK SMILES CCCCCCCCCCCCCCCC(=O)[O-]
REMARK SMILES IDX 9 1 10 2 11 3 12 4 13 5 14 6 15 7 16 8 17 9 18 10 8 11 7 12
REMARK SMILES IDX 6 13 5 14 4 15 3 16 2 17 1 18
REMARK H PARENT
REMARK Flexibility Score: inf
ROOT
ATOM      1  C   UNL     1       7.983 -15.359   6.906  1.00  0.00     0.000 C 
ENDROOT
BRANCH   1   2
ATOM      2  C   UNL     1       8.740 -14.021   7.038  1.00  0.00     0.000 C 
BRANCH   2   3
ATOM      3  C   UNL     1       8.135 -12.848   6.241  1.00  0.00     0.000 C 
BRANCH   3   4
ATOM      4  C   UNL     1       8.974 -12.378   5.035  1.00  0.00     0.000 C 
BRANCH   4   5
ATOM      5  C   UNL     1      10.441 -12.845   5.044  1.00  0.00     0.000 C 
BRANCH   5   6
ATOM      6  C   UNL     1      11.391 -11.844   4.364  1.00  0.00     0.006 C 
BRANCH   6   7
ATOM      7  C   UNL     1      11.791 -10.697   5.301  1.00  0.00     0.053 C 
BRANCH   7   8
ATOM      8  C   UNL     1      12.820  -9.804   4.679  1.00  0.00     0.041 C 
ATOM      9  O   UNL     1      13.980 -10.237   4.454  1.00  0.00    -0.550 OA
ATOM     10  O   UNL     1      12.508  -8.484   4.382  1.00  0.00    -0.550 OA
ENDBRANCH   7   8
ENDBRANCH   6   7
ENDBRANCH   5   6
ENDBRANCH   4   5
ENDBRANCH   3   4
ENDBRANCH   2   3
ENDBRANCH   1   2
BRANCH   1  11
ATOM     11  C   UNL     1       6.964 -15.420   5.754  1.00  0.00     0.000 C 
BRANCH  11  12
ATOM     12  C   UNL     1       7.508 -16.147   4.513  1.00  0.00    -0.000 C 
BRANCH  12  13
ATOM     13  C   UNL     1       6.409 -16.454   3.482  1.00  0.00    -0.000 C 
BRANCH  13  14
ATOM     14  C   UNL     1       5.032 -15.920   3.911  1.00  0.00    -0.000 C 
BRANCH  14  15
ATOM     15  C   UNL     1       4.010 -17.045   4.145  1.00  0.00    -0.000 C 
BRANCH  15  16
ATOM     16  C   UNL     1       4.512 -18.414   3.652  1.00  0.00    -0.000 C 
BRANCH  16  17
ATOM     17  C   UNL     1       3.678 -18.958   2.482  1.00  0.00    -0.003 C 
ATOM     18  C   UNL     1       4.192 -18.489   1.121  1.00  0.00     0.004 C 
ENDBRANCH  16  17
ENDBRANCH  15  16
ENDBRANCH  14  15
ENDBRANCH  13  14
ENDBRANCH  12  13
ENDBRANCH  11  12
ENDBRANCH   1  11
TORSDOF 14
ENDMDL
MODEL 8
REMARK VINA RESULT:    -4.894      1.351      2.774
REMARK INTER + INTRA:          -9.781
REMARK INTER:                  -8.906
REMARK INTRA:                  -0.875
REMARK UNBOUND:                -0.882
REMARK SMILES CCCCCCCCCCCCCCCC(=O)[O-]
REMARK SMILES IDX 9 1 10 2 11 3 12 4 13 5 14 6 15 7 16 8 17 9 18 10 8 11 7 12
REMARK SMILES IDX 6 13 5 14 4 15 3 16 2 17 1 18
REMARK H PARENT
REMARK Flexibility Score: inf
ROOT
ATOM      1  C   UNL     1       4.206 -18.773   1.517  1.00  0.00     0.000 C 
ENDROOT
BRANCH   1   2
ATOM      2  C   UNL     1       3.923 -18.574   3.019  1.00  0.00     0.000 C 
BRANCH   2   3
ATOM      3  C   UNL     1       3.424 -17.169   3.409  1.00  0.00     0.000 C 
BRANCH   3   4
ATOM      4  C   UNL     1       4.339 -16.398   4.381  1.00  0.00     0.000 C 
BRANCH   4   5
ATOM      5  C   UNL     1       5.814 -16.307   3.949  1.00  0.00     0.000 C 
BRANCH   5   6
ATOM      6  C   UNL     1       6.757 -15.952   5.111  1.00  0.00     0.006 C 
BRANCH   6   7
ATOM      7  C   UNL     1       7.472 -14.613   4.887  1.00  0.00     0.053 C 
BRANCH   7   8
ATOM      8  C   UNL     1       7.616 -13.840   6.162  1.00  0.00     0.041 C 
ATOM      9  O   UNL     1       8.153 -14.372   7.168  1.00  0.00    -0.550 OA
ATOM     10  O   UNL     1       7.123 -12.544   6.249  1.00  0.00    -0.550 OA
ENDBRANCH   7   8
ENDBRANCH   6   7
ENDBRANCH   5   6
ENDBRANCH   4   5
ENDBRANCH   3   4
ENDBRANCH   2   3
ENDBRANCH   1   2
BRANCH   1  11
ATOM     11  C   UNL     1       3.836 -17.578   0.620  1.00  0.00     0.000 C 
BRANCH  11  12
ATOM     12  C   UNL     1       3.670 -17.969  -0.858  1.00  0.00    -0.000 C 
BRANCH  12  13
ATOM     13  C   UNL     1       2.341 -17.475  -1.452  1.00  0.00    -0.000 C 
BRANCH  13  14
ATOM     14  C   UNL     1       2.111 -17.982  -2.886  1.00  0.00    -0.000 C 
BRANCH  14  15
ATOM     15  C   UNL     1       3.136 -19.050  -3.305  1.00  0.00    -0.000 C 
BRANCH  15  16
ATOM     16  C   UNL     1       3.851 -18.701  -4.623  1.00  0.00    -0.000 C 
BRANCH  16  17
ATOM     17  C   UNL     1       3.919 -17.186  -4.870  1.00  0.00    -0.003 C 
ATOM     18  C   UNL     1       5.341 -16.695  -5.136  1.00  0.00     0.004 C 
ENDBRANCH  16  17
ENDBRANCH  15  16
ENDBRANCH  14  15
ENDBRANCH  13  14
ENDBRANCH  12  13
ENDBRANCH  11  12
ENDBRANCH   1  11
TORSDOF 14
ENDMDL
MODEL 9
REMARK VINA RESULT:    -4.879      3.955      8.886
REMARK INTER + INTRA:          -9.755
REMARK INTER:                  -8.872
REMARK INTRA:                  -0.883
REMARK UNBOUND:                -0.882
REMARK SMILES CCCCCCCCCCCCCCCC(=O)[O-]
REMARK SMILES IDX 9 1 10 2 11 3 12 4 13 5 14 6 15 7 16 8 17 9 18 10 8 11 7 12
REMARK SMILES IDX 6 13 5 14 4 15 3 16 2 17 1 18
REMARK H PARENT
REMARK Flexibility Score: inf
ROOT
ATOM      1  C   UNL     1       3.837 -18.065   1.114  1.00  0.00     0.000 C 
ENDROOT
BRANCH   1   2
ATOM      2  C   UNL     1       4.928 -18.251   0.040  1.00  0.00     0.000 C 
BRANCH   2   3
ATOM      3  C   UNL     1       4.407 -18.627  -1.361  1.00  0.00     0.000 C 
BRANCH   3   4
ATOM      4  C   UNL     1       3.117 -17.901  -1.795  1.00  0.00     0.000 C 
BRANCH   4   5
ATOM      5  C   UNL     1       2.577 -18.309  -3.177  1.00  0.00     0.000 C 
BRANCH   5   6
ATOM      6  C   UNL     1       3.690 -18.505  -4.220  1.00  0.00     0.006 C 
BRANCH   6   7
ATOM      7  C   UNL     1       4.060 -17.193  -4.924  1.00  0.00     0.053 C 
BRANCH   7   8
ATOM      8  C   UNL     1       5.541 -16.968  -4.938  1.00  0.00     0.041 C 
ATOM      9  O   UNL     1       6.126 -16.673  -6.013  1.00  0.00    -0.550 OA
ATOM     10  O   UNL     1       6.279 -17.121  -3.772  1.00  0.00    -0.550 OA
ENDBRANCH   7   8
ENDBRANCH   6   7
ENDBRANCH   5   6
ENDBRANCH   4   5
ENDBRANCH   3   4
ENDBRANCH   2   3
ENDBRANCH   1   2
BRANCH   1  11
ATOM     11  C   UNL     1       3.842 -19.118   2.237  1.00  0.00     0.000 C 
BRANCH  11  12
ATOM     12  C   UNL     1       4.169 -18.519   3.615  1.00  0.00    -0.000 C 
BRANCH  12  13
ATOM     13  C   UNL     1       3.338 -17.262   3.923  1.00  0.00    -0.000 C 
BRANCH  13  14
ATOM     14  C   UNL     1       4.213 -16.057   4.308  1.00  0.00    -0.000 C 
BRANCH  14  15
ATOM     15  C   UNL     1       5.712 -16.402   4.340  1.00  0.00    -0.000 C 
BRANCH  15  16
ATOM     16  C   UNL     1       6.555 -15.321   5.040  1.00  0.00    -0.000 C 
BRANCH  16  17
ATOM     17  C   UNL     1       7.539 -15.913   6.060  1.00  0.00    -0.003 C 
ATOM     18  C   UNL     1       8.218 -14.844   6.915  1.00  0.00     0.004 C 
ENDBRANCH  16  17
ENDBRANCH  15  16
ENDBRANCH  14  15
ENDBRANCH  13  14
ENDBRANCH  12  13
ENDBRANCH  11  12
ENDBRANCH   1  11
TORSDOF 14
ENDMDL
