MODEL 1
REMARK VINA RESULT:    -3.436      0.000      0.000
REMARK INTER + INTRA:          -7.567
REMARK INTER:                  -6.248
REMARK INTRA:                  -1.319
REMARK UNBOUND:                -1.319
REMARK SMILES CCCCCCCCCCCCCCCC(=O)[O-]
REMARK SMILES IDX 9 1 10 2 11 3 12 4 13 5 14 6 15 7 16 8 17 9 18 10 8 11 7 12
REMARK SMILES IDX 6 13 5 14 4 15 3 16 2 17 1 18
REMARK H PARENT
REMARK Flexibility Score: inf
ROOT
ATOM      1  C   UNL     1       6.444  69.717  23.360  1.00  0.00     0.000 C 
ENDROOT
BRANCH   1   2
ATOM      2  C   UNL     1       7.571  68.933  24.069  1.00  0.00     0.000 C 
BRANCH   2   3
ATOM      3  C   UNL     1       7.784  67.519  23.503  1.00  0.00     0.000 C 
BRANCH   3   4
ATOM      4  C   UNL     1       7.457  67.427  22.003  1.00  0.00     0.000 C 
BRANCH   4   5
ATOM      5  C   UNL     1       6.405  66.351  21.693  1.00  0.00     0.000 C 
BRANCH   5   6
ATOM      6  C   UNL     1       6.395  65.946  20.208  1.00  0.00     0.006 C 
BRANCH   6   7
ATOM      7  C   UNL     1       7.801  65.618  19.688  1.00  0.00     0.053 C 
BRANCH   7   8
ATOM      8  C   UNL     1       7.793  65.319  18.221  1.00  0.00     0.041 C 
ATOM      9  O   UNL     1       8.594  65.908  17.448  1.00  0.00    -0.550 OA
ATOM     10  O   UNL     1       6.922  64.364  17.711  1.00  0.00    -0.550 OA
ENDBRANCH   7   8
ENDBRANCH   6   7
ENDBRANCH   5   6
ENDBRANCH   4   5
ENDBRANCH   3   4
ENDBRANCH   2   3
ENDBRANCH   1   2
BRANCH   1  11
ATOM     11  C   UNL     1       5.054  69.515  23.994  1.00  0.00     0.000 C 
BRANCH  11  12
ATOM     12  C   UNL     1       4.015  68.833  23.078  1.00  0.00    -0.000 C 
BRANCH  12  13
ATOM     13  C   UNL     1       4.038  69.279  21.601  1.00  0.00    -0.000 C 
BRANCH  13  14
ATOM     14  C   UNL     1       2.799  68.882  20.780  1.00  0.00    -0.000 C 
BRANCH  14  15
ATOM     15  C   UNL     1       2.135  70.080  20.084  1.00  0.00    -0.000 C 
BRANCH  15  16
ATOM     16  C   UNL     1       2.905  70.474  18.816  1.00  0.00    -0.000 C 
BRANCH  16  17
ATOM     17  C   UNL     1       3.400  71.929  18.853  1.00  0.00    -0.003 C 
ATOM     18  C   UNL     1       2.261  72.943  18.739  1.00  0.00     0.004 C 
ENDBRANCH  16  17
ENDBRANCH  15  16
ENDBRANCH  14  15
ENDBRANCH  13  14
ENDBRANCH  12  13
ENDBRANCH  11  12
ENDBRANCH   1  11
TORSDOF 14
ENDMDL
MODEL 2
REMARK VINA RESULT:    -3.402      8.969     11.127
REMARK INTER + INTRA:          -7.505
REMARK INTER:                  -5.410
REMARK INTRA:                  -2.095
REMARK UNBOUND:                -1.319
REMARK SMILES CCCCCCCCCCCCCCCC(=O)[O-]
REMARK SMILES IDX 9 1 10 2 11 3 12 4 13 5 14 6 15 7 16 8 17 9 18 10 8 11 7 12
REMARK SMILES IDX 6 13 5 14 4 15 3 16 2 17 1 18
REMARK H PARENT
REMARK Flexibility Score: inf
ROOT
ATOM      1  C   UNL     1       3.078  66.505  12.680  1.00  0.00     0.000 C 
ENDROOT
BRANCH   1   2
ATOM      2  C   UNL     1       2.804  65.946  11.265  1.00  0.00     0.000 C 
BRANCH   2   3
ATOM      3  C   UNL     1       2.803  67.025  10.170  1.00  0.00     0.000 C 
BRANCH   3   4
ATOM      4  C   UNL     1       1.631  66.869   9.186  1.00  0.00     0.000 C 
BRANCH   4   5
ATOM      5  C   UNL     1       0.910  65.521   9.338  1.00  0.00     0.000 C 
BRANCH   5   6
ATOM      6  C   UNL     1       0.725  64.796   7.992  1.00  0.00     0.006 C 
BRANCH   6   7
ATOM      7  C   UNL     1       1.363  63.401   7.995  1.00  0.00     0.053 C 
BRANCH   7   8
ATOM      8  C   UNL     1       2.808  63.453   8.385  1.00  0.00     0.041 C 
ATOM      9  O   UNL     1       3.243  62.721   9.313  1.00  0.00    -0.550 OA
ATOM     10  O   UNL     1       3.682  64.287   7.699  1.00  0.00    -0.550 OA
ENDBRANCH   7   8
ENDBRANCH   6   7
ENDBRANCH   5   6
ENDBRANCH   4   5
ENDBRANCH   3   4
ENDBRANCH   2   3
ENDBRANCH   1   2
BRANCH   1  11
ATOM     11  C   UNL     1       3.670  65.466  13.653  1.00  0.00     0.000 C 
BRANCH  11  12
ATOM     12  C   UNL     1       2.945  64.103  13.668  1.00  0.00    -0.000 C 
BRANCH  12  13
ATOM     13  C   UNL     1       1.924  63.907  14.808  1.00  0.00    -0.000 C 
BRANCH  13  14
ATOM     14  C   UNL     1       0.563  64.592  14.590  1.00  0.00    -0.000 C 
BRANCH  14  15
ATOM     15  C   UNL     1       0.355  65.810  15.502  1.00  0.00    -0.000 C 
BRANCH  15  16
ATOM     16  C   UNL     1       0.048  67.067  14.676  1.00  0.00    -0.000 C 
BRANCH  16  17
ATOM     17  C   UNL     1      -0.565  66.739  13.306  1.00  0.00    -0.003 C 
ATOM     18  C   UNL     1      -0.345  67.850  12.278  1.00  0.00     0.004 C 
ENDBRANCH  16  17
ENDBRANCH  15  16
ENDBRANCH  14  15
ENDBRANCH  13  14
ENDBRANCH  12  13
ENDBRANCH  11  12
ENDBRANCH   1  11
TORSDOF 14
ENDMDL
MODEL 3
REMARK VINA RESULT:    -3.383      5.290      7.026
REMARK INTER + INTRA:          -7.470
REMARK INTER:                  -4.762
REMARK INTRA:                  -2.708
REMARK UNBOUND:                -1.319
REMARK SMILES CCCCCCCCCCCCCCCC(=O)[O-]
REMARK SMILES IDX 9 1 10 2 11 3 12 4 13 5 14 6 15 7 16 8 17 9 18 10 8 11 7 12
REMARK SMILES IDX 6 13 5 14 4 15 3 16 2 17 1 18
REMARK H PARENT
REMARK Flexibility Score: inf
ROOT
ATOM      1  C   UNL     1       2.256  64.827  18.357  1.00  0.00     0.000 C 
ENDROOT
BRANCH   1   2
ATOM      2  C   UNL     1       2.665  66.052  17.507  1.00  0.00     0.000 C 
BRANCH   2   3
ATOM      3  C   UNL     1       4.182  66.302  17.484  1.00  0.00     0.000 C 
BRANCH   3   4
ATOM      4  C   UNL     1       4.742  66.409  16.056  1.00  0.00     0.000 C 
BRANCH   4   5
ATOM      5  C   UNL     1       6.014  65.570  15.857  1.00  0.00     0.000 C 
BRANCH   5   6
ATOM      6  C   UNL     1       6.596  65.056  17.186  1.00  0.00     0.006 C 
BRANCH   6   7
ATOM      7  C   UNL     1       7.017  63.583  17.102  1.00  0.00     0.053 C 
BRANCH   7   8
ATOM      8  C   UNL     1       8.507  63.430  17.150  1.00  0.00     0.041 C 
ATOM      9  O   UNL     1       9.244  64.438  17.309  1.00  0.00    -0.550 OA
ATOM     10  O   UNL     1       9.079  62.168  17.052  1.00  0.00    -0.550 OA
ENDBRANCH   7   8
ENDBRANCH   6   7
ENDBRANCH   5   6
ENDBRANCH   4   5
ENDBRANCH   3   4
ENDBRANCH   2   3
ENDBRANCH   1   2
BRANCH   1  11
ATOM     11  C   UNL     1       3.260  63.660  18.286  1.00  0.00     0.000 C 
BRANCH  11  12
ATOM     12  C   UNL     1       2.806  62.464  17.423  1.00  0.00    -0.000 C 
BRANCH  12  13
ATOM     13  C   UNL     1       3.703  62.141  16.210  1.00  0.00    -0.000 C 
BRANCH  13  14
ATOM     14  C   UNL     1       3.506  63.058  14.990  1.00  0.00    -0.000 C 
BRANCH  14  15
ATOM     15  C   UNL     1       2.031  63.391  14.725  1.00  0.00    -0.000 C 
BRANCH  15  16
ATOM     16  C   UNL     1       1.881  64.809  14.155  1.00  0.00    -0.000 C 
BRANCH  16  17
ATOM     17  C   UNL     1       2.907  65.112  13.051  1.00  0.00    -0.003 C 
ATOM     18  C   UNL     1       2.953  66.595  12.679  1.00  0.00     0.004 C 
ENDBRANCH  16  17
ENDBRANCH  15  16
ENDBRANCH  14  15
ENDBRANCH  13  14
ENDBRANCH  12  13
ENDBRANCH  11  12
ENDBRANCH   1  11
TORSDOF 14
ENDMDL
MODEL 4
REMARK VINA RESULT:    -3.343      5.842      8.676
REMARK INTER + INTRA:          -7.398
REMARK INTER:                  -5.332
REMARK INTRA:                  -2.066
REMARK UNBOUND:                -1.319
REMARK SMILES CCCCCCCCCCCCCCCC(=O)[O-]
REMARK SMILES IDX 9 1 10 2 11 3 12 4 13 5 14 6 15 7 16 8 17 9 18 10 8 11 7 12
REMARK SMILES IDX 6 13 5 14 4 15 3 16 2 17 1 18
REMARK H PARENT
REMARK Flexibility Score: inf
ROOT
ATOM      1  C   UNL     1       2.053  66.096  17.287  1.00  0.00     0.000 C 
ENDROOT
BRANCH   1   2
ATOM      2  C   UNL     1       1.044  66.596  16.229  1.00  0.00     0.000 C 
BRANCH   2   3
ATOM      3  C   UNL     1       1.460  67.918  15.562  1.00  0.00     0.000 C 
BRANCH   3   4
ATOM      4  C   UNL     1       2.848  68.399  16.017  1.00  0.00     0.000 C 
BRANCH   4   5
ATOM      5  C   UNL     1       2.892  69.913  16.276  1.00  0.00     0.000 C 
BRANCH   5   6
ATOM      6  C   UNL     1       2.901  70.256  17.776  1.00  0.00     0.006 C 
BRANCH   6   7
ATOM      7  C   UNL     1       1.610  70.958  18.217  1.00  0.00     0.053 C 
BRANCH   7   8
ATOM      8  C   UNL     1       1.891  72.282  18.859  1.00  0.00     0.041 C 
ATOM      9  O   UNL     1       1.069  72.780  19.673  1.00  0.00    -0.550 OA
ATOM     10  O   UNL     1       3.077  72.950  18.583  1.00  0.00    -0.550 OA
ENDBRANCH   7   8
ENDBRANCH   6   7
ENDBRANCH   5   6
ENDBRANCH   4   5
ENDBRANCH   3   4
ENDBRANCH   2   3
ENDBRANCH   1   2
BRANCH   1  11
ATOM     11  C   UNL     1       2.141  64.560  17.383  1.00  0.00     0.000 C 
BRANCH  11  12
ATOM     12  C   UNL     1       1.363  63.796  16.290  1.00  0.00    -0.000 C 
BRANCH  12  13
ATOM     13  C   UNL     1       2.136  62.651  15.604  1.00  0.00    -0.000 C 
BRANCH  13  14
ATOM     14  C   UNL     1       3.316  63.095  14.722  1.00  0.00    -0.000 C 
BRANCH  14  15
ATOM     15  C   UNL     1       2.902  64.088  13.626  1.00  0.00    -0.000 C 
BRANCH  15  16
ATOM     16  C   UNL     1       3.665  65.412  13.768  1.00  0.00    -0.000 C 
BRANCH  16  17
ATOM     17  C   UNL     1       4.814  65.326  14.784  1.00  0.00    -0.003 C 
ATOM     18  C   UNL     1       5.835  66.452  14.618  1.00  0.00     0.004 C 
ENDBRANCH  16  17
ENDBRANCH  15  16
ENDBRANCH  14  15
ENDBRANCH  13  14
ENDBRANCH  12  13
ENDBRANCH  11  12
ENDBRANCH   1  11
TORSDOF 14
ENDMDL
MODEL 5
REMARK VINA RESULT:    -3.272      8.524     10.448
REMARK INTER + INTRA:          -7.268
REMARK INTER:                  -5.018
REMARK INTRA:                  -2.250
REMARK UNBOUND:                -1.319
REMARK SMILES CCCCCCCCCCCCCCCC(=O)[O-]
REMARK SMILES IDX 9 1 10 2 11 3 12 4 13 5 14 6 15 7 16 8 17 9 18 10 8 11 7 12
REMARK SMILES IDX 6 13 5 14 4 15 3 16 2 17 1 18
REMARK H PARENT
REMARK Flexibility Score: inf
ROOT
ATOM      1  C   UNL     1       3.293  65.925  14.481  1.00  0.00     0.000 C 
ENDROOT
BRANCH   1   2
ATOM      2  C   UNL     1       3.367  66.122  12.949  1.00  0.00     0.000 C 
BRANCH   2   3
ATOM      3  C   UNL     1       2.563  65.078  12.158  1.00  0.00     0.000 C 
BRANCH   3   4
ATOM      4  C   UNL     1       1.700  65.708  11.052  1.00  0.00     0.000 C 
BRANCH   4   5
ATOM      5  C   UNL     1       2.533  66.175   9.848  1.00  0.00     0.000 C 
BRANCH   5   6
ATOM      6  C   UNL     1       2.229  65.371   8.572  1.00  0.00     0.006 C 
BRANCH   6   7
ATOM      7  C   UNL     1       3.121  64.129   8.445  1.00  0.00     0.053 C 
BRANCH   7   8
ATOM      8  C   UNL     1       2.317  62.865   8.462  1.00  0.00     0.041 C 
ATOM      9  O   UNL     1       2.680  61.890   9.172  1.00  0.00    -0.550 OA
ATOM     10  O   UNL     1       1.148  62.776   7.717  1.00  0.00    -0.550 OA
ENDBRANCH   7   8
ENDBRANCH   6   7
ENDBRANCH   5   6
ENDBRANCH   4   5
ENDBRANCH   3   4
ENDBRANCH   2   3
ENDBRANCH   1   2
BRANCH   1  11
ATOM     11  C   UNL     1       2.219  64.913  14.924  1.00  0.00     0.000 C 
BRANCH  11  12
ATOM     12  C   UNL     1       0.870  65.537  15.339  1.00  0.00    -0.000 C 
BRANCH  12  13
ATOM     13  C   UNL     1      -0.273  65.391  14.313  1.00  0.00    -0.000 C 
BRANCH  13  14
ATOM     14  C   UNL     1      -0.795  66.713  13.724  1.00  0.00    -0.000 C 
BRANCH  14  15
ATOM     15  C   UNL     1       0.107  67.911  14.054  1.00  0.00    -0.000 C 
BRANCH  15  16
ATOM     16  C   UNL     1       0.363  68.766  12.805  1.00  0.00    -0.000 C 
BRANCH  16  17
ATOM     17  C   UNL     1       1.781  69.358  12.774  1.00  0.00    -0.003 C 
ATOM     18  C   UNL     1       2.304  69.563  11.352  1.00  0.00     0.004 C 
ENDBRANCH  16  17
ENDBRANCH  15  16
ENDBRANCH  14  15
ENDBRANCH  13  14
ENDBRANCH  12  13
ENDBRANCH  11  12
ENDBRANCH   1  11
TORSDOF 14
ENDMDL
MODEL 6
REMARK VINA RESULT:    -3.267      6.539      9.392
REMARK INTER + INTRA:          -7.260
REMARK INTER:                  -4.884
REMARK INTRA:                  -2.376
REMARK UNBOUND:                -1.319
REMARK SMILES CCCCCCCCCCCCCCCC(=O)[O-]
REMARK SMILES IDX 9 1 10 2 11 3 12 4 13 5 14 6 15 7 16 8 17 9 18 10 8 11 7 12
REMARK SMILES IDX 6 13 5 14 4 15 3 16 2 17 1 18
REMARK H PARENT
REMARK Flexibility Score: inf
ROOT
ATOM      1  C   UNL     1       3.806  66.332  13.587  1.00  0.00     0.000 C 
ENDROOT
BRANCH   1   2
ATOM      2  C   UNL     1       2.467  66.160  12.834  1.00  0.00     0.000 C 
BRANCH   2   3
ATOM      3  C   UNL     1       1.261  66.745  13.587  1.00  0.00     0.000 C 
BRANCH   3   4
ATOM      4  C   UNL     1       0.799  68.093  13.009  1.00  0.00     0.000 C 
BRANCH   4   5
ATOM      5  C   UNL     1       1.086  69.270  13.954  1.00  0.00     0.000 C 
BRANCH   5   6
ATOM      6  C   UNL     1       1.462  68.808  15.374  1.00  0.00     0.006 C 
BRANCH   6   7
ATOM      7  C   UNL     1       2.609  69.637  15.966  1.00  0.00     0.053 C 
BRANCH   7   8
ATOM      8  C   UNL     1       2.154  70.455  17.136  1.00  0.00     0.041 C 
ATOM      9  O   UNL     1       1.076  70.177  17.725  1.00  0.00    -0.550 OA
ATOM     10  O   UNL     1       2.939  71.505  17.596  1.00  0.00    -0.550 OA
ENDBRANCH   7   8
ENDBRANCH   6   7
ENDBRANCH   5   6
ENDBRANCH   4   5
ENDBRANCH   3   4
ENDBRANCH   2   3
ENDBRANCH   1   2
BRANCH   1  11
ATOM     11  C   UNL     1       4.615  67.564  13.138  1.00  0.00     0.000 C 
BRANCH  11  12
ATOM     12  C   UNL     1       4.235  68.121  11.750  1.00  0.00    -0.000 C 
BRANCH  12  13
ATOM     13  C   UNL     1       4.244  69.659  11.626  1.00  0.00    -0.000 C 
BRANCH  13  14
ATOM     14  C   UNL     1       4.632  70.415  12.909  1.00  0.00    -0.000 C 
BRANCH  14  15
ATOM     15  C   UNL     1       3.771  71.664  13.149  1.00  0.00    -0.000 C 
BRANCH  15  16
ATOM     16  C   UNL     1       2.818  71.909  11.969  1.00  0.00    -0.000 C 
BRANCH  16  17
ATOM     17  C   UNL     1       2.799  73.378  11.521  1.00  0.00    -0.003 C 
ATOM     18  C   UNL     1       4.201  73.960  11.343  1.00  0.00     0.004 C 
ENDBRANCH  16  17
ENDBRANCH  15  16
ENDBRANCH  14  15
ENDBRANCH  13  14
ENDBRANCH  12  13
ENDBRANCH  11  12
ENDBRANCH   1  11
TORSDOF 14
ENDMDL
MODEL 7
REMARK VINA RESULT:    -3.256      8.291     10.744
REMARK INTER + INTRA:          -7.239
REMARK INTER:                  -5.476
REMARK INTRA:                  -1.763
REMARK UNBOUND:                -1.319
REMARK SMILES CCCCCCCCCCCCCCCC(=O)[O-]
REMARK SMILES IDX 9 1 10 2 11 3 12 4 13 5 14 6 15 7 16 8 17 9 18 10 8 11 7 12
REMARK SMILES IDX 6 13 5 14 4 15 3 16 2 17 1 18
REMARK H PARENT
REMARK Flexibility Score: inf
ROOT
ATOM      1  C   UNL     1       3.569  67.802  13.113  1.00  0.00     0.000 C 
ENDROOT
BRANCH   1   2
ATOM      2  C   UNL     1       2.204  68.134  12.468  1.00  0.00     0.000 C 
BRANCH   2   3
ATOM      3  C   UNL     1       2.076  67.641  11.017  1.00  0.00     0.000 C 
BRANCH   3   4
ATOM      4  C   UNL     1       1.440  66.244  10.921  1.00  0.00     0.000 C 
BRANCH   4   5
ATOM      5  C   UNL     1       2.413  65.191  10.368  1.00  0.00     0.000 C 
BRANCH   5   6
ATOM      6  C   UNL     1       2.517  65.231   8.833  1.00  0.00     0.006 C 
BRANCH   6   7
ATOM      7  C   UNL     1       3.181  63.970   8.265  1.00  0.00     0.053 C 
BRANCH   7   8
ATOM      8  C   UNL     1       2.287  62.773   8.381  1.00  0.00     0.041 C 
ATOM      9  O   UNL     1       2.625  61.795   9.099  1.00  0.00    -0.550 OA
ATOM     10  O   UNL     1       1.064  62.753   7.722  1.00  0.00    -0.550 OA
ENDBRANCH   7   8
ENDBRANCH   6   7
ENDBRANCH   5   6
ENDBRANCH   4   5
ENDBRANCH   3   4
ENDBRANCH   2   3
ENDBRANCH   1   2
BRANCH   1  11
ATOM     11  C   UNL     1       3.481  66.767  14.252  1.00  0.00     0.000 C 
BRANCH  11  12
ATOM     12  C   UNL     1       4.249  65.453  13.997  1.00  0.00    -0.000 C 
BRANCH  12  13
ATOM     13  C   UNL     1       3.378  64.185  13.890  1.00  0.00    -0.000 C 
BRANCH  13  14
ATOM     14  C   UNL     1       1.869  64.409  14.099  1.00  0.00    -0.000 C 
BRANCH  14  15
ATOM     15  C   UNL     1       1.316  63.652  15.315  1.00  0.00    -0.000 C 
BRANCH  15  16
ATOM     16  C   UNL     1       2.453  63.026  16.136  1.00  0.00    -0.000 C 
BRANCH  16  17
ATOM     17  C   UNL     1       2.667  63.734  17.483  1.00  0.00    -0.003 C 
ATOM     18  C   UNL     1       1.977  65.096  17.551  1.00  0.00     0.004 C 
ENDBRANCH  16  17
ENDBRANCH  15  16
ENDBRANCH  14  15
ENDBRANCH  13  14
ENDBRANCH  12  13
ENDBRANCH  11  12
ENDBRANCH   1  11
TORSDOF 14
ENDMDL
MODEL 8
REMARK VINA RESULT:    -3.239      6.612     10.049
REMARK INTER + INTRA:          -7.209
REMARK INTER:                  -5.114
REMARK INTRA:                  -2.095
REMARK UNBOUND:                -1.319
REMARK SMILES CCCCCCCCCCCCCCCC(=O)[O-]
REMARK SMILES IDX 9 1 10 2 11 3 12 4 13 5 14 6 15 7 16 8 17 9 18 10 8 11 7 12
REMARK SMILES IDX 6 13 5 14 4 15 3 16 2 17 1 18
REMARK H PARENT
REMARK Flexibility Score: inf
ROOT
ATOM      1  C   UNL     1       0.755  71.135  12.563  1.00  0.00     0.000 C 
ENDROOT
BRANCH   1   2
ATOM      2  C   UNL     1       0.826  69.629  12.904  1.00  0.00     0.000 C 
BRANCH   2   3
ATOM      3  C   UNL     1       1.541  69.335  14.233  1.00  0.00     0.000 C 
BRANCH   3   4
ATOM      4  C   UNL     1       2.584  70.405  14.594  1.00  0.00     0.000 C 
BRANCH   4   5
ATOM      5  C   UNL     1       2.656  70.673  16.105  1.00  0.00     0.000 C 
BRANCH   5   6
ATOM      6  C   UNL     1       1.625  69.852  16.900  1.00  0.00     0.006 C 
BRANCH   6   7
ATOM      7  C   UNL     1       1.962  69.792  18.395  1.00  0.00     0.053 C 
BRANCH   7   8
ATOM      8  C   UNL     1       2.226  71.155  18.958  1.00  0.00     0.041 C 
ATOM      9  O   UNL     1       1.270  71.933  19.216  1.00  0.00    -0.550 OA
ATOM     10  O   UNL     1       3.529  71.554  19.230  1.00  0.00    -0.550 OA
ENDBRANCH   7   8
ENDBRANCH   6   7
ENDBRANCH   5   6
ENDBRANCH   4   5
ENDBRANCH   3   4
ENDBRANCH   2   3
ENDBRANCH   1   2
BRANCH   1  11
ATOM     11  C   UNL     1       0.744  71.429  11.050  1.00  0.00     0.000 C 
BRANCH  11  12
ATOM     12  C   UNL     1       1.677  72.575  10.605  1.00  0.00    -0.000 C 
BRANCH  12  13
ATOM     13  C   UNL     1       2.582  73.161  11.708  1.00  0.00    -0.000 C 
BRANCH  13  14
ATOM     14  C   UNL     1       4.074  73.259  11.345  1.00  0.00    -0.000 C 
BRANCH  14  15
ATOM     15  C   UNL     1       4.636  71.951  10.768  1.00  0.00    -0.000 C 
BRANCH  15  16
ATOM     16  C   UNL     1       4.809  70.896  11.870  1.00  0.00    -0.000 C 
BRANCH  16  17
ATOM     17  C   UNL     1       4.343  69.499  11.428  1.00  0.00    -0.003 C 
ATOM     18  C   UNL     1       3.738  69.495  10.024  1.00  0.00     0.004 C 
ENDBRANCH  16  17
ENDBRANCH  15  16
ENDBRANCH  14  15
ENDBRANCH  13  14
ENDBRANCH  12  13
ENDBRANCH  11  12
ENDBRANCH   1  11
TORSDOF 14
ENDMDL
MODEL 9
REMARK VINA RESULT:    -3.211     12.339     14.955
REMARK INTER + INTRA:          -7.157
REMARK INTER:                  -5.152
REMARK INTRA:                  -2.005
REMARK UNBOUND:                -1.319
REMARK SMILES CCCCCCCCCCCCCCCC(=O)[O-]
REMARK SMILES IDX 9 1 10 2 11 3 12 4 13 5 14 6 15 7 16 8 17 9 18 10 8 11 7 12
REMARK SMILES IDX 6 13 5 14 4 15 3 16 2 17 1 18
REMARK H PARENT
REMARK Flexibility Score: inf
ROOT
ATOM      1  C   UNL     1       2.944  66.618   5.615  1.00  0.00     0.000 C 
ENDROOT
BRANCH   1   2
ATOM      2  C   UNL     1       4.423  66.236   5.851  1.00  0.00     0.000 C 
BRANCH   2   3
ATOM      3  C   UNL     1       5.341  66.579   4.666  1.00  0.00     0.000 C 
BRANCH   3   4
ATOM      4  C   UNL     1       6.308  67.732   4.982  1.00  0.00     0.000 C 
BRANCH   4   5
ATOM      5  C   UNL     1       5.817  69.081   4.433  1.00  0.00     0.000 C 
BRANCH   5   6
ATOM      6  C   UNL     1       5.832  70.191   5.499  1.00  0.00     0.006 C 
BRANCH   6   7
ATOM      7  C   UNL     1       6.371  69.693   6.846  1.00  0.00     0.053 C 
BRANCH   7   8
ATOM      8  C   UNL     1       7.701  70.302   7.170  1.00  0.00     0.041 C 
ATOM      9  O   UNL     1       8.261  70.057   8.271  1.00  0.00    -0.550 OA
ATOM     10  O   UNL     1       8.338  71.115   6.240  1.00  0.00    -0.550 OA
ENDBRANCH   7   8
ENDBRANCH   6   7
ENDBRANCH   5   6
ENDBRANCH   4   5
ENDBRANCH   3   4
ENDBRANCH   2   3
ENDBRANCH   1   2
BRANCH   1  11
ATOM     11  C   UNL     1       2.513  67.906   6.344  1.00  0.00     0.000 C 
BRANCH  11  12
ATOM     12  C   UNL     1       3.167  68.121   7.726  1.00  0.00    -0.000 C 
BRANCH  12  13
ATOM     13  C   UNL     1       2.220  67.983   8.936  1.00  0.00    -0.000 C 
BRANCH  13  14
ATOM     14  C   UNL     1       1.580  66.595   9.110  1.00  0.00    -0.000 C 
BRANCH  14  15
ATOM     15  C   UNL     1       2.502  65.598   9.827  1.00  0.00    -0.000 C 
BRANCH  15  16
ATOM     16  C   UNL     1       2.543  64.255   9.083  1.00  0.00    -0.000 C 
BRANCH  16  17
ATOM     17  C   UNL     1       1.547  64.197   7.914  1.00  0.00    -0.003 C 
ATOM     18  C   UNL     1       1.034  62.781   7.646  1.00  0.00     0.004 C 
ENDBRANCH  16  17
ENDBRANCH  15  16
ENDBRANCH  14  15
ENDBRANCH  13  14
ENDBRANCH  12  13
ENDBRANCH  11  12
ENDBRANCH   1  11
TORSDOF 14
ENDMDL
