MODEL 1
REMARK VINA RESULT:    -4.667      0.000      0.000
REMARK INTER + INTRA:         -16.087
REMARK INTER:                 -11.761
REMARK INTRA:                  -4.327
REMARK UNBOUND:                -4.327
REMARK SMILES CCCCCCCCCCCCCCCCCCCCCCCCCCCC(=O)[O-]
REMARK SMILES IDX 15 1 16 2 17 3 18 4 19 5 20 6 21 7 22 8 23 9 24 10 25 11
REMARK SMILES IDX 26 12 27 13 28 14 29 15 30 16 14 17 13 18 12 19 11 20 10 21
REMARK SMILES IDX 9 22 8 23 7 24 6 25 5 26 4 27 3 28 2 29 1 30
REMARK H PARENT
REMARK Flexibility Score: inf
ROOT
ATOM      1  C   UNL     1     -46.721   8.889 -30.747  1.00  0.00     0.000 C 
ENDROOT
BRANCH   1   2
ATOM      2  C   UNL     1     -48.102   9.468 -30.373  1.00  0.00     0.000 C 
BRANCH   2   3
ATOM      3  C   UNL     1     -48.114  10.250 -29.045  1.00  0.00     0.000 C 
BRANCH   3   4
ATOM      4  C   UNL     1     -49.085  11.451 -29.033  1.00  0.00     0.000 C 
BRANCH   4   5
ATOM      5  C   UNL     1     -48.768  12.541 -30.077  1.00  0.00     0.000 C 
BRANCH   5   6
ATOM      6  C   UNL     1     -49.978  13.077 -30.874  1.00  0.00     0.000 C 
BRANCH   6   7
ATOM      7  C   UNL     1     -51.005  13.887 -30.061  1.00  0.00     0.000 C 
BRANCH   7   8
ATOM      8  C   UNL     1     -52.462  13.530 -30.409  1.00  0.00     0.000 C 
BRANCH   8   9
ATOM      9  C   UNL     1     -53.410  13.704 -29.212  1.00  0.00     0.000 C 
BRANCH   9  10
ATOM     10  C   UNL     1     -52.837  14.642 -28.134  1.00  0.00     0.000 C 
BRANCH  10  11
ATOM     11  C   UNL     1     -53.777  15.814 -27.798  1.00  0.00     0.000 C 
BRANCH  11  12
ATOM     12  C   UNL     1     -53.275  17.206 -28.233  1.00  0.00     0.006 C 
BRANCH  12  13
ATOM     13  C   UNL     1     -51.886  17.207 -28.887  1.00  0.00     0.053 C 
BRANCH  13  14
ATOM     14  C   UNL     1     -51.960  17.491 -30.355  1.00  0.00     0.041 C 
ATOM     15  O   UNL     1     -52.858  16.958 -31.059  1.00  0.00    -0.550 OA
ATOM     16  O   UNL     1     -51.017  18.317 -30.952  1.00  0.00    -0.550 OA
ENDBRANCH  13  14
ENDBRANCH  12  13
ENDBRANCH  11  12
ENDBRANCH  10  11
ENDBRANCH   9  10
ENDBRANCH   8   9
ENDBRANCH   7   8
ENDBRANCH   6   7
ENDBRANCH   5   6
ENDBRANCH   4   5
ENDBRANCH   3   4
ENDBRANCH   2   3
ENDBRANCH   1   2
BRANCH   1  17
ATOM     17  C   UNL     1     -46.378   7.580 -30.012  1.00  0.00     0.000 C 
BRANCH  17  18
ATOM     18  C   UNL     1     -47.546   6.579 -30.025  1.00  0.00     0.000 C 
BRANCH  18  19
ATOM     19  C   UNL     1     -47.778   5.961 -31.417  1.00  0.00     0.000 C 
BRANCH  19  20
ATOM     20  C   UNL     1     -49.162   6.253 -32.034  1.00  0.00     0.000 C 
BRANCH  20  21
ATOM     21  C   UNL     1     -49.151   7.192 -33.257  1.00  0.00     0.000 C 
BRANCH  21  22
ATOM     22  C   UNL     1     -50.326   6.998 -34.234  1.00  0.00    -0.000 C 
BRANCH  22  23
ATOM     23  C   UNL     1     -51.432   6.097 -33.658  1.00  0.00    -0.000 C 
BRANCH  23  24
ATOM     24  C   UNL     1     -52.841   6.581 -34.033  1.00  0.00    -0.000 C 
BRANCH  24  25
ATOM     25  C   UNL     1     -53.661   7.017 -32.805  1.00  0.00    -0.000 C 
BRANCH  25  26
ATOM     26  C   UNL     1     -53.104   6.427 -31.492  1.00  0.00    -0.000 C 
BRANCH  26  27
ATOM     27  C   UNL     1     -52.564   7.494 -30.524  1.00  0.00    -0.000 C 
BRANCH  27  28
ATOM     28  C   UNL     1     -52.857   8.929 -30.993  1.00  0.00    -0.000 C 
BRANCH  28  29
ATOM     29  C   UNL     1     -51.576   9.734 -31.258  1.00  0.00    -0.003 C 
ATOM     30  C   UNL     1     -51.429  10.143 -32.723  1.00  0.00     0.004 C 
ENDBRANCH  28  29
ENDBRANCH  27  28
ENDBRANCH  26  27
ENDBRANCH  25  26
ENDBRANCH  24  25
ENDBRANCH  23  24
ENDBRANCH  22  23
ENDBRANCH  21  22
ENDBRANCH  20  21
ENDBRANCH  19  20
ENDBRANCH  18  19
ENDBRANCH  17  18
ENDBRANCH   1  17
TORSDOF 26
ENDMDL
MODEL 2
REMARK VINA RESULT:    -4.660      1.617      2.450
REMARK INTER + INTRA:         -16.069
REMARK INTER:                 -11.962
REMARK INTRA:                  -4.107
REMARK UNBOUND:                -4.327
REMARK SMILES CCCCCCCCCCCCCCCCCCCCCCCCCCCC(=O)[O-]
REMARK SMILES IDX 15 1 16 2 17 3 18 4 19 5 20 6 21 7 22 8 23 9 24 10 25 11
REMARK SMILES IDX 26 12 27 13 28 14 29 15 30 16 14 17 13 18 12 19 11 20 10 21
REMARK SMILES IDX 9 22 8 23 7 24 6 25 5 26 4 27 3 28 2 29 1 30
REMARK H PARENT
REMARK Flexibility Score: inf
ROOT
ATOM      1  C   UNL     1     -48.014   8.684 -30.450  1.00  0.00     0.000 C 
ENDROOT
BRANCH   1   2
ATOM      2  C   UNL     1     -47.816   9.645 -29.258  1.00  0.00     0.000 C 
BRANCH   2   3
ATOM      3  C   UNL     1     -48.951  10.673 -29.088  1.00  0.00     0.000 C 
BRANCH   3   4
ATOM      4  C   UNL     1     -48.585  12.097 -29.561  1.00  0.00     0.000 C 
BRANCH   4   5
ATOM      5  C   UNL     1     -49.797  12.990 -29.898  1.00  0.00     0.000 C 
BRANCH   5   6
ATOM      6  C   UNL     1     -49.906  13.441 -31.372  1.00  0.00     0.000 C 
BRANCH   6   7
ATOM      7  C   UNL     1     -51.169  14.245 -31.732  1.00  0.00     0.000 C 
BRANCH   7   8
ATOM      8  C   UNL     1     -50.861  15.701 -32.125  1.00  0.00     0.000 C 
BRANCH   8   9
ATOM      9  C   UNL     1     -50.384  16.543 -30.931  1.00  0.00     0.000 C 
BRANCH   9  10
ATOM     10  C   UNL     1     -51.148  17.873 -30.802  1.00  0.00     0.000 C 
BRANCH  10  11
ATOM     11  C   UNL     1     -52.676  17.684 -30.759  1.00  0.00     0.000 C 
BRANCH  11  12
ATOM     12  C   UNL     1     -53.250  17.265 -29.391  1.00  0.00     0.006 C 
BRANCH  12  13
ATOM     13  C   UNL     1     -53.817  15.838 -29.347  1.00  0.00     0.053 C 
BRANCH  13  14
ATOM     14  C   UNL     1     -53.071  14.970 -28.382  1.00  0.00     0.041 C 
ATOM     15  O   UNL     1     -52.434  15.487 -27.426  1.00  0.00    -0.550 OA
ATOM     16  O   UNL     1     -53.051  13.592 -28.557  1.00  0.00    -0.550 OA
ENDBRANCH  13  14
ENDBRANCH  12  13
ENDBRANCH  11  12
ENDBRANCH  10  11
ENDBRANCH   9  10
ENDBRANCH   8   9
ENDBRANCH   7   8
ENDBRANCH   6   7
ENDBRANCH   5   6
ENDBRANCH   4   5
ENDBRANCH   3   4
ENDBRANCH   2   3
ENDBRANCH   1   2
BRANCH   1  17
ATOM     17  C   UNL     1     -46.758   8.515 -31.325  1.00  0.00     0.000 C 
BRANCH  17  18
ATOM     18  C   UNL     1     -47.083   7.917 -32.704  1.00  0.00     0.000 C 
BRANCH  18  19
ATOM     19  C   UNL     1     -48.521   8.230 -33.160  1.00  0.00     0.000 C 
BRANCH  19  20
ATOM     20  C   UNL     1     -49.309   7.018 -33.698  1.00  0.00     0.000 C 
BRANCH  20  21
ATOM     21  C   UNL     1     -50.528   6.598 -32.852  1.00  0.00     0.000 C 
BRANCH  21  22
ATOM     22  C   UNL     1     -51.714   6.036 -33.658  1.00  0.00    -0.000 C 
BRANCH  22  23
ATOM     23  C   UNL     1     -52.551   7.139 -34.326  1.00  0.00    -0.000 C 
BRANCH  23  24
ATOM     24  C   UNL     1     -53.971   7.234 -33.747  1.00  0.00    -0.000 C 
BRANCH  24  25
ATOM     25  C   UNL     1     -54.056   6.703 -32.303  1.00  0.00    -0.000 C 
BRANCH  25  26
ATOM     26  C   UNL     1     -53.998   7.840 -31.261  1.00  0.00    -0.000 C 
BRANCH  26  27
ATOM     27  C   UNL     1     -52.797   7.731 -30.305  1.00  0.00    -0.000 C 
BRANCH  27  28
ATOM     28  C   UNL     1     -51.867   8.954 -30.374  1.00  0.00    -0.000 C 
BRANCH  28  29
ATOM     29  C   UNL     1     -52.351  10.004 -31.386  1.00  0.00    -0.003 C 
ATOM     30  C   UNL     1     -51.341  10.251 -32.506  1.00  0.00     0.004 C 
ENDBRANCH  28  29
ENDBRANCH  27  28
ENDBRANCH  26  27
ENDBRANCH  25  26
ENDBRANCH  24  25
ENDBRANCH  23  24
ENDBRANCH  22  23
ENDBRANCH  21  22
ENDBRANCH  20  21
ENDBRANCH  19  20
ENDBRANCH  18  19
ENDBRANCH  17  18
ENDBRANCH   1  17
TORSDOF 26
ENDMDL
MODEL 3
REMARK VINA RESULT:    -4.645      3.132      9.098
REMARK INTER + INTRA:         -16.031
REMARK INTER:                 -11.958
REMARK INTRA:                  -4.073
REMARK UNBOUND:                -4.327
REMARK SMILES CCCCCCCCCCCCCCCCCCCCCCCCCCCC(=O)[O-]
REMARK SMILES IDX 15 1 16 2 17 3 18 4 19 5 20 6 21 7 22 8 23 9 24 10 25 11
REMARK SMILES IDX 26 12 27 13 28 14 29 15 30 16 14 17 13 18 12 19 11 20 10 21
REMARK SMILES IDX 9 22 8 23 7 24 6 25 5 26 4 27 3 28 2 29 1 30
REMARK H PARENT
REMARK Flexibility Score: inf
ROOT
ATOM      1  C   UNL     1     -51.404  10.009 -30.301  1.00  0.00     0.000 C 
ENDROOT
BRANCH   1   2
ATOM      2  C   UNL     1     -52.281   9.134 -31.221  1.00  0.00     0.000 C 
BRANCH   2   3
ATOM      3  C   UNL     1     -52.666   7.772 -30.609  1.00  0.00     0.000 C 
BRANCH   3   4
ATOM      4  C   UNL     1     -53.901   7.116 -31.266  1.00  0.00     0.000 C 
BRANCH   4   5
ATOM      5  C   UNL     1     -53.569   6.001 -32.279  1.00  0.00     0.000 C 
BRANCH   5   6
ATOM      6  C   UNL     1     -53.824   6.348 -33.763  1.00  0.00     0.000 C 
BRANCH   6   7
ATOM      7  C   UNL     1     -52.616   6.913 -34.532  1.00  0.00     0.000 C 
BRANCH   7   8
ATOM      8  C   UNL     1     -51.268   6.409 -33.986  1.00  0.00     0.000 C 
BRANCH   8   9
ATOM      9  C   UNL     1     -50.275   7.554 -33.727  1.00  0.00     0.000 C 
BRANCH   9  10
ATOM     10  C   UNL     1     -49.074   7.112 -32.872  1.00  0.00     0.000 C 
BRANCH  10  11
ATOM     11  C   UNL     1     -49.474   6.181 -31.712  1.00  0.00     0.000 C 
BRANCH  11  12
ATOM     12  C   UNL     1     -49.020   6.640 -30.312  1.00  0.00     0.006 C 
BRANCH  12  13
ATOM     13  C   UNL     1     -48.377   8.034 -30.276  1.00  0.00     0.053 C 
BRANCH  13  14
ATOM     14  C   UNL     1     -46.890   7.959 -30.120  1.00  0.00     0.041 C 
ATOM     15  O   UNL     1     -46.170   8.947 -30.423  1.00  0.00    -0.550 OA
ATOM     16  O   UNL     1     -46.296   6.785 -29.673  1.00  0.00    -0.550 OA
ENDBRANCH  13  14
ENDBRANCH  12  13
ENDBRANCH  11  12
ENDBRANCH  10  11
ENDBRANCH   9  10
ENDBRANCH   8   9
ENDBRANCH   7   8
ENDBRANCH   6   7
ENDBRANCH   5   6
ENDBRANCH   4   5
ENDBRANCH   3   4
ENDBRANCH   2   3
ENDBRANCH   1   2
BRANCH   1  17
ATOM     17  C   UNL     1     -52.185  11.117 -29.571  1.00  0.00     0.000 C 
BRANCH  17  18
ATOM     18  C   UNL     1     -53.228  11.792 -30.478  1.00  0.00     0.000 C 
BRANCH  18  19
ATOM     19  C   UNL     1     -53.923  12.984 -29.794  1.00  0.00     0.000 C 
BRANCH  19  20
ATOM     20  C   UNL     1     -53.433  13.286 -28.362  1.00  0.00     0.000 C 
BRANCH  20  21
ATOM     21  C   UNL     1     -53.747  14.704 -27.845  1.00  0.00     0.000 C 
BRANCH  21  22
ATOM     22  C   UNL     1     -52.565  15.691 -27.900  1.00  0.00    -0.000 C 
BRANCH  22  23
ATOM     23  C   UNL     1     -53.020  17.159 -27.913  1.00  0.00    -0.000 C 
BRANCH  23  24
ATOM     24  C   UNL     1     -52.894  17.803 -29.302  1.00  0.00    -0.000 C 
BRANCH  24  25
ATOM     25  C   UNL     1     -52.434  16.801 -30.378  1.00  0.00    -0.000 C 
BRANCH  25  26
ATOM     26  C   UNL     1     -51.075  17.193 -30.997  1.00  0.00    -0.000 C 
BRANCH  26  27
ATOM     27  C   UNL     1     -50.278  15.990 -31.531  1.00  0.00    -0.000 C 
BRANCH  27  28
ATOM     28  C   UNL     1     -50.811  14.644 -31.015  1.00  0.00    -0.000 C 
BRANCH  28  29
ATOM     29  C   UNL     1     -49.847  13.482 -31.300  1.00  0.00    -0.003 C 
ATOM     30  C   UNL     1     -49.129  12.991 -30.043  1.00  0.00     0.004 C 
ENDBRANCH  28  29
ENDBRANCH  27  28
ENDBRANCH  26  27
ENDBRANCH  25  26
ENDBRANCH  24  25
ENDBRANCH  23  24
ENDBRANCH  22  23
ENDBRANCH  21  22
ENDBRANCH  20  21
ENDBRANCH  19  20
ENDBRANCH  18  19
ENDBRANCH  17  18
ENDBRANCH   1  17
TORSDOF 26
ENDMDL
MODEL 4
REMARK VINA RESULT:    -4.639      3.006      9.377
REMARK INTER + INTRA:         -16.016
REMARK INTER:                 -12.007
REMARK INTRA:                  -4.009
REMARK UNBOUND:                -4.327
REMARK SMILES CCCCCCCCCCCCCCCCCCCCCCCCCCCC(=O)[O-]
REMARK SMILES IDX 15 1 16 2 17 3 18 4 19 5 20 6 21 7 22 8 23 9 24 10 25 11
REMARK SMILES IDX 26 12 27 13 28 14 29 15 30 16 14 17 13 18 12 19 11 20 10 21
REMARK SMILES IDX 9 22 8 23 7 24 6 25 5 26 4 27 3 28 2 29 1 30
REMARK H PARENT
REMARK Flexibility Score: inf
ROOT
ATOM      1  C   UNL     1     -52.819  12.431 -29.517  1.00  0.00     0.000 C 
ENDROOT
BRANCH   1   2
ATOM      2  C   UNL     1     -53.128  11.486 -30.698  1.00  0.00     0.000 C 
BRANCH   2   3
ATOM      3  C   UNL     1     -52.098  10.355 -30.881  1.00  0.00     0.000 C 
BRANCH   3   4
ATOM      4  C   UNL     1     -51.039  10.641 -31.968  1.00  0.00     0.000 C 
BRANCH   4   5
ATOM      5  C   UNL     1     -49.743   9.816 -31.830  1.00  0.00     0.000 C 
BRANCH   5   6
ATOM      6  C   UNL     1     -49.456   9.252 -30.420  1.00  0.00     0.000 C 
BRANCH   6   7
ATOM      7  C   UNL     1     -47.969   9.091 -30.056  1.00  0.00     0.000 C 
BRANCH   7   8
ATOM      8  C   UNL     1     -47.159   8.365 -31.145  1.00  0.00     0.000 C 
BRANCH   8   9
ATOM      9  C   UNL     1     -47.094   6.847 -30.914  1.00  0.00     0.000 C 
BRANCH   9  10
ATOM     10  C   UNL     1     -47.768   6.047 -32.043  1.00  0.00     0.000 C 
BRANCH  10  11
ATOM     11  C   UNL     1     -47.979   6.877 -33.323  1.00  0.00     0.000 C 
BRANCH  11  12
ATOM     12  C   UNL     1     -49.436   6.968 -33.817  1.00  0.00     0.006 C 
BRANCH  12  13
ATOM     13  C   UNL     1     -50.482   6.462 -32.813  1.00  0.00     0.053 C 
BRANCH  13  14
ATOM     14  C   UNL     1     -51.873   6.842 -33.216  1.00  0.00     0.041 C 
ATOM     15  O   UNL     1     -52.702   7.228 -32.350  1.00  0.00    -0.550 OA
ATOM     16  O   UNL     1     -52.264   6.739 -34.546  1.00  0.00    -0.550 OA
ENDBRANCH  13  14
ENDBRANCH  12  13
ENDBRANCH  11  12
ENDBRANCH  10  11
ENDBRANCH   9  10
ENDBRANCH   8   9
ENDBRANCH   7   8
ENDBRANCH   6   7
ENDBRANCH   5   6
ENDBRANCH   4   5
ENDBRANCH   3   4
ENDBRANCH   2   3
ENDBRANCH   1   2
BRANCH   1  17
ATOM     17  C   UNL     1     -54.072  12.904 -28.757  1.00  0.00     0.000 C 
BRANCH  17  18
ATOM     18  C   UNL     1     -54.017  14.403 -28.416  1.00  0.00     0.000 C 
BRANCH  18  19
ATOM     19  C   UNL     1     -52.603  14.869 -28.024  1.00  0.00     0.000 C 
BRANCH  19  20
ATOM     20  C   UNL     1     -52.499  16.353 -27.614  1.00  0.00     0.000 C 
BRANCH  20  21
ATOM     21  C   UNL     1     -53.780  17.185 -27.824  1.00  0.00     0.000 C 
BRANCH  21  22
ATOM     22  C   UNL     1     -53.680  18.262 -28.920  1.00  0.00    -0.000 C 
BRANCH  22  23
ATOM     23  C   UNL     1     -53.413  17.668 -30.313  1.00  0.00    -0.000 C 
BRANCH  23  24
ATOM     24  C   UNL     1     -52.151  18.247 -30.969  1.00  0.00    -0.000 C 
BRANCH  24  25
ATOM     25  C   UNL     1     -50.922  17.334 -30.793  1.00  0.00    -0.000 C 
BRANCH  25  26
ATOM     26  C   UNL     1     -51.246  15.857 -31.100  1.00  0.00    -0.000 C 
BRANCH  26  27
ATOM     27  C   UNL     1     -50.348  15.249 -32.192  1.00  0.00    -0.000 C 
BRANCH  27  28
ATOM     28  C   UNL     1     -49.451  14.116 -31.665  1.00  0.00    -0.000 C 
BRANCH  28  29
ATOM     29  C   UNL     1     -49.901  13.603 -30.288  1.00  0.00    -0.003 C 
ATOM     30  C   UNL     1     -48.870  12.682 -29.638  1.00  0.00     0.004 C 
ENDBRANCH  28  29
ENDBRANCH  27  28
ENDBRANCH  26  27
ENDBRANCH  25  26
ENDBRANCH  24  25
ENDBRANCH  23  24
ENDBRANCH  22  23
ENDBRANCH  21  22
ENDBRANCH  20  21
ENDBRANCH  19  20
ENDBRANCH  18  19
ENDBRANCH  17  18
ENDBRANCH   1  17
TORSDOF 26
ENDMDL
MODEL 5
REMARK VINA RESULT:    -4.531      1.576      4.690
REMARK INTER + INTRA:         -15.744
REMARK INTER:                 -12.440
REMARK INTRA:                  -3.304
REMARK UNBOUND:                -4.327
REMARK SMILES CCCCCCCCCCCCCCCCCCCCCCCCCCCC(=O)[O-]
REMARK SMILES IDX 15 1 16 2 17 3 18 4 19 5 20 6 21 7 22 8 23 9 24 10 25 11
REMARK SMILES IDX 26 12 27 13 28 14 29 15 30 16 14 17 13 18 12 19 11 20 10 21
REMARK SMILES IDX 9 22 8 23 7 24 6 25 5 26 4 27 3 28 2 29 1 30
REMARK H PARENT
REMARK Flexibility Score: inf
ROOT
ATOM      1  C   UNL     1     -51.859  11.455 -31.752  1.00  0.00     0.000 C 
ENDROOT
BRANCH   1   2
ATOM      2  C   UNL     1     -52.617  10.576 -30.734  1.00  0.00     0.000 C 
BRANCH   2   3
ATOM      3  C   UNL     1     -54.012  11.112 -30.360  1.00  0.00     0.000 C 
BRANCH   3   4
ATOM      4  C   UNL     1     -54.041  12.625 -30.048  1.00  0.00     0.000 C 
BRANCH   4   5
ATOM      5  C   UNL     1     -53.425  13.008 -28.687  1.00  0.00     0.000 C 
BRANCH   5   6
ATOM      6  C   UNL     1     -53.707  14.450 -28.208  1.00  0.00     0.000 C 
BRANCH   6   7
ATOM      7  C   UNL     1     -52.473  15.261 -27.772  1.00  0.00     0.000 C 
BRANCH   7   8
ATOM      8  C   UNL     1     -52.783  16.753 -27.550  1.00  0.00     0.000 C 
BRANCH   8   9
ATOM      9  C   UNL     1     -54.010  17.222 -28.348  1.00  0.00     0.000 C 
BRANCH   9  10
ATOM     10  C   UNL     1     -53.719  18.472 -29.199  1.00  0.00     0.000 C 
BRANCH  10  11
ATOM     11  C   UNL     1     -53.443  18.138 -30.677  1.00  0.00     0.000 C 
BRANCH  11  12
ATOM     12  C   UNL     1     -51.981  18.319 -31.132  1.00  0.00     0.006 C 
BRANCH  12  13
ATOM     13  C   UNL     1     -51.004  17.277 -30.566  1.00  0.00     0.053 C 
BRANCH  13  14
ATOM     14  C   UNL     1     -51.067  15.986 -31.320  1.00  0.00     0.041 C 
ATOM     15  O   UNL     1     -52.075  15.239 -31.216  1.00  0.00    -0.550 OA
ATOM     16  O   UNL     1     -49.996  15.592 -32.113  1.00  0.00    -0.550 OA
ENDBRANCH  13  14
ENDBRANCH  12  13
ENDBRANCH  11  12
ENDBRANCH  10  11
ENDBRANCH   9  10
ENDBRANCH   8   9
ENDBRANCH   7   8
ENDBRANCH   6   7
ENDBRANCH   5   6
ENDBRANCH   4   5
ENDBRANCH   3   4
ENDBRANCH   2   3
ENDBRANCH   1   2
BRANCH   1  17
ATOM     17  C   UNL     1     -50.336  11.231 -31.751  1.00  0.00     0.000 C 
BRANCH  17  18
ATOM     18  C   UNL     1     -49.570  12.423 -31.149  1.00  0.00     0.000 C 
BRANCH  18  19
ATOM     19  C   UNL     1     -49.449  12.333 -29.616  1.00  0.00     0.000 C 
BRANCH  19  20
ATOM     20  C   UNL     1     -49.185  10.914 -29.069  1.00  0.00     0.000 C 
BRANCH  20  21
ATOM     21  C   UNL     1     -47.743  10.397 -29.252  1.00  0.00     0.000 C 
BRANCH  21  22
ATOM     22  C   UNL     1     -47.635   8.963 -29.803  1.00  0.00    -0.000 C 
BRANCH  22  23
ATOM     23  C   UNL     1     -46.968   8.910 -31.187  1.00  0.00    -0.000 C 
BRANCH  23  24
ATOM     24  C   UNL     1     -47.242   7.590 -31.923  1.00  0.00    -0.000 C 
BRANCH  24  25
ATOM     25  C   UNL     1     -47.775   7.810 -33.352  1.00  0.00    -0.000 C 
BRANCH  25  26
ATOM     26  C   UNL     1     -49.290   8.108 -33.368  1.00  0.00    -0.000 C 
BRANCH  26  27
ATOM     27  C   UNL     1     -50.049   7.476 -32.188  1.00  0.00    -0.000 C 
BRANCH  27  28
ATOM     28  C   UNL     1     -50.997   6.347 -32.625  1.00  0.00    -0.000 C 
BRANCH  28  29
ATOM     29  C   UNL     1     -51.355   6.424 -34.117  1.00  0.00    -0.003 C 
ATOM     30  C   UNL     1     -52.660   7.178 -34.371  1.00  0.00     0.004 C 
ENDBRANCH  28  29
ENDBRANCH  27  28
ENDBRANCH  26  27
ENDBRANCH  25  26
ENDBRANCH  24  25
ENDBRANCH  23  24
ENDBRANCH  22  23
ENDBRANCH  21  22
ENDBRANCH  20  21
ENDBRANCH  19  20
ENDBRANCH  18  19
ENDBRANCH  17  18
ENDBRANCH   1  17
TORSDOF 26
ENDMDL
MODEL 6
REMARK VINA RESULT:    -4.458      2.875      8.655
REMARK INTER + INTRA:         -15.562
REMARK INTER:                 -11.302
REMARK INTRA:                  -4.260
REMARK UNBOUND:                -4.327
REMARK SMILES CCCCCCCCCCCCCCCCCCCCCCCCCCCC(=O)[O-]
REMARK SMILES IDX 15 1 16 2 17 3 18 4 19 5 20 6 21 7 22 8 23 9 24 10 25 11
REMARK SMILES IDX 26 12 27 13 28 14 29 15 30 16 14 17 13 18 12 19 11 20 10 21
REMARK SMILES IDX 9 22 8 23 7 24 6 25 5 26 4 27 3 28 2 29 1 30
REMARK H PARENT
REMARK Flexibility Score: inf
ROOT
ATOM      1  C   UNL     1     -49.879  10.245 -31.572  1.00  0.00     0.000 C 
ENDROOT
BRANCH   1   2
ATOM      2  C   UNL     1     -50.612   9.029 -30.967  1.00  0.00     0.000 C 
BRANCH   2   3
ATOM      3  C   UNL     1     -51.962   9.376 -30.308  1.00  0.00     0.000 C 
BRANCH   3   4
ATOM      4  C   UNL     1     -53.193   8.920 -31.123  1.00  0.00     0.000 C 
BRANCH   4   5
ATOM      5  C   UNL     1     -53.264   7.400 -31.377  1.00  0.00     0.000 C 
BRANCH   5   6
ATOM      6  C   UNL     1     -54.103   6.966 -32.600  1.00  0.00     0.000 C 
BRANCH   6   7
ATOM      7  C   UNL     1     -53.387   6.045 -33.606  1.00  0.00     0.000 C 
BRANCH   7   8
ATOM      8  C   UNL     1     -51.884   5.889 -33.312  1.00  0.00     0.000 C 
BRANCH   8   9
ATOM      9  C   UNL     1     -51.025   6.889 -34.102  1.00  0.00     0.000 C 
BRANCH   9  10
ATOM     10  C   UNL     1     -49.560   6.912 -33.631  1.00  0.00     0.000 C 
BRANCH  10  11
ATOM     11  C   UNL     1     -49.344   6.152 -32.309  1.00  0.00     0.000 C 
BRANCH  11  12
ATOM     12  C   UNL     1     -47.906   6.191 -31.754  1.00  0.00     0.006 C 
BRANCH  12  13
ATOM     13  C   UNL     1     -47.754   6.958 -30.432  1.00  0.00     0.053 C 
BRANCH  13  14
ATOM     14  C   UNL     1     -46.992   8.234 -30.612  1.00  0.00     0.041 C 
ATOM     15  O   UNL     1     -46.753   8.975 -29.622  1.00  0.00    -0.550 OA
ATOM     16  O   UNL     1     -46.573   8.621 -31.879  1.00  0.00    -0.550 OA
ENDBRANCH  13  14
ENDBRANCH  12  13
ENDBRANCH  11  12
ENDBRANCH  10  11
ENDBRANCH   9  10
ENDBRANCH   8   9
ENDBRANCH   7   8
ENDBRANCH   6   7
ENDBRANCH   5   6
ENDBRANCH   4   5
ENDBRANCH   3   4
ENDBRANCH   2   3
ENDBRANCH   1   2
BRANCH   1  17
ATOM     17  C   UNL     1     -50.483  11.601 -31.161  1.00  0.00     0.000 C 
BRANCH  17  18
ATOM     18  C   UNL     1     -49.576  12.376 -30.190  1.00  0.00     0.000 C 
BRANCH  18  19
ATOM     19  C   UNL     1     -49.603  13.894 -30.442  1.00  0.00     0.000 C 
BRANCH  19  20
ATOM     20  C   UNL     1     -50.131  14.312 -31.831  1.00  0.00     0.000 C 
BRANCH  20  21
ATOM     21  C   UNL     1     -51.007  15.583 -31.846  1.00  0.00     0.000 C 
BRANCH  21  22
ATOM     22  C   UNL     1     -50.383  16.807 -31.150  1.00  0.00    -0.000 C 
BRANCH  22  23
ATOM     23  C   UNL     1     -51.433  17.850 -30.735  1.00  0.00    -0.000 C 
BRANCH  23  24
ATOM     24  C   UNL     1     -52.539  17.254 -29.851  1.00  0.00    -0.000 C 
BRANCH  24  25
ATOM     25  C   UNL     1     -52.100  17.093 -28.384  1.00  0.00    -0.000 C 
BRANCH  25  26
ATOM     26  C   UNL     1     -52.572  15.753 -27.780  1.00  0.00    -0.000 C 
BRANCH  26  27
ATOM     27  C   UNL     1     -53.335  14.866 -28.780  1.00  0.00    -0.000 C 
BRANCH  27  28
ATOM     28  C   UNL     1     -52.961  13.379 -28.666  1.00  0.00    -0.000 C 
BRANCH  28  29
ATOM     29  C   UNL     1     -53.669  12.513 -29.719  1.00  0.00    -0.003 C 
ATOM     30  C   UNL     1     -53.811  13.221 -31.066  1.00  0.00     0.004 C 
ENDBRANCH  28  29
ENDBRANCH  27  28
ENDBRANCH  26  27
ENDBRANCH  25  26
ENDBRANCH  24  25
ENDBRANCH  23  24
ENDBRANCH  22  23
ENDBRANCH  21  22
ENDBRANCH  20  21
ENDBRANCH  19  20
ENDBRANCH  18  19
ENDBRANCH  17  18
ENDBRANCH   1  17
TORSDOF 26
ENDMDL
MODEL 7
REMARK VINA RESULT:    -4.428      3.291      8.748
REMARK INTER + INTRA:         -15.486
REMARK INTER:                 -11.099
REMARK INTRA:                  -4.387
REMARK UNBOUND:                -4.327
REMARK SMILES CCCCCCCCCCCCCCCCCCCCCCCCCCCC(=O)[O-]
REMARK SMILES IDX 15 1 16 2 17 3 18 4 19 5 20 6 21 7 22 8 23 9 24 10 25 11
REMARK SMILES IDX 26 12 27 13 28 14 29 15 30 16 14 17 13 18 12 19 11 20 10 21
REMARK SMILES IDX 9 22 8 23 7 24 6 25 5 26 4 27 3 28 2 29 1 30
REMARK H PARENT
REMARK Flexibility Score: inf
ROOT
ATOM      1  C   UNL     1     -49.269  10.189 -31.920  1.00  0.00     0.000 C 
ENDROOT
BRANCH   1   2
ATOM      2  C   UNL     1     -48.937   9.146 -33.009  1.00  0.00     0.000 C 
BRANCH   2   3
ATOM      3  C   UNL     1     -50.177   8.515 -33.671  1.00  0.00     0.000 C 
BRANCH   3   4
ATOM      4  C   UNL     1     -50.013   7.016 -34.009  1.00  0.00     0.000 C 
BRANCH   4   5
ATOM      5  C   UNL     1     -51.340   6.236 -34.113  1.00  0.00     0.000 C 
BRANCH   5   6
ATOM      6  C   UNL     1     -52.609   7.098 -34.299  1.00  0.00     0.000 C 
BRANCH   6   7
ATOM      7  C   UNL     1     -53.641   7.019 -33.159  1.00  0.00     0.000 C 
BRANCH   7   8
ATOM      8  C   UNL     1     -53.247   7.863 -31.934  1.00  0.00     0.000 C 
BRANCH   8   9
ATOM      9  C   UNL     1     -53.205   7.034 -30.640  1.00  0.00     0.000 C 
BRANCH   9  10
ATOM     10  C   UNL     1     -52.004   6.072 -30.591  1.00  0.00     0.000 C 
BRANCH  10  11
ATOM     11  C   UNL     1     -50.651   6.806 -30.531  1.00  0.00     0.000 C 
BRANCH  11  12
ATOM     12  C   UNL     1     -49.431   5.913 -30.232  1.00  0.00     0.006 C 
BRANCH  12  13
ATOM     13  C   UNL     1     -48.169   6.269 -31.032  1.00  0.00     0.053 C 
BRANCH  13  14
ATOM     14  C   UNL     1     -47.120   6.897 -30.169  1.00  0.00     0.041 C 
ATOM     15  O   UNL     1     -47.116   8.142 -29.980  1.00  0.00    -0.550 OA
ATOM     16  O   UNL     1     -46.125   6.112 -29.600  1.00  0.00    -0.550 OA
ENDBRANCH  13  14
ENDBRANCH  12  13
ENDBRANCH  11  12
ENDBRANCH  10  11
ENDBRANCH   9  10
ENDBRANCH   8   9
ENDBRANCH   7   8
ENDBRANCH   6   7
ENDBRANCH   5   6
ENDBRANCH   4   5
ENDBRANCH   3   4
ENDBRANCH   2   3
ENDBRANCH   1   2
BRANCH   1  17
ATOM     17  C   UNL     1     -50.759  10.573 -31.864  1.00  0.00     0.000 C 
BRANCH  17  18
ATOM     18  C   UNL     1     -51.256  10.777 -30.423  1.00  0.00     0.000 C 
BRANCH  18  19
ATOM     19  C   UNL     1     -52.772  11.039 -30.352  1.00  0.00     0.000 C 
BRANCH  19  20
ATOM     20  C   UNL     1     -53.168  12.522 -30.202  1.00  0.00     0.000 C 
BRANCH  20  21
ATOM     21  C   UNL     1     -52.756  13.180 -28.869  1.00  0.00     0.000 C 
BRANCH  21  22
ATOM     22  C   UNL     1     -53.474  14.506 -28.552  1.00  0.00    -0.000 C 
BRANCH  22  23
ATOM     23  C   UNL     1     -52.606  15.464 -27.719  1.00  0.00    -0.000 C 
BRANCH  23  24
ATOM     24  C   UNL     1     -52.706  16.919 -28.201  1.00  0.00    -0.000 C 
BRANCH  24  25
ATOM     25  C   UNL     1     -53.534  17.058 -29.492  1.00  0.00    -0.000 C 
BRANCH  25  26
ATOM     26  C   UNL     1     -52.665  17.470 -30.700  1.00  0.00    -0.000 C 
BRANCH  26  27
ATOM     27  C   UNL     1     -51.158  17.490 -30.389  1.00  0.00    -0.000 C 
BRANCH  27  28
ATOM     28  C   UNL     1     -50.343  16.584 -31.327  1.00  0.00    -0.000 C 
BRANCH  28  29
ATOM     29  C   UNL     1     -50.867  15.140 -31.351  1.00  0.00    -0.003 C 
ATOM     30  C   UNL     1     -49.746  14.109 -31.471  1.00  0.00     0.004 C 
ENDBRANCH  28  29
ENDBRANCH  27  28
ENDBRANCH  26  27
ENDBRANCH  25  26
ENDBRANCH  24  25
ENDBRANCH  23  24
ENDBRANCH  22  23
ENDBRANCH  21  22
ENDBRANCH  20  21
ENDBRANCH  19  20
ENDBRANCH  18  19
ENDBRANCH  17  18
ENDBRANCH   1  17
TORSDOF 26
ENDMDL
MODEL 8
REMARK VINA RESULT:    -4.406      2.313      6.118
REMARK INTER + INTRA:         -15.429
REMARK INTER:                 -11.927
REMARK INTRA:                  -3.502
REMARK UNBOUND:                -4.327
REMARK SMILES CCCCCCCCCCCCCCCCCCCCCCCCCCCC(=O)[O-]
REMARK SMILES IDX 15 1 16 2 17 3 18 4 19 5 20 6 21 7 22 8 23 9 24 10 25 11
REMARK SMILES IDX 26 12 27 13 28 14 29 15 30 16 14 17 13 18 12 19 11 20 10 21
REMARK SMILES IDX 9 22 8 23 7 24 6 25 5 26 4 27 3 28 2 29 1 30
REMARK H PARENT
REMARK Flexibility Score: inf
ROOT
ATOM      1  C   UNL     1     -50.732  15.546 -32.203  1.00  0.00     0.000 C 
ENDROOT
BRANCH   1   2
ATOM      2  C   UNL     1     -50.418  16.467 -31.005  1.00  0.00     0.000 C 
BRANCH   2   3
ATOM      3  C   UNL     1     -51.253  17.762 -30.975  1.00  0.00     0.000 C 
BRANCH   3   4
ATOM      4  C   UNL     1     -52.765  17.529 -30.757  1.00  0.00     0.000 C 
BRANCH   4   5
ATOM      5  C   UNL     1     -53.359  18.278 -29.547  1.00  0.00     0.000 C 
BRANCH   5   6
ATOM      6  C   UNL     1     -53.833  17.387 -28.377  1.00  0.00     0.000 C 
BRANCH   6   7
ATOM      7  C   UNL     1     -52.766  16.455 -27.773  1.00  0.00     0.000 C 
BRANCH   7   8
ATOM      8  C   UNL     1     -53.152  14.967 -27.856  1.00  0.00     0.000 C 
BRANCH   8   9
ATOM      9  C   UNL     1     -52.704  14.317 -29.175  1.00  0.00     0.000 C 
BRANCH   9  10
ATOM     10  C   UNL     1     -53.837  13.535 -29.863  1.00  0.00     0.000 C 
BRANCH  10  11
ATOM     11  C   UNL     1     -53.620  12.011 -29.829  1.00  0.00     0.000 C 
BRANCH  11  12
ATOM     12  C   UNL     1     -52.177  11.558 -29.527  1.00  0.00     0.006 C 
BRANCH  12  13
ATOM     13  C   UNL     1     -51.909  10.069 -29.787  1.00  0.00     0.053 C 
BRANCH  13  14
ATOM     14  C   UNL     1     -52.339   9.656 -31.161  1.00  0.00     0.041 C 
ATOM     15  O   UNL     1     -51.703  10.057 -32.171  1.00  0.00    -0.550 OA
ATOM     16  O   UNL     1     -53.462   8.857 -31.327  1.00  0.00    -0.550 OA
ENDBRANCH  13  14
ENDBRANCH  12  13
ENDBRANCH  11  12
ENDBRANCH  10  11
ENDBRANCH   9  10
ENDBRANCH   8   9
ENDBRANCH   7   8
ENDBRANCH   6   7
ENDBRANCH   5   6
ENDBRANCH   4   5
ENDBRANCH   3   4
ENDBRANCH   2   3
ENDBRANCH   1   2
BRANCH   1  17
ATOM     17  C   UNL     1     -50.549  14.048 -31.898  1.00  0.00     0.000 C 
BRANCH  17  18
ATOM     18  C   UNL     1     -49.476  13.797 -30.825  1.00  0.00     0.000 C 
BRANCH  18  19
ATOM     19  C   UNL     1     -49.025  12.325 -30.773  1.00  0.00     0.000 C 
BRANCH  19  20
ATOM     20  C   UNL     1     -48.692  11.798 -29.362  1.00  0.00     0.000 C 
BRANCH  20  21
ATOM     21  C   UNL     1     -47.819  10.527 -29.324  1.00  0.00     0.000 C 
BRANCH  21  22
ATOM     22  C   UNL     1     -48.025   9.564 -30.507  1.00  0.00    -0.000 C 
BRANCH  22  23
ATOM     23  C   UNL     1     -46.792   8.686 -30.778  1.00  0.00    -0.000 C 
BRANCH  23  24
ATOM     24  C   UNL     1     -47.149   7.367 -31.480  1.00  0.00    -0.000 C 
BRANCH  24  25
ATOM     25  C   UNL     1     -48.616   7.326 -31.948  1.00  0.00    -0.000 C 
BRANCH  25  26
ATOM     26  C   UNL     1     -48.738   7.002 -33.452  1.00  0.00    -0.000 C 
BRANCH  26  27
ATOM     27  C   UNL     1     -50.194   6.926 -33.945  1.00  0.00    -0.000 C 
BRANCH  27  28
ATOM     28  C   UNL     1     -51.151   6.348 -32.889  1.00  0.00    -0.000 C 
BRANCH  28  29
ATOM     29  C   UNL     1     -52.558   6.093 -33.449  1.00  0.00    -0.003 C 
ATOM     30  C   UNL     1     -52.907   7.021 -34.612  1.00  0.00     0.004 C 
ENDBRANCH  28  29
ENDBRANCH  27  28
ENDBRANCH  26  27
ENDBRANCH  25  26
ENDBRANCH  24  25
ENDBRANCH  23  24
ENDBRANCH  22  23
ENDBRANCH  21  22
ENDBRANCH  20  21
ENDBRANCH  19  20
ENDBRANCH  18  19
ENDBRANCH  17  18
ENDBRANCH   1  17
TORSDOF 26
ENDMDL
MODEL 9
REMARK VINA RESULT:    -4.360      3.088      9.470
REMARK INTER + INTRA:         -15.313
REMARK INTER:                 -11.855
REMARK INTRA:                  -3.458
REMARK UNBOUND:                -4.327
REMARK SMILES CCCCCCCCCCCCCCCCCCCCCCCCCCCC(=O)[O-]
REMARK SMILES IDX 15 1 16 2 17 3 18 4 19 5 20 6 21 7 22 8 23 9 24 10 25 11
REMARK SMILES IDX 26 12 27 13 28 14 29 15 30 16 14 17 13 18 12 19 11 20 10 21
REMARK SMILES IDX 9 22 8 23 7 24 6 25 5 26 4 27 3 28 2 29 1 30
REMARK H PARENT
REMARK Flexibility Score: inf
ROOT
ATOM      1  C   UNL     1     -53.014  13.426 -30.007  1.00  0.00     0.000 C 
ENDROOT
BRANCH   1   2
ATOM      2  C   UNL     1     -53.288  12.428 -31.153  1.00  0.00     0.000 C 
BRANCH   2   3
ATOM      3  C   UNL     1     -53.485  10.974 -30.683  1.00  0.00     0.000 C 
BRANCH   3   4
ATOM      4  C   UNL     1     -52.166  10.223 -30.395  1.00  0.00     0.000 C 
BRANCH   4   5
ATOM      5  C   UNL     1     -52.243   8.696 -30.594  1.00  0.00     0.000 C 
BRANCH   5   6
ATOM      6  C   UNL     1     -53.506   8.179 -31.318  1.00  0.00     0.000 C 
BRANCH   6   7
ATOM      7  C   UNL     1     -53.720   6.654 -31.279  1.00  0.00     0.000 C 
BRANCH   7   8
ATOM      8  C   UNL     1     -52.769   5.891 -32.219  1.00  0.00     0.000 C 
BRANCH   8   9
ATOM      9  C   UNL     1     -52.688   6.528 -33.616  1.00  0.00     0.000 C 
BRANCH   9  10
ATOM     10  C   UNL     1     -51.247   6.596 -34.152  1.00  0.00     0.000 C 
BRANCH  10  11
ATOM     11  C   UNL     1     -50.210   6.884 -33.050  1.00  0.00     0.000 C 
BRANCH  11  12
ATOM     12  C   UNL     1     -49.265   8.070 -33.328  1.00  0.00     0.006 C 
BRANCH  12  13
ATOM     13  C   UNL     1     -47.771   7.716 -33.295  1.00  0.00     0.053 C 
BRANCH  13  14
ATOM     14  C   UNL     1     -47.212   7.784 -31.908  1.00  0.00     0.041 C 
ATOM     15  O   UNL     1     -46.578   8.805 -31.529  1.00  0.00    -0.550 OA
ATOM     16  O   UNL     1     -47.362   6.707 -31.044  1.00  0.00    -0.550 OA
ENDBRANCH  13  14
ENDBRANCH  12  13
ENDBRANCH  11  12
ENDBRANCH  10  11
ENDBRANCH   9  10
ENDBRANCH   8   9
ENDBRANCH   7   8
ENDBRANCH   6   7
ENDBRANCH   5   6
ENDBRANCH   4   5
ENDBRANCH   3   4
ENDBRANCH   2   3
ENDBRANCH   1   2
BRANCH   1  17
ATOM     17  C   UNL     1     -54.095  13.423 -28.911  1.00  0.00     0.000 C 
BRANCH  17  18
ATOM     18  C   UNL     1     -53.818  14.466 -27.814  1.00  0.00     0.000 C 
BRANCH  18  19
ATOM     19  C   UNL     1     -52.492  15.217 -28.035  1.00  0.00     0.000 C 
BRANCH  19  20
ATOM     20  C   UNL     1     -52.566  16.743 -27.816  1.00  0.00     0.000 C 
BRANCH  20  21
ATOM     21  C   UNL     1     -53.893  17.404 -28.242  1.00  0.00     0.000 C 
BRANCH  21  22
ATOM     22  C   UNL     1     -53.762  18.464 -29.351  1.00  0.00    -0.000 C 
BRANCH  22  23
ATOM     23  C   UNL     1     -53.247  17.875 -30.675  1.00  0.00    -0.000 C 
BRANCH  23  24
ATOM     24  C   UNL     1     -51.891  18.464 -31.094  1.00  0.00    -0.000 C 
BRANCH  24  25
ATOM     25  C   UNL     1     -50.745  17.441 -30.987  1.00  0.00    -0.000 C 
BRANCH  25  26
ATOM     26  C   UNL     1     -51.198  16.017 -31.374  1.00  0.00    -0.000 C 
BRANCH  26  27
ATOM     27  C   UNL     1     -50.119  15.215 -32.124  1.00  0.00    -0.000 C 
BRANCH  27  28
ATOM     28  C   UNL     1     -49.196  14.429 -31.178  1.00  0.00    -0.000 C 
BRANCH  28  29
ATOM     29  C   UNL     1     -49.566  12.940 -31.100  1.00  0.00    -0.003 C 
ATOM     30  C   UNL     1     -49.168  12.303 -29.768  1.00  0.00     0.004 C 
ENDBRANCH  28  29
ENDBRANCH  27  28
ENDBRANCH  26  27
ENDBRANCH  25  26
ENDBRANCH  24  25
ENDBRANCH  23  24
ENDBRANCH  22  23
ENDBRANCH  21  22
ENDBRANCH  20  21
ENDBRANCH  19  20
ENDBRANCH  18  19
ENDBRANCH  17  18
ENDBRANCH   1  17
TORSDOF 26
ENDMDL
