MODEL 1
REMARK VINA RESULT:    -4.645      0.000      0.000
REMARK INTER + INTRA:          -7.928
REMARK INTER:                  -7.360
REMARK INTRA:                  -0.568
REMARK UNBOUND:                -0.568
REMARK SMILES CCCCCCCCCCCC(=O)[O-]
REMARK SMILES IDX 7 1 8 2 9 3 10 4 11 5 12 6 13 7 14 8 6 9 5 10 4 11 3 12 2 13
REMARK SMILES IDX 1 14
REMARK H PARENT
REMARK Flexibility Score: inf
ROOT
ATOM      1  C   UNL     1       4.955  -7.825 -22.281  1.00  0.00     0.000 C 
ENDROOT
BRANCH   1   2
ATOM      2  C   UNL     1       5.503  -6.460 -21.817  1.00  0.00     0.000 C 
BRANCH   2   3
ATOM      3  C   UNL     1       4.579  -5.674 -20.871  1.00  0.00     0.000 C 
BRANCH   3   4
ATOM      4  C   UNL     1       4.408  -6.356 -19.503  1.00  0.00     0.006 C 
BRANCH   4   5
ATOM      5  C   UNL     1       3.609  -5.488 -18.520  1.00  0.00     0.053 C 
BRANCH   5   6
ATOM      6  C   UNL     1       4.231  -4.137 -18.339  1.00  0.00     0.041 C 
ATOM      7  O   UNL     1       3.610  -3.100 -18.694  1.00  0.00    -0.550 OA
ATOM      8  O   UNL     1       5.507  -4.026 -17.803  1.00  0.00    -0.550 OA
ENDBRANCH   5   6
ENDBRANCH   4   5
ENDBRANCH   3   4
ENDBRANCH   2   3
ENDBRANCH   1   2
BRANCH   1   9
ATOM      9  C   UNL     1       5.911  -9.018 -22.083  1.00  0.00     0.000 C 
BRANCH   9  10
ATOM     10  C   UNL     1       6.919  -9.244 -23.225  1.00  0.00    -0.000 C 
BRANCH  10  11
ATOM     11  C   UNL     1       6.783 -10.631 -23.875  1.00  0.00    -0.000 C 
BRANCH  11  12
ATOM     12  C   UNL     1       5.445 -11.309 -23.541  1.00  0.00    -0.000 C 
BRANCH  12  13
ATOM     13  C   UNL     1       5.624 -12.679 -22.873  1.00  0.00    -0.003 C 
ATOM     14  C   UNL     1       4.570 -12.905 -21.794  1.00  0.00     0.004 C 
ENDBRANCH  12  13
ENDBRANCH  11  12
ENDBRANCH  10  11
ENDBRANCH   9  10
ENDBRANCH   1   9
TORSDOF 10
ENDMDL
MODEL 2
REMARK VINA RESULT:    -4.601      4.961      7.035
REMARK INTER + INTRA:          -7.858
REMARK INTER:                  -6.766
REMARK INTRA:                  -1.092
REMARK UNBOUND:                -0.568
REMARK SMILES CCCCCCCCCCCC(=O)[O-]
REMARK SMILES IDX 7 1 8 2 9 3 10 4 11 5 12 6 13 7 14 8 6 9 5 10 4 11 3 12 2 13
REMARK SMILES IDX 1 14
REMARK H PARENT
REMARK Flexibility Score: inf
ROOT
ATOM      1  C   UNL     1       7.025  -9.722 -23.680  1.00  0.00     0.000 C 
ENDROOT
BRANCH   1   2
ATOM      2  C   UNL     1       6.543 -11.139 -24.053  1.00  0.00     0.000 C 
BRANCH   2   3
ATOM      3  C   UNL     1       5.140 -11.506 -23.538  1.00  0.00     0.000 C 
BRANCH   3   4
ATOM      4  C   UNL     1       5.163 -12.642 -22.502  1.00  0.00     0.006 C 
BRANCH   4   5
ATOM      5  C   UNL     1       3.753 -13.034 -22.040  1.00  0.00     0.053 C 
BRANCH   5   6
ATOM      6  C   UNL     1       3.630 -14.510 -21.817  1.00  0.00     0.041 C 
ATOM      7  O   UNL     1       2.519 -15.013 -21.501  1.00  0.00    -0.550 OA
ATOM      8  O   UNL     1       4.748 -15.325 -21.930  1.00  0.00    -0.550 OA
ENDBRANCH   5   6
ENDBRANCH   4   5
ENDBRANCH   3   4
ENDBRANCH   2   3
ENDBRANCH   1   2
BRANCH   1   9
ATOM      9  C   UNL     1       6.397  -9.131 -22.402  1.00  0.00     0.000 C 
BRANCH   9  10
ATOM     10  C   UNL     1       5.885  -7.684 -22.535  1.00  0.00    -0.000 C 
BRANCH  10  11
ATOM     11  C   UNL     1       4.473  -7.496 -21.955  1.00  0.00    -0.000 C 
BRANCH  11  12
ATOM     12  C   UNL     1       4.255  -8.302 -20.664  1.00  0.00    -0.000 C 
BRANCH  12  13
ATOM     13  C   UNL     1       3.304  -9.490 -20.861  1.00  0.00    -0.003 C 
ATOM     14  C   UNL     1       2.460  -9.317 -22.120  1.00  0.00     0.004 C 
ENDBRANCH  12  13
ENDBRANCH  11  12
ENDBRANCH  10  11
ENDBRANCH   9  10
ENDBRANCH   1   9
TORSDOF 10
ENDMDL
MODEL 3
REMARK VINA RESULT:    -4.597      1.533      2.842
REMARK INTER + INTRA:          -7.851
REMARK INTER:                  -7.308
REMARK INTRA:                  -0.544
REMARK UNBOUND:                -0.568
REMARK SMILES CCCCCCCCCCCC(=O)[O-]
REMARK SMILES IDX 7 1 8 2 9 3 10 4 11 5 12 6 13 7 14 8 6 9 5 10 4 11 3 12 2 13
REMARK SMILES IDX 1 14
REMARK H PARENT
REMARK Flexibility Score: inf
ROOT
ATOM      1  C   UNL     1       6.475  -9.899 -23.423  1.00  0.00     0.000 C 
ENDROOT
BRANCH   1   2
ATOM      2  C   UNL     1       5.835  -9.131 -22.248  1.00  0.00     0.000 C 
BRANCH   2   3
ATOM      3  C   UNL     1       5.903  -7.598 -22.357  1.00  0.00     0.000 C 
BRANCH   3   4
ATOM      4  C   UNL     1       4.667  -6.902 -21.763  1.00  0.00     0.006 C 
BRANCH   4   5
ATOM      5  C   UNL     1       4.402  -7.333 -20.314  1.00  0.00     0.053 C 
BRANCH   5   6
ATOM      6  C   UNL     1       4.197  -6.154 -19.412  1.00  0.00     0.041 C 
ATOM      7  O   UNL     1       5.000  -5.184 -19.444  1.00  0.00    -0.550 OA
ATOM      8  O   UNL     1       3.136  -6.140 -18.517  1.00  0.00    -0.550 OA
ENDBRANCH   5   6
ENDBRANCH   4   5
ENDBRANCH   3   4
ENDBRANCH   2   3
ENDBRANCH   1   2
BRANCH   1   9
ATOM      9  C   UNL     1       5.945 -11.330 -23.639  1.00  0.00     0.000 C 
BRANCH   9  10
ATOM     10  C   UNL     1       4.566 -11.617 -23.015  1.00  0.00    -0.000 C 
BRANCH  10  11
ATOM     11  C   UNL     1       4.641 -12.579 -21.818  1.00  0.00    -0.000 C 
BRANCH  11  12
ATOM     12  C   UNL     1       5.467 -13.839 -22.126  1.00  0.00    -0.000 C 
BRANCH  12  13
ATOM     13  C   UNL     1       4.741 -15.134 -21.736  1.00  0.00    -0.003 C 
ATOM     14  C   UNL     1       3.273 -15.086 -22.148  1.00  0.00     0.004 C 
ENDBRANCH  12  13
ENDBRANCH  11  12
ENDBRANCH  10  11
ENDBRANCH   9  10
ENDBRANCH   1   9
TORSDOF 10
ENDMDL
MODEL 4
REMARK VINA RESULT:    -4.520      4.228      7.345
REMARK INTER + INTRA:          -7.730
REMARK INTER:                  -7.212
REMARK INTRA:                  -0.518
REMARK UNBOUND:                -0.568
REMARK SMILES CCCCCCCCCCCC(=O)[O-]
REMARK SMILES IDX 7 1 8 2 9 3 10 4 11 5 12 6 13 7 14 8 6 9 5 10 4 11 3 12 2 13
REMARK SMILES IDX 1 14
REMARK H PARENT
REMARK Flexibility Score: inf
ROOT
ATOM      1  C   UNL     1       6.099  -7.895 -22.530  1.00  0.00     0.000 C 
ENDROOT
BRANCH   1   2
ATOM      2  C   UNL     1       5.786  -9.397 -22.367  1.00  0.00     0.000 C 
BRANCH   2   3
ATOM      3  C   UNL     1       6.394 -10.310 -23.446  1.00  0.00     0.000 C 
BRANCH   3   4
ATOM      4  C   UNL     1       5.669 -11.661 -23.561  1.00  0.00     0.006 C 
BRANCH   4   5
ATOM      5  C   UNL     1       4.659 -11.875 -22.425  1.00  0.00     0.053 C 
BRANCH   5   6
ATOM      6  C   UNL     1       4.616 -13.305 -21.981  1.00  0.00     0.041 C 
ATOM      7  O   UNL     1       5.668 -13.882 -21.597  1.00  0.00    -0.550 OA
ATOM      8  O   UNL     1       3.420 -14.008 -22.019  1.00  0.00    -0.550 OA
ENDBRANCH   5   6
ENDBRANCH   4   5
ENDBRANCH   3   4
ENDBRANCH   2   3
ENDBRANCH   1   2
BRANCH   1   9
ATOM      9  C   UNL     1       4.977  -6.938 -22.080  1.00  0.00     0.000 C 
BRANCH   9  10
ATOM     10  C   UNL     1       5.449  -5.543 -21.629  1.00  0.00    -0.000 C 
BRANCH  10  11
ATOM     11  C   UNL     1       4.929  -5.159 -20.234  1.00  0.00    -0.000 C 
BRANCH  11  12
ATOM     12  C   UNL     1       4.284  -6.345 -19.499  1.00  0.00    -0.000 C 
BRANCH  12  13
ATOM     13  C   UNL     1       2.857  -6.042 -19.021  1.00  0.00    -0.003 C 
ATOM     14  C   UNL     1       2.771  -4.652 -18.397  1.00  0.00     0.004 C 
ENDBRANCH  12  13
ENDBRANCH  11  12
ENDBRANCH  10  11
ENDBRANCH   9  10
ENDBRANCH   1   9
TORSDOF 10
ENDMDL
MODEL 5
REMARK VINA RESULT:    -4.504      4.340      7.313
REMARK INTER + INTRA:          -7.704
REMARK INTER:                  -7.208
REMARK INTRA:                  -0.496
REMARK UNBOUND:                -0.568
REMARK SMILES CCCCCCCCCCCC(=O)[O-]
REMARK SMILES IDX 7 1 8 2 9 3 10 4 11 5 12 6 13 7 14 8 6 9 5 10 4 11 3 12 2 13
REMARK SMILES IDX 1 14
REMARK H PARENT
REMARK Flexibility Score: inf
ROOT
ATOM      1  C   UNL     1       5.862  -8.992 -22.245  1.00  0.00     0.000 C 
ENDROOT
BRANCH   1   2
ATOM      2  C   UNL     1       6.629  -9.871 -23.255  1.00  0.00     0.000 C 
BRANCH   2   3
ATOM      3  C   UNL     1       5.950 -11.207 -23.603  1.00  0.00     0.000 C 
BRANCH   3   4
ATOM      4  C   UNL     1       4.490 -11.276 -23.127  1.00  0.00     0.006 C 
BRANCH   4   5
ATOM      5  C   UNL     1       4.350 -12.030 -21.797  1.00  0.00     0.053 C 
BRANCH   5   6
ATOM      6  C   UNL     1       4.492 -13.510 -21.979  1.00  0.00     0.041 C 
ATOM      7  O   UNL     1       3.511 -14.199 -22.364  1.00  0.00    -0.550 OA
ATOM      8  O   UNL     1       5.701 -14.131 -21.697  1.00  0.00    -0.550 OA
ENDBRANCH   5   6
ENDBRANCH   4   5
ENDBRANCH   3   4
ENDBRANCH   2   3
ENDBRANCH   1   2
BRANCH   1   9
ATOM      9  C   UNL     1       5.928  -7.475 -22.512  1.00  0.00     0.000 C 
BRANCH   9  10
ATOM     10  C   UNL     1       4.816  -6.645 -21.845  1.00  0.00    -0.000 C 
BRANCH  10  11
ATOM     11  C   UNL     1       4.267  -7.302 -20.567  1.00  0.00    -0.000 C 
BRANCH  11  12
ATOM     12  C   UNL     1       4.417  -6.402 -19.331  1.00  0.00    -0.000 C 
BRANCH  12  13
ATOM     13  C   UNL     1       4.959  -5.007 -19.675  1.00  0.00    -0.003 C 
ATOM     14  C   UNL     1       5.025  -4.122 -18.434  1.00  0.00     0.004 C 
ENDBRANCH  12  13
ENDBRANCH  11  12
ENDBRANCH  10  11
ENDBRANCH   9  10
ENDBRANCH   1   9
TORSDOF 10
ENDMDL
MODEL 6
REMARK VINA RESULT:    -4.488      1.223      2.108
REMARK INTER + INTRA:          -7.680
REMARK INTER:                  -7.054
REMARK INTRA:                  -0.626
REMARK UNBOUND:                -0.568
REMARK SMILES CCCCCCCCCCCC(=O)[O-]
REMARK SMILES IDX 7 1 8 2 9 3 10 4 11 5 12 6 13 7 14 8 6 9 5 10 4 11 3 12 2 13
REMARK SMILES IDX 1 14
REMARK H PARENT
REMARK Flexibility Score: inf
ROOT
ATOM      1  C   UNL     1       3.302  -6.845 -22.015  1.00  0.00     0.000 C 
ENDROOT
BRANCH   1   2
ATOM      2  C   UNL     1       3.341  -7.211 -20.517  1.00  0.00     0.000 C 
BRANCH   2   3
ATOM      3  C   UNL     1       2.470  -6.326 -19.608  1.00  0.00     0.000 C 
BRANCH   3   4
ATOM      4  C   UNL     1       3.280  -5.631 -18.500  1.00  0.00     0.006 C 
BRANCH   4   5
ATOM      5  C   UNL     1       4.722  -5.339 -18.935  1.00  0.00     0.053 C 
BRANCH   5   6
ATOM      6  C   UNL     1       5.225  -4.049 -18.363  1.00  0.00     0.041 C 
ATOM      7  O   UNL     1       5.126  -2.981 -19.023  1.00  0.00    -0.550 OA
ATOM      8  O   UNL     1       5.828  -4.032 -17.113  1.00  0.00    -0.550 OA
ENDBRANCH   5   6
ENDBRANCH   4   5
ENDBRANCH   3   4
ENDBRANCH   2   3
ENDBRANCH   1   2
BRANCH   1   9
ATOM      9  C   UNL     1       4.672  -6.838 -22.725  1.00  0.00     0.000 C 
BRANCH   9  10
ATOM     10  C   UNL     1       5.785  -7.621 -22.003  1.00  0.00    -0.000 C 
BRANCH  10  11
ATOM     11  C   UNL     1       5.851  -9.096 -22.434  1.00  0.00    -0.000 C 
BRANCH  11  12
ATOM     12  C   UNL     1       6.956  -9.357 -23.470  1.00  0.00    -0.000 C 
BRANCH  12  13
ATOM     13  C   UNL     1       6.944 -10.798 -24.000  1.00  0.00    -0.003 C 
ATOM     14  C   UNL     1       5.614 -11.482 -23.698  1.00  0.00     0.004 C 
ENDBRANCH  12  13
ENDBRANCH  11  12
ENDBRANCH  10  11
ENDBRANCH   9  10
ENDBRANCH   1   9
TORSDOF 10
ENDMDL
MODEL 7
REMARK VINA RESULT:    -4.485      1.281      1.977
REMARK INTER + INTRA:          -7.674
REMARK INTER:                  -7.183
REMARK INTRA:                  -0.491
REMARK UNBOUND:                -0.568
REMARK SMILES CCCCCCCCCCCC(=O)[O-]
REMARK SMILES IDX 7 1 8 2 9 3 10 4 11 5 12 6 13 7 14 8 6 9 5 10 4 11 3 12 2 13
REMARK SMILES IDX 1 14
REMARK H PARENT
REMARK Flexibility Score: inf
ROOT
ATOM      1  C   UNL     1       6.245  -8.681 -22.793  1.00  0.00     0.000 C 
ENDROOT
BRANCH   1   2
ATOM      2  C   UNL     1       5.813  -7.311 -22.230  1.00  0.00     0.000 C 
BRANCH   2   3
ATOM      3  C   UNL     1       4.357  -7.240 -21.736  1.00  0.00     0.000 C 
BRANCH   3   4
ATOM      4  C   UNL     1       4.253  -7.020 -20.218  1.00  0.00     0.006 C 
BRANCH   4   5
ATOM      5  C   UNL     1       4.611  -5.582 -19.816  1.00  0.00     0.053 C 
BRANCH   5   6
ATOM      6  C   UNL     1       3.777  -5.101 -18.669  1.00  0.00     0.041 C 
ATOM      7  O   UNL     1       3.018  -5.900 -18.057  1.00  0.00    -0.550 OA
ATOM      8  O   UNL     1       3.816  -3.765 -18.294  1.00  0.00    -0.550 OA
ENDBRANCH   5   6
ENDBRANCH   4   5
ENDBRANCH   3   4
ENDBRANCH   2   3
ENDBRANCH   1   2
BRANCH   1   9
ATOM      9  C   UNL     1       5.395  -9.880 -22.327  1.00  0.00     0.000 C 
BRANCH   9  10
ATOM     10  C   UNL     1       5.364 -11.075 -23.298  1.00  0.00    -0.000 C 
BRANCH  10  11
ATOM     11  C   UNL     1       4.063 -11.889 -23.199  1.00  0.00    -0.000 C 
BRANCH  11  12
ATOM     12  C   UNL     1       3.936 -12.638 -21.863  1.00  0.00    -0.000 C 
BRANCH  12  13
ATOM     13  C   UNL     1       4.359 -14.110 -21.966  1.00  0.00    -0.003 C 
ATOM     14  C   UNL     1       5.819 -14.291 -21.563  1.00  0.00     0.004 C 
ENDBRANCH  12  13
ENDBRANCH  11  12
ENDBRANCH  10  11
ENDBRANCH   9  10
ENDBRANCH   1   9
TORSDOF 10
ENDMDL
MODEL 8
REMARK VINA RESULT:    -4.418      3.921      7.509
REMARK INTER + INTRA:          -7.568
REMARK INTER:                  -6.908
REMARK INTRA:                  -0.660
REMARK UNBOUND:                -0.568
REMARK SMILES CCCCCCCCCCCC(=O)[O-]
REMARK SMILES IDX 7 1 8 2 9 3 10 4 11 5 12 6 13 7 14 8 6 9 5 10 4 11 3 12 2 13
REMARK SMILES IDX 1 14
REMARK H PARENT
REMARK Flexibility Score: inf
ROOT
ATOM      1  C   UNL     1       4.648  -6.361 -21.118  1.00  0.00     0.000 C 
ENDROOT
BRANCH   1   2
ATOM      2  C   UNL     1       4.800  -7.483 -22.166  1.00  0.00     0.000 C 
BRANCH   2   3
ATOM      3  C   UNL     1       6.252  -7.874 -22.496  1.00  0.00     0.000 C 
BRANCH   3   4
ATOM      4  C   UNL     1       6.398  -9.357 -22.872  1.00  0.00     0.006 C 
BRANCH   4   5
ATOM      5  C   UNL     1       5.133 -10.164 -22.549  1.00  0.00     0.053 C 
BRANCH   5   6
ATOM      6  C   UNL     1       5.206 -11.556 -23.098  1.00  0.00     0.041 C 
ATOM      7  O   UNL     1       5.945 -11.811 -24.086  1.00  0.00    -0.550 OA
ATOM      8  O   UNL     1       4.437 -12.565 -22.536  1.00  0.00    -0.550 OA
ENDBRANCH   5   6
ENDBRANCH   4   5
ENDBRANCH   3   4
ENDBRANCH   2   3
ENDBRANCH   1   2
BRANCH   1   9
ATOM      9  C   UNL     1       4.196  -6.826 -19.719  1.00  0.00     0.000 C 
BRANCH   9  10
ATOM     10  C   UNL     1       2.845  -6.258 -19.247  1.00  0.00    -0.000 C 
BRANCH  10  11
ATOM     11  C   UNL     1       2.979  -5.351 -18.011  1.00  0.00    -0.000 C 
BRANCH  11  12
ATOM     12  C   UNL     1       2.954  -3.858 -18.371  1.00  0.00    -0.000 C 
BRANCH  12  13
ATOM     13  C   UNL     1       4.323  -3.336 -18.831  1.00  0.00    -0.003 C 
ATOM     14  C   UNL     1       5.434  -3.820 -17.906  1.00  0.00     0.004 C 
ENDBRANCH  12  13
ENDBRANCH  11  12
ENDBRANCH  10  11
ENDBRANCH   9  10
ENDBRANCH   1   9
TORSDOF 10
ENDMDL
MODEL 9
REMARK VINA RESULT:    -4.396      1.451      2.472
REMARK INTER + INTRA:          -7.533
REMARK INTER:                  -7.026
REMARK INTRA:                  -0.507
REMARK UNBOUND:                -0.568
REMARK SMILES CCCCCCCCCCCC(=O)[O-]
REMARK SMILES IDX 7 1 8 2 9 3 10 4 11 5 12 6 13 7 14 8 6 9 5 10 4 11 3 12 2 13
REMARK SMILES IDX 1 14
REMARK H PARENT
REMARK Flexibility Score: inf
ROOT
ATOM      1  C   UNL     1       3.355  -7.317 -20.537  1.00  0.00     0.000 C 
ENDROOT
BRANCH   1   2
ATOM      2  C   UNL     1       4.220  -6.624 -19.463  1.00  0.00     0.000 C 
BRANCH   2   3
ATOM      3  C   UNL     1       3.468  -5.627 -18.565  1.00  0.00     0.000 C 
BRANCH   3   4
ATOM      4  C   UNL     1       4.318  -4.401 -18.193  1.00  0.00     0.006 C 
BRANCH   4   5
ATOM      5  C   UNL     1       5.061  -3.823 -19.406  1.00  0.00     0.053 C 
BRANCH   5   6
ATOM      6  C   UNL     1       4.253  -2.771 -20.102  1.00  0.00     0.041 C 
ATOM      7  O   UNL     1       3.275  -2.232 -19.519  1.00  0.00    -0.550 OA
ATOM      8  O   UNL     1       4.563  -2.406 -21.405  1.00  0.00    -0.550 OA
ENDBRANCH   5   6
ENDBRANCH   4   5
ENDBRANCH   3   4
ENDBRANCH   2   3
ENDBRANCH   1   2
BRANCH   1   9
ATOM      9  C   UNL     1       4.043  -8.475 -21.287  1.00  0.00     0.000 C 
BRANCH   9  10
ATOM     10  C   UNL     1       5.399  -8.123 -21.928  1.00  0.00    -0.000 C 
BRANCH  10  11
ATOM     11  C   UNL     1       6.079  -9.336 -22.586  1.00  0.00    -0.000 C 
BRANCH  11  12
ATOM     12  C   UNL     1       5.149 -10.556 -22.676  1.00  0.00    -0.000 C 
BRANCH  12  13
ATOM     13  C   UNL     1       5.651 -11.612 -23.670  1.00  0.00    -0.003 C 
ATOM     14  C   UNL     1       6.973 -11.187 -24.302  1.00  0.00     0.004 C 
ENDBRANCH  12  13
ENDBRANCH  11  12
ENDBRANCH  10  11
ENDBRANCH   9  10
ENDBRANCH   1   9
TORSDOF 10
ENDMDL
