MODEL 1
REMARK VINA RESULT:    -1.483      0.000      0.000
REMARK INTER + INTRA:          -4.831
REMARK INTER:                  -3.737
REMARK INTRA:                  -1.094
REMARK UNBOUND:                -1.094
REMARK SMILES CCCCCCCCCCCCCCCCCCCCCCCCCCCC(=O)[O-]
REMARK SMILES IDX 15 1 16 2 17 3 18 4 19 5 20 6 21 7 22 8 23 9 24 10 25 11
REMARK SMILES IDX 26 12 27 13 28 14 29 15 30 16 14 17 13 18 12 19 11 20 10 21
REMARK SMILES IDX 9 22 8 23 7 24 6 25 5 26 4 27 3 28 2 29 1 30
REMARK H PARENT
REMARK Flexibility Score: inf
ROOT
ATOM      1  C   UNL     1      11.201  80.028   2.072  1.00  0.00     0.000 C 
ENDROOT
BRANCH   1   2
ATOM      2  C   UNL     1      10.596  80.085   3.483  1.00  0.00     0.000 C 
BRANCH   2   3
ATOM      3  C   UNL     1       9.480  79.042   3.646  1.00  0.00     0.000 C 
BRANCH   3   4
ATOM      4  C   UNL     1       8.354  79.526   4.585  1.00  0.00     0.000 C 
BRANCH   4   5
ATOM      5  C   UNL     1       7.318  78.442   4.925  1.00  0.00     0.000 C 
BRANCH   5   6
ATOM      6  C   UNL     1       7.638  77.695   6.231  1.00  0.00     0.000 C 
BRANCH   6   7
ATOM      7  C   UNL     1       6.514  77.839   7.272  1.00  0.00     0.000 C 
BRANCH   7   8
ATOM      8  C   UNL     1       5.117  77.818   6.634  1.00  0.00     0.000 C 
BRANCH   8   9
ATOM      9  C   UNL     1       4.019  77.887   7.706  1.00  0.00     0.000 C 
BRANCH   9  10
ATOM     10  C   UNL     1       3.969  79.246   8.423  1.00  0.00     0.000 C 
BRANCH  10  11
ATOM     11  C   UNL     1       2.803  79.350   9.418  1.00  0.00     0.000 C 
BRANCH  11  12
ATOM     12  C   UNL     1       3.307  79.292  10.866  1.00  0.00     0.006 C 
BRANCH  12  13
ATOM     13  C   UNL     1       4.835  79.214  10.912  1.00  0.00     0.053 C 
BRANCH  13  14
ATOM     14  C   UNL     1       5.279  77.964  11.606  1.00  0.00     0.041 C 
ATOM     15  O   UNL     1       6.505  77.736  11.780  1.00  0.00    -0.550 OA
ATOM     16  O   UNL     1       4.335  77.052  12.060  1.00  0.00    -0.550 OA
ENDBRANCH  13  14
ENDBRANCH  12  13
ENDBRANCH  11  12
ENDBRANCH  10  11
ENDBRANCH   9  10
ENDBRANCH   8   9
ENDBRANCH   7   8
ENDBRANCH   6   7
ENDBRANCH   5   6
ENDBRANCH   4   5
ENDBRANCH   3   4
ENDBRANCH   2   3
ENDBRANCH   1   2
BRANCH   1  17
ATOM     17  C   UNL     1      12.736  80.106   2.086  1.00  0.00     0.000 C 
BRANCH  17  18
ATOM     18  C   UNL     1      13.393  79.016   1.221  1.00  0.00     0.000 C 
BRANCH  18  19
ATOM     19  C   UNL     1      13.751  79.530  -0.190  1.00  0.00     0.000 C 
BRANCH  19  20
ATOM     20  C   UNL     1      12.538  80.022  -1.000  1.00  0.00     0.000 C 
BRANCH  20  21
ATOM     21  C   UNL     1      11.254  79.237  -0.680  1.00  0.00     0.000 C 
BRANCH  21  22
ATOM     22  C   UNL     1       9.998  80.124  -0.669  1.00  0.00    -0.000 C 
BRANCH  22  23
ATOM     23  C   UNL     1       8.725  79.367  -1.083  1.00  0.00    -0.000 C 
BRANCH  23  24
ATOM     24  C   UNL     1       7.468  80.063  -0.541  1.00  0.00    -0.000 C 
BRANCH  24  25
ATOM     25  C   UNL     1       7.314  79.908   0.984  1.00  0.00    -0.000 C 
BRANCH  25  26
ATOM     26  C   UNL     1       5.874  79.646   1.476  1.00  0.00    -0.000 C 
BRANCH  26  27
ATOM     27  C   UNL     1       5.634  78.255   2.089  1.00  0.00    -0.000 C 
BRANCH  27  28
ATOM     28  C   UNL     1       6.504  77.162   1.450  1.00  0.00    -0.000 C 
BRANCH  28  29
ATOM     29  C   UNL     1       5.681  76.300   0.485  1.00  0.00    -0.003 C 
ATOM     30  C   UNL     1       5.184  75.029   1.168  1.00  0.00     0.004 C 
ENDBRANCH  28  29
ENDBRANCH  27  28
ENDBRANCH  26  27
ENDBRANCH  25  26
ENDBRANCH  24  25
ENDBRANCH  23  24
ENDBRANCH  22  23
ENDBRANCH  21  22
ENDBRANCH  20  21
ENDBRANCH  19  20
ENDBRANCH  18  19
ENDBRANCH  17  18
ENDBRANCH   1  17
TORSDOF 26
ENDMDL
MODEL 2
REMARK VINA RESULT:    -1.477      1.407      2.468
REMARK INTER + INTRA:          -4.817
REMARK INTER:                  -3.657
REMARK INTRA:                  -1.160
REMARK UNBOUND:                -1.094
REMARK SMILES CCCCCCCCCCCCCCCCCCCCCCCCCCCC(=O)[O-]
REMARK SMILES IDX 15 1 16 2 17 3 18 4 19 5 20 6 21 7 22 8 23 9 24 10 25 11
REMARK SMILES IDX 26 12 27 13 28 14 29 15 30 16 14 17 13 18 12 19 11 20 10 21
REMARK SMILES IDX 9 22 8 23 7 24 6 25 5 26 4 27 3 28 2 29 1 30
REMARK H PARENT
REMARK Flexibility Score: inf
ROOT
ATOM      1  C   UNL     1      12.131  79.622   2.032  1.00  0.00     0.000 C 
ENDROOT
BRANCH   1   2
ATOM      2  C   UNL     1      10.687  80.113   2.217  1.00  0.00     0.000 C 
BRANCH   2   3
ATOM      3  C   UNL     1      10.151  79.737   3.607  1.00  0.00     0.000 C 
BRANCH   3   4
ATOM      4  C   UNL     1       8.658  79.347   3.576  1.00  0.00     0.000 C 
BRANCH   4   5
ATOM      5  C   UNL     1       7.964  79.430   4.946  1.00  0.00     0.000 C 
BRANCH   5   6
ATOM      6  C   UNL     1       7.595  78.051   5.517  1.00  0.00     0.000 C 
BRANCH   6   7
ATOM      7  C   UNL     1       6.732  78.159   6.786  1.00  0.00     0.000 C 
BRANCH   7   8
ATOM      8  C   UNL     1       5.385  77.435   6.643  1.00  0.00     0.000 C 
BRANCH   8   9
ATOM      9  C   UNL     1       4.274  78.179   7.400  1.00  0.00     0.000 C 
BRANCH   9  10
ATOM     10  C   UNL     1       4.199  77.785   8.885  1.00  0.00     0.000 C 
BRANCH  10  11
ATOM     11  C   UNL     1       4.930  78.779   9.800  1.00  0.00     0.000 C 
BRANCH  11  12
ATOM     12  C   UNL     1       4.038  79.982  10.132  1.00  0.00     0.006 C 
BRANCH  12  13
ATOM     13  C   UNL     1       3.726  80.036  11.629  1.00  0.00     0.053 C 
BRANCH  13  14
ATOM     14  C   UNL     1       2.457  79.303  11.930  1.00  0.00     0.041 C 
ATOM     15  O   UNL     1       1.369  79.931  12.032  1.00  0.00    -0.550 OA
ATOM     16  O   UNL     1       2.476  77.924  12.099  1.00  0.00    -0.550 OA
ENDBRANCH  13  14
ENDBRANCH  12  13
ENDBRANCH  11  12
ENDBRANCH  10  11
ENDBRANCH   9  10
ENDBRANCH   8   9
ENDBRANCH   7   8
ENDBRANCH   6   7
ENDBRANCH   5   6
ENDBRANCH   4   5
ENDBRANCH   3   4
ENDBRANCH   2   3
ENDBRANCH   1   2
BRANCH   1  17
ATOM     17  C   UNL     1      12.753  80.105   0.712  1.00  0.00     0.000 C 
BRANCH  17  18
ATOM     18  C   UNL     1      11.892  79.753  -0.513  1.00  0.00     0.000 C 
BRANCH  18  19
ATOM     19  C   UNL     1      10.405  80.112  -0.302  1.00  0.00     0.000 C 
BRANCH  19  20
ATOM     20  C   UNL     1       9.456  79.459  -1.322  1.00  0.00     0.000 C 
BRANCH  20  21
ATOM     21  C   UNL     1       8.046  80.071  -1.296  1.00  0.00     0.000 C 
BRANCH  21  22
ATOM     22  C   UNL     1       7.442  80.125   0.117  1.00  0.00    -0.000 C 
BRANCH  22  23
ATOM     23  C   UNL     1       6.253  79.165   0.298  1.00  0.00    -0.000 C 
BRANCH  23  24
ATOM     24  C   UNL     1       5.711  79.225   1.734  1.00  0.00    -0.000 C 
BRANCH  24  25
ATOM     25  C   UNL     1       5.660  77.842   2.409  1.00  0.00    -0.000 C 
BRANCH  25  26
ATOM     26  C   UNL     1       6.359  76.705   1.633  1.00  0.00    -0.000 C 
BRANCH  26  27
ATOM     27  C   UNL     1       5.439  75.557   1.181  1.00  0.00    -0.000 C 
BRANCH  27  28
ATOM     28  C   UNL     1       4.933  75.728  -0.258  1.00  0.00    -0.000 C 
BRANCH  28  29
ATOM     29  C   UNL     1       4.800  74.370  -0.959  1.00  0.00    -0.003 C 
ATOM     30  C   UNL     1       4.884  74.521  -2.475  1.00  0.00     0.004 C 
ENDBRANCH  28  29
ENDBRANCH  27  28
ENDBRANCH  26  27
ENDBRANCH  25  26
ENDBRANCH  24  25
ENDBRANCH  23  24
ENDBRANCH  22  23
ENDBRANCH  21  22
ENDBRANCH  20  21
ENDBRANCH  19  20
ENDBRANCH  18  19
ENDBRANCH  17  18
ENDBRANCH   1  17
TORSDOF 26
ENDMDL
MODEL 3
REMARK VINA RESULT:    -1.202      3.649      9.101
REMARK INTER + INTRA:          -4.122
REMARK INTER:                  -3.616
REMARK INTRA:                  -0.506
REMARK UNBOUND:                -1.094
REMARK SMILES CCCCCCCCCCCCCCCCCCCCCCCCCCCC(=O)[O-]
REMARK SMILES IDX 15 1 16 2 17 3 18 4 19 5 20 6 21 7 22 8 23 9 24 10 25 11
REMARK SMILES IDX 26 12 27 13 28 14 29 15 30 16 14 17 13 18 12 19 11 20 10 21
REMARK SMILES IDX 9 22 8 23 7 24 6 25 5 26 4 27 3 28 2 29 1 30
REMARK H PARENT
REMARK Flexibility Score: inf
ROOT
ATOM      1  C   UNL     1       9.978  80.080   2.361  1.00  0.00     0.000 C 
ENDROOT
BRANCH   1   2
ATOM      2  C   UNL     1      11.255  79.381   1.869  1.00  0.00     0.000 C 
BRANCH   2   3
ATOM      3  C   UNL     1      11.016  78.681   0.523  1.00  0.00     0.000 C 
BRANCH   3   4
ATOM      4  C   UNL     1      11.814  79.332  -0.628  1.00  0.00     0.000 C 
BRANCH   4   5
ATOM      5  C   UNL     1      10.944  80.124  -1.619  1.00  0.00     0.000 C 
BRANCH   5   6
ATOM      6  C   UNL     1       9.513  79.572  -1.734  1.00  0.00     0.000 C 
BRANCH   6   7
ATOM      7  C   UNL     1       8.631  79.989  -0.545  1.00  0.00     0.000 C 
BRANCH   7   8
ATOM      8  C   UNL     1       7.262  79.293  -0.557  1.00  0.00     0.000 C 
BRANCH   8   9
ATOM      9  C   UNL     1       6.539  79.471   0.787  1.00  0.00     0.000 C 
BRANCH   9  10
ATOM     10  C   UNL     1       5.549  78.333   1.087  1.00  0.00     0.000 C 
BRANCH  10  11
ATOM     11  C   UNL     1       6.229  77.106   1.713  1.00  0.00     0.000 C 
BRANCH  11  12
ATOM     12  C   UNL     1       5.446  75.824   1.404  1.00  0.00     0.006 C 
BRANCH  12  13
ATOM     13  C   UNL     1       4.715  75.938   0.064  1.00  0.00     0.053 C 
BRANCH  13  14
ATOM     14  C   UNL     1       5.191  74.884  -0.887  1.00  0.00     0.041 C 
ATOM     15  O   UNL     1       5.730  73.833  -0.451  1.00  0.00    -0.550 OA
ATOM     16  O   UNL     1       5.038  75.066  -2.256  1.00  0.00    -0.550 OA
ENDBRANCH  13  14
ENDBRANCH  12  13
ENDBRANCH  11  12
ENDBRANCH  10  11
ENDBRANCH   9  10
ENDBRANCH   8   9
ENDBRANCH   7   8
ENDBRANCH   6   7
ENDBRANCH   5   6
ENDBRANCH   4   5
ENDBRANCH   3   4
ENDBRANCH   2   3
ENDBRANCH   1   2
BRANCH   1  17
ATOM     17  C   UNL     1       8.900  79.083   2.818  1.00  0.00     0.000 C 
BRANCH  17  18
ATOM     18  C   UNL     1       9.104  78.613   4.268  1.00  0.00     0.000 C 
BRANCH  18  19
ATOM     19  C   UNL     1       7.823  78.769   5.116  1.00  0.00     0.000 C 
BRANCH  19  20
ATOM     20  C   UNL     1       7.583  77.611   6.100  1.00  0.00     0.000 C 
BRANCH  20  21
ATOM     21  C   UNL     1       6.614  77.987   7.233  1.00  0.00     0.000 C 
BRANCH  21  22
ATOM     22  C   UNL     1       5.137  77.849   6.827  1.00  0.00    -0.000 C 
BRANCH  22  23
ATOM     23  C   UNL     1       4.185  77.801   8.034  1.00  0.00    -0.000 C 
BRANCH  23  24
ATOM     24  C   UNL     1       3.431  79.129   8.195  1.00  0.00    -0.000 C 
BRANCH  24  25
ATOM     25  C   UNL     1       3.749  79.836   9.527  1.00  0.00    -0.000 C 
BRANCH  25  26
ATOM     26  C   UNL     1       3.254  79.105  10.794  1.00  0.00    -0.000 C 
BRANCH  26  27
ATOM     27  C   UNL     1       3.640  77.618  10.884  1.00  0.00    -0.000 C 
BRANCH  27  28
ATOM     28  C   UNL     1       4.486  77.294  12.124  1.00  0.00    -0.000 C 
BRANCH  28  29
ATOM     29  C   UNL     1       5.968  77.598  11.871  1.00  0.00    -0.003 C 
ATOM     30  C   UNL     1       6.256  79.090  12.009  1.00  0.00     0.004 C 
ENDBRANCH  28  29
ENDBRANCH  27  28
ENDBRANCH  26  27
ENDBRANCH  25  26
ENDBRANCH  24  25
ENDBRANCH  23  24
ENDBRANCH  22  23
ENDBRANCH  21  22
ENDBRANCH  20  21
ENDBRANCH  19  20
ENDBRANCH  18  19
ENDBRANCH  17  18
ENDBRANCH   1  17
TORSDOF 26
ENDMDL
MODEL 4
REMARK VINA RESULT:    -0.989      1.706      4.747
REMARK INTER + INTRA:          -3.587
REMARK INTER:                  -2.516
REMARK INTRA:                  -1.071
REMARK UNBOUND:                -1.094
REMARK SMILES CCCCCCCCCCCCCCCCCCCCCCCCCCCC(=O)[O-]
REMARK SMILES IDX 15 1 16 2 17 3 18 4 19 5 20 6 21 7 22 8 23 9 24 10 25 11
REMARK SMILES IDX 26 12 27 13 28 14 29 15 30 16 14 17 13 18 12 19 11 20 10 21
REMARK SMILES IDX 9 22 8 23 7 24 6 25 5 26 4 27 3 28 2 29 1 30
REMARK H PARENT
REMARK Flexibility Score: inf
ROOT
ATOM      1  C   UNL     1       6.528  79.810   1.294  1.00  0.00     0.000 C 
ENDROOT
BRANCH   1   2
ATOM      2  C   UNL     1       6.340  78.696   2.336  1.00  0.00     0.000 C 
BRANCH   2   3
ATOM      3  C   UNL     1       7.696  78.156   2.815  1.00  0.00     0.000 C 
BRANCH   3   4
ATOM      4  C   UNL     1       8.374  79.094   3.837  1.00  0.00     0.000 C 
BRANCH   4   5
ATOM      5  C   UNL     1       7.654  79.159   5.194  1.00  0.00     0.000 C 
BRANCH   5   6
ATOM      6  C   UNL     1       7.828  77.879   6.028  1.00  0.00     0.000 C 
BRANCH   6   7
ATOM      7  C   UNL     1       6.725  77.722   7.089  1.00  0.00     0.000 C 
BRANCH   7   8
ATOM      8  C   UNL     1       5.316  77.882   6.498  1.00  0.00     0.000 C 
BRANCH   8   9
ATOM      9  C   UNL     1       4.239  77.547   7.541  1.00  0.00     0.000 C 
BRANCH   9  10
ATOM     10  C   UNL     1       3.861  78.753   8.417  1.00  0.00     0.000 C 
BRANCH  10  11
ATOM     11  C   UNL     1       4.015  78.466   9.918  1.00  0.00     0.000 C 
BRANCH  11  12
ATOM     12  C   UNL     1       3.837  79.746  10.745  1.00  0.00     0.006 C 
BRANCH  12  13
ATOM     13  C   UNL     1       4.511  79.614  12.113  1.00  0.00     0.053 C 
BRANCH  13  14
ATOM     14  C   UNL     1       5.579  78.565  12.076  1.00  0.00     0.041 C 
ATOM     15  O   UNL     1       6.792  78.898  12.011  1.00  0.00    -0.550 OA
ATOM     16  O   UNL     1       5.231  77.221  12.113  1.00  0.00    -0.550 OA
ENDBRANCH  13  14
ENDBRANCH  12  13
ENDBRANCH  11  12
ENDBRANCH  10  11
ENDBRANCH   9  10
ENDBRANCH   8   9
ENDBRANCH   7   8
ENDBRANCH   6   7
ENDBRANCH   5   6
ENDBRANCH   4   5
ENDBRANCH   3   4
ENDBRANCH   2   3
ENDBRANCH   1   2
BRANCH   1  17
ATOM     17  C   UNL     1       8.009  80.099   1.001  1.00  0.00     0.000 C 
BRANCH  17  18
ATOM     18  C   UNL     1       8.385  79.840  -0.468  1.00  0.00     0.000 C 
BRANCH  18  19
ATOM     19  C   UNL     1       9.885  80.084  -0.737  1.00  0.00     0.000 C 
BRANCH  19  20
ATOM     20  C   UNL     1      10.754  80.078   0.533  1.00  0.00     0.000 C 
BRANCH  20  21
ATOM     21  C   UNL     1      12.259  80.125   0.223  1.00  0.00     0.000 C 
BRANCH  21  22
ATOM     22  C   UNL     1      13.130  79.686   1.412  1.00  0.00    -0.000 C 
BRANCH  22  23
ATOM     23  C   UNL     1      14.627  79.616   1.066  1.00  0.00    -0.000 C 
BRANCH  23  24
ATOM     24  C   UNL     1      14.878  80.051  -0.385  1.00  0.00    -0.000 C 
BRANCH  24  25
ATOM     25  C   UNL     1      15.123  78.858  -1.330  1.00  0.00    -0.000 C 
BRANCH  25  26
ATOM     26  C   UNL     1      13.852  78.117  -1.797  1.00  0.00    -0.000 C 
BRANCH  26  27
ATOM     27  C   UNL     1      13.632  76.731  -1.165  1.00  0.00    -0.000 C 
BRANCH  27  28
ATOM     28  C   UNL     1      14.791  76.299  -0.254  1.00  0.00    -0.000 C 
BRANCH  28  29
ATOM     29  C   UNL     1      14.461  74.987   0.469  1.00  0.00    -0.003 C 
ATOM     30  C   UNL     1      12.985  74.925   0.853  1.00  0.00     0.004 C 
ENDBRANCH  28  29
ENDBRANCH  27  28
ENDBRANCH  26  27
ENDBRANCH  25  26
ENDBRANCH  24  25
ENDBRANCH  23  24
ENDBRANCH  22  23
ENDBRANCH  21  22
ENDBRANCH  20  21
ENDBRANCH  19  20
ENDBRANCH  18  19
ENDBRANCH  17  18
ENDBRANCH   1  17
TORSDOF 26
ENDMDL
MODEL 5
REMARK VINA RESULT:    -0.727      3.833      8.644
REMARK INTER + INTRA:          -2.927
REMARK INTER:                  -1.653
REMARK INTRA:                  -1.274
REMARK UNBOUND:                -1.094
REMARK SMILES CCCCCCCCCCCCCCCCCCCCCCCCCCCC(=O)[O-]
REMARK SMILES IDX 15 1 16 2 17 3 18 4 19 5 20 6 21 7 22 8 23 9 24 10 25 11
REMARK SMILES IDX 26 12 27 13 28 14 29 15 30 16 14 17 13 18 12 19 11 20 10 21
REMARK SMILES IDX 9 22 8 23 7 24 6 25 5 26 4 27 3 28 2 29 1 30
REMARK H PARENT
REMARK Flexibility Score: inf
ROOT
ATOM      1  C   UNL     1       9.275  79.632   2.138  1.00  0.00     0.000 C 
ENDROOT
BRANCH   1   2
ATOM      2  C   UNL     1      10.739  80.020   1.882  1.00  0.00     0.000 C 
BRANCH   2   3
ATOM      3  C   UNL     1      11.086  79.904   0.390  1.00  0.00     0.000 C 
BRANCH   3   4
ATOM      4  C   UNL     1      10.056  79.058  -0.389  1.00  0.00     0.000 C 
BRANCH   4   5
ATOM      5  C   UNL     1       9.047  79.894  -1.195  1.00  0.00     0.000 C 
BRANCH   5   6
ATOM      6  C   UNL     1       7.596  79.416  -1.019  1.00  0.00     0.000 C 
BRANCH   6   7
ATOM      7  C   UNL     1       6.888  80.124   0.149  1.00  0.00     0.000 C 
BRANCH   7   8
ATOM      8  C   UNL     1       5.723  79.299   0.715  1.00  0.00     0.000 C 
BRANCH   8   9
ATOM      9  C   UNL     1       6.237  78.100   1.527  1.00  0.00     0.000 C 
BRANCH   9  10
ATOM     10  C   UNL     1       5.958  76.752   0.841  1.00  0.00     0.000 C 
BRANCH  10  11
ATOM     11  C   UNL     1       5.859  75.589   1.839  1.00  0.00     0.000 C 
BRANCH  11  12
ATOM     12  C   UNL     1       4.980  74.460   1.285  1.00  0.00     0.006 C 
BRANCH  12  13
ATOM     13  C   UNL     1       5.461  74.021  -0.100  1.00  0.00     0.053 C 
BRANCH  13  14
ATOM     14  C   UNL     1       4.691  74.724  -1.173  1.00  0.00     0.041 C 
ATOM     15  O   UNL     1       5.124  74.744  -2.356  1.00  0.00    -0.550 OA
ATOM     16  O   UNL     1       3.494  75.358  -0.865  1.00  0.00    -0.550 OA
ENDBRANCH  13  14
ENDBRANCH  12  13
ENDBRANCH  11  12
ENDBRANCH  10  11
ENDBRANCH   9  10
ENDBRANCH   8   9
ENDBRANCH   7   8
ENDBRANCH   6   7
ENDBRANCH   5   6
ENDBRANCH   4   5
ENDBRANCH   3   4
ENDBRANCH   2   3
ENDBRANCH   1   2
BRANCH   1  17
ATOM     17  C   UNL     1       9.141  78.417   3.071  1.00  0.00     0.000 C 
BRANCH  17  18
ATOM     18  C   UNL     1       8.961  78.819   4.546  1.00  0.00     0.000 C 
BRANCH  18  19
ATOM     19  C   UNL     1       7.499  78.667   5.016  1.00  0.00     0.000 C 
BRANCH  19  20
ATOM     20  C   UNL     1       7.348  77.905   6.345  1.00  0.00     0.000 C 
BRANCH  20  21
ATOM     21  C   UNL     1       5.879  77.666   6.728  1.00  0.00     0.000 C 
BRANCH  21  22
ATOM     22  C   UNL     1       5.627  77.788   8.240  1.00  0.00    -0.000 C 
BRANCH  22  23
ATOM     23  C   UNL     1       4.180  77.448   8.637  1.00  0.00    -0.000 C 
BRANCH  23  24
ATOM     24  C   UNL     1       3.823  78.063   9.998  1.00  0.00    -0.000 C 
BRANCH  24  25
ATOM     25  C   UNL     1       3.629  79.590   9.929  1.00  0.00    -0.000 C 
BRANCH  25  26
ATOM     26  C   UNL     1       2.405  80.061   9.115  1.00  0.00    -0.000 C 
BRANCH  26  27
ATOM     27  C   UNL     1       2.525  79.889   7.591  1.00  0.00    -0.000 C 
BRANCH  27  28
ATOM     28  C   UNL     1       1.269  79.271   6.959  1.00  0.00    -0.000 C 
BRANCH  28  29
ATOM     29  C   UNL     1       1.563  78.755   5.545  1.00  0.00    -0.003 C 
ATOM     30  C   UNL     1       2.417  77.490   5.586  1.00  0.00     0.004 C 
ENDBRANCH  28  29
ENDBRANCH  27  28
ENDBRANCH  26  27
ENDBRANCH  25  26
ENDBRANCH  24  25
ENDBRANCH  23  24
ENDBRANCH  22  23
ENDBRANCH  21  22
ENDBRANCH  20  21
ENDBRANCH  19  20
ENDBRANCH  18  19
ENDBRANCH  17  18
ENDBRANCH   1  17
TORSDOF 26
ENDMDL
MODEL 6
REMARK VINA RESULT:    -0.515      4.015      7.220
REMARK INTER + INTRA:          -2.391
REMARK INTER:                  -0.733
REMARK INTRA:                  -1.658
REMARK UNBOUND:                -1.094
REMARK SMILES CCCCCCCCCCCCCCCCCCCCCCCCCCCC(=O)[O-]
REMARK SMILES IDX 15 1 16 2 17 3 18 4 19 5 20 6 21 7 22 8 23 9 24 10 25 11
REMARK SMILES IDX 26 12 27 13 28 14 29 15 30 16 14 17 13 18 12 19 11 20 10 21
REMARK SMILES IDX 9 22 8 23 7 24 6 25 5 26 4 27 3 28 2 29 1 30
REMARK H PARENT
REMARK Flexibility Score: inf
ROOT
ATOM      1  C   UNL     1      13.376  76.236  -1.001  1.00  0.00     0.000 C 
ENDROOT
BRANCH   1   2
ATOM      2  C   UNL     1      12.288  76.577   0.028  1.00  0.00     0.000 C 
BRANCH   2   3
ATOM      3  C   UNL     1      11.836  78.039  -0.114  1.00  0.00     0.000 C 
BRANCH   3   4
ATOM      4  C   UNL     1      11.087  78.297  -1.439  1.00  0.00     0.000 C 
BRANCH   4   5
ATOM      5  C   UNL     1      10.422  79.681  -1.518  1.00  0.00     0.000 C 
BRANCH   5   6
ATOM      6  C   UNL     1       9.693  80.071  -0.221  1.00  0.00     0.000 C 
BRANCH   6   7
ATOM      7  C   UNL     1       8.536  79.112   0.107  1.00  0.00     0.000 C 
BRANCH   7   8
ATOM      8  C   UNL     1       7.176  79.825   0.143  1.00  0.00     0.000 C 
BRANCH   8   9
ATOM      9  C   UNL     1       6.252  79.201   1.201  1.00  0.00     0.000 C 
BRANCH   9  10
ATOM     10  C   UNL     1       5.685  77.839   0.768  1.00  0.00     0.000 C 
BRANCH  10  11
ATOM     11  C   UNL     1       6.036  76.711   1.750  1.00  0.00     0.000 C 
BRANCH  11  12
ATOM     12  C   UNL     1       5.062  75.535   1.611  1.00  0.00     0.006 C 
BRANCH  12  13
ATOM     13  C   UNL     1       5.490  74.599   0.477  1.00  0.00     0.053 C 
BRANCH  13  14
ATOM     14  C   UNL     1       4.780  74.950  -0.793  1.00  0.00     0.041 C 
ATOM     15  O   UNL     1       5.308  74.692  -1.907  1.00  0.00    -0.550 OA
ATOM     16  O   UNL     1       3.534  75.562  -0.744  1.00  0.00    -0.550 OA
ENDBRANCH  13  14
ENDBRANCH  12  13
ENDBRANCH  11  12
ENDBRANCH  10  11
ENDBRANCH   9  10
ENDBRANCH   8   9
ENDBRANCH   7   8
ENDBRANCH   6   7
ENDBRANCH   5   6
ENDBRANCH   4   5
ENDBRANCH   3   4
ENDBRANCH   2   3
ENDBRANCH   1   2
BRANCH   1  17
ATOM     17  C   UNL     1      14.562  77.214  -0.952  1.00  0.00     0.000 C 
BRANCH  17  18
ATOM     18  C   UNL     1      14.721  78.018  -2.254  1.00  0.00     0.000 C 
BRANCH  18  19
ATOM     19  C   UNL     1      14.652  79.541  -2.009  1.00  0.00     0.000 C 
BRANCH  19  20
ATOM     20  C   UNL     1      15.081  79.963  -0.593  1.00  0.00     0.000 C 
BRANCH  20  21
ATOM     21  C   UNL     1      13.890  80.110   0.368  1.00  0.00     0.000 C 
BRANCH  21  22
ATOM     22  C   UNL     1      14.030  79.244   1.631  1.00  0.00    -0.000 C 
BRANCH  22  23
ATOM     23  C   UNL     1      13.264  79.813   2.837  1.00  0.00    -0.000 C 
BRANCH  23  24
ATOM     24  C   UNL     1      11.806  80.125   2.467  1.00  0.00    -0.000 C 
BRANCH  24  25
ATOM     25  C   UNL     1      10.834  79.007   2.887  1.00  0.00    -0.000 C 
BRANCH  25  26
ATOM     26  C   UNL     1       9.397  79.472   3.210  1.00  0.00    -0.000 C 
BRANCH  26  27
ATOM     27  C   UNL     1       8.532  78.448   3.967  1.00  0.00    -0.000 C 
BRANCH  27  28
ATOM     28  C   UNL     1       7.599  79.101   4.997  1.00  0.00    -0.000 C 
BRANCH  28  29
ATOM     29  C   UNL     1       7.560  78.287   6.297  1.00  0.00    -0.003 C 
ATOM     30  C   UNL     1       6.218  77.579   6.463  1.00  0.00     0.004 C 
ENDBRANCH  28  29
ENDBRANCH  27  28
ENDBRANCH  26  27
ENDBRANCH  25  26
ENDBRANCH  24  25
ENDBRANCH  23  24
ENDBRANCH  22  23
ENDBRANCH  21  22
ENDBRANCH  20  21
ENDBRANCH  19  20
ENDBRANCH  18  19
ENDBRANCH  17  18
ENDBRANCH   1  17
TORSDOF 26
ENDMDL
MODEL 7
REMARK VINA RESULT:    -0.129      3.876     10.208
REMARK INTER + INTRA:          -1.420
REMARK INTER:                  -0.186
REMARK INTRA:                  -1.234
REMARK UNBOUND:                -1.094
REMARK SMILES CCCCCCCCCCCCCCCCCCCCCCCCCCCC(=O)[O-]
REMARK SMILES IDX 15 1 16 2 17 3 18 4 19 5 20 6 21 7 22 8 23 9 24 10 25 11
REMARK SMILES IDX 26 12 27 13 28 14 29 15 30 16 14 17 13 18 12 19 11 20 10 21
REMARK SMILES IDX 9 22 8 23 7 24 6 25 5 26 4 27 3 28 2 29 1 30
REMARK H PARENT
REMARK Flexibility Score: inf
ROOT
ATOM      1  C   UNL     1       6.265  78.877   0.807  1.00  0.00     0.000 C 
ENDROOT
BRANCH   1   2
ATOM      2  C   UNL     1       6.792  80.069  -0.006  1.00  0.00     0.000 C 
BRANCH   2   3
ATOM      3  C   UNL     1       8.059  79.686  -0.787  1.00  0.00     0.000 C 
BRANCH   3   4
ATOM      4  C   UNL     1       9.303  79.591   0.122  1.00  0.00     0.000 C 
BRANCH   4   5
ATOM      5  C   UNL     1      10.636  79.621  -0.645  1.00  0.00     0.000 C 
BRANCH   5   6
ATOM      6  C   UNL     1      11.811  80.121   0.212  1.00  0.00     0.000 C 
BRANCH   6   7
ATOM      7  C   UNL     1      12.564  78.967   0.897  1.00  0.00     0.000 C 
BRANCH   7   8
ATOM      8  C   UNL     1      14.074  79.232   0.999  1.00  0.00     0.000 C 
BRANCH   8   9
ATOM      9  C   UNL     1      14.651  79.669  -0.356  1.00  0.00     0.000 C 
BRANCH   9  10
ATOM     10  C   UNL     1      15.079  78.481  -1.233  1.00  0.00     0.000 C 
BRANCH  10  11
ATOM     11  C   UNL     1      13.940  77.960  -2.123  1.00  0.00     0.000 C 
BRANCH  11  12
ATOM     12  C   UNL     1      13.642  76.484  -1.830  1.00  0.00     0.006 C 
BRANCH  12  13
ATOM     13  C   UNL     1      14.719  75.876  -0.927  1.00  0.00     0.053 C 
BRANCH  13  14
ATOM     14  C   UNL     1      14.094  75.100   0.190  1.00  0.00     0.041 C 
ATOM     15  O   UNL     1      14.806  74.372   0.932  1.00  0.00    -0.550 OA
ATOM     16  O   UNL     1      12.725  75.182   0.410  1.00  0.00    -0.550 OA
ENDBRANCH  13  14
ENDBRANCH  12  13
ENDBRANCH  11  12
ENDBRANCH  10  11
ENDBRANCH   9  10
ENDBRANCH   8   9
ENDBRANCH   7   8
ENDBRANCH   6   7
ENDBRANCH   5   6
ENDBRANCH   4   5
ENDBRANCH   3   4
ENDBRANCH   2   3
ENDBRANCH   1   2
BRANCH   1  17
ATOM     17  C   UNL     1       6.846  78.830   2.230  1.00  0.00     0.000 C 
BRANCH  17  18
ATOM     18  C   UNL     1       8.121  77.974   2.321  1.00  0.00     0.000 C 
BRANCH  18  19
ATOM     19  C   UNL     1       8.980  78.339   3.552  1.00  0.00     0.000 C 
BRANCH  19  20
ATOM     20  C   UNL     1       8.681  79.735   4.127  1.00  0.00     0.000 C 
BRANCH  20  21
ATOM     21  C   UNL     1       7.726  79.688   5.331  1.00  0.00     0.000 C 
BRANCH  21  22
ATOM     22  C   UNL     1       6.949  78.365   5.428  1.00  0.00    -0.000 C 
BRANCH  22  23
ATOM     23  C   UNL     1       6.828  77.844   6.870  1.00  0.00    -0.000 C 
BRANCH  23  24
ATOM     24  C   UNL     1       5.619  78.468   7.582  1.00  0.00    -0.000 C 
BRANCH  24  25
ATOM     25  C   UNL     1       4.562  77.423   7.986  1.00  0.00    -0.000 C 
BRANCH  25  26
ATOM     26  C   UNL     1       3.512  77.911   9.008  1.00  0.00    -0.000 C 
BRANCH  26  27
ATOM     27  C   UNL     1       3.822  79.265   9.670  1.00  0.00    -0.000 C 
BRANCH  27  28
ATOM     28  C   UNL     1       3.915  79.175  11.200  1.00  0.00    -0.000 C 
BRANCH  28  29
ATOM     29  C   UNL     1       4.137  77.726  11.652  1.00  0.00    -0.003 C 
ATOM     30  C   UNL     1       5.625  77.395  11.734  1.00  0.00     0.004 C 
ENDBRANCH  28  29
ENDBRANCH  27  28
ENDBRANCH  26  27
ENDBRANCH  25  26
ENDBRANCH  24  25
ENDBRANCH  23  24
ENDBRANCH  22  23
ENDBRANCH  21  22
ENDBRANCH  20  21
ENDBRANCH  19  20
ENDBRANCH  18  19
ENDBRANCH  17  18
ENDBRANCH   1  17
TORSDOF 26
ENDMDL
MODEL 8
REMARK VINA RESULT:     0.115      4.046      9.687
REMARK INTER + INTRA:          -0.804
REMARK INTER:                   1.407
REMARK INTRA:                  -2.211
REMARK UNBOUND:                -1.094
REMARK SMILES CCCCCCCCCCCCCCCCCCCCCCCCCCCC(=O)[O-]
REMARK SMILES IDX 15 1 16 2 17 3 18 4 19 5 20 6 21 7 22 8 23 9 24 10 25 11
REMARK SMILES IDX 26 12 27 13 28 14 29 15 30 16 14 17 13 18 12 19 11 20 10 21
REMARK SMILES IDX 9 22 8 23 7 24 6 25 5 26 4 27 3 28 2 29 1 30
REMARK H PARENT
REMARK Flexibility Score: inf
ROOT
ATOM      1  C   UNL     1       5.372  75.483   1.245  1.00  0.00     0.000 C 
ENDROOT
BRANCH   1   2
ATOM      2  C   UNL     1       5.407  74.492   0.071  1.00  0.00     0.000 C 
BRANCH   2   3
ATOM      3  C   UNL     1       4.403  74.896  -1.019  1.00  0.00     0.000 C 
BRANCH   3   4
ATOM      4  C   UNL     1       4.972  74.704  -2.442  1.00  0.00     0.000 C 
BRANCH   4   5
ATOM      5  C   UNL     1       6.380  75.291  -2.633  1.00  0.00     0.000 C 
BRANCH   5   6
ATOM      6  C   UNL     1       6.832  75.299  -4.103  1.00  0.00     0.000 C 
BRANCH   6   7
ATOM      7  C   UNL     1       7.880  76.391  -4.383  1.00  0.00     0.000 C 
BRANCH   7   8
ATOM      8  C   UNL     1       7.612  77.678  -3.589  1.00  0.00     0.000 C 
BRANCH   8   9
ATOM      9  C   UNL     1       8.885  78.167  -2.882  1.00  0.00     0.000 C 
BRANCH   9  10
ATOM     10  C   UNL     1       8.677  79.492  -2.130  1.00  0.00     0.000 C 
BRANCH  10  11
ATOM     11  C   UNL     1       9.274  79.470  -0.714  1.00  0.00     0.000 C 
BRANCH  11  12
ATOM     12  C   UNL     1      10.744  79.909  -0.729  1.00  0.00     0.006 C 
BRANCH  12  13
ATOM     13  C   UNL     1      11.532  79.223   0.390  1.00  0.00     0.053 C 
BRANCH  13  14
ATOM     14  C   UNL     1      13.001  79.279   0.111  1.00  0.00     0.041 C 
ATOM     15  O   UNL     1      13.427  79.187  -1.071  1.00  0.00    -0.550 OA
ATOM     16  O   UNL     1      13.900  79.433   1.159  1.00  0.00    -0.550 OA
ENDBRANCH  13  14
ENDBRANCH  12  13
ENDBRANCH  11  12
ENDBRANCH  10  11
ENDBRANCH   9  10
ENDBRANCH   8   9
ENDBRANCH   7   8
ENDBRANCH   6   7
ENDBRANCH   5   6
ENDBRANCH   4   5
ENDBRANCH   3   4
ENDBRANCH   2   3
ENDBRANCH   1   2
BRANCH   1  17
ATOM     17  C   UNL     1       5.748  76.912   0.822  1.00  0.00     0.000 C 
BRANCH  17  18
ATOM     18  C   UNL     1       5.997  77.840   2.023  1.00  0.00     0.000 C 
BRANCH  18  19
ATOM     19  C   UNL     1       6.255  79.299   1.588  1.00  0.00     0.000 C 
BRANCH  19  20
ATOM     20  C   UNL     1       7.362  80.002   2.393  1.00  0.00     0.000 C 
BRANCH  20  21
ATOM     21  C   UNL     1       8.659  79.180   2.461  1.00  0.00     0.000 C 
BRANCH  21  22
ATOM     22  C   UNL     1       8.935  78.611   3.862  1.00  0.00    -0.000 C 
BRANCH  22  23
ATOM     23  C   UNL     1       8.046  79.238   4.950  1.00  0.00    -0.000 C 
BRANCH  23  24
ATOM     24  C   UNL     1       7.540  78.171   5.931  1.00  0.00    -0.000 C 
BRANCH  24  25
ATOM     25  C   UNL     1       6.002  78.120   6.012  1.00  0.00    -0.000 C 
BRANCH  25  26
ATOM     26  C   UNL     1       5.433  77.414   7.262  1.00  0.00    -0.000 C 
BRANCH  26  27
ATOM     27  C   UNL     1       4.039  77.891   7.706  1.00  0.00    -0.000 C 
BRANCH  27  28
ATOM     28  C   UNL     1       3.727  77.547   9.169  1.00  0.00    -0.000 C 
BRANCH  28  29
ATOM     29  C   UNL     1       4.345  78.579  10.120  1.00  0.00    -0.003 C 
ATOM     30  C   UNL     1       4.481  78.017  11.532  1.00  0.00     0.004 C 
ENDBRANCH  28  29
ENDBRANCH  27  28
ENDBRANCH  26  27
ENDBRANCH  25  26
ENDBRANCH  24  25
ENDBRANCH  23  24
ENDBRANCH  22  23
ENDBRANCH  21  22
ENDBRANCH  20  21
ENDBRANCH  19  20
ENDBRANCH  18  19
ENDBRANCH  17  18
ENDBRANCH   1  17
TORSDOF 26
ENDMDL
