MODEL 1
REMARK VINA RESULT:    -5.038      0.000      0.000
REMARK INTER + INTRA:         -17.987
REMARK INTER:                 -13.284
REMARK INTRA:                  -4.702
REMARK UNBOUND:                -4.702
REMARK SMILES CCCCCCCCCCCCCCCCCCCCCCCCCCCCCC(=O)[O-]
REMARK SMILES IDX 16 1 17 2 18 3 19 4 20 5 21 6 22 7 23 8 24 9 25 10 26 11
REMARK SMILES IDX 27 12 28 13 29 14 30 15 31 16 32 17 15 18 14 19 13 20 12 21
REMARK SMILES IDX 11 22 10 23 9 24 8 25 7 26 6 27 5 28 4 29 3 30 2 31 1 32
REMARK H PARENT
REMARK Flexibility Score: inf
ROOT
ATOM      1  C   UNL     1     -21.374  20.528 -24.976  1.00  0.00     0.000 C 
ENDROOT
BRANCH   1   2
ATOM      2  C   UNL     1     -22.744  20.736 -24.312  1.00  0.00     0.000 C 
BRANCH   2   3
ATOM      3  C   UNL     1     -23.097  19.613 -23.321  1.00  0.00     0.000 C 
BRANCH   3   4
ATOM      4  C   UNL     1     -22.812  19.997 -21.859  1.00  0.00     0.000 C 
BRANCH   4   5
ATOM      5  C   UNL     1     -23.963  20.778 -21.205  1.00  0.00     0.000 C 
BRANCH   5   6
ATOM      6  C   UNL     1     -23.550  22.228 -20.904  1.00  0.00     0.000 C 
BRANCH   6   7
ATOM      7  C   UNL     1     -24.539  23.269 -21.462  1.00  0.00     0.000 C 
BRANCH   7   8
ATOM      8  C   UNL     1     -23.923  24.319 -22.402  1.00  0.00     0.000 C 
BRANCH   8   9
ATOM      9  C   UNL     1     -22.449  24.037 -22.735  1.00  0.00     0.000 C 
BRANCH   9  10
ATOM     10  C   UNL     1     -21.595  25.316 -22.724  1.00  0.00     0.000 C 
BRANCH  10  11
ATOM     11  C   UNL     1     -20.768  25.488 -24.007  1.00  0.00     0.000 C 
BRANCH  11  12
ATOM     12  C   UNL     1     -20.420  24.128 -24.627  1.00  0.00     0.000 C 
BRANCH  12  13
ATOM     13  C   UNL     1     -20.837  24.070 -26.103  1.00  0.00     0.006 C 
BRANCH  13  14
ATOM     14  C   UNL     1     -21.262  25.452 -26.610  1.00  0.00     0.053 C 
BRANCH  14  15
ATOM     15  C   UNL     1     -22.715  25.462 -26.966  1.00  0.00     0.041 C 
ATOM     16  O   UNL     1     -23.074  25.755 -28.136  1.00  0.00    -0.550 OA
ATOM     17  O   UNL     1     -23.671  25.137 -26.009  1.00  0.00    -0.550 OA
ENDBRANCH  14  15
ENDBRANCH  13  14
ENDBRANCH  12  13
ENDBRANCH  11  12
ENDBRANCH  10  11
ENDBRANCH   9  10
ENDBRANCH   8   9
ENDBRANCH   7   8
ENDBRANCH   6   7
ENDBRANCH   5   6
ENDBRANCH   4   5
ENDBRANCH   3   4
ENDBRANCH   2   3
ENDBRANCH   1   2
BRANCH   1  18
ATOM     18  C   UNL     1     -21.412  19.403 -26.022  1.00  0.00     0.000 C 
BRANCH  18  19
ATOM     19  C   UNL     1     -20.579  18.195 -25.577  1.00  0.00     0.000 C 
BRANCH  19  20
ATOM     20  C   UNL     1     -21.469  16.953 -25.404  1.00  0.00     0.000 C 
BRANCH  20  21
ATOM     21  C   UNL     1     -21.013  16.044 -24.244  1.00  0.00     0.000 C 
BRANCH  21  22
ATOM     22  C   UNL     1     -20.513  16.821 -23.004  1.00  0.00     0.000 C 
BRANCH  22  23
ATOM     23  C   UNL     1     -21.419  16.662 -21.772  1.00  0.00     0.000 C 
BRANCH  23  24
ATOM     24  C   UNL     1     -22.781  16.030 -22.127  1.00  0.00    -0.000 C 
BRANCH  24  25
ATOM     25  C   UNL     1     -23.931  16.586 -21.266  1.00  0.00    -0.000 C 
BRANCH  25  26
ATOM     26  C   UNL     1     -24.568  15.541 -20.329  1.00  0.00    -0.000 C 
BRANCH  26  27
ATOM     27  C   UNL     1     -24.133  14.100 -20.661  1.00  0.00    -0.000 C 
BRANCH  27  28
ATOM     28  C   UNL     1     -23.200  13.498 -19.593  1.00  0.00    -0.000 C 
BRANCH  28  29
ATOM     29  C   UNL     1     -21.826  13.031 -20.113  1.00  0.00    -0.000 C 
BRANCH  29  30
ATOM     30  C   UNL     1     -21.906  12.389 -21.508  1.00  0.00    -0.000 C 
BRANCH  30  31
ATOM     31  C   UNL     1     -20.719  12.782 -22.404  1.00  0.00    -0.003 C 
ATOM     32  C   UNL     1     -19.570  13.413 -21.616  1.00  0.00     0.004 C 
ENDBRANCH  30  31
ENDBRANCH  29  30
ENDBRANCH  28  29
ENDBRANCH  27  28
ENDBRANCH  26  27
ENDBRANCH  25  26
ENDBRANCH  24  25
ENDBRANCH  23  24
ENDBRANCH  22  23
ENDBRANCH  21  22
ENDBRANCH  20  21
ENDBRANCH  19  20
ENDBRANCH  18  19
ENDBRANCH   1  18
TORSDOF 28
ENDMDL
MODEL 2
REMARK VINA RESULT:    -4.883      3.419      9.736
REMARK INTER + INTRA:         -17.579
REMARK INTER:                 -13.170
REMARK INTRA:                  -4.409
REMARK UNBOUND:                -4.702
REMARK SMILES CCCCCCCCCCCCCCCCCCCCCCCCCCCCCC(=O)[O-]
REMARK SMILES IDX 16 1 17 2 18 3 19 4 20 5 21 6 22 7 23 8 24 9 25 10 26 11
REMARK SMILES IDX 27 12 28 13 29 14 30 15 31 16 32 17 15 18 14 19 13 20 12 21
REMARK SMILES IDX 11 22 10 23 9 24 8 25 7 26 6 27 5 28 4 29 3 30 2 31 1 32
REMARK H PARENT
REMARK Flexibility Score: inf
ROOT
ATOM      1  C   UNL     1     -21.766  19.510 -25.651  1.00  0.00     0.000 C 
ENDROOT
BRANCH   1   2
ATOM      2  C   UNL     1     -20.616  18.532 -25.361  1.00  0.00     0.000 C 
BRANCH   2   3
ATOM      3  C   UNL     1     -21.080  17.289 -24.582  1.00  0.00     0.000 C 
BRANCH   3   4
ATOM      4  C   UNL     1     -20.359  17.125 -23.233  1.00  0.00     0.000 C 
BRANCH   4   5
ATOM      5  C   UNL     1     -21.312  16.779 -22.078  1.00  0.00     0.000 C 
BRANCH   5   6
ATOM      6  C   UNL     1     -22.744  16.547 -22.590  1.00  0.00     0.000 C 
BRANCH   6   7
ATOM      7  C   UNL     1     -23.827  16.971 -21.580  1.00  0.00     0.000 C 
BRANCH   7   8
ATOM      8  C   UNL     1     -24.866  15.889 -21.242  1.00  0.00     0.000 C 
BRANCH   8   9
ATOM      9  C   UNL     1     -24.367  14.882 -20.194  1.00  0.00     0.000 C 
BRANCH   9  10
ATOM     10  C   UNL     1     -24.520  13.427 -20.665  1.00  0.00     0.000 C 
BRANCH  10  11
ATOM     11  C   UNL     1     -23.195  12.650 -20.633  1.00  0.00     0.000 C 
BRANCH  11  12
ATOM     12  C   UNL     1     -21.998  13.604 -20.532  1.00  0.00     0.000 C 
BRANCH  12  13
ATOM     13  C   UNL     1     -20.671  12.835 -20.599  1.00  0.00     0.006 C 
BRANCH  13  14
ATOM     14  C   UNL     1     -19.758  13.405 -21.688  1.00  0.00     0.053 C 
BRANCH  14  15
ATOM     15  C   UNL     1     -20.184  12.926 -23.040  1.00  0.00     0.041 C 
ATOM     16  O   UNL     1     -20.513  11.724 -23.207  1.00  0.00    -0.550 OA
ATOM     17  O   UNL     1     -20.226  13.812 -24.113  1.00  0.00    -0.550 OA
ENDBRANCH  14  15
ENDBRANCH  13  14
ENDBRANCH  12  13
ENDBRANCH  11  12
ENDBRANCH  10  11
ENDBRANCH   9  10
ENDBRANCH   8   9
ENDBRANCH   7   8
ENDBRANCH   6   7
ENDBRANCH   5   6
ENDBRANCH   4   5
ENDBRANCH   3   4
ENDBRANCH   2   3
ENDBRANCH   1   2
BRANCH   1  18
ATOM     18  C   UNL     1     -21.516  20.888 -25.019  1.00  0.00     0.000 C 
BRANCH  18  19
ATOM     19  C   UNL     1     -22.673  21.305 -24.105  1.00  0.00     0.000 C 
BRANCH  19  20
ATOM     20  C   UNL     1     -23.094  20.142 -23.192  1.00  0.00     0.000 C 
BRANCH  20  21
ATOM     21  C   UNL     1     -23.010  20.494 -21.692  1.00  0.00     0.000 C 
BRANCH  21  22
ATOM     22  C   UNL     1     -23.843  21.736 -21.298  1.00  0.00     0.000 C 
BRANCH  22  23
ATOM     23  C   UNL     1     -23.231  22.544 -20.141  1.00  0.00     0.000 C 
BRANCH  23  24
ATOM     24  C   UNL     1     -23.285  24.064 -20.397  1.00  0.00    -0.000 C 
BRANCH  24  25
ATOM     25  C   UNL     1     -23.096  24.419 -21.884  1.00  0.00    -0.000 C 
BRANCH  25  26
ATOM     26  C   UNL     1     -21.742  25.084 -22.197  1.00  0.00    -0.000 C 
BRANCH  26  27
ATOM     27  C   UNL     1     -21.086  24.529 -23.476  1.00  0.00    -0.000 C 
BRANCH  27  28
ATOM     28  C   UNL     1     -21.210  25.489 -24.675  1.00  0.00    -0.000 C 
BRANCH  28  29
ATOM     29  C   UNL     1     -21.732  24.848 -25.975  1.00  0.00    -0.000 C 
BRANCH  29  30
ATOM     30  C   UNL     1     -23.072  25.445 -26.435  1.00  0.00    -0.000 C 
BRANCH  30  31
ATOM     31  C   UNL     1     -24.132  25.436 -25.320  1.00  0.00    -0.003 C 
ATOM     32  C   UNL     1     -24.785  24.064 -25.141  1.00  0.00     0.004 C 
ENDBRANCH  30  31
ENDBRANCH  29  30
ENDBRANCH  28  29
ENDBRANCH  27  28
ENDBRANCH  26  27
ENDBRANCH  25  26
ENDBRANCH  24  25
ENDBRANCH  23  24
ENDBRANCH  22  23
ENDBRANCH  21  22
ENDBRANCH  20  21
ENDBRANCH  19  20
ENDBRANCH  18  19
ENDBRANCH   1  18
TORSDOF 28
ENDMDL
MODEL 3
REMARK VINA RESULT:    -4.868      1.499      4.187
REMARK INTER + INTRA:         -17.540
REMARK INTER:                 -12.641
REMARK INTRA:                  -4.899
REMARK UNBOUND:                -4.702
REMARK SMILES CCCCCCCCCCCCCCCCCCCCCCCCCCCCCC(=O)[O-]
REMARK SMILES IDX 16 1 17 2 18 3 19 4 20 5 21 6 22 7 23 8 24 9 25 10 26 11
REMARK SMILES IDX 27 12 28 13 29 14 30 15 31 16 32 17 15 18 14 19 13 20 12 21
REMARK SMILES IDX 11 22 10 23 9 24 8 25 7 26 6 27 5 28 4 29 3 30 2 31 1 32
REMARK H PARENT
REMARK Flexibility Score: inf
ROOT
ATOM      1  C   UNL     1     -23.308  18.403 -21.602  1.00  0.00     0.000 C 
ENDROOT
BRANCH   1   2
ATOM      2  C   UNL     1     -22.969  19.902 -21.594  1.00  0.00     0.000 C 
BRANCH   2   3
ATOM      3  C   UNL     1     -24.157  20.778 -22.032  1.00  0.00     0.000 C 
BRANCH   3   4
ATOM      4  C   UNL     1     -24.410  21.959 -21.080  1.00  0.00     0.000 C 
BRANCH   4   5
ATOM      5  C   UNL     1     -23.136  22.450 -20.375  1.00  0.00     0.000 C 
BRANCH   5   6
ATOM      6  C   UNL     1     -23.110  23.985 -20.281  1.00  0.00     0.000 C 
BRANCH   6   7
ATOM      7  C   UNL     1     -24.485  24.632 -20.528  1.00  0.00     0.000 C 
BRANCH   7   8
ATOM      8  C   UNL     1     -24.567  25.544 -21.764  1.00  0.00     0.000 C 
BRANCH   8   9
ATOM      9  C   UNL     1     -23.436  25.292 -22.774  1.00  0.00     0.000 C 
BRANCH   9  10
ATOM     10  C   UNL     1     -23.966  25.100 -24.204  1.00  0.00     0.000 C 
BRANCH  10  11
ATOM     11  C   UNL     1     -23.578  23.738 -24.803  1.00  0.00     0.000 C 
BRANCH  11  12
ATOM     12  C   UNL     1     -22.365  23.141 -24.077  1.00  0.00     0.000 C 
BRANCH  12  13
ATOM     13  C   UNL     1     -21.194  22.924 -25.045  1.00  0.00     0.006 C 
BRANCH  13  14
ATOM     14  C   UNL     1     -20.246  24.128 -25.042  1.00  0.00     0.053 C 
BRANCH  14  15
ATOM     15  C   UNL     1     -20.255  24.812 -26.372  1.00  0.00     0.041 C 
ATOM     16  O   UNL     1     -20.971  25.831 -26.551  1.00  0.00    -0.550 OA
ATOM     17  O   UNL     1     -19.465  24.330 -27.411  1.00  0.00    -0.550 OA
ENDBRANCH  14  15
ENDBRANCH  13  14
ENDBRANCH  12  13
ENDBRANCH  11  12
ENDBRANCH  10  11
ENDBRANCH   9  10
ENDBRANCH   8   9
ENDBRANCH   7   8
ENDBRANCH   6   7
ENDBRANCH   5   6
ENDBRANCH   4   5
ENDBRANCH   3   4
ENDBRANCH   2   3
ENDBRANCH   1   2
BRANCH   1  18
ATOM     18  C   UNL     1     -24.817  18.160 -21.757  1.00  0.00     0.000 C 
BRANCH  18  19
ATOM     19  C   UNL     1     -25.125  16.679 -22.003  1.00  0.00     0.000 C 
BRANCH  19  20
ATOM     20  C   UNL     1     -23.974  15.792 -21.501  1.00  0.00     0.000 C 
BRANCH  20  21
ATOM     21  C   UNL     1     -24.272  15.136 -20.136  1.00  0.00     0.000 C 
BRANCH  21  22
ATOM     22  C   UNL     1     -23.693  13.710 -19.992  1.00  0.00     0.000 C 
BRANCH  22  23
ATOM     23  C   UNL     1     -22.596  13.385 -21.020  1.00  0.00     0.000 C 
BRANCH  23  24
ATOM     24  C   UNL     1     -21.193  13.792 -20.527  1.00  0.00    -0.000 C 
BRANCH  24  25
ATOM     25  C   UNL     1     -20.351  14.462 -21.629  1.00  0.00    -0.000 C 
BRANCH  25  26
ATOM     26  C   UNL     1     -20.424  16.001 -21.618  1.00  0.00    -0.000 C 
BRANCH  26  27
ATOM     27  C   UNL     1     -20.266  16.615 -23.022  1.00  0.00    -0.000 C 
BRANCH  27  28
ATOM     28  C   UNL     1     -20.966  15.788 -24.118  1.00  0.00    -0.000 C 
BRANCH  28  29
ATOM     29  C   UNL     1     -21.500  16.603 -25.311  1.00  0.00    -0.000 C 
BRANCH  29  30
ATOM     30  C   UNL     1     -22.829  17.310 -25.001  1.00  0.00    -0.000 C 
BRANCH  30  31
ATOM     31  C   UNL     1     -22.745  18.833 -25.203  1.00  0.00    -0.003 C 
ATOM     32  C   UNL     1     -21.313  19.361 -25.109  1.00  0.00     0.004 C 
ENDBRANCH  30  31
ENDBRANCH  29  30
ENDBRANCH  28  29
ENDBRANCH  27  28
ENDBRANCH  26  27
ENDBRANCH  25  26
ENDBRANCH  24  25
ENDBRANCH  23  24
ENDBRANCH  22  23
ENDBRANCH  21  22
ENDBRANCH  20  21
ENDBRANCH  19  20
ENDBRANCH  18  19
ENDBRANCH   1  18
TORSDOF 28
ENDMDL
MODEL 4
REMARK VINA RESULT:    -4.824      0.993      2.132
REMARK INTER + INTRA:         -17.423
REMARK INTER:                 -13.446
REMARK INTRA:                  -3.977
REMARK UNBOUND:                -4.702
REMARK SMILES CCCCCCCCCCCCCCCCCCCCCCCCCCCCCC(=O)[O-]
REMARK SMILES IDX 16 1 17 2 18 3 19 4 20 5 21 6 22 7 23 8 24 9 25 10 26 11
REMARK SMILES IDX 27 12 28 13 29 14 30 15 31 16 32 17 15 18 14 19 13 20 12 21
REMARK SMILES IDX 11 22 10 23 9 24 8 25 7 26 6 27 5 28 4 29 3 30 2 31 1 32
REMARK H PARENT
REMARK Flexibility Score: inf
ROOT
ATOM      1  C   UNL     1     -20.804  18.330 -25.529  1.00  0.00     0.000 C 
ENDROOT
BRANCH   1   2
ATOM      2  C   UNL     1     -21.517  19.670 -25.285  1.00  0.00     0.000 C 
BRANCH   2   3
ATOM      3  C   UNL     1     -22.774  19.518 -24.410  1.00  0.00     0.000 C 
BRANCH   3   4
ATOM      4  C   UNL     1     -22.919  20.643 -23.372  1.00  0.00     0.000 C 
BRANCH   4   5
ATOM      5  C   UNL     1     -23.042  20.121 -21.931  1.00  0.00     0.000 C 
BRANCH   5   6
ATOM      6  C   UNL     1     -23.350  21.266 -20.951  1.00  0.00     0.000 C 
BRANCH   6   7
ATOM      7  C   UNL     1     -24.271  22.346 -21.549  1.00  0.00     0.000 C 
BRANCH   7   8
ATOM      8  C   UNL     1     -23.884  23.796 -21.212  1.00  0.00     0.000 C 
BRANCH   8   9
ATOM      9  C   UNL     1     -22.561  24.231 -21.863  1.00  0.00     0.000 C 
BRANCH   9  10
ATOM     10  C   UNL     1     -22.660  24.294 -23.395  1.00  0.00     0.000 C 
BRANCH  10  11
ATOM     11  C   UNL     1     -21.286  24.235 -24.082  1.00  0.00     0.000 C 
BRANCH  11  12
ATOM     12  C   UNL     1     -21.321  23.316 -25.310  1.00  0.00     0.000 C 
BRANCH  12  13
ATOM     13  C   UNL     1     -20.750  24.024 -26.546  1.00  0.00     0.006 C 
BRANCH  13  14
ATOM     14  C   UNL     1     -21.215  25.482 -26.610  1.00  0.00     0.053 C 
BRANCH  14  15
ATOM     15  C   UNL     1     -22.558  25.582 -27.261  1.00  0.00     0.041 C 
ATOM     16  O   UNL     1     -23.597  25.642 -26.554  1.00  0.00    -0.550 OA
ATOM     17  O   UNL     1     -22.662  25.619 -28.648  1.00  0.00    -0.550 OA
ENDBRANCH  14  15
ENDBRANCH  13  14
ENDBRANCH  12  13
ENDBRANCH  11  12
ENDBRANCH  10  11
ENDBRANCH   9  10
ENDBRANCH   8   9
ENDBRANCH   7   8
ENDBRANCH   6   7
ENDBRANCH   5   6
ENDBRANCH   4   5
ENDBRANCH   3   4
ENDBRANCH   2   3
ENDBRANCH   1   2
BRANCH   1  18
ATOM     18  C   UNL     1     -20.144  17.794 -24.250  1.00  0.00     0.000 C 
BRANCH  18  19
ATOM     19  C   UNL     1     -20.621  16.374 -23.925  1.00  0.00     0.000 C 
BRANCH  19  20
ATOM     20  C   UNL     1     -20.628  16.135 -22.406  1.00  0.00     0.000 C 
BRANCH  20  21
ATOM     21  C   UNL     1     -21.849  16.766 -21.704  1.00  0.00     0.000 C 
BRANCH  21  22
ATOM     22  C   UNL     1     -23.184  16.535 -22.449  1.00  0.00     0.000 C 
BRANCH  22  23
ATOM     23  C   UNL     1     -24.360  16.209 -21.513  1.00  0.00     0.000 C 
BRANCH  23  24
ATOM     24  C   UNL     1     -23.976  15.187 -20.424  1.00  0.00    -0.000 C 
BRANCH  24  25
ATOM     25  C   UNL     1     -24.253  13.734 -20.854  1.00  0.00    -0.000 C 
BRANCH  25  26
ATOM     26  C   UNL     1     -23.079  12.772 -20.586  1.00  0.00    -0.000 C 
BRANCH  26  27
ATOM     27  C   UNL     1     -21.856  13.481 -19.973  1.00  0.00    -0.000 C 
BRANCH  27  28
ATOM     28  C   UNL     1     -20.537  12.728 -20.234  1.00  0.00    -0.000 C 
BRANCH  28  29
ATOM     29  C   UNL     1     -20.057  12.738 -21.697  1.00  0.00    -0.000 C 
BRANCH  29  30
ATOM     30  C   UNL     1     -20.354  11.419 -22.429  1.00  0.00    -0.000 C 
BRANCH  30  31
ATOM     31  C   UNL     1     -19.909  11.451 -23.902  1.00  0.00    -0.003 C 
ATOM     32  C   UNL     1     -19.846  12.872 -24.466  1.00  0.00     0.004 C 
ENDBRANCH  30  31
ENDBRANCH  29  30
ENDBRANCH  28  29
ENDBRANCH  27  28
ENDBRANCH  26  27
ENDBRANCH  25  26
ENDBRANCH  24  25
ENDBRANCH  23  24
ENDBRANCH  22  23
ENDBRANCH  21  22
ENDBRANCH  20  21
ENDBRANCH  19  20
ENDBRANCH  18  19
ENDBRANCH   1  18
TORSDOF 28
ENDMDL
MODEL 5
REMARK VINA RESULT:    -4.823      3.540      9.301
REMARK INTER + INTRA:         -17.421
REMARK INTER:                 -12.326
REMARK INTRA:                  -5.096
REMARK UNBOUND:                -4.702
REMARK SMILES CCCCCCCCCCCCCCCCCCCCCCCCCCCCCC(=O)[O-]
REMARK SMILES IDX 16 1 17 2 18 3 19 4 20 5 21 6 22 7 23 8 24 9 25 10 26 11
REMARK SMILES IDX 27 12 28 13 29 14 30 15 31 16 32 17 15 18 14 19 13 20 12 21
REMARK SMILES IDX 11 22 10 23 9 24 8 25 7 26 6 27 5 28 4 29 3 30 2 31 1 32
REMARK H PARENT
REMARK Flexibility Score: inf
ROOT
ATOM      1  C   UNL     1     -20.670  18.327 -25.783  1.00  0.00     0.000 C 
ENDROOT
BRANCH   1   2
ATOM      2  C   UNL     1     -21.685  17.175 -25.703  1.00  0.00     0.000 C 
BRANCH   2   3
ATOM      3  C   UNL     1     -21.383  16.203 -24.549  1.00  0.00     0.000 C 
BRANCH   3   4
ATOM      4  C   UNL     1     -20.699  16.888 -23.354  1.00  0.00     0.000 C 
BRANCH   4   5
ATOM      5  C   UNL     1     -21.608  16.996 -22.119  1.00  0.00     0.000 C 
BRANCH   5   6
ATOM      6  C   UNL     1     -23.072  16.690 -22.479  1.00  0.00     0.000 C 
BRANCH   6   7
ATOM      7  C   UNL     1     -23.955  16.415 -21.247  1.00  0.00     0.000 C 
BRANCH   7   8
ATOM      8  C   UNL     1     -24.347  14.942 -21.039  1.00  0.00     0.000 C 
BRANCH   8   9
ATOM      9  C   UNL     1     -23.351  14.175 -20.154  1.00  0.00     0.000 C 
BRANCH   9  10
ATOM     10  C   UNL     1     -22.292  13.430 -20.982  1.00  0.00     0.000 C 
BRANCH  10  11
ATOM     11  C   UNL     1     -20.856  13.763 -20.547  1.00  0.00     0.000 C 
BRANCH  11  12
ATOM     12  C   UNL     1     -19.861  13.512 -21.688  1.00  0.00     0.000 C 
BRANCH  12  13
ATOM     13  C   UNL     1     -20.558  12.878 -22.899  1.00  0.00     0.006 C 
BRANCH  13  14
ATOM     14  C   UNL     1     -19.777  13.149 -24.189  1.00  0.00     0.053 C 
BRANCH  14  15
ATOM     15  C   UNL     1     -20.429  12.474 -25.354  1.00  0.00     0.041 C 
ATOM     16  O   UNL     1     -20.842  11.291 -25.245  1.00  0.00    -0.550 OA
ATOM     17  O   UNL     1     -20.587  13.156 -26.557  1.00  0.00    -0.550 OA
ENDBRANCH  14  15
ENDBRANCH  13  14
ENDBRANCH  12  13
ENDBRANCH  11  12
ENDBRANCH  10  11
ENDBRANCH   9  10
ENDBRANCH   8   9
ENDBRANCH   7   8
ENDBRANCH   6   7
ENDBRANCH   5   6
ENDBRANCH   4   5
ENDBRANCH   3   4
ENDBRANCH   2   3
ENDBRANCH   1   2
BRANCH   1  18
ATOM     18  C   UNL     1     -21.360  19.699 -25.745  1.00  0.00     0.000 C 
BRANCH  18  19
ATOM     19  C   UNL     1     -22.663  19.650 -24.940  1.00  0.00     0.000 C 
BRANCH  19  20
ATOM     20  C   UNL     1     -22.602  20.612 -23.743  1.00  0.00     0.000 C 
BRANCH  20  21
ATOM     21  C   UNL     1     -23.638  20.278 -22.650  1.00  0.00     0.000 C 
BRANCH  21  22
ATOM     22  C   UNL     1     -23.055  20.279 -21.218  1.00  0.00     0.000 C 
BRANCH  22  23
ATOM     23  C   UNL     1     -23.250  21.613 -20.477  1.00  0.00     0.000 C 
BRANCH  23  24
ATOM     24  C   UNL     1     -24.539  22.340 -20.911  1.00  0.00    -0.000 C 
BRANCH  24  25
ATOM     25  C   UNL     1     -24.348  23.864 -21.020  1.00  0.00    -0.000 C 
BRANCH  25  26
ATOM     26  C   UNL     1     -22.874  24.311 -20.972  1.00  0.00    -0.000 C 
BRANCH  26  27
ATOM     27  C   UNL     1     -22.652  25.699 -21.603  1.00  0.00    -0.000 C 
BRANCH  27  28
ATOM     28  C   UNL     1     -22.112  25.621 -23.044  1.00  0.00    -0.000 C 
BRANCH  28  29
ATOM     29  C   UNL     1     -21.881  24.194 -23.578  1.00  0.00    -0.000 C 
BRANCH  29  30
ATOM     30  C   UNL     1     -22.298  24.036 -25.049  1.00  0.00    -0.000 C 
BRANCH  30  31
ATOM     31  C   UNL     1     -23.761  24.447 -25.293  1.00  0.00    -0.003 C 
ATOM     32  C   UNL     1     -24.758  23.483 -24.647  1.00  0.00     0.004 C 
ENDBRANCH  30  31
ENDBRANCH  29  30
ENDBRANCH  28  29
ENDBRANCH  27  28
ENDBRANCH  26  27
ENDBRANCH  25  26
ENDBRANCH  24  25
ENDBRANCH  23  24
ENDBRANCH  22  23
ENDBRANCH  21  22
ENDBRANCH  20  21
ENDBRANCH  19  20
ENDBRANCH  18  19
ENDBRANCH   1  18
TORSDOF 28
ENDMDL
MODEL 6
REMARK VINA RESULT:    -4.817      1.491      2.346
REMARK INTER + INTRA:         -17.405
REMARK INTER:                 -12.902
REMARK INTRA:                  -4.503
REMARK UNBOUND:                -4.702
REMARK SMILES CCCCCCCCCCCCCCCCCCCCCCCCCCCCCC(=O)[O-]
REMARK SMILES IDX 16 1 17 2 18 3 19 4 20 5 21 6 22 7 23 8 24 9 25 10 26 11
REMARK SMILES IDX 27 12 28 13 29 14 30 15 31 16 32 17 15 18 14 19 13 20 12 21
REMARK SMILES IDX 11 22 10 23 9 24 8 25 7 26 6 27 5 28 4 29 3 30 2 31 1 32
REMARK H PARENT
REMARK Flexibility Score: inf
ROOT
ATOM      1  C   UNL     1     -21.289  19.210 -25.105  1.00  0.00     0.000 C 
ENDROOT
BRANCH   1   2
ATOM      2  C   UNL     1     -22.748  19.339 -24.638  1.00  0.00     0.000 C 
BRANCH   2   3
ATOM      3  C   UNL     1     -22.945  20.487 -23.632  1.00  0.00     0.000 C 
BRANCH   3   4
ATOM      4  C   UNL     1     -22.900  20.014 -22.169  1.00  0.00     0.000 C 
BRANCH   4   5
ATOM      5  C   UNL     1     -24.156  20.400 -21.371  1.00  0.00     0.000 C 
BRANCH   5   6
ATOM      6  C   UNL     1     -24.628  21.819 -21.732  1.00  0.00     0.000 C 
BRANCH   6   7
ATOM      7  C   UNL     1     -24.584  22.794 -20.540  1.00  0.00     0.000 C 
BRANCH   7   8
ATOM      8  C   UNL     1     -23.232  22.874 -19.811  1.00  0.00     0.000 C 
BRANCH   8   9
ATOM      9  C   UNL     1     -22.639  24.292 -19.797  1.00  0.00     0.000 C 
BRANCH   9  10
ATOM     10  C   UNL     1     -23.458  25.273 -20.652  1.00  0.00     0.000 C 
BRANCH  10  11
ATOM     11  C   UNL     1     -22.682  25.782 -21.878  1.00  0.00     0.000 C 
BRANCH  11  12
ATOM     12  C   UNL     1     -23.148  25.077 -23.158  1.00  0.00     0.000 C 
BRANCH  12  13
ATOM     13  C   UNL     1     -22.167  23.970 -23.568  1.00  0.00     0.006 C 
BRANCH  13  14
ATOM     14  C   UNL     1     -22.232  23.706 -25.075  1.00  0.00     0.053 C 
BRANCH  14  15
ATOM     15  C   UNL     1     -20.863  23.745 -25.679  1.00  0.00     0.041 C 
ATOM     16  O   UNL     1     -20.722  23.644 -26.925  1.00  0.00    -0.550 OA
ATOM     17  O   UNL     1     -19.745  23.903 -24.866  1.00  0.00    -0.550 OA
ENDBRANCH  14  15
ENDBRANCH  13  14
ENDBRANCH  12  13
ENDBRANCH  11  12
ENDBRANCH  10  11
ENDBRANCH   9  10
ENDBRANCH   8   9
ENDBRANCH   7   8
ENDBRANCH   6   7
ENDBRANCH   5   6
ENDBRANCH   4   5
ENDBRANCH   3   4
ENDBRANCH   2   3
ENDBRANCH   1   2
BRANCH   1  18
ATOM     18  C   UNL     1     -20.806  17.752 -25.069  1.00  0.00     0.000 C 
BRANCH  18  19
ATOM     19  C   UNL     1     -19.858  17.503 -23.891  1.00  0.00     0.000 C 
BRANCH  19  20
ATOM     20  C   UNL     1     -20.349  16.326 -23.034  1.00  0.00     0.000 C 
BRANCH  20  21
ATOM     21  C   UNL     1     -21.412  16.740 -21.995  1.00  0.00     0.000 C 
BRANCH  21  22
ATOM     22  C   UNL     1     -22.856  16.358 -22.394  1.00  0.00     0.000 C 
BRANCH  22  23
ATOM     23  C   UNL     1     -23.875  16.533 -21.256  1.00  0.00     0.000 C 
BRANCH  23  24
ATOM     24  C   UNL     1     -24.690  15.249 -20.999  1.00  0.00    -0.000 C 
BRANCH  24  25
ATOM     25  C   UNL     1     -24.771  14.892 -19.502  1.00  0.00    -0.000 C 
BRANCH  25  26
ATOM     26  C   UNL     1     -24.020  13.599 -19.131  1.00  0.00    -0.000 C 
BRANCH  26  27
ATOM     27  C   UNL     1     -22.957  13.207 -20.175  1.00  0.00    -0.000 C 
BRANCH  27  28
ATOM     28  C   UNL     1     -21.535  13.643 -19.771  1.00  0.00    -0.000 C 
BRANCH  28  29
ATOM     29  C   UNL     1     -20.416  13.194 -20.731  1.00  0.00    -0.000 C 
BRANCH  29  30
ATOM     30  C   UNL     1     -20.929  12.923 -22.155  1.00  0.00    -0.000 C 
BRANCH  30  31
ATOM     31  C   UNL     1     -19.784  12.721 -23.162  1.00  0.00    -0.003 C 
ATOM     32  C   UNL     1     -20.216  12.985 -24.605  1.00  0.00     0.004 C 
ENDBRANCH  30  31
ENDBRANCH  29  30
ENDBRANCH  28  29
ENDBRANCH  27  28
ENDBRANCH  26  27
ENDBRANCH  25  26
ENDBRANCH  24  25
ENDBRANCH  23  24
ENDBRANCH  22  23
ENDBRANCH  21  22
ENDBRANCH  20  21
ENDBRANCH  19  20
ENDBRANCH  18  19
ENDBRANCH   1  18
TORSDOF 28
ENDMDL
MODEL 7
REMARK VINA RESULT:    -4.812      3.583      9.650
REMARK INTER + INTRA:         -17.391
REMARK INTER:                 -13.230
REMARK INTRA:                  -4.161
REMARK UNBOUND:                -4.702
REMARK SMILES CCCCCCCCCCCCCCCCCCCCCCCCCCCCCC(=O)[O-]
REMARK SMILES IDX 16 1 17 2 18 3 19 4 20 5 21 6 22 7 23 8 24 9 25 10 26 11
REMARK SMILES IDX 27 12 28 13 29 14 30 15 31 16 32 17 15 18 14 19 13 20 12 21
REMARK SMILES IDX 11 22 10 23 9 24 8 25 7 26 6 27 5 28 4 29 3 30 2 31 1 32
REMARK H PARENT
REMARK Flexibility Score: inf
ROOT
ATOM      1  C   UNL     1     -21.364  19.980 -25.158  1.00  0.00     0.000 C 
ENDROOT
BRANCH   1   2
ATOM      2  C   UNL     1     -21.374  19.509 -26.621  1.00  0.00     0.000 C 
BRANCH   2   3
ATOM      3  C   UNL     1     -21.354  17.976 -26.748  1.00  0.00     0.000 C 
BRANCH   3   4
ATOM      4  C   UNL     1     -22.089  17.272 -25.595  1.00  0.00     0.000 C 
BRANCH   4   5
ATOM      5  C   UNL     1     -21.364  16.010 -25.101  1.00  0.00     0.000 C 
BRANCH   5   6
ATOM      6  C   UNL     1     -20.490  16.317 -23.872  1.00  0.00     0.000 C 
BRANCH   6   7
ATOM      7  C   UNL     1     -21.177  17.247 -22.856  1.00  0.00     0.000 C 
BRANCH   7   8
ATOM      8  C   UNL     1     -22.087  16.543 -21.836  1.00  0.00     0.000 C 
BRANCH   8   9
ATOM      9  C   UNL     1     -23.580  16.654 -22.184  1.00  0.00     0.000 C 
BRANCH   9  10
ATOM     10  C   UNL     1     -24.483  16.377 -20.971  1.00  0.00     0.000 C 
BRANCH  10  11
ATOM     11  C   UNL     1     -24.885  14.897 -20.857  1.00  0.00     0.000 C 
BRANCH  11  12
ATOM     12  C   UNL     1     -24.042  14.176 -19.798  1.00  0.00     0.000 C 
BRANCH  12  13
ATOM     13  C   UNL     1     -22.987  13.274 -20.453  1.00  0.00     0.006 C 
BRANCH  13  14
ATOM     14  C   UNL     1     -21.630  13.419 -19.757  1.00  0.00     0.053 C 
BRANCH  14  15
ATOM     15  C   UNL     1     -20.520  12.998 -20.668  1.00  0.00     0.041 C 
ATOM     16  O   UNL     1     -20.207  11.784 -20.760  1.00  0.00    -0.550 OA
ATOM     17  O   UNL     1     -19.838  13.948 -21.422  1.00  0.00    -0.550 OA
ENDBRANCH  14  15
ENDBRANCH  13  14
ENDBRANCH  12  13
ENDBRANCH  11  12
ENDBRANCH  10  11
ENDBRANCH   9  10
ENDBRANCH   8   9
ENDBRANCH   7   8
ENDBRANCH   6   7
ENDBRANCH   5   6
ENDBRANCH   4   5
ENDBRANCH   3   4
ENDBRANCH   2   3
ENDBRANCH   1   2
BRANCH   1  18
ATOM     18  C   UNL     1     -21.913  21.407 -25.013  1.00  0.00     0.000 C 
BRANCH  18  19
ATOM     19  C   UNL     1     -22.893  21.515 -23.840  1.00  0.00     0.000 C 
BRANCH  19  20
ATOM     20  C   UNL     1     -23.029  20.166 -23.116  1.00  0.00     0.000 C 
BRANCH  20  21
ATOM     21  C   UNL     1     -23.136  20.314 -21.584  1.00  0.00     0.000 C 
BRANCH  21  22
ATOM     22  C   UNL     1     -24.558  20.669 -21.091  1.00  0.00     0.000 C 
BRANCH  22  23
ATOM     23  C   UNL     1     -24.590  21.849 -20.106  1.00  0.00     0.000 C 
BRANCH  23  24
ATOM     24  C   UNL     1     -23.311  22.708 -20.181  1.00  0.00    -0.000 C 
BRANCH  24  25
ATOM     25  C   UNL     1     -23.512  23.995 -21.003  1.00  0.00    -0.000 C 
BRANCH  25  26
ATOM     26  C   UNL     1     -22.198  24.619 -21.511  1.00  0.00    -0.000 C 
BRANCH  26  27
ATOM     27  C   UNL     1     -22.244  24.967 -23.011  1.00  0.00    -0.000 C 
BRANCH  27  28
ATOM     28  C   UNL     1     -23.655  25.360 -23.490  1.00  0.00    -0.000 C 
BRANCH  28  29
ATOM     29  C   UNL     1     -23.720  25.963 -24.906  1.00  0.00    -0.000 C 
BRANCH  29  30
ATOM     30  C   UNL     1     -23.119  25.036 -25.975  1.00  0.00    -0.000 C 
BRANCH  30  31
ATOM     31  C   UNL     1     -21.832  25.610 -26.593  1.00  0.00    -0.003 C 
ATOM     32  C   UNL     1     -20.776  24.535 -26.855  1.00  0.00     0.004 C 
ENDBRANCH  30  31
ENDBRANCH  29  30
ENDBRANCH  28  29
ENDBRANCH  27  28
ENDBRANCH  26  27
ENDBRANCH  25  26
ENDBRANCH  24  25
ENDBRANCH  23  24
ENDBRANCH  22  23
ENDBRANCH  21  22
ENDBRANCH  20  21
ENDBRANCH  19  20
ENDBRANCH  18  19
ENDBRANCH   1  18
TORSDOF 28
ENDMDL
MODEL 8
REMARK VINA RESULT:    -4.753      1.336      3.125
REMARK INTER + INTRA:         -17.235
REMARK INTER:                 -12.886
REMARK INTRA:                  -4.349
REMARK UNBOUND:                -4.702
REMARK SMILES CCCCCCCCCCCCCCCCCCCCCCCCCCCCCC(=O)[O-]
REMARK SMILES IDX 16 1 17 2 18 3 19 4 20 5 21 6 22 7 23 8 24 9 25 10 26 11
REMARK SMILES IDX 27 12 28 13 29 14 30 15 31 16 32 17 15 18 14 19 13 20 12 21
REMARK SMILES IDX 11 22 10 23 9 24 8 25 7 26 6 27 5 28 4 29 3 30 2 31 1 32
REMARK H PARENT
REMARK Flexibility Score: inf
ROOT
ATOM      1  C   UNL     1     -19.766  17.571 -24.245  1.00  0.00     0.000 C 
ENDROOT
BRANCH   1   2
ATOM      2  C   UNL     1     -20.656  18.490 -25.097  1.00  0.00     0.000 C 
BRANCH   2   3
ATOM      3  C   UNL     1     -22.025  17.861 -25.409  1.00  0.00     0.000 C 
BRANCH   3   4
ATOM      4  C   UNL     1     -23.196  18.641 -24.787  1.00  0.00     0.000 C 
BRANCH   4   5
ATOM      5  C   UNL     1     -22.745  19.680 -23.748  1.00  0.00     0.000 C 
BRANCH   5   6
ATOM      6  C   UNL     1     -23.641  19.642 -22.499  1.00  0.00     0.000 C 
BRANCH   6   7
ATOM      7  C   UNL     1     -22.952  20.199 -21.240  1.00  0.00     0.000 C 
BRANCH   7   8
ATOM      8  C   UNL     1     -23.246  21.678 -20.934  1.00  0.00     0.000 C 
BRANCH   8   9
ATOM      9  C   UNL     1     -24.362  22.264 -21.813  1.00  0.00     0.000 C 
BRANCH   9  10
ATOM     10  C   UNL     1     -23.839  23.340 -22.778  1.00  0.00     0.000 C 
BRANCH  10  11
ATOM     11  C   UNL     1     -22.906  24.350 -22.091  1.00  0.00     0.000 C 
BRANCH  11  12
ATOM     12  C   UNL     1     -21.711  24.697 -22.989  1.00  0.00     0.000 C 
BRANCH  12  13
ATOM     13  C   UNL     1     -21.687  23.811 -24.243  1.00  0.00     0.006 C 
BRANCH  13  14
ATOM     14  C   UNL     1     -20.321  23.870 -24.933  1.00  0.00     0.053 C 
BRANCH  14  15
ATOM     15  C   UNL     1     -20.424  24.565 -26.254  1.00  0.00     0.041 C 
ATOM     16  O   UNL     1     -21.320  25.427 -26.443  1.00  0.00    -0.550 OA
ATOM     17  O   UNL     1     -19.522  24.267 -27.271  1.00  0.00    -0.550 OA
ENDBRANCH  14  15
ENDBRANCH  13  14
ENDBRANCH  12  13
ENDBRANCH  11  12
ENDBRANCH  10  11
ENDBRANCH   9  10
ENDBRANCH   8   9
ENDBRANCH   7   8
ENDBRANCH   6   7
ENDBRANCH   5   6
ENDBRANCH   4   5
ENDBRANCH   3   4
ENDBRANCH   2   3
ENDBRANCH   1   2
BRANCH   1  18
ATOM     18  C   UNL     1     -20.514  16.306 -23.798  1.00  0.00     0.000 C 
BRANCH  18  19
ATOM     19  C   UNL     1     -20.464  16.132 -22.277  1.00  0.00     0.000 C 
BRANCH  19  20
ATOM     20  C   UNL     1     -21.763  16.636 -21.627  1.00  0.00     0.000 C 
BRANCH  20  21
ATOM     21  C   UNL     1     -23.013  15.872 -22.111  1.00  0.00     0.000 C 
BRANCH  21  22
ATOM     22  C   UNL     1     -24.346  16.504 -21.648  1.00  0.00     0.000 C 
BRANCH  22  23
ATOM     23  C   UNL     1     -24.870  15.931 -20.321  1.00  0.00     0.000 C 
BRANCH  23  24
ATOM     24  C   UNL     1     -24.884  14.388 -20.315  1.00  0.00    -0.000 C 
BRANCH  24  25
ATOM     25  C   UNL     1     -24.220  13.797 -19.057  1.00  0.00    -0.000 C 
BRANCH  25  26
ATOM     26  C   UNL     1     -22.764  13.343 -19.278  1.00  0.00    -0.000 C 
BRANCH  26  27
ATOM     27  C   UNL     1     -22.548  12.683 -20.653  1.00  0.00    -0.000 C 
BRANCH  27  28
ATOM     28  C   UNL     1     -21.065  12.646 -21.070  1.00  0.00    -0.000 C 
BRANCH  28  29
ATOM     29  C   UNL     1     -20.815  12.427 -22.574  1.00  0.00    -0.000 C 
BRANCH  29  30
ATOM     30  C   UNL     1     -19.324  12.489 -22.944  1.00  0.00    -0.000 C 
BRANCH  30  31
ATOM     31  C   UNL     1     -18.476  11.495 -22.132  1.00  0.00    -0.003 C 
ATOM     32  C   UNL     1     -17.442  12.191 -21.244  1.00  0.00     0.004 C 
ENDBRANCH  30  31
ENDBRANCH  29  30
ENDBRANCH  28  29
ENDBRANCH  27  28
ENDBRANCH  26  27
ENDBRANCH  25  26
ENDBRANCH  24  25
ENDBRANCH  23  24
ENDBRANCH  22  23
ENDBRANCH  21  22
ENDBRANCH  20  21
ENDBRANCH  19  20
ENDBRANCH  18  19
ENDBRANCH   1  18
TORSDOF 28
ENDMDL
MODEL 9
REMARK VINA RESULT:    -4.741      3.802      9.687
REMARK INTER + INTRA:         -17.204
REMARK INTER:                 -12.640
REMARK INTRA:                  -4.564
REMARK UNBOUND:                -4.702
REMARK SMILES CCCCCCCCCCCCCCCCCCCCCCCCCCCCCC(=O)[O-]
REMARK SMILES IDX 16 1 17 2 18 3 19 4 20 5 21 6 22 7 23 8 24 9 25 10 26 11
REMARK SMILES IDX 27 12 28 13 29 14 30 15 31 16 32 17 15 18 14 19 13 20 12 21
REMARK SMILES IDX 11 22 10 23 9 24 8 25 7 26 6 27 5 28 4 29 3 30 2 31 1 32
REMARK H PARENT
REMARK Flexibility Score: inf
ROOT
ATOM      1  C   UNL     1     -21.381  19.020 -26.196  1.00  0.00     0.000 C 
ENDROOT
BRANCH   1   2
ATOM      2  C   UNL     1     -22.029  17.697 -25.757  1.00  0.00     0.000 C 
BRANCH   2   3
ATOM      3  C   UNL     1     -20.995  16.666 -25.271  1.00  0.00     0.000 C 
BRANCH   3   4
ATOM      4  C   UNL     1     -21.392  16.004 -23.941  1.00  0.00     0.000 C 
BRANCH   4   5
ATOM      5  C   UNL     1     -20.996  16.838 -22.711  1.00  0.00     0.000 C 
BRANCH   5   6
ATOM      6  C   UNL     1     -22.107  16.820 -21.647  1.00  0.00     0.000 C 
BRANCH   6   7
ATOM      7  C   UNL     1     -23.523  16.756 -22.249  1.00  0.00     0.000 C 
BRANCH   7   8
ATOM      8  C   UNL     1     -24.671  16.778 -21.225  1.00  0.00     0.000 C 
BRANCH   8   9
ATOM      9  C   UNL     1     -24.590  15.630 -20.207  1.00  0.00     0.000 C 
BRANCH   9  10
ATOM     10  C   UNL     1     -24.932  14.270 -20.836  1.00  0.00     0.000 C 
BRANCH  10  11
ATOM     11  C   UNL     1     -23.754  13.283 -20.795  1.00  0.00     0.000 C 
BRANCH  11  12
ATOM     12  C   UNL     1     -22.806  13.605 -19.632  1.00  0.00     0.000 C 
BRANCH  12  13
ATOM     13  C   UNL     1     -21.340  13.564 -20.087  1.00  0.00     0.006 C 
BRANCH  13  14
ATOM     14  C   UNL     1     -21.231  13.152 -21.558  1.00  0.00     0.053 C 
BRANCH  14  15
ATOM     15  C   UNL     1     -20.060  12.245 -21.769  1.00  0.00     0.041 C 
ATOM     16  O   UNL     1     -20.217  11.137 -22.342  1.00  0.00    -0.550 OA
ATOM     17  O   UNL     1     -18.793  12.631 -21.341  1.00  0.00    -0.550 OA
ENDBRANCH  14  15
ENDBRANCH  13  14
ENDBRANCH  12  13
ENDBRANCH  11  12
ENDBRANCH  10  11
ENDBRANCH   9  10
ENDBRANCH   8   9
ENDBRANCH   7   8
ENDBRANCH   6   7
ENDBRANCH   5   6
ENDBRANCH   4   5
ENDBRANCH   3   4
ENDBRANCH   2   3
ENDBRANCH   1   2
BRANCH   1  18
ATOM     18  C   UNL     1     -21.221  19.995 -25.021  1.00  0.00     0.000 C 
BRANCH  18  19
ATOM     19  C   UNL     1     -22.197  21.172 -25.131  1.00  0.00     0.000 C 
BRANCH  19  20
ATOM     20  C   UNL     1     -22.909  21.418 -23.791  1.00  0.00     0.000 C 
BRANCH  20  21
ATOM     21  C   UNL     1     -22.973  20.156 -22.904  1.00  0.00     0.000 C 
BRANCH  21  22
ATOM     22  C   UNL     1     -22.984  20.462 -21.388  1.00  0.00     0.000 C 
BRANCH  22  23
ATOM     23  C   UNL     1     -24.175  21.327 -20.944  1.00  0.00     0.000 C 
BRANCH  23  24
ATOM     24  C   UNL     1     -23.754  22.445 -19.968  1.00  0.00    -0.000 C 
BRANCH  24  25
ATOM     25  C   UNL     1     -23.037  23.609 -20.678  1.00  0.00    -0.000 C 
BRANCH  25  26
ATOM     26  C   UNL     1     -23.951  24.421 -21.617  1.00  0.00    -0.000 C 
BRANCH  26  27
ATOM     27  C   UNL     1     -23.193  25.013 -22.820  1.00  0.00    -0.000 C 
BRANCH  27  28
ATOM     28  C   UNL     1     -21.683  24.707 -22.784  1.00  0.00    -0.000 C 
BRANCH  28  29
ATOM     29  C   UNL     1     -20.987  24.691 -24.158  1.00  0.00    -0.000 C 
BRANCH  29  30
ATOM     30  C   UNL     1     -21.946  25.022 -25.314  1.00  0.00    -0.000 C 
BRANCH  30  31
ATOM     31  C   UNL     1     -21.381  26.100 -26.255  1.00  0.00    -0.003 C 
ATOM     32  C   UNL     1     -21.723  25.838 -27.722  1.00  0.00     0.004 C 
ENDBRANCH  30  31
ENDBRANCH  29  30
ENDBRANCH  28  29
ENDBRANCH  27  28
ENDBRANCH  26  27
ENDBRANCH  25  26
ENDBRANCH  24  25
ENDBRANCH  23  24
ENDBRANCH  22  23
ENDBRANCH  21  22
ENDBRANCH  20  21
ENDBRANCH  19  20
ENDBRANCH  18  19
ENDBRANCH   1  18
TORSDOF 28
ENDMDL
