MODEL 1
REMARK VINA RESULT:    -6.942      0.000      0.000
REMARK INTER + INTRA:          -8.343
REMARK INTER:                  -8.159
REMARK INTRA:                  -0.184
REMARK UNBOUND:                -0.184
REMARK SMILES O=c1c(O)c(-c2ccc(O)cc2)oc2cc(O)cc(O)c12
REMARK SMILES IDX 5 1 3 2 2 3 1 4 21 5 19 6 18 7 16 8 15 9 14 10 13 11 6 12
REMARK SMILES IDX 7 13 8 14 9 15 12 16 11 17 10 18 4 20 20 22 17 24
REMARK H PARENT 10 19 4 21 20 23 17 25
REMARK Flexibility Score: inf
ROOT
ATOM      1  C   UNL     1      27.059 -28.131  32.983  1.00  0.00     0.180 A 
ATOM      2  C   UNL     1      27.597 -28.951  31.972  1.00  0.00     0.208 A 
ATOM      3  C   UNL     1      27.625 -28.472  30.654  1.00  0.00     0.238 A 
ATOM      4  O   UNL     1      28.094 -29.202  29.738  1.00  0.00    -0.285 OA
ATOM      5  C   UNL     1      27.136 -27.180  30.371  1.00  0.00     0.111 A 
ATOM      6  C   UNL     1      27.132 -26.621  29.070  1.00  0.00     0.134 A 
ATOM      7  C   UNL     1      26.635 -25.325  28.871  1.00  0.00     0.093 A 
ATOM      8  C   UNL     1      26.146 -24.577  29.945  1.00  0.00     0.123 A 
ATOM      9  C   UNL     1      26.147 -25.124  31.232  1.00  0.00     0.094 A 
ATOM     10  C   UNL     1      26.636 -26.416  31.451  1.00  0.00     0.146 A 
ATOM     11  O   UNL     1      26.620 -26.912  32.682  1.00  0.00    -0.452 OA
ENDROOT
BRANCH   1  12
ATOM     12  C   UNL     1      26.978 -28.573  34.394  1.00  0.00     0.021 A 
ATOM     13  C   UNL     1      25.740 -28.842  35.009  1.00  0.00     0.016 A 
ATOM     14  C   UNL     1      25.688 -29.234  36.350  1.00  0.00     0.047 A 
ATOM     15  C   UNL     1      26.864 -29.349  37.096  1.00  0.00     0.115 A 
ATOM     16  C   UNL     1      28.154 -28.670  35.157  1.00  0.00     0.016 A 
ATOM     17  C   UNL     1      28.097 -29.063  36.498  1.00  0.00     0.047 A 
BRANCH  15  18
ATOM     18  O   UNL     1      26.796 -29.742  38.431  1.00  0.00    -0.508 OA
ATOM     19  H   UNL     1      27.457 -29.398  39.119  1.00  0.00     0.293 HD
ENDBRANCH  15  18
ENDBRANCH   1  12
BRANCH   2  20
ATOM     20  O   UNL     1      28.121 -30.208  32.287  1.00  0.00    -0.502 OA
ATOM     21  H   UNL     1      29.044 -30.327  32.687  1.00  0.00     0.293 HD
ENDBRANCH   2  20
BRANCH   6  22
ATOM     22  O   UNL     1      27.615 -27.342  27.977  1.00  0.00    -0.507 OA
ATOM     23  H   UNL     1      27.776 -28.341  28.026  1.00  0.00     0.293 HD
ENDBRANCH   6  22
BRANCH   8  24
ATOM     24  O   UNL     1      25.659 -23.291  29.721  1.00  0.00    -0.508 OA
ATOM     25  H   UNL     1      25.935 -22.754  28.906  1.00  0.00     0.293 HD
ENDBRANCH   8  24
TORSDOF 5
ENDMDL
MODEL 2
REMARK VINA RESULT:    -6.933      8.223     10.398
REMARK INTER + INTRA:          -8.333
REMARK INTER:                  -8.045
REMARK INTRA:                  -0.288
REMARK UNBOUND:                -0.184
REMARK SMILES O=c1c(O)c(-c2ccc(O)cc2)oc2cc(O)cc(O)c12
REMARK SMILES IDX 5 1 3 2 2 3 1 4 21 5 19 6 18 7 16 8 15 9 14 10 13 11 6 12
REMARK SMILES IDX 7 13 8 14 9 15 12 16 11 17 10 18 4 20 20 22 17 24
REMARK H PARENT 10 19 4 21 20 23 17 25
REMARK Flexibility Score: inf
ROOT
ATOM      1  C   UNL     1      23.761 -21.472  26.766  1.00  0.00     0.180 A 
ATOM      2  C   UNL     1      23.144 -22.326  27.701  1.00  0.00     0.208 A 
ATOM      3  C   UNL     1      22.941 -23.672  27.361  1.00  0.00     0.238 A 
ATOM      4  O   UNL     1      22.380 -24.443  28.186  1.00  0.00    -0.285 OA
ATOM      5  C   UNL     1      23.375 -24.146  26.106  1.00  0.00     0.111 A 
ATOM      6  C   UNL     1      23.212 -25.490  25.687  1.00  0.00     0.134 A 
ATOM      7  C   UNL     1      23.679 -25.886  24.425  1.00  0.00     0.093 A 
ATOM      8  C   UNL     1      24.304 -24.970  23.576  1.00  0.00     0.123 A 
ATOM      9  C   UNL     1      24.467 -23.642  23.984  1.00  0.00     0.094 A 
ATOM     10  C   UNL     1      24.007 -23.226  25.237  1.00  0.00     0.146 A 
ATOM     11  O   UNL     1      24.170 -21.959  25.597  1.00  0.00    -0.452 OA
ENDROOT
BRANCH   1  12
ATOM     12  C   UNL     1      23.991 -20.037  27.043  1.00  0.00     0.021 A 
ATOM     13  C   UNL     1      25.146 -19.595  27.716  1.00  0.00     0.016 A 
ATOM     14  C   UNL     1      25.330 -18.236  27.988  1.00  0.00     0.047 A 
ATOM     15  C   UNL     1      24.359 -17.305  27.607  1.00  0.00     0.115 A 
ATOM     16  C   UNL     1      23.011 -19.097  26.682  1.00  0.00     0.016 A 
ATOM     17  C   UNL     1      23.199 -17.738  26.956  1.00  0.00     0.047 A 
BRANCH  15  18
ATOM     18  O   UNL     1      24.557 -15.953  27.884  1.00  0.00    -0.508 OA
ATOM     19  H   UNL     1      23.886 -15.420  28.425  1.00  0.00     0.293 HD
ENDBRANCH  15  18
ENDBRANCH   1  12
BRANCH   2  20
ATOM     20  O   UNL     1      22.768 -21.842  28.958  1.00  0.00    -0.502 OA
ATOM     21  H   UNL     1      23.269 -21.095  29.423  1.00  0.00     0.293 HD
ENDBRANCH   2  20
BRANCH   6  22
ATOM     22  O   UNL     1      22.594 -26.429  26.513  1.00  0.00    -0.507 OA
ATOM     23  H   UNL     1      22.957 -26.653  27.431  1.00  0.00     0.293 HD
ENDBRANCH   6  22
BRANCH   8  24
ATOM     24  O   UNL     1      24.760 -25.390  22.328  1.00  0.00    -0.508 OA
ATOM     25  H   UNL     1      24.768 -24.766  21.530  1.00  0.00     0.293 HD
ENDBRANCH   8  24
TORSDOF 5
ENDMDL
MODEL 3
REMARK VINA RESULT:    -6.909      2.985      8.334
REMARK INTER + INTRA:          -8.304
REMARK INTER:                  -8.007
REMARK INTRA:                  -0.297
REMARK UNBOUND:                -0.184
REMARK SMILES O=c1c(O)c(-c2ccc(O)cc2)oc2cc(O)cc(O)c12
REMARK SMILES IDX 5 1 3 2 2 3 1 4 21 5 19 6 18 7 16 8 15 9 14 10 13 11 6 12
REMARK SMILES IDX 7 13 8 14 9 15 12 16 11 17 10 18 4 20 20 22 17 24
REMARK H PARENT 10 19 4 21 20 23 17 25
REMARK Flexibility Score: inf
ROOT
ATOM      1  C   UNL     1      25.586 -25.827  27.818  1.00  0.00     0.180 A 
ATOM      2  C   UNL     1      25.063 -25.082  28.892  1.00  0.00     0.208 A 
ATOM      3  C   UNL     1      25.364 -25.479  30.204  1.00  0.00     0.238 A 
ATOM      4  O   UNL     1      24.892 -24.826  31.174  1.00  0.00    -0.285 OA
ATOM      5  C   UNL     1      26.196 -26.597  30.420  1.00  0.00     0.111 A 
ATOM      6  C   UNL     1      26.552 -27.060  31.710  1.00  0.00     0.134 A 
ATOM      7  C   UNL     1      27.392 -28.176  31.841  1.00  0.00     0.093 A 
ATOM      8  C   UNL     1      27.884 -28.834  30.712  1.00  0.00     0.123 A 
ATOM      9  C   UNL     1      27.536 -28.381  29.435  1.00  0.00     0.094 A 
ATOM     10  C   UNL     1      26.698 -27.272  29.283  1.00  0.00     0.146 A 
ATOM     11  O   UNL     1      26.380 -26.867  28.060  1.00  0.00    -0.452 OA
ENDROOT
BRANCH   1  12
ATOM     12  C   UNL     1      25.298 -25.482  26.407  1.00  0.00     0.021 A 
ATOM     13  C   UNL     1      24.168 -25.994  25.742  1.00  0.00     0.016 A 
ATOM     14  C   UNL     1      23.931 -25.674  24.402  1.00  0.00     0.047 A 
ATOM     15  C   UNL     1      24.822 -24.852  23.707  1.00  0.00     0.115 A 
ATOM     16  C   UNL     1      26.201 -24.674  25.695  1.00  0.00     0.016 A 
ATOM     17  C   UNL     1      25.959 -24.355  24.355  1.00  0.00     0.047 A 
BRANCH  15  18
ATOM     18  O   UNL     1      24.572 -24.540  22.372  1.00  0.00    -0.508 OA
ATOM     19  H   UNL     1      25.014 -23.747  21.921  1.00  0.00     0.293 HD
ENDBRANCH  15  18
ENDBRANCH   1  12
BRANCH   2  20
ATOM     20  O   UNL     1      24.282 -23.948  28.651  1.00  0.00    -0.502 OA
ATOM     21  H   UNL     1      23.635 -23.579  29.338  1.00  0.00     0.293 HD
ENDBRANCH   2  20
BRANCH   6  22
ATOM     22  O   UNL     1      26.078 -26.423  32.858  1.00  0.00    -0.507 OA
ATOM     23  H   UNL     1      26.689 -25.881  33.457  1.00  0.00     0.293 HD
ENDBRANCH   6  22
BRANCH   8  24
ATOM     24  O   UNL     1      28.718 -29.939  30.870  1.00  0.00    -0.508 OA
ATOM     25  H   UNL     1      29.709 -29.833  31.056  1.00  0.00     0.293 HD
ENDBRANCH   8  24
TORSDOF 5
ENDMDL
MODEL 4
REMARK VINA RESULT:    -6.886      3.356      5.771
REMARK INTER + INTRA:          -8.278
REMARK INTER:                  -8.020
REMARK INTRA:                  -0.258
REMARK UNBOUND:                -0.184
REMARK SMILES O=c1c(O)c(-c2ccc(O)cc2)oc2cc(O)cc(O)c12
REMARK SMILES IDX 5 1 3 2 2 3 1 4 21 5 19 6 18 7 16 8 15 9 14 10 13 11 6 12
REMARK SMILES IDX 7 13 8 14 9 15 12 16 11 17 10 18 4 20 20 22 17 24
REMARK H PARENT 10 19 4 21 20 23 17 25
REMARK Flexibility Score: inf
ROOT
ATOM      1  C   UNL     1      26.428 -26.377  28.143  1.00  0.00     0.180 A 
ATOM      2  C   UNL     1      27.252 -25.468  27.450  1.00  0.00     0.208 A 
ATOM      3  C   UNL     1      26.715 -24.756  26.367  1.00  0.00     0.238 A 
ATOM      4  O   UNL     1      27.446 -23.947  25.732  1.00  0.00    -0.285 OA
ATOM      5  C   UNL     1      25.365 -24.947  26.007  1.00  0.00     0.111 A 
ATOM      6  C   UNL     1      24.746 -24.266  24.931  1.00  0.00     0.134 A 
ATOM      7  C   UNL     1      23.394 -24.505  24.642  1.00  0.00     0.093 A 
ATOM      8  C   UNL     1      22.651 -25.408  25.405  1.00  0.00     0.123 A 
ATOM      9  C   UNL     1      23.257 -26.084  26.469  1.00  0.00     0.094 A 
ATOM     10  C   UNL     1      24.604 -25.862  26.772  1.00  0.00     0.146 A 
ATOM     11  O   UNL     1      25.155 -26.521  27.784  1.00  0.00    -0.452 OA
ENDROOT
BRANCH   1  12
ATOM     12  C   UNL     1      26.927 -27.179  29.283  1.00  0.00     0.021 A 
ATOM     13  C   UNL     1      27.738 -28.312  29.085  1.00  0.00     0.016 A 
ATOM     14  C   UNL     1      28.176 -29.067  30.177  1.00  0.00     0.047 A 
ATOM     15  C   UNL     1      27.800 -28.711  31.475  1.00  0.00     0.115 A 
ATOM     16  C   UNL     1      26.536 -26.840  30.589  1.00  0.00     0.016 A 
ATOM     17  C   UNL     1      26.977 -27.598  31.679  1.00  0.00     0.047 A 
BRANCH  15  18
ATOM     18  O   UNL     1      28.245 -29.473  32.554  1.00  0.00    -0.508 OA
ATOM     19  H   UNL     1      27.903 -29.311  33.494  1.00  0.00     0.293 HD
ENDBRANCH  15  18
ENDBRANCH   1  12
BRANCH   2  20
ATOM     20  O   UNL     1      28.573 -25.260  27.857  1.00  0.00    -0.502 OA
ATOM     21  H   UNL     1      28.907 -25.535  28.773  1.00  0.00     0.293 HD
ENDBRANCH   2  20
BRANCH   6  22
ATOM     22  O   UNL     1      25.461 -23.356  24.150  1.00  0.00    -0.507 OA
ATOM     23  H   UNL     1      25.134 -22.409  24.001  1.00  0.00     0.293 HD
ENDBRANCH   6  22
BRANCH   8  24
ATOM     24  O   UNL     1      21.310 -25.627  25.097  1.00  0.00    -0.508 OA
ATOM     25  H   UNL     1      20.743 -26.275  25.631  1.00  0.00     0.293 HD
ENDBRANCH   8  24
TORSDOF 5
ENDMDL
MODEL 5
REMARK VINA RESULT:    -6.748      8.182     10.455
REMARK INTER + INTRA:          -8.115
REMARK INTER:                  -7.830
REMARK INTRA:                  -0.286
REMARK UNBOUND:                -0.184
REMARK SMILES O=c1c(O)c(-c2ccc(O)cc2)oc2cc(O)cc(O)c12
REMARK SMILES IDX 5 1 3 2 2 3 1 4 21 5 19 6 18 7 16 8 15 9 14 10 13 11 6 12
REMARK SMILES IDX 7 13 8 14 9 15 12 16 11 17 10 18 4 20 20 22 17 24
REMARK H PARENT 10 19 4 21 20 23 17 25
REMARK Flexibility Score: inf
ROOT
ATOM      1  C   UNL     1      23.448 -21.087  26.582  1.00  0.00     0.180 A 
ATOM      2  C   UNL     1      22.707 -21.972  25.775  1.00  0.00     0.208 A 
ATOM      3  C   UNL     1      23.349 -23.096  25.234  1.00  0.00     0.238 A 
ATOM      4  O   UNL     1      22.698 -23.890  24.501  1.00  0.00    -0.285 OA
ATOM      5  C   UNL     1      24.709 -23.329  25.524  1.00  0.00     0.111 A 
ATOM      6  C   UNL     1      25.429 -24.440  25.022  1.00  0.00     0.134 A 
ATOM      7  C   UNL     1      26.780 -24.606  25.364  1.00  0.00     0.093 A 
ATOM      8  C   UNL     1      27.422 -23.686  26.196  1.00  0.00     0.123 A 
ATOM      9  C   UNL     1      26.716 -22.586  26.693  1.00  0.00     0.094 A 
ATOM     10  C   UNL     1      25.370 -22.402  26.363  1.00  0.00     0.146 A 
ATOM     11  O   UNL     1      24.726 -21.346  26.845  1.00  0.00    -0.452 OA
ENDROOT
BRANCH   1  12
ATOM     12  C   UNL     1      22.846 -19.870  27.172  1.00  0.00     0.021 A 
ATOM     13  C   UNL     1      22.152 -19.913  28.396  1.00  0.00     0.016 A 
ATOM     14  C   UNL     1      21.572 -18.754  28.920  1.00  0.00     0.047 A 
ATOM     15  C   UNL     1      21.664 -17.544  28.226  1.00  0.00     0.115 A 
ATOM     16  C   UNL     1      22.916 -18.655  26.470  1.00  0.00     0.016 A 
ATOM     17  C   UNL     1      22.335 -17.498  26.999  1.00  0.00     0.047 A 
BRANCH  15  18
ATOM     18  O   UNL     1      21.082 -16.398  28.762  1.00  0.00    -0.508 OA
ATOM     19  H   UNL     1      20.244 -16.445  29.331  1.00  0.00     0.293 HD
ENDBRANCH  15  18
ENDBRANCH   1  12
BRANCH   2  20
ATOM     20  O   UNL     1      21.347 -21.746  25.543  1.00  0.00    -0.502 OA
ATOM     21  H   UNL     1      20.625 -22.348  25.920  1.00  0.00     0.293 HD
ENDBRANCH   2  20
BRANCH   6  22
ATOM     22  O   UNL     1      24.816 -25.378  24.191  1.00  0.00    -0.507 OA
ATOM     23  H   UNL     1      25.088 -26.354  24.195  1.00  0.00     0.293 HD
ENDBRANCH   6  22
BRANCH   8  24
ATOM     24  O   UNL     1      28.764 -23.874  26.521  1.00  0.00    -0.508 OA
ATOM     25  H   UNL     1      29.151 -24.801  26.658  1.00  0.00     0.293 HD
ENDBRANCH   8  24
TORSDOF 5
ENDMDL
MODEL 6
REMARK VINA RESULT:    -6.730      3.267      5.676
REMARK INTER + INTRA:          -8.095
REMARK INTER:                  -7.860
REMARK INTRA:                  -0.235
REMARK UNBOUND:                -0.184
REMARK SMILES O=c1c(O)c(-c2ccc(O)cc2)oc2cc(O)cc(O)c12
REMARK SMILES IDX 5 1 3 2 2 3 1 4 21 5 19 6 18 7 16 8 15 9 14 10 13 11 6 12
REMARK SMILES IDX 7 13 8 14 9 15 12 16 11 17 10 18 4 20 20 22 17 24
REMARK H PARENT 10 19 4 21 20 23 17 25
REMARK Flexibility Score: inf
ROOT
ATOM      1  C   UNL     1      26.632 -26.468  28.099  1.00  0.00     0.180 A 
ATOM      2  C   UNL     1      25.320 -26.477  27.585  1.00  0.00     0.208 A 
ATOM      3  C   UNL     1      25.026 -25.687  26.463  1.00  0.00     0.238 A 
ATOM      4  O   UNL     1      23.852 -25.679  26.001  1.00  0.00    -0.285 OA
ATOM      5  C   UNL     1      26.046 -24.920  25.864  1.00  0.00     0.111 A 
ATOM      6  C   UNL     1      25.833 -24.101  24.728  1.00  0.00     0.134 A 
ATOM      7  C   UNL     1      26.903 -23.374  24.185  1.00  0.00     0.093 A 
ATOM      8  C   UNL     1      28.177 -23.451  24.752  1.00  0.00     0.123 A 
ATOM      9  C   UNL     1      28.393 -24.258  25.873  1.00  0.00     0.094 A 
ATOM     10  C   UNL     1      27.340 -24.989  26.431  1.00  0.00     0.146 A 
ATOM     11  O   UNL     1      27.572 -25.743  27.499  1.00  0.00    -0.452 OA
ENDROOT
BRANCH   1  12
ATOM     12  C   UNL     1      27.015 -27.259  29.290  1.00  0.00     0.021 A 
ATOM     13  C   UNL     1      26.610 -26.881  30.584  1.00  0.00     0.016 A 
ATOM     14  C   UNL     1      27.006 -27.631  31.696  1.00  0.00     0.047 A 
ATOM     15  C   UNL     1      27.820 -28.756  31.533  1.00  0.00     0.115 A 
ATOM     16  C   UNL     1      27.851 -28.379  29.137  1.00  0.00     0.016 A 
ATOM     17  C   UNL     1      28.244 -29.127  30.251  1.00  0.00     0.047 A 
BRANCH  15  18
ATOM     18  O   UNL     1      28.205 -29.495  32.650  1.00  0.00    -0.508 OA
ATOM     19  H   UNL     1      27.567 -29.664  33.418  1.00  0.00     0.293 HD
ENDBRANCH  15  18
ENDBRANCH   1  12
BRANCH   2  20
ATOM     20  O   UNL     1      24.339 -27.285  28.168  1.00  0.00    -0.502 OA
ATOM     21  H   UNL     1      23.350 -27.086  28.079  1.00  0.00     0.293 HD
ENDBRANCH   2  20
BRANCH   6  22
ATOM     22  O   UNL     1      24.572 -24.004  24.139  1.00  0.00    -0.507 OA
ATOM     23  H   UNL     1      23.958 -24.806  24.059  1.00  0.00     0.293 HD
ENDBRANCH   6  22
BRANCH   8  24
ATOM     24  O   UNL     1      29.223 -22.720  24.192  1.00  0.00    -0.508 OA
ATOM     25  H   UNL     1      29.215 -22.446  23.216  1.00  0.00     0.293 HD
ENDBRANCH   8  24
TORSDOF 5
ENDMDL
MODEL 7
REMARK VINA RESULT:    -6.694      3.037      7.397
REMARK INTER + INTRA:          -8.052
REMARK INTER:                  -7.762
REMARK INTRA:                  -0.290
REMARK UNBOUND:                -0.184
REMARK SMILES O=c1c(O)c(-c2ccc(O)cc2)oc2cc(O)cc(O)c12
REMARK SMILES IDX 5 1 3 2 2 3 1 4 21 5 19 6 18 7 16 8 15 9 14 10 13 11 6 12
REMARK SMILES IDX 7 13 8 14 9 15 12 16 11 17 10 18 4 20 20 22 17 24
REMARK H PARENT 10 19 4 21 20 23 17 25
REMARK Flexibility Score: inf
ROOT
ATOM      1  C   UNL     1      26.935 -27.930  36.061  1.00  0.00     0.180 A 
ATOM      2  C   UNL     1      26.108 -28.759  36.844  1.00  0.00     0.208 A 
ATOM      3  C   UNL     1      25.843 -28.392  38.173  1.00  0.00     0.238 A 
ATOM      4  O   UNL     1      25.113 -29.132  38.887  1.00  0.00    -0.285 OA
ATOM      5  C   UNL     1      26.389 -27.199  38.688  1.00  0.00     0.111 A 
ATOM      6  C   UNL     1      26.167 -26.755  40.015  1.00  0.00     0.134 A 
ATOM      7  C   UNL     1      26.739 -25.551  40.450  1.00  0.00     0.093 A 
ATOM      8  C   UNL     1      27.525 -24.783  39.588  1.00  0.00     0.123 A 
ATOM      9  C   UNL     1      27.748 -25.216  38.277  1.00  0.00     0.094 A 
ATOM     10  C   UNL     1      27.188 -26.414  37.824  1.00  0.00     0.146 A 
ATOM     11  O   UNL     1      27.420 -26.804  36.577  1.00  0.00    -0.452 OA
ENDROOT
BRANCH   1  12
ATOM     12  C   UNL     1      27.276 -28.259  34.659  1.00  0.00     0.021 A 
ATOM     13  C   UNL     1      26.484 -27.810  33.585  1.00  0.00     0.016 A 
ATOM     14  C   UNL     1      26.813 -28.155  32.271  1.00  0.00     0.047 A 
ATOM     15  C   UNL     1      27.925 -28.961  32.012  1.00  0.00     0.115 A 
ATOM     16  C   UNL     1      28.379 -29.087  34.392  1.00  0.00     0.016 A 
ATOM     17  C   UNL     1      28.706 -29.429  33.075  1.00  0.00     0.047 A 
BRANCH  15  18
ATOM     18  O   UNL     1      28.241 -29.296  30.697  1.00  0.00    -0.508 OA
ATOM     19  H   UNL     1      29.180 -29.182  30.333  1.00  0.00     0.293 HD
ENDBRANCH  15  18
ENDBRANCH   1  12
BRANCH   2  20
ATOM     20  O   UNL     1      25.539 -29.911  36.294  1.00  0.00    -0.502 OA
ATOM     21  H   UNL     1      26.083 -30.741  36.091  1.00  0.00     0.293 HD
ENDBRANCH   2  20
BRANCH   6  22
ATOM     22  O   UNL     1      25.386 -27.499  40.900  1.00  0.00    -0.507 OA
ATOM     23  H   UNL     1      24.666 -27.068  41.468  1.00  0.00     0.293 HD
ENDBRANCH   6  22
BRANCH   8  24
ATOM     24  O   UNL     1      28.080 -23.589  40.046  1.00  0.00    -0.508 OA
ATOM     25  H   UNL     1      28.248 -23.427  41.032  1.00  0.00     0.293 HD
ENDBRANCH   8  24
TORSDOF 5
ENDMDL
MODEL 8
REMARK VINA RESULT:    -6.635      4.491      7.292
REMARK INTER + INTRA:          -7.983
REMARK INTER:                  -7.780
REMARK INTRA:                  -0.203
REMARK UNBOUND:                -0.184
REMARK SMILES O=c1c(O)c(-c2ccc(O)cc2)oc2cc(O)cc(O)c12
REMARK SMILES IDX 5 1 3 2 2 3 1 4 21 5 19 6 18 7 16 8 15 9 14 10 13 11 6 12
REMARK SMILES IDX 7 13 8 14 9 15 12 16 11 17 10 18 4 20 20 22 17 24
REMARK H PARENT 10 19 4 21 20 23 17 25
REMARK Flexibility Score: inf
ROOT
ATOM      1  C   UNL     1      24.839 -24.865  27.550  1.00  0.00     0.180 A 
ATOM      2  C   UNL     1      23.747 -25.172  26.715  1.00  0.00     0.208 A 
ATOM      3  C   UNL     1      22.914 -24.131  26.278  1.00  0.00     0.238 A 
ATOM      4  O   UNL     1      21.926 -24.396  25.538  1.00  0.00    -0.285 OA
ATOM      5  C   UNL     1      23.195 -22.805  26.664  1.00  0.00     0.111 A 
ATOM      6  C   UNL     1      22.407 -21.698  26.263  1.00  0.00     0.134 A 
ATOM      7  C   UNL     1      22.758 -20.406  26.682  1.00  0.00     0.093 A 
ATOM      8  C   UNL     1      23.878 -20.199  27.491  1.00  0.00     0.123 A 
ATOM      9  C   UNL     1      24.660 -21.288  27.889  1.00  0.00     0.094 A 
ATOM     10  C   UNL     1      24.326 -22.584  27.484  1.00  0.00     0.146 A 
ATOM     11  O   UNL     1      25.082 -23.600  27.881  1.00  0.00    -0.452 OA
ENDROOT
BRANCH   1  12
ATOM     12  C   UNL     1      25.752 -25.910  28.067  1.00  0.00     0.021 A 
ATOM     13  C   UNL     1      25.325 -26.850  29.023  1.00  0.00     0.016 A 
ATOM     14  C   UNL     1      26.213 -27.812  29.514  1.00  0.00     0.047 A 
ATOM     15  C   UNL     1      27.538 -27.838  29.070  1.00  0.00     0.115 A 
ATOM     16  C   UNL     1      27.091 -25.929  27.642  1.00  0.00     0.016 A 
ATOM     17  C   UNL     1      27.976 -26.893  28.135  1.00  0.00     0.047 A 
BRANCH  15  18
ATOM     18  O   UNL     1      28.411 -28.803  29.568  1.00  0.00    -0.508 OA
ATOM     19  H   UNL     1      29.356 -28.896  29.214  1.00  0.00     0.293 HD
ENDBRANCH  15  18
ENDBRANCH   1  12
BRANCH   2  20
ATOM     20  O   UNL     1      23.519 -26.489  26.306  1.00  0.00    -0.502 OA
ATOM     21  H   UNL     1      23.083 -26.715  25.420  1.00  0.00     0.293 HD
ENDBRANCH   2  20
BRANCH   6  22
ATOM     22  O   UNL     1      21.283 -21.871  25.455  1.00  0.00    -0.507 OA
ATOM     23  H   UNL     1      20.537 -22.508  25.709  1.00  0.00     0.293 HD
ENDBRANCH   6  22
BRANCH   8  24
ATOM     24  O   UNL     1      24.205 -18.906  27.892  1.00  0.00    -0.508 OA
ATOM     25  H   UNL     1      23.491 -18.233  28.146  1.00  0.00     0.293 HD
ENDBRANCH   8  24
TORSDOF 5
ENDMDL
MODEL 9
REMARK VINA RESULT:    -6.619      2.031      4.137
REMARK INTER + INTRA:          -7.964
REMARK INTER:                  -7.708
REMARK INTRA:                  -0.256
REMARK UNBOUND:                -0.184
REMARK SMILES O=c1c(O)c(-c2ccc(O)cc2)oc2cc(O)cc(O)c12
REMARK SMILES IDX 5 1 3 2 2 3 1 4 21 5 19 6 18 7 16 8 15 9 14 10 13 11 6 12
REMARK SMILES IDX 7 13 8 14 9 15 12 16 11 17 10 18 4 20 20 22 17 24
REMARK H PARENT 10 19 4 21 20 23 17 25
REMARK Flexibility Score: inf
ROOT
ATOM      1  C   UNL     1      26.196 -28.160  35.700  1.00  0.00     0.180 A 
ATOM      2  C   UNL     1      25.455 -27.063  35.220  1.00  0.00     0.208 A 
ATOM      3  C   UNL     1      25.563 -26.713  33.865  1.00  0.00     0.238 A 
ATOM      4  O   UNL     1      24.912 -25.726  33.426  1.00  0.00    -0.285 OA
ATOM      5  C   UNL     1      26.389 -27.474  33.012  1.00  0.00     0.111 A 
ATOM      6  C   UNL     1      26.548 -27.191  31.634  1.00  0.00     0.134 A 
ATOM      7  C   UNL     1      27.382 -28.001  30.849  1.00  0.00     0.093 A 
ATOM      8  C   UNL     1      28.057 -29.086  31.413  1.00  0.00     0.123 A 
ATOM      9  C   UNL     1      27.903 -29.371  32.773  1.00  0.00     0.094 A 
ATOM     10  C   UNL     1      27.078 -28.574  33.573  1.00  0.00     0.146 A 
ATOM     11  O   UNL     1      26.954 -28.864  34.863  1.00  0.00    -0.452 OA
ENDROOT
BRANCH   1  12
ATOM     12  C   UNL     1      26.151 -28.579  37.119  1.00  0.00     0.021 A 
ATOM     13  C   UNL     1      26.849 -27.872  38.116  1.00  0.00     0.016 A 
ATOM     14  C   UNL     1      26.810 -28.301  39.446  1.00  0.00     0.047 A 
ATOM     15  C   UNL     1      26.089 -29.447  39.795  1.00  0.00     0.115 A 
ATOM     16  C   UNL     1      25.446 -29.742  37.475  1.00  0.00     0.016 A 
ATOM     17  C   UNL     1      25.410 -30.168  38.807  1.00  0.00     0.047 A 
BRANCH  15  18
ATOM     18  O   UNL     1      26.059 -29.862  41.125  1.00  0.00    -0.508 OA
ATOM     19  H   UNL     1      26.319 -30.805  41.391  1.00  0.00     0.293 HD
ENDBRANCH  15  18
ENDBRANCH   1  12
BRANCH   2  20
ATOM     20  O   UNL     1      24.606 -26.356  36.075  1.00  0.00    -0.502 OA
ATOM     21  H   UNL     1      24.461 -26.626  37.041  1.00  0.00     0.293 HD
ENDBRANCH   2  20
BRANCH   6  22
ATOM     22  O   UNL     1      25.887 -26.114  31.040  1.00  0.00    -0.507 OA
ATOM     23  H   UNL     1      26.333 -25.538  30.336  1.00  0.00     0.293 HD
ENDBRANCH   6  22
BRANCH   8  24
ATOM     24  O   UNL     1      28.878 -29.876  30.611  1.00  0.00    -0.508 OA
ATOM     25  H   UNL     1      28.494 -30.564  29.973  1.00  0.00     0.293 HD
ENDBRANCH   8  24
TORSDOF 5
ENDMDL
