MODEL 1
REMARK VINA RESULT:    -3.446      0.000      0.000
REMARK INTER + INTRA:         -13.867
REMARK INTER:                  -9.087
REMARK INTRA:                  -4.780
REMARK UNBOUND:                -4.780
REMARK SMILES CCCCCCCCCCCCCCCCCCCCCCCCCCCCCC(=O)[O-]
REMARK SMILES IDX 16 1 17 2 18 3 19 4 20 5 21 6 22 7 23 8 24 9 25 10 26 11
REMARK SMILES IDX 27 12 28 13 29 14 30 15 31 16 32 17 15 18 14 19 13 20 12 21
REMARK SMILES IDX 11 22 10 23 9 24 8 25 7 26 6 27 5 28 4 29 3 30 2 31 1 32
REMARK H PARENT
REMARK Flexibility Score: inf
ROOT
ATOM      1  C   UNL     1      61.364  25.883  50.460  1.00  0.00     0.000 C 
ENDROOT
BRANCH   1   2
ATOM      2  C   UNL     1      61.461  24.524  49.748  1.00  0.00     0.000 C 
BRANCH   2   3
ATOM      3  C   UNL     1      60.843  23.338  50.514  1.00  0.00     0.000 C 
BRANCH   3   4
ATOM      4  C   UNL     1      61.122  23.361  52.032  1.00  0.00     0.000 C 
BRANCH   4   5
ATOM      5  C   UNL     1      59.968  22.750  52.847  1.00  0.00     0.000 C 
BRANCH   5   6
ATOM      6  C   UNL     1      59.595  21.332  52.363  1.00  0.00     0.000 C 
BRANCH   6   7
ATOM      7  C   UNL     1      60.044  20.211  53.321  1.00  0.00     0.000 C 
BRANCH   7   8
ATOM      8  C   UNL     1      61.051  19.215  52.720  1.00  0.00     0.000 C 
BRANCH   8   9
ATOM      9  C   UNL     1      61.834  19.803  51.533  1.00  0.00     0.000 C 
BRANCH   9  10
ATOM     10  C   UNL     1      61.598  19.020  50.232  1.00  0.00     0.000 C 
BRANCH  10  11
ATOM     11  C   UNL     1      60.887  17.678  50.479  1.00  0.00     0.000 C 
BRANCH  11  12
ATOM     12  C   UNL     1      59.705  17.451  49.523  1.00  0.00     0.000 C 
BRANCH  12  13
ATOM     13  C   UNL     1      58.580  18.479  49.712  1.00  0.00     0.006 C 
BRANCH  13  14
ATOM     14  C   UNL     1      57.874  18.273  51.056  1.00  0.00     0.053 C 
BRANCH  14  15
ATOM     15  C   UNL     1      56.612  19.073  51.117  1.00  0.00     0.041 C 
ATOM     16  O   UNL     1      56.329  19.731  52.152  1.00  0.00    -0.550 OA
ATOM     17  O   UNL     1      55.767  19.128  50.015  1.00  0.00    -0.550 OA
ENDBRANCH  14  15
ENDBRANCH  13  14
ENDBRANCH  12  13
ENDBRANCH  11  12
ENDBRANCH  10  11
ENDBRANCH   9  10
ENDBRANCH   8   9
ENDBRANCH   7   8
ENDBRANCH   6   7
ENDBRANCH   5   6
ENDBRANCH   4   5
ENDBRANCH   3   4
ENDBRANCH   2   3
ENDBRANCH   1   2
BRANCH   1  18
ATOM     18  C   UNL     1      62.176  26.985  49.757  1.00  0.00     0.000 C 
BRANCH  18  19
ATOM     19  C   UNL     1      61.282  27.997  49.022  1.00  0.00     0.000 C 
BRANCH  19  20
ATOM     20  C   UNL     1      59.792  27.836  49.372  1.00  0.00     0.000 C 
BRANCH  20  21
ATOM     21  C   UNL     1      59.070  29.186  49.524  1.00  0.00     0.000 C 
BRANCH  21  22
ATOM     22  C   UNL     1      58.587  29.509  50.951  1.00  0.00     0.000 C 
BRANCH  22  23
ATOM     23  C   UNL     1      59.162  28.568  52.031  1.00  0.00     0.000 C 
BRANCH  23  24
ATOM     24  C   UNL     1      58.074  27.722  52.707  1.00  0.00    -0.000 C 
BRANCH  24  25
ATOM     25  C   UNL     1      58.451  26.234  52.696  1.00  0.00    -0.000 C 
BRANCH  25  26
ATOM     26  C   UNL     1      57.812  25.511  51.501  1.00  0.00    -0.000 C 
BRANCH  26  27
ATOM     27  C   UNL     1      56.380  25.992  51.204  1.00  0.00    -0.000 C 
BRANCH  27  28
ATOM     28  C   UNL     1      56.175  26.593  49.802  1.00  0.00    -0.000 C 
BRANCH  28  29
ATOM     29  C   UNL     1      54.908  27.456  49.700  1.00  0.00    -0.000 C 
BRANCH  29  30
ATOM     30  C   UNL     1      55.192  28.899  50.145  1.00  0.00    -0.000 C 
BRANCH  30  31
ATOM     31  C   UNL     1      53.929  29.622  50.637  1.00  0.00    -0.003 C 
ATOM     32  C   UNL     1      54.246  30.895  51.423  1.00  0.00     0.004 C 
ENDBRANCH  30  31
ENDBRANCH  29  30
ENDBRANCH  28  29
ENDBRANCH  27  28
ENDBRANCH  26  27
ENDBRANCH  25  26
ENDBRANCH  24  25
ENDBRANCH  23  24
ENDBRANCH  22  23
ENDBRANCH  21  22
ENDBRANCH  20  21
ENDBRANCH  19  20
ENDBRANCH  18  19
ENDBRANCH   1  18
TORSDOF 28
ENDMDL
MODEL 2
REMARK VINA RESULT:    -3.370      5.772      8.412
REMARK INTER + INTRA:         -13.665
REMARK INTER:                  -7.457
REMARK INTRA:                  -6.209
REMARK UNBOUND:                -4.780
REMARK SMILES CCCCCCCCCCCCCCCCCCCCCCCCCCCCCC(=O)[O-]
REMARK SMILES IDX 16 1 17 2 18 3 19 4 20 5 21 6 22 7 23 8 24 9 25 10 26 11
REMARK SMILES IDX 27 12 28 13 29 14 30 15 31 16 32 17 15 18 14 19 13 20 12 21
REMARK SMILES IDX 11 22 10 23 9 24 8 25 7 26 6 27 5 28 4 29 3 30 2 31 1 32
REMARK H PARENT
REMARK Flexibility Score: inf
ROOT
ATOM      1  C   UNL     1      58.406  27.975  52.293  1.00  0.00     0.000 C 
ENDROOT
BRANCH   1   2
ATOM      2  C   UNL     1      58.204  27.789  50.780  1.00  0.00     0.000 C 
BRANCH   2   3
ATOM      3  C   UNL     1      58.401  29.060  49.931  1.00  0.00     0.000 C 
BRANCH   3   4
ATOM      4  C   UNL     1      59.666  29.032  49.046  1.00  0.00     0.000 C 
BRANCH   4   5
ATOM      5  C   UNL     1      60.397  27.679  49.116  1.00  0.00     0.000 C 
BRANCH   5   6
ATOM      6  C   UNL     1      61.932  27.840  49.077  1.00  0.00     0.000 C 
BRANCH   6   7
ATOM      7  C   UNL     1      62.661  27.130  50.235  1.00  0.00     0.000 C 
BRANCH   7   8
ATOM      8  C   UNL     1      61.756  26.712  51.406  1.00  0.00     0.000 C 
BRANCH   8   9
ATOM      9  C   UNL     1      62.208  27.310  52.751  1.00  0.00     0.000 C 
BRANCH   9  10
ATOM     10  C   UNL     1      62.559  28.802  52.639  1.00  0.00     0.000 C 
BRANCH  10  11
ATOM     11  C   UNL     1      61.336  29.708  52.864  1.00  0.00     0.000 C 
BRANCH  11  12
ATOM     12  C   UNL     1      61.213  30.810  51.799  1.00  0.00     0.000 C 
BRANCH  12  13
ATOM     13  C   UNL     1      62.575  31.365  51.356  1.00  0.00     0.006 C 
BRANCH  13  14
ATOM     14  C   UNL     1      62.673  31.412  49.828  1.00  0.00     0.053 C 
BRANCH  14  15
ATOM     15  C   UNL     1      64.083  31.191  49.383  1.00  0.00     0.041 C 
ATOM     16  O   UNL     1      64.613  30.055  49.500  1.00  0.00    -0.550 OA
ATOM     17  O   UNL     1      64.801  32.227  48.797  1.00  0.00    -0.550 OA
ENDBRANCH  14  15
ENDBRANCH  13  14
ENDBRANCH  12  13
ENDBRANCH  11  12
ENDBRANCH  10  11
ENDBRANCH   9  10
ENDBRANCH   8   9
ENDBRANCH   7   8
ENDBRANCH   6   7
ENDBRANCH   5   6
ENDBRANCH   4   5
ENDBRANCH   3   4
ENDBRANCH   2   3
ENDBRANCH   1   2
BRANCH   1  18
ATOM     18  C   UNL     1      57.607  26.962  53.132  1.00  0.00     0.000 C 
BRANCH  18  19
ATOM     19  C   UNL     1      56.365  26.438  52.394  1.00  0.00     0.000 C 
BRANCH  19  20
ATOM     20  C   UNL     1      55.205  26.104  53.347  1.00  0.00     0.000 C 
BRANCH  20  21
ATOM     21  C   UNL     1      53.939  26.929  53.053  1.00  0.00     0.000 C 
BRANCH  21  22
ATOM     22  C   UNL     1      53.450  27.809  54.217  1.00  0.00     0.000 C 
BRANCH  22  23
ATOM     23  C   UNL     1      54.590  28.416  55.062  1.00  0.00     0.000 C 
BRANCH  23  24
ATOM     24  C   UNL     1      54.454  29.938  55.219  1.00  0.00    -0.000 C 
BRANCH  24  25
ATOM     25  C   UNL     1      54.357  30.624  53.850  1.00  0.00    -0.000 C 
BRANCH  25  26
ATOM     26  C   UNL     1      55.641  30.412  53.034  1.00  0.00    -0.000 C 
BRANCH  26  27
ATOM     27  C   UNL     1      55.363  30.042  51.565  1.00  0.00    -0.000 C 
BRANCH  27  28
ATOM     28  C   UNL     1      53.915  30.276  51.099  1.00  0.00    -0.000 C 
BRANCH  28  29
ATOM     29  C   UNL     1      53.463  29.275  50.025  1.00  0.00    -0.000 C 
BRANCH  29  30
ATOM     30  C   UNL     1      54.573  28.258  49.723  1.00  0.00    -0.000 C 
BRANCH  30  31
ATOM     31  C   UNL     1      54.018  26.877  49.340  1.00  0.00    -0.003 C 
ATOM     32  C   UNL     1      55.120  25.858  49.049  1.00  0.00     0.004 C 
ENDBRANCH  30  31
ENDBRANCH  29  30
ENDBRANCH  28  29
ENDBRANCH  27  28
ENDBRANCH  26  27
ENDBRANCH  25  26
ENDBRANCH  24  25
ENDBRANCH  23  24
ENDBRANCH  22  23
ENDBRANCH  21  22
ENDBRANCH  20  21
ENDBRANCH  19  20
ENDBRANCH  18  19
ENDBRANCH   1  18
TORSDOF 28
ENDMDL
MODEL 3
REMARK VINA RESULT:    -3.343      3.192      6.977
REMARK INTER + INTRA:         -13.594
REMARK INTER:                  -7.960
REMARK INTRA:                  -5.634
REMARK UNBOUND:                -4.780
REMARK SMILES CCCCCCCCCCCCCCCCCCCCCCCCCCCCCC(=O)[O-]
REMARK SMILES IDX 16 1 17 2 18 3 19 4 20 5 21 6 22 7 23 8 24 9 25 10 26 11
REMARK SMILES IDX 27 12 28 13 29 14 30 15 31 16 32 17 15 18 14 19 13 20 12 21
REMARK SMILES IDX 11 22 10 23 9 24 8 25 7 26 6 27 5 28 4 29 3 30 2 31 1 32
REMARK H PARENT
REMARK Flexibility Score: inf
ROOT
ATOM      1  C   UNL     1      57.420  25.955  50.593  1.00  0.00     0.000 C 
ENDROOT
BRANCH   1   2
ATOM      2  C   UNL     1      57.062  25.633  52.054  1.00  0.00     0.000 C 
BRANCH   2   3
ATOM      3  C   UNL     1      57.844  26.436  53.112  1.00  0.00     0.000 C 
BRANCH   3   4
ATOM      4  C   UNL     1      59.191  26.993  52.605  1.00  0.00     0.000 C 
BRANCH   4   5
ATOM      5  C   UNL     1      59.497  28.390  53.174  1.00  0.00     0.000 C 
BRANCH   5   6
ATOM      6  C   UNL     1      59.630  29.458  52.067  1.00  0.00     0.000 C 
BRANCH   6   7
ATOM      7  C   UNL     1      58.394  29.561  51.152  1.00  0.00     0.000 C 
BRANCH   7   8
ATOM      8  C   UNL     1      58.668  29.277  49.665  1.00  0.00     0.000 C 
BRANCH   8   9
ATOM      9  C   UNL     1      60.170  29.183  49.344  1.00  0.00     0.000 C 
BRANCH   9  10
ATOM     10  C   UNL     1      60.620  27.738  49.071  1.00  0.00     0.000 C 
BRANCH  10  11
ATOM     11  C   UNL     1      61.889  27.364  49.856  1.00  0.00     0.000 C 
BRANCH  11  12
ATOM     12  C   UNL     1      62.118  25.845  49.920  1.00  0.00     0.000 C 
BRANCH  12  13
ATOM     13  C   UNL     1      60.812  25.042  49.819  1.00  0.00     0.006 C 
BRANCH  13  14
ATOM     14  C   UNL     1      60.837  23.840  50.768  1.00  0.00     0.053 C 
BRANCH  14  15
ATOM     15  C   UNL     1      61.546  22.684  50.137  1.00  0.00     0.041 C 
ATOM     16  O   UNL     1      61.133  22.207  49.047  1.00  0.00    -0.550 OA
ATOM     17  O   UNL     1      62.690  22.160  50.727  1.00  0.00    -0.550 OA
ENDBRANCH  14  15
ENDBRANCH  13  14
ENDBRANCH  12  13
ENDBRANCH  11  12
ENDBRANCH  10  11
ENDBRANCH   9  10
ENDBRANCH   8   9
ENDBRANCH   7   8
ENDBRANCH   6   7
ENDBRANCH   5   6
ENDBRANCH   4   5
ENDBRANCH   3   4
ENDBRANCH   2   3
ENDBRANCH   1   2
BRANCH   1  18
ATOM     18  C   UNL     1      56.181  26.147  49.702  1.00  0.00     0.000 C 
BRANCH  18  19
ATOM     19  C   UNL     1      55.574  27.553  49.833  1.00  0.00     0.000 C 
BRANCH  19  20
ATOM     20  C   UNL     1      54.063  27.578  49.544  1.00  0.00     0.000 C 
BRANCH  20  21
ATOM     21  C   UNL     1      53.434  28.960  49.794  1.00  0.00     0.000 C 
BRANCH  21  22
ATOM     22  C   UNL     1      54.387  30.012  50.391  1.00  0.00     0.000 C 
BRANCH  22  23
ATOM     23  C   UNL     1      53.817  30.739  51.627  1.00  0.00     0.000 C 
BRANCH  23  24
ATOM     24  C   UNL     1      53.950  29.903  52.909  1.00  0.00    -0.000 C 
BRANCH  24  25
ATOM     25  C   UNL     1      55.347  29.275  53.010  1.00  0.00    -0.000 C 
BRANCH  25  26
ATOM     26  C   UNL     1      56.127  29.851  54.201  1.00  0.00    -0.000 C 
BRANCH  26  27
ATOM     27  C   UNL     1      56.746  31.229  53.902  1.00  0.00    -0.000 C 
BRANCH  27  28
ATOM     28  C   UNL     1      57.604  31.816  55.038  1.00  0.00    -0.000 C 
BRANCH  28  29
ATOM     29  C   UNL     1      58.406  30.748  55.795  1.00  0.00    -0.000 C 
BRANCH  29  30
ATOM     30  C   UNL     1      57.925  30.630  57.249  1.00  0.00    -0.000 C 
BRANCH  30  31
ATOM     31  C   UNL     1      58.291  29.279  57.883  1.00  0.00    -0.003 C 
ATOM     32  C   UNL     1      58.560  28.192  56.842  1.00  0.00     0.004 C 
ENDBRANCH  30  31
ENDBRANCH  29  30
ENDBRANCH  28  29
ENDBRANCH  27  28
ENDBRANCH  26  27
ENDBRANCH  25  26
ENDBRANCH  24  25
ENDBRANCH  23  24
ENDBRANCH  22  23
ENDBRANCH  21  22
ENDBRANCH  20  21
ENDBRANCH  19  20
ENDBRANCH  18  19
ENDBRANCH   1  18
TORSDOF 28
ENDMDL
MODEL 4
REMARK VINA RESULT:    -3.333      3.835      7.587
REMARK INTER + INTRA:         -13.569
REMARK INTER:                  -7.946
REMARK INTRA:                  -5.623
REMARK UNBOUND:                -4.780
REMARK SMILES CCCCCCCCCCCCCCCCCCCCCCCCCCCCCC(=O)[O-]
REMARK SMILES IDX 16 1 17 2 18 3 19 4 20 5 21 6 22 7 23 8 24 9 25 10 26 11
REMARK SMILES IDX 27 12 28 13 29 14 30 15 31 16 32 17 15 18 14 19 13 20 12 21
REMARK SMILES IDX 11 22 10 23 9 24 8 25 7 26 6 27 5 28 4 29 3 30 2 31 1 32
REMARK H PARENT
REMARK Flexibility Score: inf
ROOT
ATOM      1  C   UNL     1      54.556  25.575  49.627  1.00  0.00     0.000 C 
ENDROOT
BRANCH   1   2
ATOM      2  C   UNL     1      54.028  24.700  50.777  1.00  0.00     0.000 C 
BRANCH   2   3
ATOM      3  C   UNL     1      54.706  24.934  52.142  1.00  0.00     0.000 C 
BRANCH   3   4
ATOM      4  C   UNL     1      54.460  26.340  52.729  1.00  0.00     0.000 C 
BRANCH   4   5
ATOM      5  C   UNL     1      55.772  27.069  53.069  1.00  0.00     0.000 C 
BRANCH   5   6
ATOM      6  C   UNL     1      56.995  26.422  52.385  1.00  0.00     0.000 C 
BRANCH   6   7
ATOM      7  C   UNL     1      58.039  27.441  51.885  1.00  0.00     0.000 C 
BRANCH   7   8
ATOM      8  C   UNL     1      57.911  27.819  50.400  1.00  0.00     0.000 C 
BRANCH   8   9
ATOM      9  C   UNL     1      58.307  29.280  50.121  1.00  0.00     0.000 C 
BRANCH   9  10
ATOM     10  C   UNL     1      59.479  29.390  49.133  1.00  0.00     0.000 C 
BRANCH  10  11
ATOM     11  C   UNL     1      60.190  28.042  48.918  1.00  0.00     0.000 C 
BRANCH  11  12
ATOM     12  C   UNL     1      61.545  27.967  49.640  1.00  0.00     0.000 C 
BRANCH  12  13
ATOM     13  C   UNL     1      61.959  26.528  49.981  1.00  0.00     0.006 C 
BRANCH  13  14
ATOM     14  C   UNL     1      60.803  25.555  49.727  1.00  0.00     0.053 C 
BRANCH  14  15
ATOM     15  C   UNL     1      60.608  24.650  50.902  1.00  0.00     0.041 C 
ATOM     16  O   UNL     1      60.570  25.124  52.067  1.00  0.00    -0.550 OA
ATOM     17  O   UNL     1      60.425  23.285  50.709  1.00  0.00    -0.550 OA
ENDBRANCH  14  15
ENDBRANCH  13  14
ENDBRANCH  12  13
ENDBRANCH  11  12
ENDBRANCH  10  11
ENDBRANCH   9  10
ENDBRANCH   8   9
ENDBRANCH   7   8
ENDBRANCH   6   7
ENDBRANCH   5   6
ENDBRANCH   4   5
ENDBRANCH   3   4
ENDBRANCH   2   3
ENDBRANCH   1   2
BRANCH   1  18
ATOM     18  C   UNL     1      53.435  26.321  48.882  1.00  0.00     0.000 C 
BRANCH  18  19
ATOM     19  C   UNL     1      53.212  27.741  49.426  1.00  0.00     0.000 C 
BRANCH  19  20
ATOM     20  C   UNL     1      54.528  28.453  49.787  1.00  0.00     0.000 C 
BRANCH  20  21
ATOM     21  C   UNL     1      54.304  29.875  50.329  1.00  0.00     0.000 C 
BRANCH  21  22
ATOM     22  C   UNL     1      55.018  30.187  51.657  1.00  0.00     0.000 C 
BRANCH  22  23
ATOM     23  C   UNL     1      54.056  30.490  52.825  1.00  0.00     0.000 C 
BRANCH  23  24
ATOM     24  C   UNL     1      53.811  31.996  53.004  1.00  0.00    -0.000 C 
BRANCH  24  25
ATOM     25  C   UNL     1      55.097  32.795  52.754  1.00  0.00    -0.000 C 
BRANCH  25  26
ATOM     26  C   UNL     1      55.240  33.943  53.763  1.00  0.00    -0.000 C 
BRANCH  26  27
ATOM     27  C   UNL     1      56.308  33.669  54.837  1.00  0.00    -0.000 C 
BRANCH  27  28
ATOM     28  C   UNL     1      55.788  32.970  56.107  1.00  0.00    -0.000 C 
BRANCH  28  29
ATOM     29  C   UNL     1      55.887  31.439  56.031  1.00  0.00    -0.000 C 
BRANCH  29  30
ATOM     30  C   UNL     1      57.329  30.998  55.738  1.00  0.00    -0.000 C 
BRANCH  30  31
ATOM     31  C   UNL     1      57.446  30.193  54.436  1.00  0.00    -0.003 C 
ATOM     32  C   UNL     1      58.334  30.876  53.396  1.00  0.00     0.004 C 
ENDBRANCH  30  31
ENDBRANCH  29  30
ENDBRANCH  28  29
ENDBRANCH  27  28
ENDBRANCH  26  27
ENDBRANCH  25  26
ENDBRANCH  24  25
ENDBRANCH  23  24
ENDBRANCH  22  23
ENDBRANCH  21  22
ENDBRANCH  20  21
ENDBRANCH  19  20
ENDBRANCH  18  19
ENDBRANCH   1  18
TORSDOF 28
ENDMDL
MODEL 5
REMARK VINA RESULT:    -3.323      9.703     12.474
REMARK INTER + INTRA:         -13.543
REMARK INTER:                  -8.248
REMARK INTRA:                  -5.295
REMARK UNBOUND:                -4.780
REMARK SMILES CCCCCCCCCCCCCCCCCCCCCCCCCCCCCC(=O)[O-]
REMARK SMILES IDX 16 1 17 2 18 3 19 4 20 5 21 6 22 7 23 8 24 9 25 10 26 11
REMARK SMILES IDX 27 12 28 13 29 14 30 15 31 16 32 17 15 18 14 19 13 20 12 21
REMARK SMILES IDX 11 22 10 23 9 24 8 25 7 26 6 27 5 28 4 29 3 30 2 31 1 32
REMARK H PARENT
REMARK Flexibility Score: inf
ROOT
ATOM      1  C   UNL     1      64.399  30.673  60.930  1.00  0.00     0.000 C 
ENDROOT
BRANCH   1   2
ATOM      2  C   UNL     1      65.000  30.999  59.552  1.00  0.00     0.000 C 
BRANCH   2   3
ATOM      3  C   UNL     1      64.605  30.031  58.420  1.00  0.00     0.000 C 
BRANCH   3   4
ATOM      4  C   UNL     1      63.733  30.676  57.321  1.00  0.00     0.000 C 
BRANCH   4   5
ATOM      5  C   UNL     1      62.492  29.829  56.988  1.00  0.00     0.000 C 
BRANCH   5   6
ATOM      6  C   UNL     1      62.515  28.455  57.691  1.00  0.00     0.000 C 
BRANCH   6   7
ATOM      7  C   UNL     1      61.183  27.686  57.595  1.00  0.00     0.000 C 
BRANCH   7   8
ATOM      8  C   UNL     1      60.604  27.228  58.945  1.00  0.00     0.000 C 
BRANCH   8   9
ATOM      9  C   UNL     1      59.180  27.757  59.193  1.00  0.00     0.000 C 
BRANCH   9  10
ATOM     10  C   UNL     1      58.837  27.833  60.689  1.00  0.00     0.000 C 
BRANCH  10  11
ATOM     11  C   UNL     1      58.775  26.443  61.346  1.00  0.00     0.000 C 
BRANCH  11  12
ATOM     12  C   UNL     1      57.543  25.636  60.906  1.00  0.00     0.000 C 
BRANCH  12  13
ATOM     13  C   UNL     1      57.415  24.295  61.644  1.00  0.00     0.006 C 
BRANCH  13  14
ATOM     14  C   UNL     1      55.963  24.037  62.058  1.00  0.00     0.053 C 
BRANCH  14  15
ATOM     15  C   UNL     1      55.888  23.633  63.496  1.00  0.00     0.041 C 
ATOM     16  O   UNL     1      55.436  24.434  64.356  1.00  0.00    -0.550 OA
ATOM     17  O   UNL     1      56.276  22.356  63.883  1.00  0.00    -0.550 OA
ENDBRANCH  14  15
ENDBRANCH  13  14
ENDBRANCH  12  13
ENDBRANCH  11  12
ENDBRANCH  10  11
ENDBRANCH   9  10
ENDBRANCH   8   9
ENDBRANCH   7   8
ENDBRANCH   6   7
ENDBRANCH   5   6
ENDBRANCH   4   5
ENDBRANCH   3   4
ENDBRANCH   2   3
ENDBRANCH   1   2
BRANCH   1  18
ATOM     18  C   UNL     1      63.736  29.285  60.980  1.00  0.00     0.000 C 
BRANCH  18  19
ATOM     19  C   UNL     1      62.234  29.363  61.297  1.00  0.00     0.000 C 
BRANCH  19  20
ATOM     20  C   UNL     1      61.694  30.803  61.266  1.00  0.00     0.000 C 
BRANCH  20  21
ATOM     21  C   UNL     1      60.863  31.098  60.005  1.00  0.00     0.000 C 
BRANCH  21  22
ATOM     22  C   UNL     1      61.170  32.444  59.322  1.00  0.00     0.000 C 
BRANCH  22  23
ATOM     23  C   UNL     1      62.204  33.304  60.078  1.00  0.00     0.000 C 
BRANCH  23  24
ATOM     24  C   UNL     1      61.870  34.802  60.023  1.00  0.00    -0.000 C 
BRANCH  24  25
ATOM     25  C   UNL     1      62.997  35.639  60.644  1.00  0.00    -0.000 C 
BRANCH  25  26
ATOM     26  C   UNL     1      64.174  34.749  61.073  1.00  0.00    -0.000 C 
BRANCH  26  27
ATOM     27  C   UNL     1      65.544  35.355  60.719  1.00  0.00    -0.000 C 
BRANCH  27  28
ATOM     28  C   UNL     1      65.567  36.204  59.436  1.00  0.00    -0.000 C 
BRANCH  28  29
ATOM     29  C   UNL     1      66.261  35.497  58.262  1.00  0.00    -0.000 C 
BRANCH  29  30
ATOM     30  C   UNL     1      65.358  34.406  57.669  1.00  0.00    -0.000 C 
BRANCH  30  31
ATOM     31  C   UNL     1      64.038  34.969  57.120  1.00  0.00    -0.003 C 
ATOM     32  C   UNL     1      63.392  34.052  56.081  1.00  0.00     0.004 C 
ENDBRANCH  30  31
ENDBRANCH  29  30
ENDBRANCH  28  29
ENDBRANCH  27  28
ENDBRANCH  26  27
ENDBRANCH  25  26
ENDBRANCH  24  25
ENDBRANCH  23  24
ENDBRANCH  22  23
ENDBRANCH  21  22
ENDBRANCH  20  21
ENDBRANCH  19  20
ENDBRANCH  18  19
ENDBRANCH   1  18
TORSDOF 28
ENDMDL
MODEL 6
REMARK VINA RESULT:    -3.305      9.175     12.010
REMARK INTER + INTRA:         -13.496
REMARK INTER:                  -7.640
REMARK INTRA:                  -5.856
REMARK UNBOUND:                -4.780
REMARK SMILES CCCCCCCCCCCCCCCCCCCCCCCCCCCCCC(=O)[O-]
REMARK SMILES IDX 16 1 17 2 18 3 19 4 20 5 21 6 22 7 23 8 24 9 25 10 26 11
REMARK SMILES IDX 27 12 28 13 29 14 30 15 31 16 32 17 15 18 14 19 13 20 12 21
REMARK SMILES IDX 11 22 10 23 9 24 8 25 7 26 6 27 5 28 4 29 3 30 2 31 1 32
REMARK H PARENT
REMARK Flexibility Score: inf
ROOT
ATOM      1  C   UNL     1      61.436  32.174  60.166  1.00  0.00     0.000 C 
ENDROOT
BRANCH   1   2
ATOM      2  C   UNL     1      61.033  30.945  60.998  1.00  0.00     0.000 C 
BRANCH   2   3
ATOM      3  C   UNL     1      62.207  30.136  61.583  1.00  0.00     0.000 C 
BRANCH   3   4
ATOM      4  C   UNL     1      62.383  28.740  60.948  1.00  0.00     0.000 C 
BRANCH   4   5
ATOM      5  C   UNL     1      63.595  28.677  60.002  1.00  0.00     0.000 C 
BRANCH   5   6
ATOM      6  C   UNL     1      63.340  29.420  58.673  1.00  0.00     0.000 C 
BRANCH   6   7
ATOM      7  C   UNL     1      62.859  28.504  57.531  1.00  0.00     0.000 C 
BRANCH   7   8
ATOM      8  C   UNL     1      62.223  29.240  56.339  1.00  0.00     0.000 C 
BRANCH   8   9
ATOM      9  C   UNL     1      61.559  30.568  56.744  1.00  0.00     0.000 C 
BRANCH   9  10
ATOM     10  C   UNL     1      60.039  30.554  56.520  1.00  0.00     0.000 C 
BRANCH  10  11
ATOM     11  C   UNL     1      59.253  30.572  57.843  1.00  0.00     0.000 C 
BRANCH  11  12
ATOM     12  C   UNL     1      58.569  29.228  58.142  1.00  0.00     0.000 C 
BRANCH  12  13
ATOM     13  C   UNL     1      59.479  28.253  58.904  1.00  0.00     0.006 C 
BRANCH  13  14
ATOM     14  C   UNL     1      58.875  27.895  60.265  1.00  0.00     0.053 C 
BRANCH  14  15
ATOM     15  C   UNL     1      59.325  26.538  60.702  1.00  0.00     0.041 C 
ATOM     16  O   UNL     1      60.299  25.979  60.131  1.00  0.00    -0.550 OA
ATOM     17  O   UNL     1      58.699  25.904  61.769  1.00  0.00    -0.550 OA
ENDBRANCH  14  15
ENDBRANCH  13  14
ENDBRANCH  12  13
ENDBRANCH  11  12
ENDBRANCH  10  11
ENDBRANCH   9  10
ENDBRANCH   8   9
ENDBRANCH   7   8
ENDBRANCH   6   7
ENDBRANCH   5   6
ENDBRANCH   4   5
ENDBRANCH   3   4
ENDBRANCH   2   3
ENDBRANCH   1   2
BRANCH   1  18
ATOM     18  C   UNL     1      62.891  32.611  60.412  1.00  0.00     0.000 C 
BRANCH  18  19
ATOM     19  C   UNL     1      63.579  33.110  59.131  1.00  0.00     0.000 C 
BRANCH  19  20
ATOM     20  C   UNL     1      64.556  34.269  59.395  1.00  0.00     0.000 C 
BRANCH  20  21
ATOM     21  C   UNL     1      64.731  34.569  60.894  1.00  0.00     0.000 C 
BRANCH  21  22
ATOM     22  C   UNL     1      64.352  35.999  61.321  1.00  0.00     0.000 C 
BRANCH  22  23
ATOM     23  C   UNL     1      63.545  36.773  60.258  1.00  0.00     0.000 C 
BRANCH  23  24
ATOM     24  C   UNL     1      62.090  37.011  60.688  1.00  0.00    -0.000 C 
BRANCH  24  25
ATOM     25  C   UNL     1      61.197  35.831  60.282  1.00  0.00    -0.000 C 
BRANCH  25  26
ATOM     26  C   UNL     1      60.438  36.134  58.982  1.00  0.00    -0.000 C 
BRANCH  26  27
ATOM     27  C   UNL     1      61.057  35.447  57.751  1.00  0.00    -0.000 C 
BRANCH  27  28
ATOM     28  C   UNL     1      60.362  34.144  57.316  1.00  0.00    -0.000 C 
BRANCH  28  29
ATOM     29  C   UNL     1      58.854  34.319  57.084  1.00  0.00    -0.000 C 
BRANCH  29  30
ATOM     30  C   UNL     1      58.560  34.636  55.610  1.00  0.00    -0.000 C 
BRANCH  30  31
ATOM     31  C   UNL     1      57.895  33.462  54.876  1.00  0.00    -0.003 C 
ATOM     32  C   UNL     1      56.977  32.642  55.783  1.00  0.00     0.004 C 
ENDBRANCH  30  31
ENDBRANCH  29  30
ENDBRANCH  28  29
ENDBRANCH  27  28
ENDBRANCH  26  27
ENDBRANCH  25  26
ENDBRANCH  24  25
ENDBRANCH  23  24
ENDBRANCH  22  23
ENDBRANCH  21  22
ENDBRANCH  20  21
ENDBRANCH  19  20
ENDBRANCH  18  19
ENDBRANCH   1  18
TORSDOF 28
ENDMDL
MODEL 7
REMARK VINA RESULT:    -3.303      2.255      5.720
REMARK INTER + INTRA:         -13.489
REMARK INTER:                  -8.587
REMARK INTRA:                  -4.902
REMARK UNBOUND:                -4.780
REMARK SMILES CCCCCCCCCCCCCCCCCCCCCCCCCCCCCC(=O)[O-]
REMARK SMILES IDX 16 1 17 2 18 3 19 4 20 5 21 6 22 7 23 8 24 9 25 10 26 11
REMARK SMILES IDX 27 12 28 13 29 14 30 15 31 16 32 17 15 18 14 19 13 20 12 21
REMARK SMILES IDX 11 22 10 23 9 24 8 25 7 26 6 27 5 28 4 29 3 30 2 31 1 32
REMARK H PARENT
REMARK Flexibility Score: inf
ROOT
ATOM      1  C   UNL     1      57.112  27.047  51.251  1.00  0.00     0.000 C 
ENDROOT
BRANCH   1   2
ATOM      2  C   UNL     1      58.054  28.261  51.323  1.00  0.00     0.000 C 
BRANCH   2   3
ATOM      3  C   UNL     1      57.875  29.297  50.196  1.00  0.00     0.000 C 
BRANCH   3   4
ATOM      4  C   UNL     1      59.151  29.540  49.363  1.00  0.00     0.000 C 
BRANCH   4   5
ATOM      5  C   UNL     1      60.386  28.851  49.971  1.00  0.00     0.000 C 
BRANCH   5   6
ATOM      6  C   UNL     1      60.960  27.756  49.046  1.00  0.00     0.000 C 
BRANCH   6   7
ATOM      7  C   UNL     1      61.057  26.369  49.711  1.00  0.00     0.000 C 
BRANCH   7   8
ATOM      8  C   UNL     1      61.335  26.397  51.224  1.00  0.00     0.000 C 
BRANCH   8   9
ATOM      9  C   UNL     1      60.497  25.368  52.003  1.00  0.00     0.000 C 
BRANCH   9  10
ATOM     10  C   UNL     1      59.889  24.295  51.086  1.00  0.00     0.000 C 
BRANCH  10  11
ATOM     11  C   UNL     1      60.724  23.003  51.064  1.00  0.00     0.000 C 
BRANCH  11  12
ATOM     12  C   UNL     1      61.405  22.763  49.707  1.00  0.00     0.000 C 
BRANCH  12  13
ATOM     13  C   UNL     1      61.079  21.384  49.113  1.00  0.00     0.006 C 
BRANCH  13  14
ATOM     14  C   UNL     1      61.654  20.265  49.987  1.00  0.00     0.053 C 
BRANCH  14  15
ATOM     15  C   UNL     1      60.656  19.164  50.157  1.00  0.00     0.041 C 
ATOM     16  O   UNL     1      59.430  19.387  49.979  1.00  0.00    -0.550 OA
ATOM     17  O   UNL     1      61.082  17.878  50.469  1.00  0.00    -0.550 OA
ENDBRANCH  14  15
ENDBRANCH  13  14
ENDBRANCH  12  13
ENDBRANCH  11  12
ENDBRANCH  10  11
ENDBRANCH   9  10
ENDBRANCH   8   9
ENDBRANCH   7   8
ENDBRANCH   6   7
ENDBRANCH   5   6
ENDBRANCH   4   5
ENDBRANCH   3   4
ENDBRANCH   2   3
ENDBRANCH   1   2
BRANCH   1  18
ATOM     18  C   UNL     1      57.160  26.334  49.888  1.00  0.00     0.000 C 
BRANCH  18  19
ATOM     19  C   UNL     1      55.758  26.039  49.330  1.00  0.00     0.000 C 
BRANCH  19  20
ATOM     20  C   UNL     1      54.639  26.699  50.154  1.00  0.00     0.000 C 
BRANCH  20  21
ATOM     21  C   UNL     1      53.636  27.472  49.281  1.00  0.00     0.000 C 
BRANCH  21  22
ATOM     22  C   UNL     1      53.172  28.821  49.860  1.00  0.00     0.000 C 
BRANCH  22  23
ATOM     23  C   UNL     1      54.330  29.772  50.228  1.00  0.00     0.000 C 
BRANCH  23  24
ATOM     24  C   UNL     1      54.563  29.849  51.745  1.00  0.00    -0.000 C 
BRANCH  24  25
ATOM     25  C   UNL     1      54.145  31.219  52.295  1.00  0.00    -0.000 C 
BRANCH  25  26
ATOM     26  C   UNL     1      55.369  32.028  52.751  1.00  0.00    -0.000 C 
BRANCH  26  27
ATOM     27  C   UNL     1      56.515  31.141  53.270  1.00  0.00    -0.000 C 
BRANCH  27  28
ATOM     28  C   UNL     1      56.708  31.157  54.797  1.00  0.00    -0.000 C 
BRANCH  28  29
ATOM     29  C   UNL     1      55.810  30.145  55.525  1.00  0.00    -0.000 C 
BRANCH  29  30
ATOM     30  C   UNL     1      55.964  28.742  54.920  1.00  0.00    -0.000 C 
BRANCH  30  31
ATOM     31  C   UNL     1      54.646  27.953  54.917  1.00  0.00    -0.003 C 
ATOM     32  C   UNL     1      54.679  26.750  53.974  1.00  0.00     0.004 C 
ENDBRANCH  30  31
ENDBRANCH  29  30
ENDBRANCH  28  29
ENDBRANCH  27  28
ENDBRANCH  26  27
ENDBRANCH  25  26
ENDBRANCH  24  25
ENDBRANCH  23  24
ENDBRANCH  22  23
ENDBRANCH  21  22
ENDBRANCH  20  21
ENDBRANCH  19  20
ENDBRANCH  18  19
ENDBRANCH   1  18
TORSDOF 28
ENDMDL
MODEL 8
REMARK VINA RESULT:    -3.301     12.113     15.764
REMARK INTER + INTRA:         -13.485
REMARK INTER:                  -9.049
REMARK INTRA:                  -4.437
REMARK UNBOUND:                -4.780
REMARK SMILES CCCCCCCCCCCCCCCCCCCCCCCCCCCCCC(=O)[O-]
REMARK SMILES IDX 16 1 17 2 18 3 19 4 20 5 21 6 22 7 23 8 24 9 25 10 26 11
REMARK SMILES IDX 27 12 28 13 29 14 30 15 31 16 32 17 15 18 14 19 13 20 12 21
REMARK SMILES IDX 11 22 10 23 9 24 8 25 7 26 6 27 5 28 4 29 3 30 2 31 1 32
REMARK H PARENT
REMARK Flexibility Score: inf
ROOT
ATOM      1  C   UNL     1      64.478  35.258  61.282  1.00  0.00     0.000 C 
ENDROOT
BRANCH   1   2
ATOM      2  C   UNL     1      65.718  35.792  60.545  1.00  0.00     0.000 C 
BRANCH   2   3
ATOM      3  C   UNL     1      65.462  36.999  59.622  1.00  0.00     0.000 C 
BRANCH   3   4
ATOM      4  C   UNL     1      65.702  36.703  58.126  1.00  0.00     0.000 C 
BRANCH   4   5
ATOM      5  C   UNL     1      65.841  35.196  57.843  1.00  0.00     0.000 C 
BRANCH   5   6
ATOM      6  C   UNL     1      67.219  34.836  57.250  1.00  0.00     0.000 C 
BRANCH   6   7
ATOM      7  C   UNL     1      68.385  35.650  57.845  1.00  0.00     0.000 C 
BRANCH   7   8
ATOM      8  C   UNL     1      69.505  35.994  56.849  1.00  0.00     0.000 C 
BRANCH   8   9
ATOM      9  C   UNL     1      70.879  35.455  57.288  1.00  0.00     0.000 C 
BRANCH   9  10
ATOM     10  C   UNL     1      71.214  34.107  56.631  1.00  0.00     0.000 C 
BRANCH  10  11
ATOM     11  C   UNL     1      71.748  33.079  57.645  1.00  0.00     0.000 C 
BRANCH  11  12
ATOM     12  C   UNL     1      71.232  33.333  59.071  1.00  0.00     0.000 C 
BRANCH  12  13
ATOM     13  C   UNL     1      72.011  32.545  60.135  1.00  0.00     0.006 C 
BRANCH  13  14
ATOM     14  C   UNL     1      72.472  31.193  59.581  1.00  0.00     0.053 C 
BRANCH  14  15
ATOM     15  C   UNL     1      71.560  30.098  60.036  1.00  0.00     0.041 C 
ATOM     16  O   UNL     1      71.015  30.158  61.169  1.00  0.00    -0.550 OA
ATOM     17  O   UNL     1      71.276  29.031  59.192  1.00  0.00    -0.550 OA
ENDBRANCH  14  15
ENDBRANCH  13  14
ENDBRANCH  12  13
ENDBRANCH  11  12
ENDBRANCH  10  11
ENDBRANCH   9  10
ENDBRANCH   8   9
ENDBRANCH   7   8
ENDBRANCH   6   7
ENDBRANCH   5   6
ENDBRANCH   4   5
ENDBRANCH   3   4
ENDBRANCH   2   3
ENDBRANCH   1   2
BRANCH   1  18
ATOM     18  C   UNL     1      63.177  35.954  60.845  1.00  0.00     0.000 C 
BRANCH  18  19
ATOM     19  C   UNL     1      62.245  35.017  60.059  1.00  0.00     0.000 C 
BRANCH  19  20
ATOM     20  C   UNL     1      62.626  33.534  60.212  1.00  0.00     0.000 C 
BRANCH  20  21
ATOM     21  C   UNL     1      61.530  32.584  59.699  1.00  0.00     0.000 C 
BRANCH  21  22
ATOM     22  C   UNL     1      61.107  31.482  60.687  1.00  0.00     0.000 C 
BRANCH  22  23
ATOM     23  C   UNL     1      60.853  30.113  60.022  1.00  0.00     0.000 C 
BRANCH  23  24
ATOM     24  C   UNL     1      62.112  29.233  59.996  1.00  0.00    -0.000 C 
BRANCH  24  25
ATOM     25  C   UNL     1      62.957  29.449  61.259  1.00  0.00    -0.000 C 
BRANCH  25  26
ATOM     26  C   UNL     1      64.397  29.843  60.901  1.00  0.00    -0.000 C 
BRANCH  26  27
ATOM     27  C   UNL     1      64.628  29.956  59.383  1.00  0.00    -0.000 C 
BRANCH  27  28
ATOM     28  C   UNL     1      65.177  31.314  58.908  1.00  0.00    -0.000 C 
BRANCH  28  29
ATOM     29  C   UNL     1      64.622  31.740  57.541  1.00  0.00    -0.000 C 
BRANCH  29  30
ATOM     30  C   UNL     1      63.843  30.591  56.884  1.00  0.00    -0.000 C 
BRANCH  30  31
ATOM     31  C   UNL     1      62.366  30.940  56.647  1.00  0.00    -0.003 C 
ATOM     32  C   UNL     1      61.592  29.807  55.973  1.00  0.00     0.004 C 
ENDBRANCH  30  31
ENDBRANCH  29  30
ENDBRANCH  28  29
ENDBRANCH  27  28
ENDBRANCH  26  27
ENDBRANCH  25  26
ENDBRANCH  24  25
ENDBRANCH  23  24
ENDBRANCH  22  23
ENDBRANCH  21  22
ENDBRANCH  20  21
ENDBRANCH  19  20
ENDBRANCH  18  19
ENDBRANCH   1  18
TORSDOF 28
ENDMDL
MODEL 9
REMARK VINA RESULT:    -3.177     11.593     15.983
REMARK INTER + INTRA:         -13.157
REMARK INTER:                  -8.093
REMARK INTRA:                  -5.064
REMARK UNBOUND:                -4.780
REMARK SMILES CCCCCCCCCCCCCCCCCCCCCCCCCCCCCC(=O)[O-]
REMARK SMILES IDX 16 1 17 2 18 3 19 4 20 5 21 6 22 7 23 8 24 9 25 10 26 11
REMARK SMILES IDX 27 12 28 13 29 14 30 15 31 16 32 17 15 18 14 19 13 20 12 21
REMARK SMILES IDX 11 22 10 23 9 24 8 25 7 26 6 27 5 28 4 29 3 30 2 31 1 32
REMARK H PARENT
REMARK Flexibility Score: inf
ROOT
ATOM      1  C   UNL     1      63.193  32.777  59.154  1.00  0.00     0.000 C 
ENDROOT
BRANCH   1   2
ATOM      2  C   UNL     1      64.552  33.245  59.701  1.00  0.00     0.000 C 
BRANCH   2   3
ATOM      3  C   UNL     1      64.487  34.057  61.009  1.00  0.00     0.000 C 
BRANCH   3   4
ATOM      4  C   UNL     1      65.363  35.328  61.000  1.00  0.00     0.000 C 
BRANCH   4   5
ATOM      5  C   UNL     1      64.532  36.608  60.806  1.00  0.00     0.000 C 
BRANCH   5   6
ATOM      6  C   UNL     1      63.022  36.364  61.014  1.00  0.00     0.000 C 
BRANCH   6   7
ATOM      7  C   UNL     1      62.129  37.064  59.970  1.00  0.00     0.000 C 
BRANCH   7   8
ATOM      8  C   UNL     1      61.921  36.274  58.666  1.00  0.00     0.000 C 
BRANCH   8   9
ATOM      9  C   UNL     1      62.804  36.785  57.513  1.00  0.00     0.000 C 
BRANCH   9  10
ATOM     10  C   UNL     1      63.909  35.786  57.136  1.00  0.00     0.000 C 
BRANCH  10  11
ATOM     11  C   UNL     1      65.303  36.438  57.112  1.00  0.00     0.000 C 
BRANCH  11  12
ATOM     12  C   UNL     1      66.428  35.436  57.416  1.00  0.00     0.000 C 
BRANCH  12  13
ATOM     13  C   UNL     1      67.586  36.064  58.207  1.00  0.00     0.006 C 
BRANCH  13  14
ATOM     14  C   UNL     1      68.599  36.718  57.262  1.00  0.00     0.053 C 
BRANCH  14  15
ATOM     15  C   UNL     1      69.889  35.960  57.265  1.00  0.00     0.041 C 
ATOM     16  O   UNL     1      69.899  34.729  57.529  1.00  0.00    -0.550 OA
ATOM     17  O   UNL     1      71.076  36.601  56.933  1.00  0.00    -0.550 OA
ENDBRANCH  14  15
ENDBRANCH  13  14
ENDBRANCH  12  13
ENDBRANCH  11  12
ENDBRANCH  10  11
ENDBRANCH   9  10
ENDBRANCH   8   9
ENDBRANCH   7   8
ENDBRANCH   6   7
ENDBRANCH   5   6
ENDBRANCH   4   5
ENDBRANCH   3   4
ENDBRANCH   2   3
ENDBRANCH   1   2
BRANCH   1  18
ATOM     18  C   UNL     1      62.065  32.869  60.196  1.00  0.00     0.000 C 
BRANCH  18  19
ATOM     19  C   UNL     1      61.089  31.685  60.113  1.00  0.00     0.000 C 
BRANCH  19  20
ATOM     20  C   UNL     1      61.144  30.781  61.357  1.00  0.00     0.000 C 
BRANCH  20  21
ATOM     21  C   UNL     1      62.434  29.945  61.426  1.00  0.00     0.000 C 
BRANCH  21  22
ATOM     22  C   UNL     1      62.236  28.426  61.266  1.00  0.00     0.000 C 
BRANCH  22  23
ATOM     23  C   UNL     1      61.564  28.023  59.937  1.00  0.00     0.000 C 
BRANCH  23  24
ATOM     24  C   UNL     1      62.481  27.161  59.056  1.00  0.00    -0.000 C 
BRANCH  24  25
ATOM     25  C   UNL     1      62.796  25.823  59.738  1.00  0.00    -0.000 C 
BRANCH  25  26
ATOM     26  C   UNL     1      64.305  25.664  59.973  1.00  0.00    -0.000 C 
BRANCH  26  27
ATOM     27  C   UNL     1      65.145  25.986  58.723  1.00  0.00    -0.000 C 
BRANCH  27  28
ATOM     28  C   UNL     1      66.617  26.338  59.002  1.00  0.00    -0.000 C 
BRANCH  28  29
ATOM     29  C   UNL     1      66.951  27.804  58.692  1.00  0.00    -0.000 C 
BRANCH  29  30
ATOM     30  C   UNL     1      65.794  28.483  57.944  1.00  0.00    -0.000 C 
BRANCH  30  31
ATOM     31  C   UNL     1      65.192  29.656  58.732  1.00  0.00    -0.003 C 
ATOM     32  C   UNL     1      65.721  29.740  60.163  1.00  0.00     0.004 C 
ENDBRANCH  30  31
ENDBRANCH  29  30
ENDBRANCH  28  29
ENDBRANCH  27  28
ENDBRANCH  26  27
ENDBRANCH  25  26
ENDBRANCH  24  25
ENDBRANCH  23  24
ENDBRANCH  22  23
ENDBRANCH  21  22
ENDBRANCH  20  21
ENDBRANCH  19  20
ENDBRANCH  18  19
ENDBRANCH   1  18
TORSDOF 28
ENDMDL
