MODEL 1
REMARK VINA RESULT:    -6.075      0.000      0.000
REMARK INTER + INTRA:          -7.271
REMARK INTER:                  -7.140
REMARK INTRA:                  -0.132
REMARK UNBOUND:                -0.132
REMARK SMILES O=C([O-])C=Cc1ccc(O)c(O)c1
REMARK SMILES IDX 6 1 13 2 7 3 11 4 8 5 9 6 5 7 4 8 2 9 1 10 3 11 12 12 10 14
REMARK H PARENT 12 13 10 15
REMARK Flexibility Score: inf
ROOT
ATOM      1  C   UNL     1       2.789  -8.904   5.663  1.00  0.00    -0.022 A 
ATOM      2  C   UNL     1       3.529  -8.924   4.468  1.00  0.00     0.058 A 
ATOM      3  C   UNL     1       1.783  -9.872   5.855  1.00  0.00     0.012 A 
ATOM      4  C   UNL     1       3.259  -9.869   3.473  1.00  0.00     0.157 A 
ATOM      5  C   UNL     1       1.513 -10.817   4.861  1.00  0.00     0.051 A 
ATOM      6  C   UNL     1       2.244 -10.819   3.668  1.00  0.00     0.157 A 
ENDROOT
BRANCH   1   7
ATOM      7  C   UNL     1       3.125  -7.887   6.689  1.00  0.00     0.010 C 
ATOM      8  C   UNL     1       2.209  -7.191   7.376  1.00  0.00     0.025 C 
BRANCH   8   9
ATOM      9  C   UNL     1       2.588  -6.182   8.378  1.00  0.00     0.064 C 
ATOM     10  O   UNL     1       3.345  -6.506   9.330  1.00  0.00    -0.545 OA
ATOM     11  O   UNL     1       2.122  -4.875   8.292  1.00  0.00    -0.545 OA
ENDBRANCH   8   9
ENDBRANCH   1   7
BRANCH   4  12
ATOM     12  O   UNL     1       4.009  -9.847   2.297  1.00  0.00    -0.504 OA
ATOM     13  H   UNL     1       5.004 -10.039   2.290  1.00  0.00     0.293 HD
ENDBRANCH   4  12
BRANCH   6  14
ATOM     14  O   UNL     1       1.968 -11.762   2.679  1.00  0.00    -0.504 OA
ATOM     15  H   UNL     1       1.027 -12.102   2.516  1.00  0.00     0.293 HD
ENDBRANCH   6  14
TORSDOF 4
ENDMDL
MODEL 2
REMARK VINA RESULT:    -5.995      2.664      7.088
REMARK INTER + INTRA:          -7.178
REMARK INTER:                  -7.053
REMARK INTRA:                  -0.125
REMARK UNBOUND:                -0.132
REMARK SMILES O=C([O-])C=Cc1ccc(O)c(O)c1
REMARK SMILES IDX 6 1 13 2 7 3 11 4 8 5 9 6 5 7 4 8 2 9 1 10 3 11 12 12 10 14
REMARK H PARENT 12 13 10 15
REMARK Flexibility Score: inf
ROOT
ATOM      1  C   UNL     1       2.157  -5.819   8.842  1.00  0.00    -0.022 A 
ATOM      2  C   UNL     1       2.228  -4.559   8.225  1.00  0.00     0.058 A 
ATOM      3  C   UNL     1       2.316  -5.901  10.240  1.00  0.00     0.012 A 
ATOM      4  C   UNL     1       2.477  -3.405   8.976  1.00  0.00     0.157 A 
ATOM      5  C   UNL     1       2.564  -4.749  10.992  1.00  0.00     0.051 A 
ATOM      6  C   UNL     1       2.649  -3.500  10.366  1.00  0.00     0.157 A 
ENDROOT
BRANCH   1   7
ATOM      7  C   UNL     1       1.881  -7.008   8.000  1.00  0.00     0.010 C 
ATOM      8  C   UNL     1       2.805  -7.619   7.247  1.00  0.00     0.025 C 
BRANCH   8   9
ATOM      9  C   UNL     1       2.483  -8.791   6.416  1.00  0.00     0.064 C 
ATOM     10  O   UNL     1       2.471  -9.937   6.938  1.00  0.00    -0.545 OA
ATOM     11  O   UNL     1       2.191  -8.654   5.064  1.00  0.00    -0.545 OA
ENDBRANCH   8   9
ENDBRANCH   1   7
BRANCH   4  12
ATOM     12  O   UNL     1       2.551  -2.175   8.322  1.00  0.00    -0.504 OA
ATOM     13  H   UNL     1       3.436  -1.760   8.054  1.00  0.00     0.293 HD
ENDBRANCH   4  12
BRANCH   6  14
ATOM     14  O   UNL     1       2.899  -2.354  11.120  1.00  0.00    -0.504 OA
ATOM     15  H   UNL     1       3.808  -1.904  11.117  1.00  0.00     0.293 HD
ENDBRANCH   6  14
TORSDOF 4
ENDMDL
MODEL 3
REMARK VINA RESULT:    -5.982      1.435      2.365
REMARK INTER + INTRA:          -7.162
REMARK INTER:                  -7.036
REMARK INTRA:                  -0.126
REMARK UNBOUND:                -0.132
REMARK SMILES O=C([O-])C=Cc1ccc(O)c(O)c1
REMARK SMILES IDX 6 1 13 2 7 3 11 4 8 5 9 6 5 7 4 8 2 9 1 10 3 11 12 12 10 14
REMARK H PARENT 12 13 10 15
REMARK Flexibility Score: inf
ROOT
ATOM      1  C   UNL     1       2.601  -8.656   6.303  1.00  0.00    -0.022 A 
ATOM      2  C   UNL     1       2.137  -9.841   6.900  1.00  0.00     0.058 A 
ATOM      3  C   UNL     1       2.766  -8.620   4.904  1.00  0.00     0.012 A 
ATOM      4  C   UNL     1       1.866 -10.975   6.126  1.00  0.00     0.157 A 
ATOM      5  C   UNL     1       2.495  -9.752   4.130  1.00  0.00     0.051 A 
ATOM      6  C   UNL     1       2.048 -10.932   4.735  1.00  0.00     0.157 A 
ENDROOT
BRANCH   1   7
ATOM      7  C   UNL     1       2.863  -7.480   7.168  1.00  0.00     0.010 C 
ATOM      8  C   UNL     1       1.917  -6.855   7.882  1.00  0.00     0.025 C 
BRANCH   8   9
ATOM      9  C   UNL     1       2.221  -5.684   8.721  1.00  0.00     0.064 C 
ATOM     10  O   UNL     1       2.049  -4.527   8.256  1.00  0.00    -0.545 OA
ATOM     11  O   UNL     1       2.694  -5.835  10.019  1.00  0.00    -0.545 OA
ENDBRANCH   8   9
ENDBRANCH   1   7
BRANCH   4  12
ATOM     12  O   UNL     1       1.418 -12.135   6.759  1.00  0.00    -0.504 OA
ATOM     13  H   UNL     1       1.663 -13.059   6.425  1.00  0.00     0.293 HD
ENDBRANCH   4  12
BRANCH   6  14
ATOM     14  O   UNL     1       1.782 -12.060   3.959  1.00  0.00    -0.504 OA
ATOM     15  H   UNL     1       1.979 -12.079   2.965  1.00  0.00     0.293 HD
ENDBRANCH   6  14
TORSDOF 4
ENDMDL
MODEL 4
REMARK VINA RESULT:    -5.615      6.294     10.350
REMARK INTER + INTRA:          -6.732
REMARK INTER:                  -6.595
REMARK INTRA:                  -0.137
REMARK UNBOUND:                -0.132
REMARK SMILES O=C([O-])C=Cc1ccc(O)c(O)c1
REMARK SMILES IDX 6 1 13 2 7 3 11 4 8 5 9 6 5 7 4 8 2 9 1 10 3 11 12 12 10 14
REMARK H PARENT 12 13 10 15
REMARK Flexibility Score: inf
ROOT
ATOM      1  C   UNL     1       1.717  -0.524   9.112  1.00  0.00    -0.022 A 
ATOM      2  C   UNL     1       2.325   0.516   8.388  1.00  0.00     0.058 A 
ATOM      3  C   UNL     1       0.680  -0.209  10.012  1.00  0.00     0.012 A 
ATOM      4  C   UNL     1       1.930   1.846   8.574  1.00  0.00     0.157 A 
ATOM      5  C   UNL     1       0.284   1.119  10.198  1.00  0.00     0.051 A 
ATOM      6  C   UNL     1       0.906   2.150   9.485  1.00  0.00     0.157 A 
ENDROOT
BRANCH   1   7
ATOM      7  C   UNL     1       2.168  -1.916   8.869  1.00  0.00     0.010 C 
ATOM      8  C   UNL     1       1.912  -2.937   9.696  1.00  0.00     0.025 C 
BRANCH   8   9
ATOM      9  C   UNL     1       2.389  -4.302   9.420  1.00  0.00     0.064 C 
ATOM     10  O   UNL     1       3.009  -4.936  10.314  1.00  0.00    -0.545 OA
ATOM     11  O   UNL     1       2.165  -4.904   8.187  1.00  0.00    -0.545 OA
ENDBRANCH   8   9
ENDBRANCH   1   7
BRANCH   4  12
ATOM     12  O   UNL     1       2.567   2.849   7.844  1.00  0.00    -0.504 OA
ATOM     13  H   UNL     1       2.098   3.356   7.102  1.00  0.00     0.293 HD
ENDBRANCH   4  12
BRANCH   6  14
ATOM     14  O   UNL     1       0.509   3.473   9.676  1.00  0.00    -0.504 OA
ATOM     15  H   UNL     1       0.054   3.773  10.530  1.00  0.00     0.293 HD
ENDBRANCH   6  14
TORSDOF 4
ENDMDL
MODEL 5
REMARK VINA RESULT:    -5.602      1.956      6.412
REMARK INTER + INTRA:          -6.716
REMARK INTER:                  -6.588
REMARK INTRA:                  -0.128
REMARK UNBOUND:                -0.132
REMARK SMILES O=C([O-])C=Cc1ccc(O)c(O)c1
REMARK SMILES IDX 6 1 13 2 7 3 11 4 8 5 9 6 5 7 4 8 2 9 1 10 3 11 12 12 10 14
REMARK H PARENT 12 13 10 15
REMARK Flexibility Score: inf
ROOT
ATOM      1  C   UNL     1       2.511  -7.401   7.497  1.00  0.00    -0.022 A 
ATOM      2  C   UNL     1       1.365  -7.077   8.244  1.00  0.00     0.058 A 
ATOM      3  C   UNL     1       3.740  -6.809   7.849  1.00  0.00     0.012 A 
ATOM      4  C   UNL     1       1.432  -6.163   9.302  1.00  0.00     0.157 A 
ATOM      5  C   UNL     1       3.809  -5.897   8.906  1.00  0.00     0.051 A 
ATOM      6  C   UNL     1       2.660  -5.568   9.634  1.00  0.00     0.157 A 
ENDROOT
BRANCH   1   7
ATOM      7  C   UNL     1       2.384  -8.382   6.393  1.00  0.00     0.010 C 
ATOM      8  C   UNL     1       1.772  -9.568   6.516  1.00  0.00     0.025 C 
BRANCH   8   9
ATOM      9  C   UNL     1       1.679 -10.517   5.394  1.00  0.00     0.064 C 
ATOM     10  O   UNL     1       2.138 -11.681   5.527  1.00  0.00    -0.545 OA
ATOM     11  O   UNL     1       1.093 -10.148   4.189  1.00  0.00    -0.545 OA
ENDBRANCH   8   9
ENDBRANCH   1   7
BRANCH   4  12
ATOM     12  O   UNL     1       0.269  -5.861  10.010  1.00  0.00    -0.504 OA
ATOM     13  H   UNL     1       0.140  -4.971  10.478  1.00  0.00     0.293 HD
ENDBRANCH   4  12
BRANCH   6  14
ATOM     14  O   UNL     1       2.733  -4.656  10.686  1.00  0.00    -0.504 OA
ATOM     15  H   UNL     1       2.193  -3.798  10.683  1.00  0.00     0.293 HD
ENDBRANCH   6  14
TORSDOF 4
ENDMDL
MODEL 6
REMARK VINA RESULT:    -5.424      2.803      3.739
REMARK INTER + INTRA:          -6.507
REMARK INTER:                  -6.374
REMARK INTRA:                  -0.133
REMARK UNBOUND:                -0.132
REMARK SMILES O=C([O-])C=Cc1ccc(O)c(O)c1
REMARK SMILES IDX 6 1 13 2 7 3 11 4 8 5 9 6 5 7 4 8 2 9 1 10 3 11 12 12 10 14
REMARK H PARENT 12 13 10 15
REMARK Flexibility Score: inf
ROOT
ATOM      1  C   UNL     1       2.726  -6.358   8.286  1.00  0.00    -0.022 A 
ATOM      2  C   UNL     1       3.872  -6.814   7.612  1.00  0.00     0.058 A 
ATOM      3  C   UNL     1       1.528  -7.089   8.160  1.00  0.00     0.012 A 
ATOM      4  C   UNL     1       3.824  -7.958   6.808  1.00  0.00     0.157 A 
ATOM      5  C   UNL     1       1.479  -8.232   7.357  1.00  0.00     0.051 A 
ATOM      6  C   UNL     1       2.620  -8.670   6.677  1.00  0.00     0.157 A 
ENDROOT
BRANCH   1   7
ATOM      7  C   UNL     1       2.837  -5.146   9.133  1.00  0.00     0.010 C 
ATOM      8  C   UNL     1       2.119  -4.032   8.937  1.00  0.00     0.025 C 
BRANCH   8   9
ATOM      9  C   UNL     1       2.269  -2.847   9.797  1.00  0.00     0.064 C 
ATOM     10  O   UNL     1       2.794  -2.968  10.935  1.00  0.00    -0.545 OA
ATOM     11  O   UNL     1       1.840  -1.594   9.374  1.00  0.00    -0.545 OA
ENDBRANCH   8   9
ENDBRANCH   1   7
BRANCH   4  12
ATOM     12  O   UNL     1       4.981  -8.370   6.147  1.00  0.00    -0.504 OA
ATOM     13  H   UNL     1       5.095  -8.265   5.145  1.00  0.00     0.293 HD
ENDBRANCH   4  12
BRANCH   6  14
ATOM     14  O   UNL     1       2.565  -9.810   5.875  1.00  0.00    -0.504 OA
ATOM     15  H   UNL     1       3.381 -10.149   5.377  1.00  0.00     0.293 HD
ENDBRANCH   6  14
TORSDOF 4
ENDMDL
MODEL 7
REMARK VINA RESULT:    -5.109      1.381      2.335
REMARK INTER + INTRA:          -6.136
REMARK INTER:                  -6.007
REMARK INTRA:                  -0.130
REMARK UNBOUND:                -0.132
REMARK SMILES O=C([O-])C=Cc1ccc(O)c(O)c1
REMARK SMILES IDX 6 1 13 2 7 3 11 4 8 5 9 6 5 7 4 8 2 9 1 10 3 11 12 12 10 14
REMARK H PARENT 12 13 10 15
REMARK Flexibility Score: inf
ROOT
ATOM      1  C   UNL     1       3.158  -8.061   6.732  1.00  0.00    -0.022 A 
ATOM      2  C   UNL     1       2.077  -8.827   6.262  1.00  0.00     0.058 A 
ATOM      3  C   UNL     1       4.319  -7.965   5.939  1.00  0.00     0.012 A 
ATOM      4  C   UNL     1       2.156  -9.505   5.041  1.00  0.00     0.157 A 
ATOM      5  C   UNL     1       4.398  -8.641   4.718  1.00  0.00     0.051 A 
ATOM      6  C   UNL     1       3.323  -9.414   4.265  1.00  0.00     0.157 A 
ENDROOT
BRANCH   1   7
ATOM      7  C   UNL     1       3.017  -7.355   8.029  1.00  0.00     0.010 C 
ATOM      8  C   UNL     1       2.012  -6.517   8.315  1.00  0.00     0.025 C 
BRANCH   8   9
ATOM      9  C   UNL     1       1.917  -5.828   9.613  1.00  0.00     0.064 C 
ATOM     10  O   UNL     1       2.968  -5.444  10.190  1.00  0.00    -0.545 OA
ATOM     11  O   UNL     1       0.685  -5.595  10.213  1.00  0.00    -0.545 OA
ENDBRANCH   8   9
ENDBRANCH   1   7
BRANCH   4  12
ATOM     12  O   UNL     1       1.065 -10.263   4.616  1.00  0.00    -0.504 OA
ATOM     13  H   UNL     1       0.854 -10.399   3.634  1.00  0.00     0.293 HD
ENDBRANCH   4  12
BRANCH   6  14
ATOM     14  O   UNL     1       3.409 -10.090   3.048  1.00  0.00    -0.504 OA
ATOM     15  H   UNL     1       2.756 -10.825   2.802  1.00  0.00     0.293 HD
ENDBRANCH   6  14
TORSDOF 4
ENDMDL
MODEL 8
REMARK VINA RESULT:    -5.095      6.385     10.594
REMARK INTER + INTRA:          -6.120
REMARK INTER:                  -5.988
REMARK INTRA:                  -0.132
REMARK UNBOUND:                -0.132
REMARK SMILES O=C([O-])C=Cc1ccc(O)c(O)c1
REMARK SMILES IDX 6 1 13 2 7 3 11 4 8 5 9 6 5 7 4 8 2 9 1 10 3 11 12 12 10 14
REMARK H PARENT 12 13 10 15
REMARK Flexibility Score: inf
ROOT
ATOM      1  C   UNL     1       1.867  -0.415   8.863  1.00  0.00    -0.022 A 
ATOM      2  C   UNL     1       0.772  -0.053   9.667  1.00  0.00     0.058 A 
ATOM      3  C   UNL     1       2.666   0.602   8.306  1.00  0.00     0.012 A 
ATOM      4  C   UNL     1       0.462   1.292   9.892  1.00  0.00     0.157 A 
ATOM      5  C   UNL     1       2.358   1.947   8.530  1.00  0.00     0.051 A 
ATOM      6  C   UNL     1       1.257   2.298   9.319  1.00  0.00     0.157 A 
ENDROOT
BRANCH   1   7
ATOM      7  C   UNL     1       2.156  -1.857   8.665  1.00  0.00     0.010 C 
ATOM      8  C   UNL     1       2.078  -2.773   9.640  1.00  0.00     0.025 C 
BRANCH   8   9
ATOM      9  C   UNL     1       2.385  -4.192   9.401  1.00  0.00     0.064 C 
ATOM     10  O   UNL     1       2.183  -4.688   8.262  1.00  0.00    -0.545 OA
ATOM     11  O   UNL     1       2.896  -4.996  10.414  1.00  0.00    -0.545 OA
ENDBRANCH   8   9
ENDBRANCH   1   7
BRANCH   4  12
ATOM     12  O   UNL     1      -0.640   1.609  10.687  1.00  0.00    -0.504 OA
ATOM     13  H   UNL     1      -1.590   1.430  10.385  1.00  0.00     0.293 HD
ENDBRANCH   4  12
BRANCH   6  14
ATOM     14  O   UNL     1       0.951   3.641   9.538  1.00  0.00    -0.504 OA
ATOM     15  H   UNL     1       1.013   4.056  10.461  1.00  0.00     0.293 HD
ENDBRANCH   6  14
TORSDOF 4
ENDMDL
MODEL 9
REMARK VINA RESULT:    -5.076      2.663      6.660
REMARK INTER + INTRA:          -6.098
REMARK INTER:                  -5.964
REMARK INTRA:                  -0.134
REMARK UNBOUND:                -0.132
REMARK SMILES O=C([O-])C=Cc1ccc(O)c(O)c1
REMARK SMILES IDX 6 1 13 2 7 3 11 4 8 5 9 6 5 7 4 8 2 9 1 10 3 11 12 12 10 14
REMARK H PARENT 12 13 10 15
REMARK Flexibility Score: inf
ROOT
ATOM      1  C   UNL     1       1.966  -6.468   8.549  1.00  0.00    -0.022 A 
ATOM      2  C   UNL     1       0.594  -6.764   8.484  1.00  0.00     0.058 A 
ATOM      3  C   UNL     1       2.429  -5.612   9.567  1.00  0.00     0.012 A 
ATOM      4  C   UNL     1      -0.305  -6.200   9.396  1.00  0.00     0.157 A 
ATOM      5  C   UNL     1       1.533  -5.048  10.479  1.00  0.00     0.051 A 
ATOM      6  C   UNL     1       0.165  -5.335  10.398  1.00  0.00     0.157 A 
ENDROOT
BRANCH   1   7
ATOM      7  C   UNL     1       2.876  -7.101   7.563  1.00  0.00     0.010 C 
ATOM      8  C   UNL     1       2.476  -7.988   6.642  1.00  0.00     0.025 C 
BRANCH   8   9
ATOM      9  C   UNL     1       3.416  -8.600   5.690  1.00  0.00     0.064 C 
ATOM     10  O   UNL     1       2.972  -9.288   4.733  1.00  0.00    -0.545 OA
ATOM     11  O   UNL     1       4.789  -8.432   5.829  1.00  0.00    -0.545 OA
ENDBRANCH   8   9
ENDBRANCH   1   7
BRANCH   4  12
ATOM     12  O   UNL     1      -1.661  -6.511   9.290  1.00  0.00    -0.504 OA
ATOM     13  H   UNL     1      -2.063  -6.878   8.436  1.00  0.00     0.293 HD
ENDBRANCH   4  12
BRANCH   6  14
ATOM     14  O   UNL     1      -0.726  -4.769  11.308  1.00  0.00    -0.504 OA
ATOM     15  H   UNL     1      -0.857  -3.765  11.369  1.00  0.00     0.293 HD
ENDBRANCH   6  14
TORSDOF 4
ENDMDL
