MODEL 1
REMARK VINA RESULT:    14.859      0.000      0.000
REMARK INTER + INTRA:          37.515
REMARK INTER:                  39.182
REMARK INTRA:                  -1.666
REMARK UNBOUND:                -1.666
REMARK SMILES CCCCCCCCCCCCCCCCCCCCCCCCCCCCCC(=O)[O-]
REMARK SMILES IDX 16 1 17 2 18 3 19 4 20 5 21 6 22 7 23 8 24 9 25 10 26 11
REMARK SMILES IDX 27 12 28 13 29 14 30 15 31 16 32 17 15 18 14 19 13 20 12 21
REMARK SMILES IDX 11 22 10 23 9 24 8 25 7 26 6 27 5 28 4 29 3 30 2 31 1 32
REMARK H PARENT
REMARK Flexibility Score: inf
ROOT
ATOM      1  C   UNL     1     -35.428   8.255   3.773  1.00  0.00     0.000 C 
ENDROOT
BRANCH   1   2
ATOM      2  C   UNL     1     -34.932   9.077   2.572  1.00  0.00     0.000 C 
BRANCH   2   3
ATOM      3  C   UNL     1     -33.398   9.125   2.485  1.00  0.00     0.000 C 
BRANCH   3   4
ATOM      4  C   UNL     1     -32.898   8.496   1.176  1.00  0.00     0.000 C 
BRANCH   4   5
ATOM      5  C   UNL     1     -31.632   7.644   1.371  1.00  0.00     0.000 C 
BRANCH   5   6
ATOM      6  C   UNL     1     -31.405   6.549   0.308  1.00  0.00     0.000 C 
BRANCH   6   7
ATOM      7  C   UNL     1     -30.933   7.055  -1.067  1.00  0.00     0.000 C 
BRANCH   7   8
ATOM      8  C   UNL     1     -29.427   6.842  -1.296  1.00  0.00     0.000 C 
BRANCH   8   9
ATOM      9  C   UNL     1     -28.564   7.870  -0.549  1.00  0.00     0.000 C 
BRANCH   9  10
ATOM     10  C   UNL     1     -27.282   8.246  -1.317  1.00  0.00     0.000 C 
BRANCH  10  11
ATOM     11  C   UNL     1     -27.329   7.820  -2.793  1.00  0.00     0.000 C 
BRANCH  11  12
ATOM     12  C   UNL     1     -28.176   8.769  -3.655  1.00  0.00     0.000 C 
BRANCH  12  13
ATOM     13  C   UNL     1     -28.272   8.260  -5.101  1.00  0.00     0.006 C 
BRANCH  13  14
ATOM     14  C   UNL     1     -26.951   7.651  -5.589  1.00  0.00     0.053 C 
BRANCH  14  15
ATOM     15  C   UNL     1     -26.138   8.641  -6.366  1.00  0.00     0.041 C 
ATOM     16  O   UNL     1     -26.587   9.795  -6.588  1.00  0.00    -0.550 OA
ATOM     17  O   UNL     1     -24.875   8.292  -6.828  1.00  0.00    -0.550 OA
ENDBRANCH  14  15
ENDBRANCH  13  14
ENDBRANCH  12  13
ENDBRANCH  11  12
ENDBRANCH  10  11
ENDBRANCH   9  10
ENDBRANCH   8   9
ENDBRANCH   7   8
ENDBRANCH   6   7
ENDBRANCH   5   6
ENDBRANCH   4   5
ENDBRANCH   3   4
ENDBRANCH   2   3
ENDBRANCH   1   2
BRANCH   1  18
ATOM     18  C   UNL     1     -36.906   7.848   3.634  1.00  0.00     0.000 C 
BRANCH  18  19
ATOM     19  C   UNL     1     -37.416   7.030   4.832  1.00  0.00     0.000 C 
BRANCH  19  20
ATOM     20  C   UNL     1     -38.889   7.324   5.160  1.00  0.00     0.000 C 
BRANCH  20  21
ATOM     21  C   UNL     1     -39.491   6.319   6.161  1.00  0.00     0.000 C 
BRANCH  21  22
ATOM     22  C   UNL     1     -40.245   6.951   7.348  1.00  0.00     0.000 C 
BRANCH  22  23
ATOM     23  C   UNL     1     -39.533   8.194   7.913  1.00  0.00     0.000 C 
BRANCH  23  24
ATOM     24  C   UNL     1     -40.478   9.393   8.090  1.00  0.00    -0.000 C 
BRANCH  24  25
ATOM     25  C   UNL     1     -41.348   9.645   6.846  1.00  0.00    -0.000 C 
BRANCH  25  26
ATOM     26  C   UNL     1     -40.814  10.792   5.970  1.00  0.00    -0.000 C 
BRANCH  26  27
ATOM     27  C   UNL     1     -40.864  10.537   4.449  1.00  0.00    -0.000 C 
BRANCH  27  28
ATOM     28  C   UNL     1     -42.280  10.259   3.904  1.00  0.00    -0.000 C 
BRANCH  28  29
ATOM     29  C   UNL     1     -42.334  10.298   2.366  1.00  0.00    -0.000 C 
BRANCH  29  30
ATOM     30  C   UNL     1     -43.334   9.285   1.779  1.00  0.00    -0.000 C 
BRANCH  30  31
ATOM     31  C   UNL     1     -42.908   8.658   0.438  1.00  0.00    -0.003 C 
ATOM     32  C   UNL     1     -42.599   9.703  -0.636  1.00  0.00     0.004 C 
ENDBRANCH  30  31
ENDBRANCH  29  30
ENDBRANCH  28  29
ENDBRANCH  27  28
ENDBRANCH  26  27
ENDBRANCH  25  26
ENDBRANCH  24  25
ENDBRANCH  23  24
ENDBRANCH  22  23
ENDBRANCH  21  22
ENDBRANCH  20  21
ENDBRANCH  19  20
ENDBRANCH  18  19
ENDBRANCH   1  18
TORSDOF 28
ENDMDL
MODEL 2
REMARK VINA RESULT:    15.612      4.597     13.854
REMARK INTER + INTRA:          39.500
REMARK INTER:                  40.188
REMARK INTRA:                  -0.688
REMARK UNBOUND:                -1.666
REMARK SMILES CCCCCCCCCCCCCCCCCCCCCCCCCCCCCC(=O)[O-]
REMARK SMILES IDX 16 1 17 2 18 3 19 4 20 5 21 6 22 7 23 8 24 9 25 10 26 11
REMARK SMILES IDX 27 12 28 13 29 14 30 15 31 16 32 17 15 18 14 19 13 20 12 21
REMARK SMILES IDX 11 22 10 23 9 24 8 25 7 26 6 27 5 28 4 29 3 30 2 31 1 32
REMARK H PARENT
REMARK Flexibility Score: inf
ROOT
ATOM      1  C   UNL     1     -34.892   9.090   3.483  1.00  0.00     0.000 C 
ENDROOT
BRANCH   1   2
ATOM      2  C   UNL     1     -35.527   7.931   4.270  1.00  0.00     0.000 C 
BRANCH   2   3
ATOM      3  C   UNL     1     -37.042   7.824   4.038  1.00  0.00     0.000 C 
BRANCH   3   4
ATOM      4  C   UNL     1     -37.649   6.682   4.866  1.00  0.00     0.000 C 
BRANCH   4   5
ATOM      5  C   UNL     1     -39.064   7.005   5.379  1.00  0.00     0.000 C 
BRANCH   5   6
ATOM      6  C   UNL     1     -39.433   6.371   6.736  1.00  0.00     0.000 C 
BRANCH   6   7
ATOM      7  C   UNL     1     -40.449   7.164   7.578  1.00  0.00     0.000 C 
BRANCH   7   8
ATOM      8  C   UNL     1     -40.108   8.661   7.668  1.00  0.00     0.000 C 
BRANCH   8   9
ATOM      9  C   UNL     1     -41.298   9.562   7.301  1.00  0.00     0.000 C 
BRANCH   9  10
ATOM     10  C   UNL     1     -41.017  10.457   6.079  1.00  0.00     0.000 C 
BRANCH  10  11
ATOM     11  C   UNL     1     -40.882   9.655   4.775  1.00  0.00     0.000 C 
BRANCH  11  12
ATOM     12  C   UNL     1     -41.335  10.452   3.541  1.00  0.00     0.000 C 
BRANCH  12  13
ATOM     13  C   UNL     1     -42.845  10.295   3.310  1.00  0.00     0.006 C 
BRANCH  13  14
ATOM     14  C   UNL     1     -43.229  10.488   1.838  1.00  0.00     0.053 C 
BRANCH  14  15
ATOM     15  C   UNL     1     -42.807   9.322   0.997  1.00  0.00     0.041 C 
ATOM     16  O   UNL     1     -42.566   9.479  -0.228  1.00  0.00    -0.550 OA
ATOM     17  O   UNL     1     -42.660   8.067   1.573  1.00  0.00    -0.550 OA
ENDBRANCH  14  15
ENDBRANCH  13  14
ENDBRANCH  12  13
ENDBRANCH  11  12
ENDBRANCH  10  11
ENDBRANCH   9  10
ENDBRANCH   8   9
ENDBRANCH   7   8
ENDBRANCH   6   7
ENDBRANCH   5   6
ENDBRANCH   4   5
ENDBRANCH   3   4
ENDBRANCH   2   3
ENDBRANCH   1   2
BRANCH   1  18
ATOM     18  C   UNL     1     -33.643   8.649   2.698  1.00  0.00     0.000 C 
BRANCH  18  19
ATOM     19  C   UNL     1     -33.500   9.372   1.349  1.00  0.00     0.000 C 
BRANCH  19  20
ATOM     20  C   UNL     1     -32.644   8.580   0.346  1.00  0.00     0.000 C 
BRANCH  20  21
ATOM     21  C   UNL     1     -31.968   7.348   0.978  1.00  0.00     0.000 C 
BRANCH  21  22
ATOM     22  C   UNL     1     -30.872   6.690   0.116  1.00  0.00     0.000 C 
BRANCH  22  23
ATOM     23  C   UNL     1     -29.779   7.683  -0.318  1.00  0.00     0.000 C 
BRANCH  23  24
ATOM     24  C   UNL     1     -28.362   7.104  -0.182  1.00  0.00    -0.000 C 
BRANCH  24  25
ATOM     25  C   UNL     1     -27.282   8.057  -0.725  1.00  0.00    -0.000 C 
BRANCH  25  26
ATOM     26  C   UNL     1     -27.476   8.389  -2.214  1.00  0.00    -0.000 C 
BRANCH  26  27
ATOM     27  C   UNL     1     -28.813   7.919  -2.825  1.00  0.00    -0.000 C 
BRANCH  27  28
ATOM     28  C   UNL     1     -28.662   7.171  -4.166  1.00  0.00    -0.000 C 
BRANCH  28  29
ATOM     29  C   UNL     1     -27.329   7.488  -4.867  1.00  0.00    -0.000 C 
BRANCH  29  30
ATOM     30  C   UNL     1     -27.380   8.791  -5.685  1.00  0.00    -0.000 C 
BRANCH  30  31
ATOM     31  C   UNL     1     -26.290   8.920  -6.765  1.00  0.00    -0.003 C 
ATOM     32  C   UNL     1     -24.875   8.763  -6.204  1.00  0.00     0.004 C 
ENDBRANCH  30  31
ENDBRANCH  29  30
ENDBRANCH  28  29
ENDBRANCH  27  28
ENDBRANCH  26  27
ENDBRANCH  25  26
ENDBRANCH  24  25
ENDBRANCH  23  24
ENDBRANCH  22  23
ENDBRANCH  21  22
ENDBRANCH  20  21
ENDBRANCH  19  20
ENDBRANCH  18  19
ENDBRANCH   1  18
TORSDOF 28
ENDMDL
MODEL 3
REMARK VINA RESULT:    15.960      0.952      1.575
REMARK INTER + INTRA:          40.418
REMARK INTER:                  42.220
REMARK INTRA:                  -1.802
REMARK UNBOUND:                -1.666
REMARK SMILES CCCCCCCCCCCCCCCCCCCCCCCCCCCCCC(=O)[O-]
REMARK SMILES IDX 16 1 17 2 18 3 19 4 20 5 21 6 22 7 23 8 24 9 25 10 26 11
REMARK SMILES IDX 27 12 28 13 29 14 30 15 31 16 32 17 15 18 14 19 13 20 12 21
REMARK SMILES IDX 11 22 10 23 9 24 8 25 7 26 6 27 5 28 4 29 3 30 2 31 1 32
REMARK H PARENT
REMARK Flexibility Score: inf
ROOT
ATOM      1  C   UNL     1     -36.824   7.148   4.210  1.00  0.00     0.000 C 
ENDROOT
BRANCH   1   2
ATOM      2  C   UNL     1     -36.301   8.482   3.652  1.00  0.00     0.000 C 
BRANCH   2   3
ATOM      3  C   UNL     1     -34.776   8.616   3.778  1.00  0.00     0.000 C 
BRANCH   3   4
ATOM      4  C   UNL     1     -34.188   9.387   2.587  1.00  0.00     0.000 C 
BRANCH   4   5
ATOM      5  C   UNL     1     -32.962   8.688   1.973  1.00  0.00     0.000 C 
BRANCH   5   6
ATOM      6  C   UNL     1     -32.945   8.622   0.431  1.00  0.00     0.000 C 
BRANCH   6   7
ATOM      7  C   UNL     1     -32.119   7.471  -0.169  1.00  0.00     0.000 C 
BRANCH   7   8
ATOM      8  C   UNL     1     -30.893   7.108   0.685  1.00  0.00     0.000 C 
BRANCH   8   9
ATOM      9  C   UNL     1     -29.565   7.452  -0.008  1.00  0.00     0.000 C 
BRANCH   9  10
ATOM     10  C   UNL     1     -29.336   6.641  -1.298  1.00  0.00     0.000 C 
BRANCH  10  11
ATOM     11  C   UNL     1     -29.207   7.532  -2.544  1.00  0.00     0.000 C 
BRANCH  11  12
ATOM     12  C   UNL     1     -27.832   8.211  -2.645  1.00  0.00     0.000 C 
BRANCH  12  13
ATOM     13  C   UNL     1     -27.146   7.865  -3.975  1.00  0.00     0.006 C 
BRANCH  13  14
ATOM     14  C   UNL     1     -27.652   8.735  -5.132  1.00  0.00     0.053 C 
BRANCH  14  15
ATOM     15  C   UNL     1     -26.761   8.637  -6.332  1.00  0.00     0.041 C 
ATOM     16  O   UNL     1     -26.472   9.667  -6.993  1.00  0.00    -0.550 OA
ATOM     17  O   UNL     1     -26.235   7.407  -6.707  1.00  0.00    -0.550 OA
ENDBRANCH  14  15
ENDBRANCH  13  14
ENDBRANCH  12  13
ENDBRANCH  11  12
ENDBRANCH  10  11
ENDBRANCH   9  10
ENDBRANCH   8   9
ENDBRANCH   7   8
ENDBRANCH   6   7
ENDBRANCH   5   6
ENDBRANCH   4   5
ENDBRANCH   3   4
ENDBRANCH   2   3
ENDBRANCH   1   2
BRANCH   1  18
ATOM     18  C   UNL     1     -38.282   7.246   4.695  1.00  0.00     0.000 C 
BRANCH  18  19
ATOM     19  C   UNL     1     -38.687   6.079   5.610  1.00  0.00     0.000 C 
BRANCH  19  20
ATOM     20  C   UNL     1     -40.192   6.074   5.924  1.00  0.00     0.000 C 
BRANCH  20  21
ATOM     21  C   UNL     1     -40.487   6.022   7.436  1.00  0.00     0.000 C 
BRANCH  21  22
ATOM     22  C   UNL     1     -40.992   7.344   8.048  1.00  0.00     0.000 C 
BRANCH  22  23
ATOM     23  C   UNL     1     -40.276   8.580   7.473  1.00  0.00     0.000 C 
BRANCH  23  24
ATOM     24  C   UNL     1     -41.139   9.850   7.534  1.00  0.00    -0.000 C 
BRANCH  24  25
ATOM     25  C   UNL     1     -41.340  10.493   6.150  1.00  0.00    -0.000 C 
BRANCH  25  26
ATOM     26  C   UNL     1     -40.628   9.720   5.026  1.00  0.00    -0.000 C 
BRANCH  26  27
ATOM     27  C   UNL     1     -40.582  10.437   3.661  1.00  0.00    -0.000 C 
BRANCH  27  28
ATOM     28  C   UNL     1     -41.962  10.896   3.145  1.00  0.00    -0.000 C 
BRANCH  28  29
ATOM     29  C   UNL     1     -42.993   9.753   3.134  1.00  0.00    -0.000 C 
BRANCH  29  30
ATOM     30  C   UNL     1     -43.491   9.412   1.718  1.00  0.00    -0.000 C 
BRANCH  30  31
ATOM     31  C   UNL     1     -42.541   9.828   0.581  1.00  0.00    -0.003 C 
ATOM     32  C   UNL     1     -42.646   8.919  -0.645  1.00  0.00     0.004 C 
ENDBRANCH  30  31
ENDBRANCH  29  30
ENDBRANCH  28  29
ENDBRANCH  27  28
ENDBRANCH  26  27
ENDBRANCH  25  26
ENDBRANCH  24  25
ENDBRANCH  23  24
ENDBRANCH  22  23
ENDBRANCH  21  22
ENDBRANCH  20  21
ENDBRANCH  19  20
ENDBRANCH  18  19
ENDBRANCH   1  18
TORSDOF 28
ENDMDL
MODEL 4
REMARK VINA RESULT:    17.178      1.002      2.355
REMARK INTER + INTRA:          43.631
REMARK INTER:                  45.232
REMARK INTRA:                  -1.601
REMARK UNBOUND:                -1.666
REMARK SMILES CCCCCCCCCCCCCCCCCCCCCCCCCCCCCC(=O)[O-]
REMARK SMILES IDX 16 1 17 2 18 3 19 4 20 5 21 6 22 7 23 8 24 9 25 10 26 11
REMARK SMILES IDX 27 12 28 13 29 14 30 15 31 16 32 17 15 18 14 19 13 20 12 21
REMARK SMILES IDX 11 22 10 23 9 24 8 25 7 26 6 27 5 28 4 29 3 30 2 31 1 32
REMARK H PARENT
REMARK Flexibility Score: inf
ROOT
ATOM      1  C   UNL     1     -33.167   8.550   1.949  1.00  0.00     0.000 C 
ENDROOT
BRANCH   1   2
ATOM      2  C   UNL     1     -33.267   8.701   0.422  1.00  0.00     0.000 C 
BRANCH   2   3
ATOM      3  C   UNL     1     -32.222   7.855  -0.322  1.00  0.00     0.000 C 
BRANCH   3   4
ATOM      4  C   UNL     1     -31.640   6.766   0.591  1.00  0.00     0.000 C 
BRANCH   4   5
ATOM      5  C   UNL     1     -30.354   7.215   1.308  1.00  0.00     0.000 C 
BRANCH   5   6
ATOM      6  C   UNL     1     -29.327   7.947   0.421  1.00  0.00     0.000 C 
BRANCH   6   7
ATOM      7  C   UNL     1     -27.853   7.602   0.699  1.00  0.00     0.000 C 
BRANCH   7   8
ATOM      8  C   UNL     1     -27.085   7.202  -0.573  1.00  0.00     0.000 C 
BRANCH   8   9
ATOM      9  C   UNL     1     -26.717   8.411  -1.447  1.00  0.00     0.000 C 
BRANCH   9  10
ATOM     10  C   UNL     1     -26.922   8.147  -2.951  1.00  0.00     0.000 C 
BRANCH  10  11
ATOM     11  C   UNL     1     -28.380   7.806  -3.299  1.00  0.00     0.000 C 
BRANCH  11  12
ATOM     12  C   UNL     1     -28.758   8.222  -4.730  1.00  0.00     0.000 C 
BRANCH  12  13
ATOM     13  C   UNL     1     -27.635   9.045  -5.377  1.00  0.00     0.006 C 
BRANCH  13  14
ATOM     14  C   UNL     1     -27.103   8.394  -6.659  1.00  0.00     0.053 C 
BRANCH  14  15
ATOM     15  C   UNL     1     -25.606   8.396  -6.704  1.00  0.00     0.041 C 
ATOM     16  O   UNL     1     -24.983   7.386  -7.122  1.00  0.00    -0.550 OA
ATOM     17  O   UNL     1     -24.901   9.524  -6.303  1.00  0.00    -0.550 OA
ENDBRANCH  14  15
ENDBRANCH  13  14
ENDBRANCH  12  13
ENDBRANCH  11  12
ENDBRANCH  10  11
ENDBRANCH   9  10
ENDBRANCH   8   9
ENDBRANCH   7   8
ENDBRANCH   6   7
ENDBRANCH   5   6
ENDBRANCH   4   5
ENDBRANCH   3   4
ENDBRANCH   2   3
ENDBRANCH   1   2
BRANCH   1  18
ATOM     18  C   UNL     1     -34.220   9.394   2.692  1.00  0.00     0.000 C 
BRANCH  18  19
ATOM     19  C   UNL     1     -34.896   8.629   3.841  1.00  0.00     0.000 C 
BRANCH  19  20
ATOM     20  C   UNL     1     -36.369   8.302   3.542  1.00  0.00     0.000 C 
BRANCH  20  21
ATOM     21  C   UNL     1     -36.945   7.227   4.484  1.00  0.00     0.000 C 
BRANCH  21  22
ATOM     22  C   UNL     1     -38.424   7.425   4.874  1.00  0.00     0.000 C 
BRANCH  22  23
ATOM     23  C   UNL     1     -38.799   6.697   6.177  1.00  0.00     0.000 C 
BRANCH  23  24
ATOM     24  C   UNL     1     -40.165   7.135   6.731  1.00  0.00    -0.000 C 
BRANCH  24  25
ATOM     25  C   UNL     1     -40.046   8.285   7.748  1.00  0.00    -0.000 C 
BRANCH  25  26
ATOM     26  C   UNL     1     -41.065   9.409   7.495  1.00  0.00    -0.000 C 
BRANCH  26  27
ATOM     27  C   UNL     1     -40.746  10.332   6.301  1.00  0.00    -0.000 C 
BRANCH  27  28
ATOM     28  C   UNL     1     -41.776  10.255   5.155  1.00  0.00    -0.000 C 
BRANCH  28  29
ATOM     29  C   UNL     1     -41.110  10.279   3.767  1.00  0.00    -0.000 C 
BRANCH  29  30
ATOM     30  C   UNL     1     -41.951  11.024   2.714  1.00  0.00    -0.000 C 
BRANCH  30  31
ATOM     31  C   UNL     1     -43.095  10.198   2.098  1.00  0.00    -0.003 C 
ATOM     32  C   UNL     1     -42.618   9.252   0.994  1.00  0.00     0.004 C 
ENDBRANCH  30  31
ENDBRANCH  29  30
ENDBRANCH  28  29
ENDBRANCH  27  28
ENDBRANCH  26  27
ENDBRANCH  25  26
ENDBRANCH  24  25
ENDBRANCH  23  24
ENDBRANCH  22  23
ENDBRANCH  21  22
ENDBRANCH  20  21
ENDBRANCH  19  20
ENDBRANCH  18  19
ENDBRANCH   1  18
TORSDOF 28
ENDMDL
