MODEL 1
REMARK VINA RESULT:    -6.308      0.000      0.000
REMARK INTER + INTRA:         -10.796
REMARK INTER:                  -9.259
REMARK INTRA:                  -1.537
REMARK UNBOUND:                -1.537
REMARK SMILES O=c1c(O[C@@H]2O[C@@H](CO)[C@H](O)[C@H](O)[C@@H]2O)c(-c2ccc(O)c(O)c2)oc2cc(O)cc(O)c12
REMARK SMILES IDX 4 1 3 2 16 3 25 4 2 5 26 6 1 7 33 8 27 9 31 10 28 11 30 12
REMARK SMILES IDX 17 13 18 14 19 15 20 16 24 17 22 18 21 19 23 21 32 23 29 25
REMARK SMILES IDX 5 27 14 28 6 29 12 30 7 31 10 32 15 33 13 35 8 37 9 38 11 40
REMARK H PARENT 21 20 23 22 32 24 29 26 15 34 13 36 9 39 11 41
REMARK Flexibility Score: inf
ROOT
ATOM      1  O   UNL     1      16.958   2.496 141.745  1.00  0.00    -0.454 OA
ENDROOT
BRANCH   1   2
ATOM      2  C   UNL     1      16.651   1.148 141.516  1.00  0.00     0.214 A 
ATOM      3  C   UNL     1      15.562   0.543 142.129  1.00  0.00     0.180 A 
ATOM      4  O   UNL     1      15.862  -0.227 143.184  1.00  0.00    -0.452 OA
ATOM      5  C   UNL     1      17.668   0.232 141.184  1.00  0.00     0.239 A 
ATOM      6  C   UNL     1      16.993  -0.945 143.186  1.00  0.00     0.146 A 
ATOM      7  O   UNL     1      18.318   0.393 140.098  1.00  0.00    -0.285 OA
ATOM      8  C   UNL     1      17.845  -0.875 142.051  1.00  0.00     0.111 A 
ATOM      9  C   UNL     1      17.226  -1.864 144.215  1.00  0.00     0.094 A 
ATOM     10  C   UNL     1      18.879  -1.828 141.904  1.00  0.00     0.134 A 
ATOM     11  C   UNL     1      18.258  -2.804 144.073  1.00  0.00     0.123 A 
ATOM     12  C   UNL     1      19.046  -2.810 142.920  1.00  0.00     0.093 A 
BRANCH   3  13
ATOM     13  C   UNL     1      14.438   0.006 141.319  1.00  0.00     0.025 A 
ATOM     14  C   UNL     1      13.660  -1.009 141.907  1.00  0.00     0.016 A 
ATOM     15  C   UNL     1      12.256  -0.839 142.015  1.00  0.00     0.051 A 
ATOM     16  C   UNL     1      11.618   0.253 141.429  1.00  0.00     0.157 A 
ATOM     17  C   UNL     1      13.762   0.934 140.502  1.00  0.00     0.062 A 
ATOM     18  C   UNL     1      12.377   1.155 140.639  1.00  0.00     0.158 A 
BRANCH  16  19
ATOM     19  O   UNL     1      10.269   0.438 141.711  1.00  0.00    -0.504 OA
ATOM     20  H   UNL     1       9.568   0.462 140.991  1.00  0.00     0.293 HD
ENDBRANCH  16  19
BRANCH  18  21
ATOM     21  O   UNL     1      11.825   2.265 140.000  1.00  0.00    -0.504 OA
ATOM     22  H   UNL     1      11.328   2.236 139.096  1.00  0.00     0.293 HD
ENDBRANCH  18  21
ENDBRANCH   3  13
BRANCH  10  23
ATOM     23  O   UNL     1      19.691  -1.858 140.774  1.00  0.00    -0.507 OA
ATOM     24  H   UNL     1      19.484  -2.487 140.010  1.00  0.00     0.293 HD
ENDBRANCH  10  23
BRANCH  11  25
ATOM     25  O   UNL     1      18.476  -3.757 145.048  1.00  0.00    -0.508 OA
ATOM     26  H   UNL     1      19.338  -3.752 145.592  1.00  0.00     0.293 HD
ENDBRANCH  11  25
ENDBRANCH   1   2
BRANCH   1  27
ATOM     27  C   UNL     1      16.427   3.529 140.901  1.00  0.00     0.339 C 
ATOM     28  C   UNL     1      15.187   4.335 141.450  1.00  0.00     0.214 C 
ATOM     29  O   UNL     1      17.472   4.380 140.448  1.00  0.00    -0.332 OA
ATOM     30  C   UNL     1      15.146   5.714 140.751  1.00  0.00     0.180 C 
ATOM     31  C   UNL     1      17.615   5.530 141.284  1.00  0.00     0.179 C 
ATOM     32  C   UNL     1      16.462   6.500 140.994  1.00  0.00     0.177 C 
BRANCH  28  33
ATOM     33  O   UNL     1      15.182   4.396 142.869  1.00  0.00    -0.384 OA
ATOM     34  H   UNL     1      15.499   5.258 143.198  1.00  0.00     0.211 HD
ENDBRANCH  28  33
BRANCH  30  35
ATOM     35  O   UNL     1      14.003   6.448 141.106  1.00  0.00    -0.387 OA
ATOM     36  H   UNL     1      13.416   6.573 140.292  1.00  0.00     0.211 HD
ENDBRANCH  30  35
BRANCH  31  37
ATOM     37  C   UNL     1      19.019   6.177 141.061  1.00  0.00     0.191 C 
BRANCH  37  38
ATOM     38  O   UNL     1      18.897   7.373 140.329  1.00  0.00    -0.394 OA
ATOM     39  H   UNL     1      18.252   7.178 139.586  1.00  0.00     0.210 HD
ENDBRANCH  37  38
ENDBRANCH  31  37
BRANCH  32  40
ATOM     40  O   UNL     1      16.311   7.374 142.089  1.00  0.00    -0.387 OA
ATOM     41  H   UNL     1      15.669   8.072 141.778  1.00  0.00     0.211 HD
ENDBRANCH  32  40
ENDBRANCH   1  27
TORSDOF 12
ENDMDL
MODEL 2
REMARK VINA RESULT:    -6.286      2.406      5.055
REMARK INTER + INTRA:         -10.763
REMARK INTER:                  -9.714
REMARK INTRA:                  -1.049
REMARK UNBOUND:                -1.537
REMARK SMILES O=c1c(O[C@@H]2O[C@@H](CO)[C@H](O)[C@H](O)[C@@H]2O)c(-c2ccc(O)c(O)c2)oc2cc(O)cc(O)c12
REMARK SMILES IDX 4 1 3 2 16 3 25 4 2 5 26 6 1 7 33 8 27 9 31 10 28 11 30 12
REMARK SMILES IDX 17 13 18 14 19 15 20 16 24 17 22 18 21 19 23 21 32 23 29 25
REMARK SMILES IDX 5 27 14 28 6 29 12 30 7 31 10 32 15 33 13 35 8 37 9 38 11 40
REMARK H PARENT 21 20 23 22 32 24 29 26 15 34 13 36 9 39 11 41
REMARK Flexibility Score: inf
ROOT
ATOM      1  O   UNL     1      15.050   2.921 142.436  1.00  0.00    -0.454 OA
ENDROOT
BRANCH   1   2
ATOM      2  C   UNL     1      16.114   2.138 141.969  1.00  0.00     0.214 A 
ATOM      3  C   UNL     1      16.409   2.058 140.614  1.00  0.00     0.180 A 
ATOM      4  O   UNL     1      15.983   0.942 140.007  1.00  0.00    -0.452 OA
ATOM      5  C   UNL     1      16.528   0.999 142.685  1.00  0.00     0.239 A 
ATOM      6  C   UNL     1      15.998  -0.223 140.667  1.00  0.00     0.146 A 
ATOM      7  O   UNL     1      16.994   1.142 143.864  1.00  0.00    -0.285 OA
ATOM      8  C   UNL     1      16.480  -0.242 142.004  1.00  0.00     0.111 A 
ATOM      9  C   UNL     1      15.701  -1.408 139.983  1.00  0.00     0.094 A 
ATOM     10  C   UNL     1      16.775  -1.484 142.613  1.00  0.00     0.134 A 
ATOM     11  C   UNL     1      15.986  -2.640 140.592  1.00  0.00     0.123 A 
ATOM     12  C   UNL     1      16.548  -2.675 141.870  1.00  0.00     0.093 A 
BRANCH   3  13
ATOM     13  C   UNL     1      17.715   2.541 140.094  1.00  0.00     0.025 A 
ATOM     14  C   UNL     1      17.841   3.928 139.885  1.00  0.00     0.016 A 
ATOM     15  C   UNL     1      18.900   4.634 140.510  1.00  0.00     0.051 A 
ATOM     16  C   UNL     1      19.896   3.960 141.216  1.00  0.00     0.157 A 
ATOM     17  C   UNL     1      18.859   1.860 140.556  1.00  0.00     0.062 A 
ATOM     18  C   UNL     1      19.892   2.541 141.230  1.00  0.00     0.158 A 
BRANCH  16  19
ATOM     19  O   UNL     1      20.808   4.726 141.932  1.00  0.00    -0.504 OA
ATOM     20  H   UNL     1      21.621   5.133 141.504  1.00  0.00     0.293 HD
ENDBRANCH  16  19
BRANCH  18  21
ATOM     21  O   UNL     1      20.854   1.780 141.893  1.00  0.00    -0.504 OA
ATOM     22  H   UNL     1      21.846   1.717 141.619  1.00  0.00     0.293 HD
ENDBRANCH  18  21
ENDBRANCH   3  13
BRANCH  10  23
ATOM     23  O   UNL     1      17.326  -1.560 143.889  1.00  0.00    -0.507 OA
ATOM     24  H   UNL     1      16.738  -1.730 144.693  1.00  0.00     0.293 HD
ENDBRANCH  10  23
BRANCH  11  25
ATOM     25  O   UNL     1      15.754  -3.823 139.920  1.00  0.00    -0.508 OA
ATOM     26  H   UNL     1      15.546  -4.678 140.435  1.00  0.00     0.293 HD
ENDBRANCH  11  25
ENDBRANCH   1   2
BRANCH   1  27
ATOM     27  C   UNL     1      13.982   3.316 141.561  1.00  0.00     0.339 C 
ATOM     28  C   UNL     1      12.518   3.249 142.144  1.00  0.00     0.214 C 
ATOM     29  O   UNL     1      14.273   4.573 140.964  1.00  0.00    -0.332 OA
ATOM     30  C   UNL     1      11.624   4.230 141.349  1.00  0.00     0.180 C 
ATOM     31  C   UNL     1      13.691   5.652 141.698  1.00  0.00     0.179 C 
ATOM     32  C   UNL     1      12.180   5.676 141.428  1.00  0.00     0.177 C 
BRANCH  28  33
ATOM     33  O   UNL     1      12.498   3.446 143.551  1.00  0.00    -0.384 OA
ATOM     34  H   UNL     1      12.092   4.299 143.794  1.00  0.00     0.211 HD
ENDBRANCH  28  33
BRANCH  30  35
ATOM     35  O   UNL     1      10.277   4.144 141.737  1.00  0.00    -0.387 OA
ATOM     36  H   UNL     1       9.949   5.058 142.017  1.00  0.00     0.211 HD
ENDBRANCH  30  35
BRANCH  31  37
ATOM     37  C   UNL     1      14.393   6.994 141.317  1.00  0.00     0.191 C 
BRANCH  37  38
ATOM     38  O   UNL     1      14.784   6.977 139.966  1.00  0.00    -0.394 OA
ATOM     39  H   UNL     1      13.935   6.935 139.432  1.00  0.00     0.210 HD
ENDBRANCH  37  38
ENDBRANCH  31  37
BRANCH  32  40
ATOM     40  O   UNL     1      11.540   6.387 142.463  1.00  0.00    -0.387 OA
ATOM     41  H   UNL     1      12.094   6.217 143.275  1.00  0.00     0.211 HD
ENDBRANCH  32  40
ENDBRANCH   1  27
TORSDOF 12
ENDMDL
MODEL 3
REMARK VINA RESULT:    -6.214      2.058      2.949
REMARK INTER + INTRA:         -10.658
REMARK INTER:                  -9.187
REMARK INTRA:                  -1.470
REMARK UNBOUND:                -1.537
REMARK SMILES O=c1c(O[C@@H]2O[C@@H](CO)[C@H](O)[C@H](O)[C@@H]2O)c(-c2ccc(O)c(O)c2)oc2cc(O)cc(O)c12
REMARK SMILES IDX 4 1 3 2 16 3 25 4 2 5 26 6 1 7 33 8 27 9 31 10 28 11 30 12
REMARK SMILES IDX 17 13 18 14 19 15 20 16 24 17 22 18 21 19 23 21 32 23 29 25
REMARK SMILES IDX 5 27 14 28 6 29 12 30 7 31 10 32 15 33 13 35 8 37 9 38 11 40
REMARK H PARENT 21 20 23 22 32 24 29 26 15 34 13 36 9 39 11 41
REMARK Flexibility Score: inf
ROOT
ATOM      1  O   UNL     1      14.391   2.153 141.839  1.00  0.00    -0.454 OA
ENDROOT
BRANCH   1   2
ATOM      2  C   UNL     1      14.823   0.890 141.412  1.00  0.00     0.214 A 
ATOM      3  C   UNL     1      14.280  -0.274 141.940  1.00  0.00     0.180 A 
ATOM      4  O   UNL     1      15.037  -0.884 142.861  1.00  0.00    -0.452 OA
ATOM      5  C   UNL     1      16.134   0.711 140.932  1.00  0.00     0.239 A 
ATOM      6  C   UNL     1      16.371  -0.878 142.739  1.00  0.00     0.146 A 
ATOM      7  O   UNL     1      16.498   1.325 139.875  1.00  0.00    -0.285 OA
ATOM      8  C   UNL     1      16.949  -0.224 141.618  1.00  0.00     0.111 A 
ATOM      9  C   UNL     1      17.148  -1.646 143.614  1.00  0.00     0.094 A 
ATOM     10  C   UNL     1      18.312  -0.449 141.314  1.00  0.00     0.134 A 
ATOM     11  C   UNL     1      18.502  -1.861 143.318  1.00  0.00     0.123 A 
ATOM     12  C   UNL     1      19.064  -1.303 142.167  1.00  0.00     0.093 A 
BRANCH   3  13
ATOM     13  C   UNL     1      13.540  -1.226 141.071  1.00  0.00     0.025 A 
ATOM     14  C   UNL     1      13.634  -2.591 141.403  1.00  0.00     0.016 A 
ATOM     15  C   UNL     1      12.449  -3.339 141.622  1.00  0.00     0.051 A 
ATOM     16  C   UNL     1      11.193  -2.783 141.383  1.00  0.00     0.157 A 
ATOM     17  C   UNL     1      12.303  -0.776 140.568  1.00  0.00     0.062 A 
ATOM     18  C   UNL     1      11.110  -1.480 140.828  1.00  0.00     0.158 A 
BRANCH  16  19
ATOM     19  O   UNL     1      10.079  -3.518 141.771  1.00  0.00    -0.504 OA
ATOM     20  H   UNL     1       9.775  -4.335 141.271  1.00  0.00     0.293 HD
ENDBRANCH  16  19
BRANCH  18  21
ATOM     21  O   UNL     1       9.901  -0.847 140.539  1.00  0.00    -0.504 OA
ATOM     22  H   UNL     1       9.340  -0.312 141.220  1.00  0.00     0.293 HD
ENDBRANCH  18  21
ENDBRANCH   3  13
BRANCH  10  23
ATOM     23  O   UNL     1      18.909   0.099 140.183  1.00  0.00    -0.507 OA
ATOM     24  H   UNL     1      18.556   0.956 139.781  1.00  0.00     0.293 HD
ENDBRANCH  10  23
BRANCH  11  25
ATOM     25  O   UNL     1      19.280  -2.659 144.133  1.00  0.00    -0.508 OA
ATOM     26  H   UNL     1      19.860  -3.397 143.734  1.00  0.00     0.293 HD
ENDBRANCH  11  25
ENDBRANCH   1   2
BRANCH   1  27
ATOM     27  C   UNL     1      13.371   2.868 141.124  1.00  0.00     0.339 C 
ATOM     28  C   UNL     1      11.989   3.067 141.857  1.00  0.00     0.214 C 
ATOM     29  O   UNL     1      13.894   4.085 140.607  1.00  0.00    -0.332 OA
ATOM     30  C   UNL     1      11.282   4.302 141.250  1.00  0.00     0.180 C 
ATOM     31  C   UNL     1      13.646   5.181 141.488  1.00  0.00     0.179 C 
ATOM     32  C   UNL     1      12.164   5.570 141.389  1.00  0.00     0.177 C 
BRANCH  28  33
ATOM     33  O   UNL     1      12.140   3.111 143.268  1.00  0.00    -0.384 OA
ATOM     34  H   UNL     1      11.870   3.974 143.637  1.00  0.00     0.211 HD
ENDBRANCH  28  33
BRANCH  30  35
ATOM     35  O   UNL     1       9.992   4.478 141.775  1.00  0.00    -0.387 OA
ATOM     36  H   UNL     1       9.552   3.575 141.897  1.00  0.00     0.211 HD
ENDBRANCH  30  35
BRANCH  31  37
ATOM     37  C   UNL     1      14.605   6.366 141.147  1.00  0.00     0.191 C 
BRANCH  37  38
ATOM     38  O   UNL     1      13.966   7.597 141.380  1.00  0.00    -0.394 OA
ATOM     39  H   UNL     1      14.697   8.255 141.580  1.00  0.00     0.210 HD
ENDBRANCH  37  38
ENDBRANCH  31  37
BRANCH  32  40
ATOM     40  O   UNL     1      11.801   6.291 142.544  1.00  0.00    -0.387 OA
ATOM     41  H   UNL     1      11.396   5.614 143.156  1.00  0.00     0.211 HD
ENDBRANCH  32  40
ENDBRANCH   1  27
TORSDOF 12
ENDMDL
MODEL 4
REMARK VINA RESULT:    -6.129      1.564      2.028
REMARK INTER + INTRA:         -10.533
REMARK INTER:                  -9.345
REMARK INTRA:                  -1.188
REMARK UNBOUND:                -1.537
REMARK SMILES O=c1c(O[C@@H]2O[C@@H](CO)[C@H](O)[C@H](O)[C@@H]2O)c(-c2ccc(O)c(O)c2)oc2cc(O)cc(O)c12
REMARK SMILES IDX 4 1 3 2 16 3 25 4 2 5 26 6 1 7 33 8 27 9 31 10 28 11 30 12
REMARK SMILES IDX 17 13 18 14 19 15 20 16 24 17 22 18 21 19 23 21 32 23 29 25
REMARK SMILES IDX 5 27 14 28 6 29 12 30 7 31 10 32 15 33 13 35 8 37 9 38 11 40
REMARK H PARENT 21 20 23 22 32 24 29 26 15 34 13 36 9 39 11 41
REMARK Flexibility Score: inf
ROOT
ATOM      1  O   UNL     1      15.671   2.399 142.075  1.00  0.00    -0.454 OA
ENDROOT
BRANCH   1   2
ATOM      2  C   UNL     1      15.724   1.063 141.655  1.00  0.00     0.214 A 
ATOM      3  C   UNL     1      14.905   0.096 142.222  1.00  0.00     0.180 A 
ATOM      4  O   UNL     1      15.504  -0.692 143.126  1.00  0.00    -0.452 OA
ATOM      5  C   UNL     1      16.916   0.528 141.130  1.00  0.00     0.239 A 
ATOM      6  C   UNL     1      16.782  -1.052 142.955  1.00  0.00     0.146 A 
ATOM      7  O   UNL     1      17.391   1.013 140.050  1.00  0.00    -0.285 OA
ATOM      8  C   UNL     1      17.471  -0.589 141.801  1.00  0.00     0.111 A 
ATOM      9  C   UNL     1      17.354  -1.997 143.814  1.00  0.00     0.094 A 
ATOM     10  C   UNL     1      18.707  -1.180 141.452  1.00  0.00     0.134 A 
ATOM     11  C   UNL     1      18.585  -2.577 143.472  1.00  0.00     0.123 A 
ATOM     12  C   UNL     1      19.232  -2.202 142.291  1.00  0.00     0.093 A 
BRANCH   3  13
ATOM     13  C   UNL     1      13.899  -0.623 141.399  1.00  0.00     0.025 A 
ATOM     14  C   UNL     1      14.393  -1.539 140.450  1.00  0.00     0.016 A 
ATOM     15  C   UNL     1      13.943  -2.883 140.477  1.00  0.00     0.051 A 
ATOM     16  C   UNL     1      12.921  -3.282 141.337  1.00  0.00     0.157 A 
ATOM     17  C   UNL     1      12.695  -0.965 142.046  1.00  0.00     0.062 A 
ATOM     18  C   UNL     1      12.265  -2.304 142.130  1.00  0.00     0.158 A 
BRANCH  16  19
ATOM     19  O   UNL     1      12.643  -4.641 141.422  1.00  0.00    -0.504 OA
ATOM     20  H   UNL     1      12.901  -5.193 142.222  1.00  0.00     0.293 HD
ENDBRANCH  16  19
BRANCH  18  21
ATOM     21  O   UNL     1      11.222  -2.603 143.007  1.00  0.00    -0.504 OA
ATOM     22  H   UNL     1      10.533  -3.357 142.864  1.00  0.00     0.293 HD
ENDBRANCH  18  21
ENDBRANCH   3  13
BRANCH  10  23
ATOM     23  O   UNL     1      19.385  -0.825 140.290  1.00  0.00    -0.507 OA
ATOM     24  H   UNL     1      18.944  -0.929 139.387  1.00  0.00     0.293 HD
ENDBRANCH  10  23
BRANCH  11  25
ATOM     25  O   UNL     1      19.148  -3.552 144.272  1.00  0.00    -0.508 OA
ATOM     26  H   UNL     1      20.136  -3.511 144.519  1.00  0.00     0.293 HD
ENDBRANCH  11  25
ENDBRANCH   1   2
BRANCH   1  27
ATOM     27  C   UNL     1      15.111   3.418 141.233  1.00  0.00     0.339 C 
ATOM     28  C   UNL     1      14.219   4.514 141.934  1.00  0.00     0.214 C 
ATOM     29  O   UNL     1      16.120   3.984 140.407  1.00  0.00    -0.332 OA
ATOM     30  C   UNL     1      14.220   5.787 141.054  1.00  0.00     0.180 C 
ATOM     31  C   UNL     1      16.675   5.166 140.986  1.00  0.00     0.179 C 
ATOM     32  C   UNL     1      15.664   6.311 140.838  1.00  0.00     0.177 C 
BRANCH  28  33
ATOM     33  O   UNL     1      14.610   4.733 143.282  1.00  0.00    -0.384 OA
ATOM     34  H   UNL     1      14.084   4.197 143.906  1.00  0.00     0.211 HD
ENDBRANCH  28  33
BRANCH  30  35
ATOM     35  O   UNL     1      13.355   6.772 141.557  1.00  0.00    -0.387 OA
ATOM     36  H   UNL     1      12.749   7.099 140.817  1.00  0.00     0.211 HD
ENDBRANCH  30  35
BRANCH  31  37
ATOM     37  C   UNL     1      18.052   5.486 140.323  1.00  0.00     0.191 C 
BRANCH  37  38
ATOM     38  O   UNL     1      18.288   6.873 140.328  1.00  0.00    -0.394 OA
ATOM     39  H   UNL     1      17.548   7.281 139.787  1.00  0.00     0.210 HD
ENDBRANCH  37  38
ENDBRANCH  31  37
BRANCH  32  40
ATOM     40  O   UNL     1      15.965   7.314 141.781  1.00  0.00    -0.387 OA
ATOM     41  H   UNL     1      15.747   8.174 141.324  1.00  0.00     0.211 HD
ENDBRANCH  32  40
ENDBRANCH   1  27
TORSDOF 12
ENDMDL
MODEL 5
REMARK VINA RESULT:    -5.970      1.972      7.954
REMARK INTER + INTRA:         -10.299
REMARK INTER:                  -8.920
REMARK INTRA:                  -1.380
REMARK UNBOUND:                -1.537
REMARK SMILES O=c1c(O[C@@H]2O[C@@H](CO)[C@H](O)[C@H](O)[C@@H]2O)c(-c2ccc(O)c(O)c2)oc2cc(O)cc(O)c12
REMARK SMILES IDX 4 1 3 2 16 3 25 4 2 5 26 6 1 7 33 8 27 9 31 10 28 11 30 12
REMARK SMILES IDX 17 13 18 14 19 15 20 16 24 17 22 18 21 19 23 21 32 23 29 25
REMARK SMILES IDX 5 27 14 28 6 29 12 30 7 31 10 32 15 33 13 35 8 37 9 38 11 40
REMARK H PARENT 21 20 23 22 32 24 29 26 15 34 13 36 9 39 11 41
REMARK Flexibility Score: inf
ROOT
ATOM      1  O   UNL     1      16.858   0.881 142.357  1.00  0.00    -0.454 OA
ENDROOT
BRANCH   1   2
ATOM      2  C   UNL     1      16.453   1.902 141.488  1.00  0.00     0.214 A 
ATOM      3  C   UNL     1      16.979   3.184 141.588  1.00  0.00     0.180 A 
ATOM      4  O   UNL     1      16.184   4.075 142.196  1.00  0.00    -0.452 OA
ATOM      5  C   UNL     1      15.167   1.884 140.917  1.00  0.00     0.239 A 
ATOM      6  C   UNL     1      14.857   4.011 142.025  1.00  0.00     0.146 A 
ATOM      7  O   UNL     1      14.848   0.929 140.134  1.00  0.00    -0.285 OA
ATOM      8  C   UNL     1      14.327   2.994 141.186  1.00  0.00     0.111 A 
ATOM      9  C   UNL     1      14.045   5.033 142.532  1.00  0.00     0.094 A 
ATOM     10  C   UNL     1      12.981   3.080 140.762  1.00  0.00     0.134 A 
ATOM     11  C   UNL     1      12.707   5.113 142.117  1.00  0.00     0.123 A 
ATOM     12  C   UNL     1      12.195   4.174 141.218  1.00  0.00     0.093 A 
BRANCH   3  13
ATOM     13  C   UNL     1      17.763   3.771 140.471  1.00  0.00     0.025 A 
ATOM     14  C   UNL     1      17.881   5.174 140.447  1.00  0.00     0.016 A 
ATOM     15  C   UNL     1      19.169   5.765 140.411  1.00  0.00     0.051 A 
ATOM     16  C   UNL     1      20.315   4.985 140.262  1.00  0.00     0.157 A 
ATOM     17  C   UNL     1      18.882   3.031 140.040  1.00  0.00     0.062 A 
ATOM     18  C   UNL     1      20.176   3.588 140.054  1.00  0.00     0.158 A 
BRANCH  16  19
ATOM     19  O   UNL     1      21.546   5.616 140.395  1.00  0.00    -0.504 OA
ATOM     20  H   UNL     1      22.301   5.463 139.749  1.00  0.00     0.293 HD
ENDBRANCH  16  19
BRANCH  18  21
ATOM     21  O   UNL     1      21.261   2.729 139.879  1.00  0.00    -0.504 OA
ATOM     22  H   UNL     1      22.251   3.011 139.945  1.00  0.00     0.293 HD
ENDBRANCH  18  21
ENDBRANCH   3  13
BRANCH  10  23
ATOM     23  O   UNL     1      12.433   2.158 139.875  1.00  0.00    -0.507 OA
ATOM     24  H   UNL     1      11.579   2.369 139.377  1.00  0.00     0.293 HD
ENDBRANCH  10  23
BRANCH  11  25
ATOM     25  O   UNL     1      11.898   6.141 142.557  1.00  0.00    -0.508 OA
ATOM     26  H   UNL     1      11.091   5.946 143.150  1.00  0.00     0.293 HD
ENDBRANCH  11  25
ENDBRANCH   1   2
BRANCH   1  27
ATOM     27  C   UNL     1      17.199  -0.423 141.860  1.00  0.00     0.339 C 
ATOM     28  C   UNL     1      18.616  -0.583 141.185  1.00  0.00     0.214 C 
ATOM     29  O   UNL     1      16.955  -1.409 142.855  1.00  0.00    -0.332 OA
ATOM     30  C   UNL     1      19.038  -2.069 141.271  1.00  0.00     0.180 C 
ATOM     31  C   UNL     1      18.133  -1.700 143.608  1.00  0.00     0.179 C 
ATOM     32  C   UNL     1      19.075  -2.551 142.745  1.00  0.00     0.177 C 
BRANCH  28  33
ATOM     33  O   UNL     1      19.564   0.328 141.721  1.00  0.00    -0.384 OA
ATOM     34  H   UNL     1      19.367   1.251 141.470  1.00  0.00     0.211 HD
ENDBRANCH  28  33
BRANCH  30  35
ATOM     35  O   UNL     1      20.242  -2.312 140.591  1.00  0.00    -0.387 OA
ATOM     36  H   UNL     1      20.739  -1.440 140.464  1.00  0.00     0.211 HD
ENDBRANCH  30  35
BRANCH  31  37
ATOM     37  C   UNL     1      17.746  -2.399 144.950  1.00  0.00     0.191 C 
BRANCH  37  38
ATOM     38  O   UNL     1      18.179  -3.738 144.948  1.00  0.00    -0.394 OA
ATOM     39  H   UNL     1      17.406  -4.280 145.286  1.00  0.00     0.210 HD
ENDBRANCH  37  38
ENDBRANCH  31  37
BRANCH  32  40
ATOM     40  O   UNL     1      20.383  -2.450 143.258  1.00  0.00    -0.387 OA
ATOM     41  H   UNL     1      20.950  -2.977 142.628  1.00  0.00     0.211 HD
ENDBRANCH  32  40
ENDBRANCH   1  27
TORSDOF 12
ENDMDL
MODEL 6
REMARK VINA RESULT:    -5.752      2.284      5.336
REMARK INTER + INTRA:          -9.979
REMARK INTER:                  -8.674
REMARK INTRA:                  -1.305
REMARK UNBOUND:                -1.537
REMARK SMILES O=c1c(O[C@@H]2O[C@@H](CO)[C@H](O)[C@H](O)[C@@H]2O)c(-c2ccc(O)c(O)c2)oc2cc(O)cc(O)c12
REMARK SMILES IDX 4 1 3 2 16 3 25 4 2 5 26 6 1 7 33 8 27 9 31 10 28 11 30 12
REMARK SMILES IDX 17 13 18 14 19 15 20 16 24 17 22 18 21 19 23 21 32 23 29 25
REMARK SMILES IDX 5 27 14 28 6 29 12 30 7 31 10 32 15 33 13 35 8 37 9 38 11 40
REMARK H PARENT 21 20 23 22 32 24 29 26 15 34 13 36 9 39 11 41
REMARK Flexibility Score: inf
ROOT
ATOM      1  O   UNL     1      14.827   2.128 142.126  1.00  0.00    -0.454 OA
ENDROOT
BRANCH   1   2
ATOM      2  C   UNL     1      16.060   1.541 141.811  1.00  0.00     0.214 A 
ATOM      3  C   UNL     1      16.484   1.422 140.494  1.00  0.00     0.180 A 
ATOM      4  O   UNL     1      16.338   0.200 139.961  1.00  0.00    -0.452 OA
ATOM      5  C   UNL     1      16.621   0.565 142.655  1.00  0.00     0.239 A 
ATOM      6  C   UNL     1      16.520  -0.886 140.723  1.00  0.00     0.146 A 
ATOM      7  O   UNL     1      16.944   0.886 143.847  1.00  0.00    -0.285 OA
ATOM      8  C   UNL     1      16.875  -0.708 142.088  1.00  0.00     0.111 A 
ATOM      9  C   UNL     1      16.520  -2.153 140.130  1.00  0.00     0.094 A 
ATOM     10  C   UNL     1      17.350  -1.817 142.827  1.00  0.00     0.134 A 
ATOM     11  C   UNL     1      16.983  -3.254 140.867  1.00  0.00     0.123 A 
ATOM     12  C   UNL     1      17.426  -3.081 142.180  1.00  0.00     0.093 A 
BRANCH   3  13
ATOM     13  C   UNL     1      17.712   2.116 140.028  1.00  0.00     0.025 A 
ATOM     14  C   UNL     1      17.635   3.515 139.885  1.00  0.00     0.016 A 
ATOM     15  C   UNL     1      18.566   4.339 140.566  1.00  0.00     0.051 A 
ATOM     16  C   UNL     1      19.638   3.786 141.266  1.00  0.00     0.157 A 
ATOM     17  C   UNL     1      18.937   1.590 140.487  1.00  0.00     0.062 A 
ATOM     18  C   UNL     1      19.845   2.383 141.216  1.00  0.00     0.158 A 
BRANCH  16  19
ATOM     19  O   UNL     1      20.413   4.643 142.038  1.00  0.00    -0.504 OA
ATOM     20  H   UNL     1      21.378   4.832 141.827  1.00  0.00     0.293 HD
ENDBRANCH  16  19
BRANCH  18  21
ATOM     21  O   UNL     1      20.897   1.741 141.868  1.00  0.00    -0.504 OA
ATOM     22  H   UNL     1      21.010   0.718 141.936  1.00  0.00     0.293 HD
ENDBRANCH  18  21
ENDBRANCH   3  13
BRANCH  10  23
ATOM     23  O   UNL     1      17.790  -1.685 144.141  1.00  0.00    -0.507 OA
ATOM     24  H   UNL     1      18.699  -2.031 144.414  1.00  0.00     0.293 HD
ENDBRANCH  10  23
BRANCH  11  25
ATOM     25  O   UNL     1      17.046  -4.507 140.290  1.00  0.00    -0.508 OA
ATOM     26  H   UNL     1      17.646  -5.230 140.687  1.00  0.00     0.293 HD
ENDBRANCH  11  25
ENDBRANCH   1   2
BRANCH   1  27
ATOM     27  C   UNL     1      13.869   2.435 141.101  1.00  0.00     0.339 C 
ATOM     28  C   UNL     1      12.483   1.685 141.170  1.00  0.00     0.214 C 
ATOM     29  O   UNL     1      13.721   3.843 140.971  1.00  0.00    -0.332 OA
ATOM     30  C   UNL     1      11.426   2.533 140.423  1.00  0.00     0.180 C 
ATOM     31  C   UNL     1      12.624   4.330 141.746  1.00  0.00     0.179 C 
ATOM     32  C   UNL     1      11.314   3.951 141.043  1.00  0.00     0.177 C 
BRANCH  28  33
ATOM     33  O   UNL     1      12.129   1.347 142.503  1.00  0.00    -0.384 OA
ATOM     34  H   UNL     1      12.640   1.860 143.158  1.00  0.00     0.211 HD
ENDBRANCH  28  33
BRANCH  30  35
ATOM     35  O   UNL     1      10.188   1.876 140.344  1.00  0.00    -0.387 OA
ATOM     36  H   UNL     1      10.050   1.316 141.175  1.00  0.00     0.211 HD
ENDBRANCH  30  35
BRANCH  31  37
ATOM     37  C   UNL     1      12.770   5.871 141.962  1.00  0.00     0.191 C 
BRANCH  37  38
ATOM     38  O   UNL     1      11.504   6.466 142.119  1.00  0.00    -0.394 OA
ATOM     39  H   UNL     1      11.344   6.519 143.108  1.00  0.00     0.210 HD
ENDBRANCH  37  38
ENDBRANCH  31  37
BRANCH  32  40
ATOM     40  O   UNL     1      10.262   3.991 141.980  1.00  0.00    -0.387 OA
ATOM     41  H   UNL     1      10.455   4.785 142.553  1.00  0.00     0.211 HD
ENDBRANCH  32  40
ENDBRANCH   1  27
TORSDOF 12
ENDMDL
MODEL 7
REMARK VINA RESULT:    -5.606      1.654      7.393
REMARK INTER + INTRA:          -9.765
REMARK INTER:                  -8.564
REMARK INTRA:                  -1.201
REMARK UNBOUND:                -1.537
REMARK SMILES O=c1c(O[C@@H]2O[C@@H](CO)[C@H](O)[C@H](O)[C@@H]2O)c(-c2ccc(O)c(O)c2)oc2cc(O)cc(O)c12
REMARK SMILES IDX 4 1 3 2 16 3 25 4 2 5 26 6 1 7 33 8 27 9 31 10 28 11 30 12
REMARK SMILES IDX 17 13 18 14 19 15 20 16 24 17 22 18 21 19 23 21 32 23 29 25
REMARK SMILES IDX 5 27 14 28 6 29 12 30 7 31 10 32 15 33 13 35 8 37 9 38 11 40
REMARK H PARENT 21 20 23 22 32 24 29 26 15 34 13 36 9 39 11 41
REMARK Flexibility Score: inf
ROOT
ATOM      1  O   UNL     1      15.722   0.134 142.407  1.00  0.00    -0.454 OA
ENDROOT
BRANCH   1   2
ATOM      2  C   UNL     1      14.963   0.900 141.512  1.00  0.00     0.214 A 
ATOM      3  C   UNL     1      14.947   2.287 141.586  1.00  0.00     0.180 A 
ATOM      4  O   UNL     1      13.859   2.810 142.169  1.00  0.00    -0.452 OA
ATOM      5  C   UNL     1      13.793   0.371 140.936  1.00  0.00     0.239 A 
ATOM      6  C   UNL     1      12.665   2.231 141.993  1.00  0.00     0.146 A 
ATOM      7  O   UNL     1      13.882  -0.648 140.174  1.00  0.00    -0.285 OA
ATOM      8  C   UNL     1      12.584   1.071 141.175  1.00  0.00     0.111 A 
ATOM      9  C   UNL     1      11.513   2.865 142.472  1.00  0.00     0.094 A 
ATOM     10  C   UNL     1      11.316   0.618 140.743  1.00  0.00     0.134 A 
ATOM     11  C   UNL     1      10.254   2.410 142.049  1.00  0.00     0.123 A 
ATOM     12  C   UNL     1      10.160   1.328 141.170  1.00  0.00     0.093 A 
BRANCH   3  13
ATOM     13  C   UNL     1      15.456   3.111 140.459  1.00  0.00     0.025 A 
ATOM     14  C   UNL     1      14.808   4.340 140.229  1.00  0.00     0.016 A 
ATOM     15  C   UNL     1      15.570   5.536 140.207  1.00  0.00     0.051 A 
ATOM     16  C   UNL     1      16.962   5.504 140.273  1.00  0.00     0.157 A 
ATOM     17  C   UNL     1      16.847   3.074 140.240  1.00  0.00     0.062 A 
ATOM     18  C   UNL     1      17.624   4.249 140.273  1.00  0.00     0.158 A 
BRANCH  16  19
ATOM     19  O   UNL     1      17.629   6.716 140.407  1.00  0.00    -0.504 OA
ATOM     20  H   UNL     1      17.279   7.569 140.006  1.00  0.00     0.293 HD
ENDBRANCH  16  19
BRANCH  18  21
ATOM     21  O   UNL     1      19.011   4.116 140.320  1.00  0.00    -0.504 OA
ATOM     22  H   UNL     1      19.535   3.697 141.104  1.00  0.00     0.293 HD
ENDBRANCH  18  21
ENDBRANCH   3  13
BRANCH  10  23
ATOM     23  O   UNL     1      11.182  -0.462 139.875  1.00  0.00    -0.507 OA
ATOM     24  H   UNL     1      11.102  -0.313 138.879  1.00  0.00     0.293 HD
ENDBRANCH  10  23
BRANCH  11  25
ATOM     25  O   UNL     1       9.103   3.050 142.462  1.00  0.00    -0.508 OA
ATOM     26  H   UNL     1       9.110   4.050 142.659  1.00  0.00     0.293 HD
ENDBRANCH  11  25
ENDBRANCH   1   2
BRANCH   1  27
ATOM     27  C   UNL     1      16.526  -0.963 141.945  1.00  0.00     0.339 C 
ATOM     28  C   UNL     1      17.914  -0.605 141.287  1.00  0.00     0.214 C 
ATOM     29  O   UNL     1      16.643  -1.950 142.962  1.00  0.00    -0.332 OA
ATOM     30  C   UNL     1      18.850  -1.831 141.414  1.00  0.00     0.180 C 
ATOM     31  C   UNL     1      17.833  -1.773 143.733  1.00  0.00     0.179 C 
ATOM     32  C   UNL     1      19.036  -2.236 142.900  1.00  0.00     0.177 C 
BRANCH  28  33
ATOM     33  O   UNL     1      18.452   0.601 141.809  1.00  0.00    -0.384 OA
ATOM     34  H   UNL     1      17.876   1.367 141.626  1.00  0.00     0.211 HD
ENDBRANCH  28  33
BRANCH  30  35
ATOM     35  O   UNL     1      20.071  -1.628 140.750  1.00  0.00    -0.387 OA
ATOM     36  H   UNL     1      19.913  -1.082 139.914  1.00  0.00     0.211 HD
ENDBRANCH  30  35
BRANCH  31  37
ATOM     37  C   UNL     1      17.706  -2.539 145.089  1.00  0.00     0.191 C 
BRANCH  37  38
ATOM     38  O   UNL     1      18.236  -3.837 144.970  1.00  0.00    -0.394 OA
ATOM     39  H   UNL     1      17.600  -4.342 144.381  1.00  0.00     0.210 HD
ENDBRANCH  37  38
ENDBRANCH  31  37
BRANCH  32  40
ATOM     40  O   UNL     1      20.207  -1.651 143.421  1.00  0.00    -0.387 OA
ATOM     41  H   UNL     1      19.894  -1.059 144.162  1.00  0.00     0.211 HD
ENDBRANCH  32  40
ENDBRANCH   1  27
TORSDOF 12
ENDMDL
MODEL 8
REMARK VINA RESULT:    -5.544      2.214      7.940
REMARK INTER + INTRA:          -9.675
REMARK INTER:                  -8.040
REMARK INTRA:                  -1.635
REMARK UNBOUND:                -1.537
REMARK SMILES O=c1c(O[C@@H]2O[C@@H](CO)[C@H](O)[C@H](O)[C@@H]2O)c(-c2ccc(O)c(O)c2)oc2cc(O)cc(O)c12
REMARK SMILES IDX 4 1 3 2 16 3 25 4 2 5 26 6 1 7 33 8 27 9 31 10 28 11 30 12
REMARK SMILES IDX 17 13 18 14 19 15 20 16 24 17 22 18 21 19 23 21 32 23 29 25
REMARK SMILES IDX 5 27 14 28 6 29 12 30 7 31 10 32 15 33 13 35 8 37 9 38 11 40
REMARK H PARENT 21 20 23 22 32 24 29 26 15 34 13 36 9 39 11 41
REMARK Flexibility Score: inf
ROOT
ATOM      1  O   UNL     1      16.665   0.496 142.444  1.00  0.00    -0.454 OA
ENDROOT
BRANCH   1   2
ATOM      2  C   UNL     1      16.293   1.485 141.524  1.00  0.00     0.214 A 
ATOM      3  C   UNL     1      16.915   2.726 141.509  1.00  0.00     0.180 A 
ATOM      4  O   UNL     1      16.220   3.715 142.087  1.00  0.00    -0.452 OA
ATOM      5  C   UNL     1      14.981   1.527 141.015  1.00  0.00     0.239 A 
ATOM      6  C   UNL     1      14.885   3.741 141.982  1.00  0.00     0.146 A 
ATOM      7  O   UNL     1      14.553   0.548 140.318  1.00  0.00    -0.285 OA
ATOM      8  C   UNL     1      14.240   2.713 141.243  1.00  0.00     0.111 A 
ATOM      9  C   UNL     1      14.177   4.854 142.451  1.00  0.00     0.094 A 
ATOM     10  C   UNL     1      12.884   2.874 140.875  1.00  0.00     0.134 A 
ATOM     11  C   UNL     1      12.829   5.009 142.094  1.00  0.00     0.123 A 
ATOM     12  C   UNL     1      12.204   4.053 141.288  1.00  0.00     0.093 A 
BRANCH   3  13
ATOM     13  C   UNL     1      17.682   3.174 140.318  1.00  0.00     0.025 A 
ATOM     14  C   UNL     1      17.611   4.543 139.995  1.00  0.00     0.016 A 
ATOM     15  C   UNL     1      18.807   5.295 139.875  1.00  0.00     0.051 A 
ATOM     16  C   UNL     1      20.055   4.676 139.936  1.00  0.00     0.157 A 
ATOM     17  C   UNL     1      18.917   2.531 140.095  1.00  0.00     0.062 A 
ATOM     18  C   UNL     1      20.120   3.262 140.031  1.00  0.00     0.158 A 
BRANCH  16  19
ATOM     19  O   UNL     1      21.178   5.494 139.971  1.00  0.00    -0.504 OA
ATOM     20  H   UNL     1      22.107   5.125 140.080  1.00  0.00     0.293 HD
ENDBRANCH  16  19
BRANCH  18  21
ATOM     21  O   UNL     1      21.320   2.553 140.082  1.00  0.00    -0.504 OA
ATOM     22  H   UNL     1      21.881   2.406 140.935  1.00  0.00     0.293 HD
ENDBRANCH  18  21
ENDBRANCH   3  13
BRANCH  10  23
ATOM     23  O   UNL     1      12.225   1.938 140.083  1.00  0.00    -0.507 OA
ATOM     24  H   UNL     1      12.632   1.626 139.212  1.00  0.00     0.293 HD
ENDBRANCH  10  23
BRANCH  11  25
ATOM     25  O   UNL     1      12.121   6.123 142.497  1.00  0.00    -0.508 OA
ATOM     26  H   UNL     1      12.493   6.739 143.219  1.00  0.00     0.293 HD
ENDBRANCH  11  25
ENDBRANCH   1   2
BRANCH   1  27
ATOM     27  C   UNL     1      17.691  -0.459 142.130  1.00  0.00     0.339 C 
ATOM     28  C   UNL     1      18.128  -1.444 143.282  1.00  0.00     0.214 C 
ATOM     29  O   UNL     1      17.377  -1.139 140.922  1.00  0.00    -0.332 OA
ATOM     30  C   UNL     1      18.736  -2.714 142.641  1.00  0.00     0.180 C 
ATOM     31  C   UNL     1      16.701  -2.373 141.172  1.00  0.00     0.179 C 
ATOM     32  C   UNL     1      17.719  -3.398 141.691  1.00  0.00     0.177 C 
BRANCH  28  33
ATOM     33  O   UNL     1      17.068  -1.697 144.193  1.00  0.00    -0.384 OA
ATOM     34  H   UNL     1      16.453  -2.376 143.858  1.00  0.00     0.211 HD
ENDBRANCH  28  33
BRANCH  30  35
ATOM     35  O   UNL     1      19.253  -3.593 143.607  1.00  0.00    -0.387 OA
ATOM     36  H   UNL     1      19.217  -4.540 143.254  1.00  0.00     0.211 HD
ENDBRANCH  30  35
BRANCH  31  37
ATOM     37  C   UNL     1      15.970  -2.850 139.876  1.00  0.00     0.191 C 
BRANCH  37  38
ATOM     38  O   UNL     1      14.625  -2.439 139.893  1.00  0.00    -0.394 OA
ATOM     39  H   UNL     1      14.106  -3.172 139.445  1.00  0.00     0.210 HD
ENDBRANCH  37  38
ENDBRANCH  31  37
BRANCH  32  40
ATOM     40  O   UNL     1      17.031  -4.423 142.371  1.00  0.00    -0.387 OA
ATOM     41  H   UNL     1      17.673  -5.185 142.410  1.00  0.00     0.211 HD
ENDBRANCH  32  40
ENDBRANCH   1  27
TORSDOF 12
ENDMDL
MODEL 9
REMARK VINA RESULT:    -5.516      3.779      7.178
REMARK INTER + INTRA:          -9.632
REMARK INTER:                  -8.378
REMARK INTRA:                  -1.254
REMARK UNBOUND:                -1.537
REMARK SMILES O=c1c(O[C@@H]2O[C@@H](CO)[C@H](O)[C@H](O)[C@@H]2O)c(-c2ccc(O)c(O)c2)oc2cc(O)cc(O)c12
REMARK SMILES IDX 4 1 3 2 16 3 25 4 2 5 26 6 1 7 33 8 27 9 31 10 28 11 30 12
REMARK SMILES IDX 17 13 18 14 19 15 20 16 24 17 22 18 21 19 23 21 32 23 29 25
REMARK SMILES IDX 5 27 14 28 6 29 12 30 7 31 10 32 15 33 13 35 8 37 9 38 11 40
REMARK H PARENT 21 20 23 22 32 24 29 26 15 34 13 36 9 39 11 41
REMARK Flexibility Score: inf
ROOT
ATOM      1  O   UNL     1      11.291   1.439 141.920  1.00  0.00    -0.454 OA
ENDROOT
BRANCH   1   2
ATOM      2  C   UNL     1      10.209   0.886 141.223  1.00  0.00     0.214 A 
ATOM      3  C   UNL     1       8.909   1.321 141.448  1.00  0.00     0.180 A 
ATOM      4  O   UNL     1       8.170   0.516 142.224  1.00  0.00    -0.452 OA
ATOM      5  C   UNL     1      10.267  -0.439 140.752  1.00  0.00     0.239 A 
ATOM      6  C   UNL     1       8.326  -0.812 142.146  1.00  0.00     0.146 A 
ATOM      7  O   UNL     1      11.143  -0.751 139.879  1.00  0.00    -0.285 OA
ATOM      8  C   UNL     1       9.275  -1.334 141.225  1.00  0.00     0.111 A 
ATOM      9  C   UNL     1       7.447  -1.652 142.840  1.00  0.00     0.094 A 
ATOM     10  C   UNL     1       9.252  -2.714 140.917  1.00  0.00     0.134 A 
ATOM     11  C   UNL     1       7.431  -3.023 142.540  1.00  0.00     0.123 A 
ATOM     12  C   UNL     1       8.293  -3.538 141.568  1.00  0.00     0.093 A 
BRANCH   3  13
ATOM     13  C   UNL     1       8.125   1.961 140.361  1.00  0.00     0.025 A 
ATOM     14  C   UNL     1       6.739   1.715 140.349  1.00  0.00     0.016 A 
ATOM     15  C   UNL     1       5.836   2.808 140.358  1.00  0.00     0.051 A 
ATOM     16  C   UNL     1       6.294   4.120 140.241  1.00  0.00     0.157 A 
ATOM     17  C   UNL     1       8.547   3.245 139.962  1.00  0.00     0.062 A 
ATOM     18  C   UNL     1       7.676   4.351 140.021  1.00  0.00     0.158 A 
BRANCH  16  19
ATOM     19  O   UNL     1       5.370   5.143 140.418  1.00  0.00    -0.504 OA
ATOM     20  H   UNL     1       4.378   4.980 140.398  1.00  0.00     0.293 HD
ENDBRANCH  16  19
BRANCH  18  21
ATOM     21  O   UNL     1       8.226   5.625 139.875  1.00  0.00    -0.504 OA
ATOM     22  H   UNL     1       8.644   6.176 140.640  1.00  0.00     0.293 HD
ENDBRANCH  18  21
ENDBRANCH   3  13
BRANCH  10  23
ATOM     23  O   UNL     1      10.102  -3.265 139.963  1.00  0.00    -0.507 OA
ATOM     24  H   UNL     1      10.289  -4.258 139.955  1.00  0.00     0.293 HD
ENDBRANCH  10  23
BRANCH  11  25
ATOM     25  O   UNL     1       6.538  -3.867 143.169  1.00  0.00    -0.508 OA
ATOM     26  H   UNL     1       5.586  -3.558 143.366  1.00  0.00     0.293 HD
ENDBRANCH  11  25
ENDBRANCH   1   2
BRANCH   1  27
ATOM     27  C   UNL     1      12.228   2.309 141.264  1.00  0.00     0.339 C 
ATOM     28  C   UNL     1      12.587   3.657 141.998  1.00  0.00     0.214 C 
ATOM     29  O   UNL     1      13.383   1.579 140.869  1.00  0.00    -0.332 OA
ATOM     30  C   UNL     1      13.973   4.135 141.503  1.00  0.00     0.180 C 
ATOM     31  C   UNL     1      14.421   1.666 141.848  1.00  0.00     0.179 C 
ATOM     32  C   UNL     1      15.059   3.060 141.770  1.00  0.00     0.177 C 
BRANCH  28  33
ATOM     33  O   UNL     1      12.478   3.538 143.409  1.00  0.00    -0.384 OA
ATOM     34  H   UNL     1      11.641   3.111 143.676  1.00  0.00     0.211 HD
ENDBRANCH  28  33
BRANCH  30  35
ATOM     35  O   UNL     1      14.313   5.392 142.029  1.00  0.00    -0.387 OA
ATOM     36  H   UNL     1      15.058   5.284 142.704  1.00  0.00     0.211 HD
ENDBRANCH  30  35
BRANCH  31  37
ATOM     37  C   UNL     1      15.455   0.516 141.628  1.00  0.00     0.191 C 
BRANCH  37  38
ATOM     38  O   UNL     1      15.308  -0.471 142.620  1.00  0.00    -0.394 OA
ATOM     39  H   UNL     1      15.957  -1.199 142.385  1.00  0.00     0.210 HD
ENDBRANCH  37  38
ENDBRANCH  31  37
BRANCH  32  40
ATOM     40  O   UNL     1      15.722   3.329 142.984  1.00  0.00    -0.387 OA
ATOM     41  H   UNL     1      15.026   3.728 143.577  1.00  0.00     0.211 HD
ENDBRANCH  32  40
ENDBRANCH   1  27
TORSDOF 12
ENDMDL
