MODEL 1
REMARK VINA RESULT:    -6.207      0.000      0.000
REMARK INTER + INTRA:          -7.771
REMARK INTER:                  -7.477
REMARK INTRA:                  -0.293
REMARK UNBOUND:                -0.293
REMARK SMILES O=c1c(O)c(-c2ccc(O)c(O)c2)oc2cc(O)cc(O)c12
REMARK SMILES IDX 5 1 3 2 2 3 1 4 22 5 20 6 19 7 17 8 16 9 15 10 14 11 6 12
REMARK SMILES IDX 7 13 8 14 9 15 13 16 11 17 10 18 12 20 4 22 21 24 18 26
REMARK H PARENT 10 19 12 21 4 23 21 25 18 27
REMARK Flexibility Score: inf
ROOT
ATOM      1  C   UNL     1      81.701  25.315  44.950  1.00  0.00     0.180 A 
ATOM      2  C   UNL     1      80.791  26.009  44.133  1.00  0.00     0.208 A 
ATOM      3  C   UNL     1      80.548  25.539  42.833  1.00  0.00     0.238 A 
ATOM      4  O   UNL     1      79.776  26.195  42.087  1.00  0.00    -0.285 OA
ATOM      5  C   UNL     1      81.205  24.372  42.372  1.00  0.00     0.111 A 
ATOM      6  C   UNL     1      81.004  23.783  41.087  1.00  0.00     0.134 A 
ATOM      7  C   UNL     1      81.803  22.705  40.688  1.00  0.00     0.093 A 
ATOM      8  C   UNL     1      82.751  22.153  41.554  1.00  0.00     0.123 A 
ATOM      9  C   UNL     1      82.913  22.683  42.831  1.00  0.00     0.094 A 
ATOM     10  C   UNL     1      82.156  23.782  43.244  1.00  0.00     0.146 A 
ATOM     11  O   UNL     1      82.349  24.263  44.466  1.00  0.00    -0.452 OA
ENDROOT
BRANCH   1  12
ATOM     12  C   UNL     1      81.990  25.736  46.341  1.00  0.00     0.025 A 
ATOM     13  C   UNL     1      83.128  26.499  46.653  1.00  0.00     0.016 A 
ATOM     14  C   UNL     1      83.368  26.904  47.968  1.00  0.00     0.051 A 
ATOM     15  C   UNL     1      82.472  26.566  48.988  1.00  0.00     0.157 A 
ATOM     16  C   UNL     1      81.082  25.415  47.362  1.00  0.00     0.062 A 
ATOM     17  C   UNL     1      81.321  25.821  48.684  1.00  0.00     0.158 A 
BRANCH  15  18
ATOM     18  O   UNL     1      82.739  26.983  50.290  1.00  0.00    -0.504 OA
ATOM     19  H   UNL     1      82.000  27.208  50.946  1.00  0.00     0.293 HD
ENDBRANCH  15  18
BRANCH  17  20
ATOM     20  O   UNL     1      80.419  25.486  49.693  1.00  0.00    -0.504 OA
ATOM     21  H   UNL     1      79.839  26.185  50.140  1.00  0.00     0.293 HD
ENDBRANCH  17  20
ENDBRANCH   1  12
BRANCH   2  22
ATOM     22  O   UNL     1      80.172  27.171  44.600  1.00  0.00    -0.502 OA
ATOM     23  H   UNL     1      80.607  28.083  44.535  1.00  0.00     0.293 HD
ENDBRANCH   2  22
BRANCH   6  24
ATOM     24  O   UNL     1      80.021  24.199  40.183  1.00  0.00    -0.507 OA
ATOM     25  H   UNL     1      79.971  23.914  39.216  1.00  0.00     0.293 HD
ENDBRANCH   6  24
BRANCH   8  26
ATOM     26  O   UNL     1      83.532  21.070  41.155  1.00  0.00    -0.508 OA
ATOM     27  H   UNL     1      84.138  20.585  41.806  1.00  0.00     0.293 HD
ENDBRANCH   8  26
TORSDOF 6
ENDMDL
MODEL 2
REMARK VINA RESULT:    -5.961      8.441     11.031
REMARK INTER + INTRA:          -7.474
REMARK INTER:                  -7.153
REMARK INTRA:                  -0.321
REMARK UNBOUND:                -0.293
REMARK SMILES O=c1c(O)c(-c2ccc(O)c(O)c2)oc2cc(O)cc(O)c12
REMARK SMILES IDX 5 1 3 2 2 3 1 4 22 5 20 6 19 7 17 8 16 9 15 10 14 11 6 12
REMARK SMILES IDX 7 13 8 14 9 15 13 16 11 17 10 18 12 20 4 22 21 24 18 26
REMARK H PARENT 10 19 12 21 4 23 21 25 18 27
REMARK Flexibility Score: inf
ROOT
ATOM      1  C   UNL     1      76.083  17.633  44.477  1.00  0.00     0.180 A 
ATOM      2  C   UNL     1      75.393  18.249  45.536  1.00  0.00     0.208 A 
ATOM      3  C   UNL     1      76.079  18.517  46.731  1.00  0.00     0.238 A 
ATOM      4  O   UNL     1      75.442  19.017  47.694  1.00  0.00    -0.285 OA
ATOM      5  C   UNL     1      77.449  18.180  46.847  1.00  0.00     0.111 A 
ATOM      6  C   UNL     1      78.253  18.443  47.998  1.00  0.00     0.134 A 
ATOM      7  C   UNL     1      79.562  17.950  48.053  1.00  0.00     0.093 A 
ATOM      8  C   UNL     1      80.118  17.260  46.971  1.00  0.00     0.123 A 
ATOM      9  C   UNL     1      79.361  17.052  45.821  1.00  0.00     0.094 A 
ATOM     10  C   UNL     1      78.040  17.500  45.751  1.00  0.00     0.146 A 
ATOM     11  O   UNL     1      77.350  17.271  44.640  1.00  0.00    -0.452 OA
ENDROOT
BRANCH   1  12
ATOM     12  C   UNL     1      75.435  17.342  43.177  1.00  0.00     0.025 A 
ATOM     13  C   UNL     1      74.721  16.150  42.966  1.00  0.00     0.016 A 
ATOM     14  C   UNL     1      74.098  15.907  41.740  1.00  0.00     0.051 A 
ATOM     15  C   UNL     1      74.166  16.853  40.712  1.00  0.00     0.157 A 
ATOM     16  C   UNL     1      75.485  18.299  42.151  1.00  0.00     0.062 A 
ATOM     17  C   UNL     1      74.860  18.057  40.918  1.00  0.00     0.158 A 
BRANCH  15  18
ATOM     18  O   UNL     1      73.535  16.583  39.499  1.00  0.00    -0.504 OA
ATOM     19  H   UNL     1      72.953  15.764  39.365  1.00  0.00     0.293 HD
ENDBRANCH  15  18
BRANCH  17  20
ATOM     20  O   UNL     1      74.926  19.008  39.901  1.00  0.00    -0.504 OA
ATOM     21  H   UNL     1      74.599  18.807  38.964  1.00  0.00     0.293 HD
ENDBRANCH  17  20
ENDBRANCH   1  12
BRANCH   2  22
ATOM     22  O   UNL     1      74.035  18.552  45.407  1.00  0.00    -0.502 OA
ATOM     23  H   UNL     1      73.491  18.943  46.166  1.00  0.00     0.293 HD
ENDBRANCH   2  22
BRANCH   6  24
ATOM     24  O   UNL     1      77.825  19.200  49.093  1.00  0.00    -0.507 OA
ATOM     25  H   UNL     1      77.961  18.942  50.059  1.00  0.00     0.293 HD
ENDBRANCH   6  24
BRANCH   8  26
ATOM     26  O   UNL     1      81.427  16.787  47.028  1.00  0.00    -0.508 OA
ATOM     27  H   UNL     1      81.701  15.928  46.564  1.00  0.00     0.293 HD
ENDBRANCH   8  26
TORSDOF 6
ENDMDL
MODEL 3
REMARK VINA RESULT:    -5.748      2.411      3.709
REMARK INTER + INTRA:          -7.218
REMARK INTER:                  -6.923
REMARK INTRA:                  -0.295
REMARK UNBOUND:                -0.293
REMARK SMILES O=c1c(O)c(-c2ccc(O)c(O)c2)oc2cc(O)cc(O)c12
REMARK SMILES IDX 5 1 3 2 2 3 1 4 22 5 20 6 19 7 17 8 16 9 15 10 14 11 6 12
REMARK SMILES IDX 7 13 8 14 9 15 13 16 11 17 10 18 12 20 4 22 21 24 18 26
REMARK H PARENT 10 19 12 21 4 23 21 25 18 27
REMARK Flexibility Score: inf
ROOT
ATOM      1  C   UNL     1      80.762  26.008  46.652  1.00  0.00     0.180 A 
ATOM      2  C   UNL     1      82.115  26.386  46.712  1.00  0.00     0.208 A 
ATOM      3  C   UNL     1      83.008  25.869  45.760  1.00  0.00     0.238 A 
ATOM      4  O   UNL     1      84.228  26.167  45.853  1.00  0.00    -0.285 OA
ATOM      5  C   UNL     1      82.536  24.996  44.751  1.00  0.00     0.111 A 
ATOM      6  C   UNL     1      83.345  24.445  43.711  1.00  0.00     0.134 A 
ATOM      7  C   UNL     1      82.801  23.491  42.845  1.00  0.00     0.093 A 
ATOM      8  C   UNL     1      81.457  23.115  42.939  1.00  0.00     0.123 A 
ATOM      9  C   UNL     1      80.645  23.691  43.911  1.00  0.00     0.094 A 
ATOM     10  C   UNL     1      81.169  24.620  44.814  1.00  0.00     0.146 A 
ATOM     11  O   UNL     1      80.363  25.137  45.733  1.00  0.00    -0.452 OA
ENDROOT
BRANCH   1  12
ATOM     12  C   UNL     1      79.755  26.530  47.604  1.00  0.00     0.025 A 
ATOM     13  C   UNL     1      78.873  27.564  47.244  1.00  0.00     0.016 A 
ATOM     14  C   UNL     1      77.916  28.024  48.151  1.00  0.00     0.051 A 
ATOM     15  C   UNL     1      77.814  27.453  49.423  1.00  0.00     0.157 A 
ATOM     16  C   UNL     1      79.637  25.944  48.874  1.00  0.00     0.062 A 
ATOM     17  C   UNL     1      78.676  26.405  49.787  1.00  0.00     0.158 A 
BRANCH  15  18
ATOM     18  O   UNL     1      76.850  27.934  50.307  1.00  0.00    -0.504 OA
ATOM     19  H   UNL     1      75.917  27.540  50.355  1.00  0.00     0.293 HD
ENDBRANCH  15  18
BRANCH  17  20
ATOM     20  O   UNL     1      78.576  25.825  51.051  1.00  0.00    -0.504 OA
ATOM     21  H   UNL     1      79.273  25.988  51.766  1.00  0.00     0.293 HD
ENDBRANCH  17  20
ENDBRANCH   1  12
BRANCH   2  22
ATOM     22  O   UNL     1      82.564  27.231  47.730  1.00  0.00    -0.502 OA
ATOM     23  H   UNL     1      82.449  28.236  47.692  1.00  0.00     0.293 HD
ENDBRANCH   2  22
BRANCH   6  24
ATOM     24  O   UNL     1      84.671  24.821  43.473  1.00  0.00    -0.507 OA
ATOM     25  H   UNL     1      85.204  25.449  44.055  1.00  0.00     0.293 HD
ENDBRANCH   6  24
BRANCH   8  26
ATOM     26  O   UNL     1      80.919  22.175  42.062  1.00  0.00    -0.508 OA
ATOM     27  H   UNL     1      81.228  22.112  41.098  1.00  0.00     0.293 HD
ENDBRANCH   8  26
TORSDOF 6
ENDMDL
MODEL 4
REMARK VINA RESULT:    -5.666      8.009     11.142
REMARK INTER + INTRA:          -7.119
REMARK INTER:                  -6.925
REMARK INTRA:                  -0.193
REMARK UNBOUND:                -0.293
REMARK SMILES O=c1c(O)c(-c2ccc(O)c(O)c2)oc2cc(O)cc(O)c12
REMARK SMILES IDX 5 1 3 2 2 3 1 4 22 5 20 6 19 7 17 8 16 9 15 10 14 11 6 12
REMARK SMILES IDX 7 13 8 14 9 15 13 16 11 17 10 18 12 20 4 22 21 24 18 26
REMARK H PARENT 10 19 12 21 4 23 21 25 18 27
REMARK Flexibility Score: inf
ROOT
ATOM      1  C   UNL     1      76.435  17.772  44.281  1.00  0.00     0.180 A 
ATOM      2  C   UNL     1      77.510  16.974  44.711  1.00  0.00     0.208 A 
ATOM      3  C   UNL     1      78.184  17.319  45.893  1.00  0.00     0.238 A 
ATOM      4  O   UNL     1      79.180  16.634  46.243  1.00  0.00    -0.285 OA
ATOM      5  C   UNL     1      77.765  18.448  46.639  1.00  0.00     0.111 A 
ATOM      6  C   UNL     1      78.350  18.867  47.872  1.00  0.00     0.134 A 
ATOM      7  C   UNL     1      77.941  20.071  48.456  1.00  0.00     0.093 A 
ATOM      8  C   UNL     1      76.922  20.840  47.885  1.00  0.00     0.123 A 
ATOM      9  C   UNL     1      76.305  20.409  46.714  1.00  0.00     0.094 A 
ATOM     10  C   UNL     1      76.716  19.229  46.088  1.00  0.00     0.146 A 
ATOM     11  O   UNL     1      76.108  18.860  44.967  1.00  0.00    -0.452 OA
ENDROOT
BRANCH   1  12
ATOM     12  C   UNL     1      75.660  17.457  43.059  1.00  0.00     0.025 A 
ATOM     13  C   UNL     1      74.890  16.285  42.962  1.00  0.00     0.016 A 
ATOM     14  C   UNL     1      74.148  16.020  41.809  1.00  0.00     0.051 A 
ATOM     15  C   UNL     1      74.150  16.925  40.742  1.00  0.00     0.157 A 
ATOM     16  C   UNL     1      75.644  18.374  41.996  1.00  0.00     0.062 A 
ATOM     17  C   UNL     1      74.899  18.110  40.836  1.00  0.00     0.158 A 
BRANCH  15  18
ATOM     18  O   UNL     1      73.401  16.633  39.604  1.00  0.00    -0.504 OA
ATOM     19  H   UNL     1      73.053  15.701  39.413  1.00  0.00     0.293 HD
ENDBRANCH  15  18
BRANCH  17  20
ATOM     20  O   UNL     1      74.901  19.020  39.781  1.00  0.00    -0.504 OA
ATOM     21  H   UNL     1      75.340  18.804  38.894  1.00  0.00     0.293 HD
ENDBRANCH  17  20
ENDBRANCH   1  12
BRANCH   2  22
ATOM     22  O   UNL     1      77.921  15.878  43.948  1.00  0.00    -0.502 OA
ATOM     23  H   UNL     1      78.780  15.881  43.411  1.00  0.00     0.293 HD
ENDBRANCH   2  22
BRANCH   6  24
ATOM     24  O   UNL     1      79.308  18.127  48.572  1.00  0.00    -0.507 OA
ATOM     25  H   UNL     1      79.309  17.122  48.658  1.00  0.00     0.293 HD
ENDBRANCH   6  24
BRANCH   8  26
ATOM     26  O   UNL     1      76.511  22.030  48.481  1.00  0.00    -0.508 OA
ATOM     27  H   UNL     1      76.081  22.043  49.399  1.00  0.00     0.293 HD
ENDBRANCH   8  26
TORSDOF 6
ENDMDL
MODEL 5
REMARK VINA RESULT:    -5.641      2.432      4.050
REMARK INTER + INTRA:          -7.088
REMARK INTER:                  -6.782
REMARK INTRA:                  -0.306
REMARK UNBOUND:                -0.293
REMARK SMILES O=c1c(O)c(-c2ccc(O)c(O)c2)oc2cc(O)cc(O)c12
REMARK SMILES IDX 5 1 3 2 2 3 1 4 22 5 20 6 19 7 17 8 16 9 15 10 14 11 6 12
REMARK SMILES IDX 7 13 8 14 9 15 13 16 11 17 10 18 12 20 4 22 21 24 18 26
REMARK H PARENT 10 19 12 21 4 23 21 25 18 27
REMARK Flexibility Score: inf
ROOT
ATOM      1  C   UNL     1      80.608  25.567  47.427  1.00  0.00     0.180 A 
ATOM      2  C   UNL     1      81.908  26.102  47.408  1.00  0.00     0.208 A 
ATOM      3  C   UNL     1      82.687  25.955  46.250  1.00  0.00     0.238 A 
ATOM      4  O   UNL     1      83.869  26.387  46.258  1.00  0.00    -0.285 OA
ATOM      5  C   UNL     1      82.152  25.289  45.120  1.00  0.00     0.111 A 
ATOM      6  C   UNL     1      82.839  25.118  43.880  1.00  0.00     0.134 A 
ATOM      7  C   UNL     1      82.264  24.331  42.875  1.00  0.00     0.093 A 
ATOM      8  C   UNL     1      80.998  23.762  43.042  1.00  0.00     0.123 A 
ATOM      9  C   UNL     1      80.295  23.973  44.225  1.00  0.00     0.094 A 
ATOM     10  C   UNL     1      80.858  24.724  45.260  1.00  0.00     0.146 A 
ATOM     11  O   UNL     1      80.159  24.892  46.376  1.00  0.00    -0.452 OA
ENDROOT
BRANCH   1  12
ATOM     12  C   UNL     1      79.716  25.704  48.602  1.00  0.00     0.025 A 
ATOM     13  C   UNL     1      79.613  24.685  49.565  1.00  0.00     0.016 A 
ATOM     14  C   UNL     1      78.784  24.846  50.677  1.00  0.00     0.051 A 
ATOM     15  C   UNL     1      78.057  26.028  50.854  1.00  0.00     0.157 A 
ATOM     16  C   UNL     1      79.002  26.898  48.792  1.00  0.00     0.062 A 
ATOM     17  C   UNL     1      78.168  27.061  49.909  1.00  0.00     0.158 A 
BRANCH  15  18
ATOM     18  O   UNL     1      77.237  26.159  51.973  1.00  0.00    -0.504 OA
ATOM     19  H   UNL     1      77.489  25.769  52.874  1.00  0.00     0.293 HD
ENDBRANCH  15  18
BRANCH  17  20
ATOM     20  O   UNL     1      77.453  28.245  50.081  1.00  0.00    -0.504 OA
ATOM     21  H   UNL     1      76.450  28.244  50.216  1.00  0.00     0.293 HD
ENDBRANCH  17  20
ENDBRANCH   1  12
BRANCH   2  22
ATOM     22  O   UNL     1      82.424  26.735  48.541  1.00  0.00    -0.502 OA
ATOM     23  H   UNL     1      83.115  26.300  49.140  1.00  0.00     0.293 HD
ENDBRANCH   2  22
BRANCH   6  24
ATOM     24  O   UNL     1      84.065  25.719  43.577  1.00  0.00    -0.507 OA
ATOM     25  H   UNL     1      84.965  25.365  43.866  1.00  0.00     0.293 HD
ENDBRANCH   6  24
BRANCH   8  26
ATOM     26  O   UNL     1      80.426  22.992  42.031  1.00  0.00    -0.508 OA
ATOM     27  H   UNL     1      80.033  22.077  42.219  1.00  0.00     0.293 HD
ENDBRANCH   8  26
TORSDOF 6
ENDMDL
MODEL 6
REMARK VINA RESULT:    -5.626      1.656      7.034
REMARK INTER + INTRA:          -7.071
REMARK INTER:                  -7.005
REMARK INTRA:                  -0.066
REMARK UNBOUND:                -0.293
REMARK SMILES O=c1c(O)c(-c2ccc(O)c(O)c2)oc2cc(O)cc(O)c12
REMARK SMILES IDX 5 1 3 2 2 3 1 4 22 5 20 6 19 7 17 8 16 9 15 10 14 11 6 12
REMARK SMILES IDX 7 13 8 14 9 15 13 16 11 17 10 18 12 20 4 22 21 24 18 26
REMARK H PARENT 10 19 12 21 4 23 21 25 18 27
REMARK Flexibility Score: inf
ROOT
ATOM      1  C   UNL     1      81.564  24.738  44.962  1.00  0.00     0.180 A 
ATOM      2  C   UNL     1      82.576  25.449  45.630  1.00  0.00     0.208 A 
ATOM      3  C   UNL     1      82.332  25.919  46.930  1.00  0.00     0.238 A 
ATOM      4  O   UNL     1      83.221  26.603  47.501  1.00  0.00    -0.285 OA
ATOM      5  C   UNL     1      81.087  25.658  47.552  1.00  0.00     0.111 A 
ATOM      6  C   UNL     1      80.748  26.051  48.882  1.00  0.00     0.134 A 
ATOM      7  C   UNL     1      79.443  25.854  49.348  1.00  0.00     0.093 A 
ATOM      8  C   UNL     1      78.483  25.218  48.556  1.00  0.00     0.123 A 
ATOM      9  C   UNL     1      78.822  24.777  47.280  1.00  0.00     0.094 A 
ATOM     10  C   UNL     1      80.106  24.992  46.773  1.00  0.00     0.146 A 
ATOM     11  O   UNL     1      80.385  24.565  45.547  1.00  0.00    -0.452 OA
ENDROOT
BRANCH   1  12
ATOM     12  C   UNL     1      81.754  24.189  43.599  1.00  0.00     0.025 A 
ATOM     13  C   UNL     1      82.846  23.359  43.290  1.00  0.00     0.016 A 
ATOM     14  C   UNL     1      82.992  22.833  42.005  1.00  0.00     0.051 A 
ATOM     15  C   UNL     1      82.048  23.116  41.012  1.00  0.00     0.157 A 
ATOM     16  C   UNL     1      80.797  24.455  42.607  1.00  0.00     0.062 A 
ATOM     17  C   UNL     1      80.942  23.928  41.314  1.00  0.00     0.158 A 
BRANCH  15  18
ATOM     18  O   UNL     1      82.222  22.579  39.738  1.00  0.00    -0.504 OA
ATOM     19  H   UNL     1      81.555  21.934  39.330  1.00  0.00     0.293 HD
ENDBRANCH  15  18
BRANCH  17  20
ATOM     20  O   UNL     1      79.993  24.209  40.334  1.00  0.00    -0.504 OA
ATOM     21  H   UNL     1      80.192  24.078  39.349  1.00  0.00     0.293 HD
ENDBRANCH  17  20
ENDBRANCH   1  12
BRANCH   2  22
ATOM     22  O   UNL     1      83.788  25.716  44.989  1.00  0.00    -0.502 OA
ATOM     23  H   UNL     1      84.212  26.635  44.988  1.00  0.00     0.293 HD
ENDBRANCH   2  22
BRANCH   6  24
ATOM     24  O   UNL     1      81.656  26.610  49.787  1.00  0.00    -0.507 OA
ATOM     25  H   UNL     1      82.342  27.312  49.553  1.00  0.00     0.293 HD
ENDBRANCH   6  24
BRANCH   8  26
ATOM     26  O   UNL     1      77.190  25.012  49.033  1.00  0.00    -0.508 OA
ATOM     27  H   UNL     1      76.408  25.565  48.702  1.00  0.00     0.293 HD
ENDBRANCH   8  26
TORSDOF 6
ENDMDL
MODEL 7
REMARK VINA RESULT:    -5.409      8.403      9.516
REMARK INTER + INTRA:          -6.810
REMARK INTER:                  -6.522
REMARK INTRA:                  -0.288
REMARK UNBOUND:                -0.293
REMARK SMILES O=c1c(O)c(-c2ccc(O)c(O)c2)oc2cc(O)cc(O)c12
REMARK SMILES IDX 5 1 3 2 2 3 1 4 22 5 20 6 19 7 17 8 16 9 15 10 14 11 6 12
REMARK SMILES IDX 7 13 8 14 9 15 13 16 11 17 10 18 12 20 4 22 21 24 18 26
REMARK H PARENT 10 19 12 21 4 23 21 25 18 27
REMARK Flexibility Score: inf
ROOT
ATOM      1  C   UNL     1      75.652  18.131  44.825  1.00  0.00     0.180 A 
ATOM      2  C   UNL     1      75.152  16.981  44.188  1.00  0.00     0.208 A 
ATOM      3  C   UNL     1      74.765  17.063  42.841  1.00  0.00     0.238 A 
ATOM      4  O   UNL     1      74.267  16.046  42.293  1.00  0.00    -0.285 OA
ATOM      5  C   UNL     1      74.896  18.289  42.144  1.00  0.00     0.111 A 
ATOM      6  C   UNL     1      74.572  18.475  40.766  1.00  0.00     0.134 A 
ATOM      7  C   UNL     1      74.618  19.761  40.214  1.00  0.00     0.093 A 
ATOM      8  C   UNL     1      75.040  20.857  40.973  1.00  0.00     0.123 A 
ATOM      9  C   UNL     1      75.415  20.673  42.301  1.00  0.00     0.094 A 
ATOM     10  C   UNL     1      75.345  19.409  42.891  1.00  0.00     0.146 A 
ATOM     11  O   UNL     1      75.702  19.280  44.162  1.00  0.00    -0.452 OA
ENDROOT
BRANCH   1  12
ATOM     12  C   UNL     1      76.104  18.116  46.235  1.00  0.00     0.025 A 
ATOM     13  C   UNL     1      75.187  18.158  47.299  1.00  0.00     0.016 A 
ATOM     14  C   UNL     1      75.635  18.119  48.621  1.00  0.00     0.051 A 
ATOM     15  C   UNL     1      77.002  18.025  48.902  1.00  0.00     0.157 A 
ATOM     16  C   UNL     1      77.474  18.001  46.519  1.00  0.00     0.062 A 
ATOM     17  C   UNL     1      77.928  17.963  47.847  1.00  0.00     0.158 A 
BRANCH  15  18
ATOM     18  O   UNL     1      77.420  17.990  50.231  1.00  0.00    -0.504 OA
ATOM     19  H   UNL     1      78.150  17.364  50.550  1.00  0.00     0.293 HD
ENDBRANCH  15  18
BRANCH  17  20
ATOM     20  O   UNL     1      79.290  17.862  48.119  1.00  0.00    -0.504 OA
ATOM     21  H   UNL     1      79.752  18.492  48.763  1.00  0.00     0.293 HD
ENDBRANCH  17  20
ENDBRANCH   1  12
BRANCH   2  22
ATOM     22  O   UNL     1      75.010  15.788  44.901  1.00  0.00    -0.502 OA
ATOM     23  H   UNL     1      74.353  15.067  44.629  1.00  0.00     0.293 HD
ENDBRANCH   2  22
BRANCH   6  24
ATOM     24  O   UNL     1      74.228  17.435  39.897  1.00  0.00    -0.507 OA
ATOM     25  H   UNL     1      73.782  16.575  40.178  1.00  0.00     0.293 HD
ENDBRANCH   6  24
BRANCH   8  26
ATOM     26  O   UNL     1      75.098  22.130  40.412  1.00  0.00    -0.508 OA
ATOM     27  H   UNL     1      74.360  22.479  39.810  1.00  0.00     0.293 HD
ENDBRANCH   8  26
TORSDOF 6
ENDMDL
MODEL 8
REMARK VINA RESULT:    -5.368      1.619      3.044
REMARK INTER + INTRA:          -6.760
REMARK INTER:                  -6.686
REMARK INTRA:                  -0.075
REMARK UNBOUND:                -0.293
REMARK SMILES O=c1c(O)c(-c2ccc(O)c(O)c2)oc2cc(O)cc(O)c12
REMARK SMILES IDX 5 1 3 2 2 3 1 4 22 5 20 6 19 7 17 8 16 9 15 10 14 11 6 12
REMARK SMILES IDX 7 13 8 14 9 15 13 16 11 17 10 18 12 20 4 22 21 24 18 26
REMARK H PARENT 10 19 12 21 4 23 21 25 18 27
REMARK Flexibility Score: inf
ROOT
ATOM      1  C   UNL     1      81.272  25.077  45.184  1.00  0.00     0.180 A 
ATOM      2  C   UNL     1      82.177  24.475  44.291  1.00  0.00     0.208 A 
ATOM      3  C   UNL     1      81.715  24.056  43.034  1.00  0.00     0.238 A 
ATOM      4  O   UNL     1      82.515  23.469  42.261  1.00  0.00    -0.285 OA
ATOM      5  C   UNL     1      80.359  24.258  42.678  1.00  0.00     0.111 A 
ATOM      6  C   UNL     1      79.792  23.909  41.415  1.00  0.00     0.134 A 
ATOM      7  C   UNL     1      78.412  24.034  41.219  1.00  0.00     0.093 A 
ATOM      8  C   UNL     1      77.587  24.558  42.219  1.00  0.00     0.123 A 
ATOM      9  C   UNL     1      78.140  24.957  43.433  1.00  0.00     0.094 A 
ATOM     10  C   UNL     1      79.509  24.810  43.671  1.00  0.00     0.146 A 
ATOM     11  O   UNL     1      79.993  25.193  44.846  1.00  0.00    -0.452 OA
ENDROOT
BRANCH   1  12
ATOM     12  C   UNL     1      81.690  25.568  46.518  1.00  0.00     0.025 A 
ATOM     13  C   UNL     1      82.756  26.473  46.664  1.00  0.00     0.016 A 
ATOM     14  C   UNL     1      83.117  26.941  47.929  1.00  0.00     0.051 A 
ATOM     15  C   UNL     1      82.414  26.525  49.065  1.00  0.00     0.157 A 
ATOM     16  C   UNL     1      80.972  25.169  47.657  1.00  0.00     0.062 A 
ATOM     17  C   UNL     1      81.334  25.637  48.929  1.00  0.00     0.158 A 
BRANCH  15  18
ATOM     18  O   UNL     1      82.798  27.008  50.314  1.00  0.00    -0.504 OA
ATOM     19  H   UNL     1      83.407  26.483  50.931  1.00  0.00     0.293 HD
ENDBRANCH  15  18
BRANCH  17  20
ATOM     20  O   UNL     1      80.624  25.224  50.055  1.00  0.00    -0.504 OA
ATOM     21  H   UNL     1      80.683  24.275  50.401  1.00  0.00     0.293 HD
ENDBRANCH  17  20
ENDBRANCH   1  12
BRANCH   2  22
ATOM     22  O   UNL     1      83.505  24.265  44.672  1.00  0.00    -0.502 OA
ATOM     23  H   UNL     1      84.166  23.771  44.086  1.00  0.00     0.293 HD
ENDBRANCH   2  22
BRANCH   6  24
ATOM     24  O   UNL     1      80.540  23.464  40.320  1.00  0.00    -0.507 OA
ATOM     25  H   UNL     1      81.420  22.975  40.386  1.00  0.00     0.293 HD
ENDBRANCH   6  24
BRANCH   8  26
ATOM     26  O   UNL     1      76.216  24.694  42.011  1.00  0.00    -0.508 OA
ATOM     27  H   UNL     1      75.841  25.413  41.403  1.00  0.00     0.293 HD
ENDBRANCH   8  26
TORSDOF 6
ENDMDL
