MODEL 1
REMARK VINA RESULT:    -2.906      0.000      0.000
REMARK INTER + INTRA:          -9.630
REMARK INTER:                  -6.304
REMARK INTRA:                  -3.326
REMARK UNBOUND:                -3.326
REMARK SMILES CCCCCCCCCCCCCCCCCCCCCC(=O)[O-]
REMARK SMILES IDX 12 1 11 2 10 3 9 4 8 5 7 6 6 7 5 8 4 9 3 10 2 11 1 12 13 13
REMARK SMILES IDX 14 14 15 15 16 16 17 17 18 18 19 19 20 20 21 21 22 22 23 23
REMARK SMILES IDX 24 24
REMARK H PARENT
REMARK Flexibility Score: inf
ROOT
ATOM      1  C   UNL     1       4.698  -8.985   3.534  1.00  0.00     0.000 C 
ENDROOT
BRANCH   1   2
ATOM      2  C   UNL     1       4.577 -10.515   3.517  1.00  0.00     0.000 C 
BRANCH   2   3
ATOM      3  C   UNL     1       4.484 -11.125   4.924  1.00  0.00     0.000 C 
BRANCH   3   4
ATOM      4  C   UNL     1       3.275 -10.568   5.684  1.00  0.00    -0.000 C 
BRANCH   4   5
ATOM      5  C   UNL     1       3.639 -10.237   7.138  1.00  0.00    -0.000 C 
BRANCH   5   6
ATOM      6  C   UNL     1       3.377  -8.764   7.502  1.00  0.00    -0.000 C 
BRANCH   6   7
ATOM      7  C   UNL     1       2.815  -8.528   8.919  1.00  0.00    -0.000 C 
BRANCH   7   8
ATOM      8  C   UNL     1       2.678  -9.795   9.787  1.00  0.00    -0.000 C 
BRANCH   8   9
ATOM      9  C   UNL     1       1.236 -10.308   9.956  1.00  0.00    -0.000 C 
BRANCH   9  10
ATOM     10  C   UNL     1       0.203  -9.432   9.228  1.00  0.00    -0.000 C 
BRANCH  10  11
ATOM     11  C   UNL     1      -0.745 -10.255   8.344  1.00  0.00    -0.003 C 
ATOM     12  C   UNL     1      -0.247 -10.373   6.903  1.00  0.00     0.004 C 
ENDBRANCH  10  11
ENDBRANCH   9  10
ENDBRANCH   8   9
ENDBRANCH   7   8
ENDBRANCH   6   7
ENDBRANCH   5   6
ENDBRANCH   4   5
ENDBRANCH   3   4
ENDBRANCH   2   3
ENDBRANCH   1   2
BRANCH   1  13
ATOM     13  C   UNL     1       6.128  -8.504   3.844  1.00  0.00     0.000 C 
BRANCH  13  14
ATOM     14  C   UNL     1       6.259  -7.939   5.269  1.00  0.00     0.000 C 
BRANCH  14  15
ATOM     15  C   UNL     1       7.492  -8.490   6.008  1.00  0.00     0.000 C 
BRANCH  15  16
ATOM     16  C   UNL     1       7.136  -9.598   7.013  1.00  0.00     0.000 C 
BRANCH  16  17
ATOM     17  C   UNL     1       7.606  -9.269   8.442  1.00  0.00     0.000 C 
BRANCH  17  18
ATOM     18  C   UNL     1       6.443  -9.226   9.447  1.00  0.00     0.000 C 
BRANCH  18  19
ATOM     19  C   UNL     1       6.291  -7.844  10.107  1.00  0.00     0.000 C 
BRANCH  19  20
ATOM     20  C   UNL     1       7.502  -6.932   9.859  1.00  0.00     0.006 C 
BRANCH  20  21
ATOM     21  C   UNL     1       7.117  -5.452   9.733  1.00  0.00     0.053 C 
BRANCH  21  22
ATOM     22  C   UNL     1       8.000  -4.766   8.740  1.00  0.00     0.041 C 
ATOM     23  O   UNL     1       7.597  -3.738   8.134  1.00  0.00    -0.550 OA
ATOM     24  O   UNL     1       9.250  -5.295   8.440  1.00  0.00    -0.550 OA
ENDBRANCH  21  22
ENDBRANCH  20  21
ENDBRANCH  19  20
ENDBRANCH  18  19
ENDBRANCH  17  18
ENDBRANCH  16  17
ENDBRANCH  15  16
ENDBRANCH  14  15
ENDBRANCH  13  14
ENDBRANCH   1  13
TORSDOF 20
ENDMDL
MODEL 2
REMARK VINA RESULT:    -2.849      2.179      6.211
REMARK INTER + INTRA:          -9.505
REMARK INTER:                  -6.821
REMARK INTRA:                  -2.685
REMARK UNBOUND:                -3.326
REMARK SMILES CCCCCCCCCCCCCCCCCCCCCC(=O)[O-]
REMARK SMILES IDX 12 1 11 2 10 3 9 4 8 5 7 6 6 7 5 8 4 9 3 10 2 11 1 12 13 13
REMARK SMILES IDX 14 14 15 15 16 16 17 17 18 18 19 19 20 20 21 21 22 22 23 23
REMARK SMILES IDX 24 24
REMARK H PARENT
REMARK Flexibility Score: inf
ROOT
ATOM      1  C   UNL     1       5.029  -8.654   4.067  1.00  0.00     0.000 C 
ENDROOT
BRANCH   1   2
ATOM      2  C   UNL     1       6.459  -8.103   3.967  1.00  0.00     0.000 C 
BRANCH   2   3
ATOM      3  C   UNL     1       7.233  -8.204   5.290  1.00  0.00     0.000 C 
BRANCH   3   4
ATOM      4  C   UNL     1       6.436  -7.581   6.441  1.00  0.00    -0.000 C 
BRANCH   4   5
ATOM      5  C   UNL     1       6.447  -8.490   7.678  1.00  0.00    -0.000 C 
BRANCH   5   6
ATOM      6  C   UNL     1       7.828  -9.111   7.955  1.00  0.00    -0.000 C 
BRANCH   6   7
ATOM      7  C   UNL     1       8.320  -8.996   9.412  1.00  0.00    -0.000 C 
BRANCH   7   8
ATOM      8  C   UNL     1       9.332  -7.862   9.672  1.00  0.00    -0.000 C 
BRANCH   8   9
ATOM      9  C   UNL     1       9.719  -7.045   8.425  1.00  0.00    -0.000 C 
BRANCH   9  10
ATOM     10  C   UNL     1       9.558  -5.530   8.633  1.00  0.00    -0.000 C 
BRANCH  10  11
ATOM     11  C   UNL     1       8.285  -4.980   7.975  1.00  0.00    -0.003 C 
ATOM     12  C   UNL     1       7.744  -3.742   8.692  1.00  0.00     0.004 C 
ENDBRANCH  10  11
ENDBRANCH   9  10
ENDBRANCH   8   9
ENDBRANCH   7   8
ENDBRANCH   6   7
ENDBRANCH   5   6
ENDBRANCH   4   5
ENDBRANCH   3   4
ENDBRANCH   2   3
ENDBRANCH   1   2
BRANCH   1  13
ATOM     13  C   UNL     1       4.855  -9.994   3.327  1.00  0.00     0.000 C 
BRANCH  13  14
ATOM     14  C   UNL     1       4.403 -11.125   4.266  1.00  0.00     0.000 C 
BRANCH  14  15
ATOM     15  C   UNL     1       4.941 -10.950   5.698  1.00  0.00     0.000 C 
BRANCH  15  16
ATOM     16  C   UNL     1       3.845 -11.094   6.766  1.00  0.00     0.000 C 
BRANCH  16  17
ATOM     17  C   UNL     1       2.764 -10.004   6.650  1.00  0.00     0.000 C 
BRANCH  17  18
ATOM     18  C   UNL     1       1.340 -10.578   6.732  1.00  0.00     0.000 C 
BRANCH  18  19
ATOM     19  C   UNL     1       0.589 -10.103   7.988  1.00  0.00     0.000 C 
BRANCH  19  20
ATOM     20  C   UNL     1       1.532  -9.573   9.079  1.00  0.00     0.006 C 
BRANCH  20  21
ATOM     21  C   UNL     1       1.140  -8.177   9.577  1.00  0.00     0.053 C 
BRANCH  21  22
ATOM     22  C   UNL     1       2.289  -7.229   9.431  1.00  0.00     0.041 C 
ATOM     23  O   UNL     1       3.439  -7.663   9.158  1.00  0.00    -0.550 OA
ATOM     24  O   UNL     1       2.100  -5.870   9.651  1.00  0.00    -0.550 OA
ENDBRANCH  21  22
ENDBRANCH  20  21
ENDBRANCH  19  20
ENDBRANCH  18  19
ENDBRANCH  17  18
ENDBRANCH  16  17
ENDBRANCH  15  16
ENDBRANCH  14  15
ENDBRANCH  13  14
ENDBRANCH   1  13
TORSDOF 20
ENDMDL
MODEL 3
REMARK VINA RESULT:    -2.681      3.548      7.015
REMARK INTER + INTRA:          -9.142
REMARK INTER:                  -6.483
REMARK INTRA:                  -2.658
REMARK UNBOUND:                -3.326
REMARK SMILES CCCCCCCCCCCCCCCCCCCCCC(=O)[O-]
REMARK SMILES IDX 12 1 11 2 10 3 9 4 8 5 7 6 6 7 5 8 4 9 3 10 2 11 1 12 13 13
REMARK SMILES IDX 14 14 15 15 16 16 17 17 18 18 19 19 20 20 21 21 22 22 23 23
REMARK SMILES IDX 24 24
REMARK H PARENT
REMARK Flexibility Score: inf
ROOT
ATOM      1  C   UNL     1       5.697  -8.392   5.774  1.00  0.00     0.000 C 
ENDROOT
BRANCH   1   2
ATOM      2  C   UNL     1       7.228  -8.295   5.852  1.00  0.00     0.000 C 
BRANCH   2   3
ATOM      3  C   UNL     1       7.802  -8.905   7.140  1.00  0.00     0.000 C 
BRANCH   3   4
ATOM      4  C   UNL     1       9.334  -8.863   7.131  1.00  0.00    -0.000 C 
BRANCH   4   5
ATOM      5  C   UNL     1       9.894  -8.809   8.559  1.00  0.00    -0.000 C 
BRANCH   5   6
ATOM      6  C   UNL     1       9.476  -7.539   9.322  1.00  0.00    -0.000 C 
BRANCH   6   7
ATOM      7  C   UNL     1       9.756  -6.211   8.589  1.00  0.00    -0.000 C 
BRANCH   7   8
ATOM      8  C   UNL     1       8.694  -5.113   8.799  1.00  0.00    -0.000 C 
BRANCH   8   9
ATOM      9  C   UNL     1       7.250  -5.542   8.477  1.00  0.00    -0.000 C 
BRANCH   9  10
ATOM     10  C   UNL     1       6.373  -5.670   9.733  1.00  0.00    -0.000 C 
BRANCH  10  11
ATOM     11  C   UNL     1       5.328  -6.788   9.608  1.00  0.00    -0.003 C 
ATOM     12  C   UNL     1       5.853  -8.138  10.100  1.00  0.00     0.004 C 
ENDBRANCH  10  11
ENDBRANCH   9  10
ENDBRANCH   8   9
ENDBRANCH   7   8
ENDBRANCH   6   7
ENDBRANCH   5   6
ENDBRANCH   4   5
ENDBRANCH   3   4
ENDBRANCH   2   3
ENDBRANCH   1   2
BRANCH   1  13
ATOM     13  C   UNL     1       5.219  -9.448   4.761  1.00  0.00     0.000 C 
BRANCH  13  14
ATOM     14  C   UNL     1       4.891 -10.793   5.430  1.00  0.00     0.000 C 
BRANCH  14  15
ATOM     15  C   UNL     1       3.477 -10.817   6.040  1.00  0.00     0.000 C 
BRANCH  15  16
ATOM     16  C   UNL     1       3.474 -10.497   7.544  1.00  0.00     0.000 C 
BRANCH  16  17
ATOM     17  C   UNL     1       3.053  -9.046   7.836  1.00  0.00     0.000 C 
BRANCH  17  18
ATOM     18  C   UNL     1       1.687  -8.961   8.539  1.00  0.00     0.000 C 
BRANCH  18  19
ATOM     19  C   UNL     1       1.537 -10.013   9.652  1.00  0.00     0.000 C 
BRANCH  19  20
ATOM     20  C   UNL     1       0.205 -10.775   9.572  1.00  0.00     0.006 C 
BRANCH  20  21
ATOM     21  C   UNL     1      -0.806 -10.109   8.631  1.00  0.00     0.053 C 
BRANCH  21  22
ATOM     22  C   UNL     1      -1.867  -9.408   9.418  1.00  0.00     0.041 C 
ATOM     23  O   UNL     1      -1.577  -8.407  10.125  1.00  0.00    -0.550 OA
ATOM     24  O   UNL     1      -3.169  -9.894   9.415  1.00  0.00    -0.550 OA
ENDBRANCH  21  22
ENDBRANCH  20  21
ENDBRANCH  19  20
ENDBRANCH  18  19
ENDBRANCH  17  18
ENDBRANCH  16  17
ENDBRANCH  15  16
ENDBRANCH  14  15
ENDBRANCH  13  14
ENDBRANCH   1  13
TORSDOF 20
ENDMDL
MODEL 4
REMARK VINA RESULT:    -2.571      3.230      6.496
REMARK INTER + INTRA:          -8.902
REMARK INTER:                  -6.449
REMARK INTRA:                  -2.453
REMARK UNBOUND:                -3.326
REMARK SMILES CCCCCCCCCCCCCCCCCCCCCC(=O)[O-]
REMARK SMILES IDX 12 1 11 2 10 3 9 4 8 5 7 6 6 7 5 8 4 9 3 10 2 11 1 12 13 13
REMARK SMILES IDX 14 14 15 15 16 16 17 17 18 18 19 19 20 20 21 21 22 22 23 23
REMARK SMILES IDX 24 24
REMARK H PARENT
REMARK Flexibility Score: inf
ROOT
ATOM      1  C   UNL     1       3.991  -9.689   3.654  1.00  0.00     0.000 C 
ENDROOT
BRANCH   1   2
ATOM      2  C   UNL     1       5.324  -9.376   2.958  1.00  0.00     0.000 C 
BRANCH   2   3
ATOM      3  C   UNL     1       6.113  -8.255   3.653  1.00  0.00     0.000 C 
BRANCH   3   4
ATOM      4  C   UNL     1       6.022  -8.385   5.177  1.00  0.00    -0.000 C 
BRANCH   4   5
ATOM      5  C   UNL     1       7.386  -8.135   5.836  1.00  0.00    -0.000 C 
BRANCH   5   6
ATOM      6  C   UNL     1       7.653  -9.063   7.035  1.00  0.00    -0.000 C 
BRANCH   6   7
ATOM      7  C   UNL     1       9.020  -8.870   7.724  1.00  0.00    -0.000 C 
BRANCH   7   8
ATOM      8  C   UNL     1       9.059  -7.771   8.804  1.00  0.00    -0.000 C 
BRANCH   8   9
ATOM      9  C   UNL     1       7.824  -7.726   9.723  1.00  0.00    -0.000 C 
BRANCH   9  10
ATOM     10  C   UNL     1       7.160  -6.340   9.762  1.00  0.00    -0.000 C 
BRANCH  10  11
ATOM     11  C   UNL     1       7.105  -5.677   8.378  1.00  0.00    -0.003 C 
ATOM     12  C   UNL     1       7.919  -4.383   8.315  1.00  0.00     0.004 C 
ENDBRANCH  10  11
ENDBRANCH   9  10
ENDBRANCH   8   9
ENDBRANCH   7   8
ENDBRANCH   6   7
ENDBRANCH   5   6
ENDBRANCH   4   5
ENDBRANCH   3   4
ENDBRANCH   2   3
ENDBRANCH   1   2
BRANCH   1  13
ATOM     13  C   UNL     1       3.959 -11.099   4.272  1.00  0.00     0.000 C 
BRANCH  13  14
ATOM     14  C   UNL     1       4.507 -11.119   5.709  1.00  0.00     0.000 C 
BRANCH  14  15
ATOM     15  C   UNL     1       3.465 -10.652   6.742  1.00  0.00     0.000 C 
BRANCH  15  16
ATOM     16  C   UNL     1       4.101  -9.938   7.946  1.00  0.00     0.000 C 
BRANCH  16  17
ATOM     17  C   UNL     1       3.815  -8.425   7.951  1.00  0.00     0.000 C 
BRANCH  17  18
ATOM     18  C   UNL     1       3.244  -7.941   9.295  1.00  0.00     0.000 C 
BRANCH  18  19
ATOM     19  C   UNL     1       2.459  -9.043  10.028  1.00  0.00     0.000 C 
BRANCH  19  20
ATOM     20  C   UNL     1       0.975  -9.078   9.632  1.00  0.00     0.006 C 
BRANCH  20  21
ATOM     21  C   UNL     1       0.570 -10.396   8.961  1.00  0.00     0.053 C 
BRANCH  21  22
ATOM     22  C   UNL     1      -0.502 -10.156   7.945  1.00  0.00     0.041 C 
ATOM     23  O   UNL     1      -0.223 -10.146   6.717  1.00  0.00    -0.550 OA
ATOM     24  O   UNL     1      -1.801  -9.886   8.357  1.00  0.00    -0.550 OA
ENDBRANCH  21  22
ENDBRANCH  20  21
ENDBRANCH  19  20
ENDBRANCH  18  19
ENDBRANCH  17  18
ENDBRANCH  16  17
ENDBRANCH  15  16
ENDBRANCH  14  15
ENDBRANCH  13  14
ENDBRANCH   1  13
TORSDOF 20
ENDMDL
MODEL 5
REMARK VINA RESULT:    -2.552      1.485      2.267
REMARK INTER + INTRA:          -8.861
REMARK INTER:                  -5.768
REMARK INTRA:                  -3.093
REMARK UNBOUND:                -3.326
REMARK SMILES CCCCCCCCCCCCCCCCCCCCCC(=O)[O-]
REMARK SMILES IDX 12 1 11 2 10 3 9 4 8 5 7 6 6 7 5 8 4 9 3 10 2 11 1 12 13 13
REMARK SMILES IDX 14 14 15 15 16 16 17 17 18 18 19 19 20 20 21 21 22 22 23 23
REMARK SMILES IDX 24 24
REMARK H PARENT
REMARK Flexibility Score: inf
ROOT
ATOM      1  C   UNL     1       4.569  -9.744   3.011  1.00  0.00     0.000 C 
ENDROOT
BRANCH   1   2
ATOM      2  C   UNL     1       3.261 -10.428   3.437  1.00  0.00     0.000 C 
BRANCH   2   3
ATOM      3  C   UNL     1       3.366 -11.124   4.803  1.00  0.00     0.000 C 
BRANCH   3   4
ATOM      4  C   UNL     1       2.418 -10.479   5.819  1.00  0.00    -0.000 C 
BRANCH   4   5
ATOM      5  C   UNL     1       2.865 -10.774   7.258  1.00  0.00    -0.000 C 
BRANCH   5   6
ATOM      6  C   UNL     1       4.182 -10.071   7.634  1.00  0.00    -0.000 C 
BRANCH   6   7
ATOM      7  C   UNL     1       4.653 -10.291   9.086  1.00  0.00    -0.000 C 
BRANCH   7   8
ATOM      8  C   UNL     1       5.035  -9.007   9.850  1.00  0.00    -0.000 C 
BRANCH   8   9
ATOM      9  C   UNL     1       4.624  -7.696   9.154  1.00  0.00    -0.000 C 
BRANCH   9  10
ATOM     10  C   UNL     1       3.446  -6.996   9.852  1.00  0.00    -0.000 C 
BRANCH  10  11
ATOM     11  C   UNL     1       2.140  -7.109   9.053  1.00  0.00    -0.003 C 
ATOM     12  C   UNL     1       1.259  -8.265   9.530  1.00  0.00     0.004 C 
ENDBRANCH  10  11
ENDBRANCH   9  10
ENDBRANCH   8   9
ENDBRANCH   7   8
ENDBRANCH   6   7
ENDBRANCH   5   6
ENDBRANCH   4   5
ENDBRANCH   3   4
ENDBRANCH   2   3
ENDBRANCH   1   2
BRANCH   1  13
ATOM     13  C   UNL     1       5.356  -9.170   4.204  1.00  0.00     0.000 C 
BRANCH  13  14
ATOM     14  C   UNL     1       6.334  -8.063   3.780  1.00  0.00     0.000 C 
BRANCH  14  15
ATOM     15  C   UNL     1       7.427  -7.808   4.835  1.00  0.00     0.000 C 
BRANCH  15  16
ATOM     16  C   UNL     1       7.155  -8.538   6.159  1.00  0.00     0.000 C 
BRANCH  16  17
ATOM     17  C   UNL     1       8.441  -8.785   6.970  1.00  0.00     0.000 C 
BRANCH  17  18
ATOM     18  C   UNL     1       8.218  -9.752   8.145  1.00  0.00     0.000 C 
BRANCH  18  19
ATOM     19  C   UNL     1       8.886  -9.261   9.441  1.00  0.00     0.000 C 
BRANCH  19  20
ATOM     20  C   UNL     1       9.247  -7.769   9.394  1.00  0.00     0.006 C 
BRANCH  20  21
ATOM     21  C   UNL     1       8.087  -6.863   9.823  1.00  0.00     0.053 C 
BRANCH  21  22
ATOM     22  C   UNL     1       8.058  -5.621   8.989  1.00  0.00     0.041 C 
ATOM     23  O   UNL     1       6.997  -4.951   8.883  1.00  0.00    -0.550 OA
ATOM     24  O   UNL     1       9.189  -5.235   8.280  1.00  0.00    -0.550 OA
ENDBRANCH  21  22
ENDBRANCH  20  21
ENDBRANCH  19  20
ENDBRANCH  18  19
ENDBRANCH  17  18
ENDBRANCH  16  17
ENDBRANCH  15  16
ENDBRANCH  14  15
ENDBRANCH  13  14
ENDBRANCH   1  13
TORSDOF 20
ENDMDL
MODEL 6
REMARK VINA RESULT:    -2.412      1.348      2.705
REMARK INTER + INTRA:          -8.559
REMARK INTER:                  -5.757
REMARK INTRA:                  -2.801
REMARK UNBOUND:                -3.326
REMARK SMILES CCCCCCCCCCCCCCCCCCCCCC(=O)[O-]
REMARK SMILES IDX 12 1 11 2 10 3 9 4 8 5 7 6 6 7 5 8 4 9 3 10 2 11 1 12 13 13
REMARK SMILES IDX 14 14 15 15 16 16 17 17 18 18 19 19 20 20 21 21 22 22 23 23
REMARK SMILES IDX 24 24
REMARK H PARENT
REMARK Flexibility Score: inf
ROOT
ATOM      1  C   UNL     1       4.904  -9.879   3.398  1.00  0.00     0.000 C 
ENDROOT
BRANCH   1   2
ATOM      2  C   UNL     1       4.425 -10.876   4.463  1.00  0.00     0.000 C 
BRANCH   2   3
ATOM      3  C   UNL     1       3.785 -10.192   5.680  1.00  0.00     0.000 C 
BRANCH   3   4
ATOM      4  C   UNL     1       2.784 -11.125   6.370  1.00  0.00    -0.000 C 
BRANCH   4   5
ATOM      5  C   UNL     1       1.392 -10.483   6.449  1.00  0.00    -0.000 C 
BRANCH   5   6
ATOM      6  C   UNL     1       1.244  -9.513   7.635  1.00  0.00    -0.000 C 
BRANCH   6   7
ATOM      7  C   UNL     1       1.301 -10.168   9.030  1.00  0.00    -0.000 C 
BRANCH   7   8
ATOM      8  C   UNL     1       2.512  -9.761   9.894  1.00  0.00    -0.000 C 
BRANCH   8   9
ATOM      9  C   UNL     1       3.341  -8.592   9.330  1.00  0.00    -0.000 C 
BRANCH   9  10
ATOM     10  C   UNL     1       4.856  -8.832   9.437  1.00  0.00    -0.000 C 
BRANCH  10  11
ATOM     11  C   UNL     1       5.194 -10.262   9.882  1.00  0.00    -0.003 C 
ATOM     12  C   UNL     1       5.726 -11.123   8.735  1.00  0.00     0.004 C 
ENDBRANCH  10  11
ENDBRANCH   9  10
ENDBRANCH   8   9
ENDBRANCH   7   8
ENDBRANCH   6   7
ENDBRANCH   5   6
ENDBRANCH   4   5
ENDBRANCH   3   4
ENDBRANCH   2   3
ENDBRANCH   1   2
BRANCH   1  13
ATOM     13  C   UNL     1       5.132  -8.466   3.965  1.00  0.00     0.000 C 
BRANCH  13  14
ATOM     14  C   UNL     1       6.613  -8.054   3.932  1.00  0.00     0.000 C 
BRANCH  14  15
ATOM     15  C   UNL     1       7.175  -7.768   5.336  1.00  0.00     0.000 C 
BRANCH  15  16
ATOM     16  C   UNL     1       7.208  -9.019   6.228  1.00  0.00     0.000 C 
BRANCH  16  17
ATOM     17  C   UNL     1       8.455  -9.066   7.131  1.00  0.00     0.000 C 
BRANCH  17  18
ATOM     18  C   UNL     1       8.378  -8.057   8.290  1.00  0.00     0.000 C 
BRANCH  18  19
ATOM     19  C   UNL     1       9.742  -7.413   8.595  1.00  0.00     0.000 C 
BRANCH  19  20
ATOM     20  C   UNL     1       9.760  -5.902   8.319  1.00  0.00     0.006 C 
BRANCH  20  21
ATOM     21  C   UNL     1       8.906  -5.106   9.314  1.00  0.00     0.053 C 
BRANCH  21  22
ATOM     22  C   UNL     1       7.671  -4.591   8.646  1.00  0.00     0.041 C 
ATOM     23  O   UNL     1       7.626  -3.406   8.221  1.00  0.00    -0.550 OA
ATOM     24  O   UNL     1       6.548  -5.402   8.542  1.00  0.00    -0.550 OA
ENDBRANCH  21  22
ENDBRANCH  20  21
ENDBRANCH  19  20
ENDBRANCH  18  19
ENDBRANCH  17  18
ENDBRANCH  16  17
ENDBRANCH  15  16
ENDBRANCH  14  15
ENDBRANCH  13  14
ENDBRANCH   1  13
TORSDOF 20
ENDMDL
MODEL 7
REMARK VINA RESULT:    -2.388      3.376      6.951
REMARK INTER + INTRA:          -8.506
REMARK INTER:                  -6.105
REMARK INTRA:                  -2.401
REMARK UNBOUND:                -3.326
REMARK SMILES CCCCCCCCCCCCCCCCCCCCCC(=O)[O-]
REMARK SMILES IDX 12 1 11 2 10 3 9 4 8 5 7 6 6 7 5 8 4 9 3 10 2 11 1 12 13 13
REMARK SMILES IDX 14 14 15 15 16 16 17 17 18 18 19 19 20 20 21 21 22 22 23 23
REMARK SMILES IDX 24 24
REMARK H PARENT
REMARK Flexibility Score: inf
ROOT
ATOM      1  C   UNL     1       5.101  -8.645   3.379  1.00  0.00     0.000 C 
ENDROOT
BRANCH   1   2
ATOM      2  C   UNL     1       6.376  -8.580   4.232  1.00  0.00     0.000 C 
BRANCH   2   3
ATOM      3  C   UNL     1       6.209  -7.722   5.496  1.00  0.00     0.000 C 
BRANCH   3   4
ATOM      4  C   UNL     1       7.183  -8.165   6.592  1.00  0.00    -0.000 C 
BRANCH   4   5
ATOM      5  C   UNL     1       6.523  -8.106   7.977  1.00  0.00    -0.000 C 
BRANCH   5   6
ATOM      6  C   UNL     1       7.000  -9.227   8.918  1.00  0.00    -0.000 C 
BRANCH   6   7
ATOM      7  C   UNL     1       8.044  -8.800   9.971  1.00  0.00    -0.000 C 
BRANCH   7   8
ATOM      8  C   UNL     1       8.416  -7.303   9.953  1.00  0.00    -0.000 C 
BRANCH   8   9
ATOM      9  C   UNL     1       9.659  -6.958   9.114  1.00  0.00    -0.000 C 
BRANCH   9  10
ATOM     10  C   UNL     1       9.744  -5.463   8.763  1.00  0.00    -0.000 C 
BRANCH  10  11
ATOM     11  C   UNL     1       8.517  -4.973   7.982  1.00  0.00    -0.003 C 
ATOM     12  C   UNL     1       7.721  -3.914   8.746  1.00  0.00     0.004 C 
ENDBRANCH  10  11
ENDBRANCH   9  10
ENDBRANCH   8   9
ENDBRANCH   7   8
ENDBRANCH   6   7
ENDBRANCH   5   6
ENDBRANCH   4   5
ENDBRANCH   3   4
ENDBRANCH   2   3
ENDBRANCH   1   2
BRANCH   1  13
ATOM     13  C   UNL     1       4.399 -10.013   3.460  1.00  0.00     0.000 C 
BRANCH  13  14
ATOM     14  C   UNL     1       4.527 -10.653   4.853  1.00  0.00     0.000 C 
BRANCH  14  15
ATOM     15  C   UNL     1       3.171 -11.122   5.411  1.00  0.00     0.000 C 
BRANCH  15  16
ATOM     16  C   UNL     1       2.966 -10.729   6.883  1.00  0.00     0.000 C 
BRANCH  16  17
ATOM     17  C   UNL     1       3.259  -9.239   7.140  1.00  0.00     0.000 C 
BRANCH  17  18
ATOM     18  C   UNL     1       2.608  -8.728   8.437  1.00  0.00     0.000 C 
BRANCH  18  19
ATOM     19  C   UNL     1       2.584  -9.801   9.540  1.00  0.00     0.000 C 
BRANCH  19  20
ATOM     20  C   UNL     1       1.160 -10.253   9.898  1.00  0.00     0.006 C 
BRANCH  20  21
ATOM     21  C   UNL     1       0.081  -9.311   9.349  1.00  0.00     0.053 C 
BRANCH  21  22
ATOM     22  C   UNL     1      -0.897 -10.071   8.511  1.00  0.00     0.041 C 
ATOM     23  O   UNL     1      -0.668 -10.270   7.289  1.00  0.00    -0.550 OA
ATOM     24  O   UNL     1      -2.092 -10.513   9.067  1.00  0.00    -0.550 OA
ENDBRANCH  21  22
ENDBRANCH  20  21
ENDBRANCH  19  20
ENDBRANCH  18  19
ENDBRANCH  17  18
ENDBRANCH  16  17
ENDBRANCH  15  16
ENDBRANCH  14  15
ENDBRANCH  13  14
ENDBRANCH   1  13
TORSDOF 20
ENDMDL
MODEL 8
REMARK VINA RESULT:    -2.312      3.897      7.728
REMARK INTER + INTRA:          -8.341
REMARK INTER:                  -6.460
REMARK INTRA:                  -1.881
REMARK UNBOUND:                -3.326
REMARK SMILES CCCCCCCCCCCCCCCCCCCCCC(=O)[O-]
REMARK SMILES IDX 12 1 11 2 10 3 9 4 8 5 7 6 6 7 5 8 4 9 3 10 2 11 1 12 13 13
REMARK SMILES IDX 14 14 15 15 16 16 17 17 18 18 19 19 20 20 21 21 22 22 23 23
REMARK SMILES IDX 24 24
REMARK H PARENT
REMARK Flexibility Score: inf
ROOT
ATOM      1  C   UNL     1       4.557 -10.530   4.986  1.00  0.00     0.000 C 
ENDROOT
BRANCH   1   2
ATOM      2  C   UNL     1       5.427 -11.046   6.142  1.00  0.00     0.000 C 
BRANCH   2   3
ATOM      3  C   UNL     1       5.851  -9.935   7.115  1.00  0.00     0.000 C 
BRANCH   3   4
ATOM      4  C   UNL     1       5.881  -8.574   6.412  1.00  0.00    -0.000 C 
BRANCH   4   5
ATOM      5  C   UNL     1       7.165  -7.804   6.751  1.00  0.00    -0.000 C 
BRANCH   5   6
ATOM      6  C   UNL     1       8.397  -8.717   6.879  1.00  0.00    -0.000 C 
BRANCH   6   7
ATOM      7  C   UNL     1       9.508  -8.195   7.813  1.00  0.00    -0.000 C 
BRANCH   7   8
ATOM      8  C   UNL     1       9.066  -7.921   9.265  1.00  0.00    -0.000 C 
BRANCH   8   9
ATOM      9  C   UNL     1       9.338  -6.489   9.763  1.00  0.00    -0.000 C 
BRANCH   9  10
ATOM     10  C   UNL     1       9.551  -5.490   8.613  1.00  0.00    -0.000 C 
BRANCH  10  11
ATOM     11  C   UNL     1       8.228  -4.991   8.016  1.00  0.00    -0.003 C 
ATOM     12  C   UNL     1       7.880  -3.571   8.465  1.00  0.00     0.004 C 
ENDBRANCH  10  11
ENDBRANCH   9  10
ENDBRANCH   8   9
ENDBRANCH   7   8
ENDBRANCH   6   7
ENDBRANCH   5   6
ENDBRANCH   4   5
ENDBRANCH   3   4
ENDBRANCH   2   3
ENDBRANCH   1   2
BRANCH   1  13
ATOM     13  C   UNL     1       3.082 -10.950   5.119  1.00  0.00     0.000 C 
BRANCH  13  14
ATOM     14  C   UNL     1       2.574 -10.851   6.567  1.00  0.00     0.000 C 
BRANCH  14  15
ATOM     15  C   UNL     1       1.851  -9.521   6.847  1.00  0.00     0.000 C 
BRANCH  15  16
ATOM     16  C   UNL     1       2.336  -8.842   8.138  1.00  0.00     0.000 C 
BRANCH  16  17
ATOM     17  C   UNL     1       2.476  -9.834   9.307  1.00  0.00     0.000 C 
BRANCH  17  18
ATOM     18  C   UNL     1       1.159 -10.023  10.078  1.00  0.00     0.000 C 
BRANCH  18  19
ATOM     19  C   UNL     1       0.276 -11.124   9.465  1.00  0.00     0.000 C 
BRANCH  19  20
ATOM     20  C   UNL     1      -1.217 -10.763   9.477  1.00  0.00     0.006 C 
BRANCH  20  21
ATOM     21  C   UNL     1      -1.495  -9.400  10.124  1.00  0.00     0.053 C 
BRANCH  21  22
ATOM     22  C   UNL     1      -2.937  -9.033   9.970  1.00  0.00     0.041 C 
ATOM     23  O   UNL     1      -3.794  -9.919   9.712  1.00  0.00    -0.550 OA
ATOM     24  O   UNL     1      -3.328  -7.703  10.056  1.00  0.00    -0.550 OA
ENDBRANCH  21  22
ENDBRANCH  20  21
ENDBRANCH  19  20
ENDBRANCH  18  19
ENDBRANCH  17  18
ENDBRANCH  16  17
ENDBRANCH  15  16
ENDBRANCH  14  15
ENDBRANCH  13  14
ENDBRANCH   1  13
TORSDOF 20
ENDMDL
MODEL 9
REMARK VINA RESULT:    -2.262     16.060     19.013
REMARK INTER + INTRA:          -8.232
REMARK INTER:                  -6.119
REMARK INTRA:                  -2.113
REMARK UNBOUND:                -3.326
REMARK SMILES CCCCCCCCCCCCCCCCCCCCCC(=O)[O-]
REMARK SMILES IDX 12 1 11 2 10 3 9 4 8 5 7 6 6 7 5 8 4 9 3 10 2 11 1 12 13 13
REMARK SMILES IDX 14 14 15 15 16 16 17 17 18 18 19 19 20 20 21 21 22 22 23 23
REMARK SMILES IDX 24 24
REMARK H PARENT
REMARK Flexibility Score: inf
ROOT
ATOM      1  C   UNL     1      -3.392  -9.280  -6.875  1.00  0.00     0.000 C 
ENDROOT
BRANCH   1   2
ATOM      2  C   UNL     1      -4.340  -8.075  -6.957  1.00  0.00     0.000 C 
BRANCH   2   3
ATOM      3  C   UNL     1      -5.754  -8.389  -6.443  1.00  0.00     0.000 C 
BRANCH   3   4
ATOM      4  C   UNL     1      -5.700  -9.040  -5.057  1.00  0.00    -0.000 C 
BRANCH   4   5
ATOM      5  C   UNL     1      -6.438 -10.385  -5.048  1.00  0.00    -0.000 C 
BRANCH   5   6
ATOM      6  C   UNL     1      -7.961 -10.236  -5.216  1.00  0.00    -0.000 C 
BRANCH   6   7
ATOM      7  C   UNL     1      -8.645  -9.296  -4.202  1.00  0.00    -0.000 C 
BRANCH   7   8
ATOM      8  C   UNL     1      -9.892  -9.880  -3.508  1.00  0.00    -0.000 C 
BRANCH   8   9
ATOM      9  C   UNL     1      -9.608 -10.619  -2.187  1.00  0.00    -0.000 C 
BRANCH   9  10
ATOM     10  C   UNL     1      -8.155 -10.454  -1.714  1.00  0.00    -0.000 C 
BRANCH  10  11
ATOM     11  C   UNL     1      -7.900 -11.125  -0.356  1.00  0.00    -0.003 C 
ATOM     12  C   UNL     1      -8.866 -10.641   0.727  1.00  0.00     0.004 C 
ENDBRANCH  10  11
ENDBRANCH   9  10
ENDBRANCH   8   9
ENDBRANCH   7   8
ENDBRANCH   6   7
ENDBRANCH   5   6
ENDBRANCH   4   5
ENDBRANCH   3   4
ENDBRANCH   2   3
ENDBRANCH   1   2
BRANCH   1  13
ATOM     13  C   UNL     1      -2.812  -9.676  -8.245  1.00  0.00     0.000 C 
BRANCH  13  14
ATOM     14  C   UNL     1      -3.656 -10.752  -8.948  1.00  0.00     0.000 C 
BRANCH  14  15
ATOM     15  C   UNL     1      -5.078 -10.856  -8.366  1.00  0.00     0.000 C 
BRANCH  15  16
ATOM     16  C   UNL     1      -6.155 -11.003  -9.454  1.00  0.00     0.000 C 
BRANCH  16  17
ATOM     17  C   UNL     1      -6.515  -9.659 -10.111  1.00  0.00     0.000 C 
BRANCH  17  18
ATOM     18  C   UNL     1      -8.006  -9.312  -9.961  1.00  0.00     0.000 C 
BRANCH  18  19
ATOM     19  C   UNL     1      -8.600  -9.845  -8.645  1.00  0.00     0.000 C 
BRANCH  19  20
ATOM     20  C   UNL     1      -9.921  -9.158  -8.268  1.00  0.00     0.006 C 
BRANCH  20  21
ATOM     21  C   UNL     1      -9.929  -7.661  -8.604  1.00  0.00     0.053 C 
BRANCH  21  22
ATOM     22  C   UNL     1      -9.356  -6.870  -7.471  1.00  0.00     0.041 C 
ATOM     23  O   UNL     1     -10.050  -6.627  -6.450  1.00  0.00    -0.550 OA
ATOM     24  O   UNL     1      -8.070  -6.351  -7.568  1.00  0.00    -0.550 OA
ENDBRANCH  21  22
ENDBRANCH  20  21
ENDBRANCH  19  20
ENDBRANCH  18  19
ENDBRANCH  17  18
ENDBRANCH  16  17
ENDBRANCH  15  16
ENDBRANCH  14  15
ENDBRANCH  13  14
ENDBRANCH   1  13
TORSDOF 20
ENDMDL
