MODEL 1
REMARK VINA RESULT:    -4.929      0.000      0.000
REMARK INTER + INTRA:          -9.612
REMARK INTER:                  -8.386
REMARK INTRA:                  -1.226
REMARK UNBOUND:                -1.226
REMARK SMILES CCCCCCCCCCCCCC(=O)[O-]
REMARK SMILES IDX 8 1 9 2 10 3 11 4 12 5 13 6 14 7 15 8 16 9 7 10 6 11 5 12
REMARK SMILES IDX 4 13 3 14 2 15 1 16
REMARK H PARENT
REMARK Flexibility Score: inf
ROOT
ATOM      1  C   UNL     1      25.124  11.556  31.175  1.00  0.00     0.000 C 
ENDROOT
BRANCH   1   2
ATOM      2  C   UNL     1      24.214  11.545  32.423  1.00  0.00     0.000 C 
BRANCH   2   3
ATOM      3  C   UNL     1      25.012  11.690  33.729  1.00  0.00     0.000 C 
BRANCH   3   4
ATOM      4  C   UNL     1      24.190  12.320  34.867  1.00  0.00     0.000 C 
BRANCH   4   5
ATOM      5  C   UNL     1      22.755  12.739  34.483  1.00  0.00     0.006 C 
BRANCH   5   6
ATOM      6  C   UNL     1      21.694  12.434  35.553  1.00  0.00     0.053 C 
BRANCH   6   7
ATOM      7  C   UNL     1      20.435  13.215  35.333  1.00  0.00     0.041 C 
ATOM      8  O   UNL     1      19.381  12.905  35.947  1.00  0.00    -0.550 OA
ATOM      9  O   UNL     1      20.436  14.308  34.475  1.00  0.00    -0.550 OA
ENDBRANCH   6   7
ENDBRANCH   5   6
ENDBRANCH   4   5
ENDBRANCH   3   4
ENDBRANCH   2   3
ENDBRANCH   1   2
BRANCH   1  10
ATOM     10  C   UNL     1      26.135  10.394  31.135  1.00  0.00     0.000 C 
BRANCH  10  11
ATOM     11  C   UNL     1      27.572  10.794  30.748  1.00  0.00    -0.000 C 
BRANCH  11  12
ATOM     12  C   UNL     1      27.747  12.268  30.340  1.00  0.00    -0.000 C 
BRANCH  12  13
ATOM     13  C   UNL     1      28.727  13.029  31.244  1.00  0.00    -0.000 C 
BRANCH  13  14
ATOM     14  C   UNL     1      28.444  12.742  32.726  1.00  0.00    -0.000 C 
BRANCH  14  15
ATOM     15  C   UNL     1      27.647  13.867  33.404  1.00  0.00    -0.003 C 
ATOM     16  C   UNL     1      27.808  13.874  34.924  1.00  0.00     0.004 C 
ENDBRANCH  14  15
ENDBRANCH  13  14
ENDBRANCH  12  13
ENDBRANCH  11  12
ENDBRANCH  10  11
ENDBRANCH   1  10
TORSDOF 12
ENDMDL
MODEL 2
REMARK VINA RESULT:    -4.877      1.172      3.009
REMARK INTER + INTRA:          -9.525
REMARK INTER:                  -8.238
REMARK INTRA:                  -1.287
REMARK UNBOUND:                -1.226
REMARK SMILES CCCCCCCCCCCCCC(=O)[O-]
REMARK SMILES IDX 8 1 9 2 10 3 11 4 12 5 13 6 14 7 15 8 16 9 7 10 6 11 5 12
REMARK SMILES IDX 4 13 3 14 2 15 1 16
REMARK H PARENT
REMARK Flexibility Score: inf
ROOT
ATOM      1  C   UNL     1      27.545  13.289  34.588  1.00  0.00     0.000 C 
ENDROOT
BRANCH   1   2
ATOM      2  C   UNL     1      27.251  11.783  34.763  1.00  0.00     0.000 C 
BRANCH   2   3
ATOM      3  C   UNL     1      25.750  11.494  34.924  1.00  0.00     0.000 C 
BRANCH   3   4
ATOM      4  C   UNL     1      24.997  12.623  35.652  1.00  0.00     0.000 C 
BRANCH   4   5
ATOM      5  C   UNL     1      23.463  12.469  35.686  1.00  0.00     0.006 C 
BRANCH   5   6
ATOM      6  C   UNL     1      22.777  12.604  34.317  1.00  0.00     0.053 C 
BRANCH   6   7
ATOM      7  C   UNL     1      21.285  12.630  34.437  1.00  0.00     0.041 C 
ATOM      8  O   UNL     1      20.579  11.860  33.735  1.00  0.00    -0.550 OA
ATOM      9  O   UNL     1      20.675  13.482  35.350  1.00  0.00    -0.550 OA
ENDBRANCH   6   7
ENDBRANCH   5   6
ENDBRANCH   4   5
ENDBRANCH   3   4
ENDBRANCH   2   3
ENDBRANCH   1   2
BRANCH   1  10
ATOM     10  C   UNL     1      27.680  13.726  33.116  1.00  0.00     0.000 C 
BRANCH  10  11
ATOM     11  C   UNL     1      28.606  12.844  32.257  1.00  0.00    -0.000 C 
BRANCH  11  12
ATOM     12  C   UNL     1      28.382  12.955  30.738  1.00  0.00    -0.000 C 
BRANCH  12  13
ATOM     13  C   UNL     1      28.142  11.597  30.065  1.00  0.00    -0.000 C 
BRANCH  13  14
ATOM     14  C   UNL     1      27.370  10.650  30.996  1.00  0.00    -0.000 C 
BRANCH  14  15
ATOM     15  C   UNL     1      25.933  10.393  30.520  1.00  0.00    -0.003 C 
ATOM     16  C   UNL     1      24.882  10.893  31.510  1.00  0.00     0.004 C 
ENDBRANCH  14  15
ENDBRANCH  13  14
ENDBRANCH  12  13
ENDBRANCH  11  12
ENDBRANCH  10  11
ENDBRANCH   1  10
TORSDOF 12
ENDMDL
MODEL 3
REMARK VINA RESULT:    -4.877      2.044      3.921
REMARK INTER + INTRA:          -9.524
REMARK INTER:                  -7.862
REMARK INTRA:                  -1.662
REMARK UNBOUND:                -1.226
REMARK SMILES CCCCCCCCCCCCCC(=O)[O-]
REMARK SMILES IDX 8 1 9 2 10 3 11 4 12 5 13 6 14 7 15 8 16 9 7 10 6 11 5 12
REMARK SMILES IDX 4 13 3 14 2 15 1 16
REMARK H PARENT
REMARK Flexibility Score: inf
ROOT
ATOM      1  C   UNL     1      28.578  11.889  29.981  1.00  0.00     0.000 C 
ENDROOT
BRANCH   1   2
ATOM      2  C   UNL     1      27.630  10.745  30.403  1.00  0.00     0.000 C 
BRANCH   2   3
ATOM      3  C   UNL     1      26.455  10.568  29.426  1.00  0.00     0.000 C 
BRANCH   3   4
ATOM      4  C   UNL     1      25.090  10.509  30.135  1.00  0.00     0.000 C 
BRANCH   4   5
ATOM      5  C   UNL     1      25.113  10.880  31.632  1.00  0.00     0.006 C 
BRANCH   5   6
ATOM      6  C   UNL     1      24.430  12.216  31.968  1.00  0.00     0.053 C 
BRANCH   6   7
ATOM      7  C   UNL     1      23.022  12.022  32.441  1.00  0.00     0.041 C 
ATOM      8  O   UNL     1      22.525  12.807  33.289  1.00  0.00    -0.550 OA
ATOM      9  O   UNL     1      22.248  10.993  31.918  1.00  0.00    -0.550 OA
ENDBRANCH   6   7
ENDBRANCH   5   6
ENDBRANCH   4   5
ENDBRANCH   3   4
ENDBRANCH   2   3
ENDBRANCH   1   2
BRANCH   1  10
ATOM     10  C   UNL     1      28.713  13.002  31.039  1.00  0.00     0.000 C 
BRANCH  10  11
ATOM     11  C   UNL     1      28.344  12.584  32.475  1.00  0.00    -0.000 C 
BRANCH  11  12
ATOM     12  C   UNL     1      27.941  13.743  33.405  1.00  0.00    -0.000 C 
BRANCH  12  13
ATOM     13  C   UNL     1      27.466  13.268  34.786  1.00  0.00    -0.000 C 
BRANCH  13  14
ATOM     14  C   UNL     1      27.393  11.735  34.844  1.00  0.00    -0.000 C 
BRANCH  14  15
ATOM     15  C   UNL     1      25.981  11.223  35.168  1.00  0.00    -0.003 C 
ATOM     16  C   UNL     1      25.049  12.328  35.663  1.00  0.00     0.004 C 
ENDBRANCH  14  15
ENDBRANCH  13  14
ENDBRANCH  12  13
ENDBRANCH  11  12
ENDBRANCH  10  11
ENDBRANCH   1  10
TORSDOF 12
ENDMDL
MODEL 4
REMARK VINA RESULT:    -4.874      1.127      1.570
REMARK INTER + INTRA:          -9.520
REMARK INTER:                  -8.136
REMARK INTRA:                  -1.384
REMARK UNBOUND:                -1.226
REMARK SMILES CCCCCCCCCCCCCC(=O)[O-]
REMARK SMILES IDX 8 1 9 2 10 3 11 4 12 5 13 6 14 7 15 8 16 9 7 10 6 11 5 12
REMARK SMILES IDX 4 13 3 14 2 15 1 16
REMARK H PARENT
REMARK Flexibility Score: inf
ROOT
ATOM      1  C   UNL     1      26.258  10.276  31.138  1.00  0.00     0.000 C 
ENDROOT
BRANCH   1   2
ATOM      2  C   UNL     1      24.742  10.347  31.423  1.00  0.00     0.000 C 
BRANCH   2   3
ATOM      3  C   UNL     1      24.257  11.788  31.650  1.00  0.00     0.000 C 
BRANCH   3   4
ATOM      4  C   UNL     1      24.091  12.137  33.140  1.00  0.00     0.000 C 
BRANCH   4   5
ATOM      5  C   UNL     1      22.663  12.542  33.562  1.00  0.00     0.006 C 
BRANCH   5   6
ATOM      6  C   UNL     1      22.419  12.527  35.080  1.00  0.00     0.053 C 
BRANCH   6   7
ATOM      7  C   UNL     1      20.963  12.409  35.412  1.00  0.00     0.041 C 
ATOM      8  O   UNL     1      20.470  11.291  35.715  1.00  0.00    -0.550 OA
ATOM      9  O   UNL     1      20.157  13.541  35.419  1.00  0.00    -0.550 OA
ENDBRANCH   6   7
ENDBRANCH   5   6
ENDBRANCH   4   5
ENDBRANCH   3   4
ENDBRANCH   2   3
ENDBRANCH   1   2
BRANCH   1  10
ATOM     10  C   UNL     1      26.741  11.305  30.097  1.00  0.00     0.000 C 
BRANCH  10  11
ATOM     11  C   UNL     1      28.231  11.683  30.198  1.00  0.00    -0.000 C 
BRANCH  11  12
ATOM     12  C   UNL     1      28.519  12.982  30.973  1.00  0.00    -0.000 C 
BRANCH  12  13
ATOM     13  C   UNL     1      28.681  12.757  32.483  1.00  0.00    -0.000 C 
BRANCH  13  14
ATOM     14  C   UNL     1      27.559  13.454  33.266  1.00  0.00    -0.000 C 
BRANCH  14  15
ATOM     15  C   UNL     1      27.371  12.871  34.675  1.00  0.00    -0.003 C 
ATOM     16  C   UNL     1      27.313  11.344  34.681  1.00  0.00     0.004 C 
ENDBRANCH  14  15
ENDBRANCH  13  14
ENDBRANCH  12  13
ENDBRANCH  11  12
ENDBRANCH  10  11
ENDBRANCH   1  10
TORSDOF 12
ENDMDL
MODEL 5
REMARK VINA RESULT:    -4.872      1.306      2.803
REMARK INTER + INTRA:          -9.516
REMARK INTER:                  -7.892
REMARK INTRA:                  -1.624
REMARK UNBOUND:                -1.226
REMARK SMILES CCCCCCCCCCCCCC(=O)[O-]
REMARK SMILES IDX 8 1 9 2 10 3 11 4 12 5 13 6 14 7 15 8 16 9 7 10 6 11 5 12
REMARK SMILES IDX 4 13 3 14 2 15 1 16
REMARK H PARENT
REMARK Flexibility Score: inf
ROOT
ATOM      1  C   UNL     1      27.444  10.805  30.970  1.00  0.00     0.000 C 
ENDROOT
BRANCH   1   2
ATOM      2  C   UNL     1      25.965  10.377  30.853  1.00  0.00     0.000 C 
BRANCH   2   3
ATOM      3  C   UNL     1      24.999  11.565  30.994  1.00  0.00     0.000 C 
BRANCH   3   4
ATOM      4  C   UNL     1      23.627  11.158  31.560  1.00  0.00     0.000 C 
BRANCH   4   5
ATOM      5  C   UNL     1      22.812  12.307  32.187  1.00  0.00     0.006 C 
BRANCH   5   6
ATOM      6  C   UNL     1      21.648  11.849  33.082  1.00  0.00     0.053 C 
BRANCH   6   7
ATOM      7  C   UNL     1      21.478  12.735  34.277  1.00  0.00     0.041 C 
ATOM      8  O   UNL     1      21.316  13.974  34.130  1.00  0.00    -0.550 OA
ATOM      9  O   UNL     1      21.463  12.185  35.554  1.00  0.00    -0.550 OA
ENDBRANCH   6   7
ENDBRANCH   5   6
ENDBRANCH   4   5
ENDBRANCH   3   4
ENDBRANCH   2   3
ENDBRANCH   1   2
BRANCH   1  10
ATOM     10  C   UNL     1      27.662  12.324  30.829  1.00  0.00     0.000 C 
BRANCH  10  11
ATOM     11  C   UNL     1      28.422  12.984  31.995  1.00  0.00    -0.000 C 
BRANCH  11  12
ATOM     12  C   UNL     1      27.607  13.147  33.292  1.00  0.00    -0.000 C 
BRANCH  12  13
ATOM     13  C   UNL     1      27.973  12.113  34.366  1.00  0.00    -0.000 C 
BRANCH  13  14
ATOM     14  C   UNL     1      26.754  11.260  34.745  1.00  0.00    -0.000 C 
BRANCH  14  15
ATOM     15  C   UNL     1      25.427  12.014  34.572  1.00  0.00    -0.003 C 
ATOM     16  C   UNL     1      24.928  12.643  35.872  1.00  0.00     0.004 C 
ENDBRANCH  14  15
ENDBRANCH  13  14
ENDBRANCH  12  13
ENDBRANCH  11  12
ENDBRANCH  10  11
ENDBRANCH   1  10
TORSDOF 12
ENDMDL
MODEL 6
REMARK VINA RESULT:    -4.800      1.197      2.866
REMARK INTER + INTRA:          -9.394
REMARK INTER:                  -8.051
REMARK INTRA:                  -1.343
REMARK UNBOUND:                -1.226
REMARK SMILES CCCCCCCCCCCCCC(=O)[O-]
REMARK SMILES IDX 8 1 9 2 10 3 11 4 12 5 13 6 14 7 15 8 16 9 7 10 6 11 5 12
REMARK SMILES IDX 4 13 3 14 2 15 1 16
REMARK H PARENT
REMARK Flexibility Score: inf
ROOT
ATOM      1  C   UNL     1      26.063  11.363  34.738  1.00  0.00     0.000 C 
ENDROOT
BRANCH   1   2
ATOM      2  C   UNL     1      25.395  12.338  35.732  1.00  0.00     0.000 C 
BRANCH   2   3
ATOM      3  C   UNL     1      23.920  12.606  35.387  1.00  0.00     0.000 C 
BRANCH   3   4
ATOM      4  C   UNL     1      23.564  12.223  33.939  1.00  0.00     0.000 C 
BRANCH   4   5
ATOM      5  C   UNL     1      22.115  12.542  33.516  1.00  0.00     0.006 C 
BRANCH   5   6
ATOM      6  C   UNL     1      21.357  13.465  34.484  1.00  0.00     0.053 C 
BRANCH   6   7
ATOM      7  C   UNL     1      20.366  12.711  35.317  1.00  0.00     0.041 C 
ATOM      8  O   UNL     1      20.605  11.526  35.667  1.00  0.00    -0.550 OA
ATOM      9  O   UNL     1      19.195  13.331  35.736  1.00  0.00    -0.550 OA
ENDBRANCH   6   7
ENDBRANCH   5   6
ENDBRANCH   4   5
ENDBRANCH   3   4
ENDBRANCH   2   3
ENDBRANCH   1   2
BRANCH   1  10
ATOM     10  C   UNL     1      27.602  11.451  34.725  1.00  0.00     0.000 C 
BRANCH  10  11
ATOM     11  C   UNL     1      28.172  12.802  34.253  1.00  0.00    -0.000 C 
BRANCH  11  12
ATOM     12  C   UNL     1      27.588  13.325  32.927  1.00  0.00    -0.000 C 
BRANCH  12  13
ATOM     13  C   UNL     1      28.409  12.904  31.701  1.00  0.00    -0.000 C 
BRANCH  13  14
ATOM     14  C   UNL     1      27.495  12.408  30.571  1.00  0.00    -0.000 C 
BRANCH  14  15
ATOM     15  C   UNL     1      26.151  11.874  31.089  1.00  0.00    -0.003 C 
ATOM     16  C   UNL     1      26.126  10.351  31.211  1.00  0.00     0.004 C 
ENDBRANCH  14  15
ENDBRANCH  13  14
ENDBRANCH  12  13
ENDBRANCH  11  12
ENDBRANCH  10  11
ENDBRANCH   1  10
TORSDOF 12
ENDMDL
MODEL 7
REMARK VINA RESULT:    -4.735      2.403      5.311
REMARK INTER + INTRA:          -9.284
REMARK INTER:                  -8.170
REMARK INTRA:                  -1.114
REMARK UNBOUND:                -1.226
REMARK SMILES CCCCCCCCCCCCCC(=O)[O-]
REMARK SMILES IDX 8 1 9 2 10 3 11 4 12 5 13 6 14 7 15 8 16 9 7 10 6 11 5 12
REMARK SMILES IDX 4 13 3 14 2 15 1 16
REMARK H PARENT
REMARK Flexibility Score: inf
ROOT
ATOM      1  C   UNL     1      27.600  10.727  30.622  1.00  0.00     0.000 C 
ENDROOT
BRANCH   1   2
ATOM      2  C   UNL     1      27.756  12.195  30.170  1.00  0.00     0.000 C 
BRANCH   2   3
ATOM      3  C   UNL     1      28.728  12.983  31.063  1.00  0.00     0.000 C 
BRANCH   3   4
ATOM      4  C   UNL     1      28.091  13.436  32.389  1.00  0.00     0.000 C 
BRANCH   4   5
ATOM      5  C   UNL     1      28.494  12.607  33.626  1.00  0.00     0.006 C 
BRANCH   5   6
ATOM      6  C   UNL     1      27.724  12.959  34.909  1.00  0.00     0.053 C 
BRANCH   6   7
ATOM      7  C   UNL     1      26.483  12.134  35.063  1.00  0.00     0.041 C 
ATOM      8  O   UNL     1      26.505  10.903  34.805  1.00  0.00    -0.550 OA
ATOM      9  O   UNL     1      25.311  12.720  35.524  1.00  0.00    -0.550 OA
ENDBRANCH   6   7
ENDBRANCH   5   6
ENDBRANCH   4   5
ENDBRANCH   3   4
ENDBRANCH   2   3
ENDBRANCH   1   2
BRANCH   1  10
ATOM     10  C   UNL     1      26.211  10.403  31.207  1.00  0.00     0.000 C 
BRANCH  10  11
ATOM     11  C   UNL     1      25.220  11.582  31.220  1.00  0.00    -0.000 C 
BRANCH  11  12
ATOM     12  C   UNL     1      24.129  11.500  32.305  1.00  0.00    -0.000 C 
BRANCH  12  13
ATOM     13  C   UNL     1      22.798  12.124  31.865  1.00  0.00    -0.000 C 
BRANCH  13  14
ATOM     14  C   UNL     1      21.742  12.005  32.975  1.00  0.00    -0.000 C 
BRANCH  14  15
ATOM     15  C   UNL     1      21.938  13.042  34.091  1.00  0.00    -0.003 C 
ATOM     16  C   UNL     1      20.825  14.088  34.129  1.00  0.00     0.004 C 
ENDBRANCH  14  15
ENDBRANCH  13  14
ENDBRANCH  12  13
ENDBRANCH  11  12
ENDBRANCH  10  11
ENDBRANCH   1  10
TORSDOF 12
ENDMDL
MODEL 8
REMARK VINA RESULT:    -4.680      1.257      2.852
REMARK INTER + INTRA:          -9.189
REMARK INTER:                  -8.000
REMARK INTRA:                  -1.189
REMARK UNBOUND:                -1.226
REMARK SMILES CCCCCCCCCCCCCC(=O)[O-]
REMARK SMILES IDX 8 1 9 2 10 3 11 4 12 5 13 6 14 7 15 8 16 9 7 10 6 11 5 12
REMARK SMILES IDX 4 13 3 14 2 15 1 16
REMARK H PARENT
REMARK Flexibility Score: inf
ROOT
ATOM      1  C   UNL     1      24.987  11.530  32.637  1.00  0.00     0.000 C 
ENDROOT
BRANCH   1   2
ATOM      2  C   UNL     1      23.757  12.209  31.995  1.00  0.00     0.000 C 
BRANCH   2   3
ATOM      3  C   UNL     1      22.562  11.250  31.865  1.00  0.00     0.000 C 
BRANCH   3   4
ATOM      4  C   UNL     1      21.356  11.676  32.722  1.00  0.00     0.000 C 
BRANCH   4   5
ATOM      5  C   UNL     1      21.609  12.878  33.656  1.00  0.00     0.006 C 
BRANCH   5   6
ATOM      6  C   UNL     1      21.682  12.521  35.149  1.00  0.00     0.053 C 
BRANCH   6   7
ATOM      7  C   UNL     1      20.366  12.041  35.677  1.00  0.00     0.041 C 
ATOM      8  O   UNL     1      19.478  12.867  36.013  1.00  0.00    -0.550 OA
ATOM      9  O   UNL     1      20.106  10.678  35.764  1.00  0.00    -0.550 OA
ENDBRANCH   6   7
ENDBRANCH   5   6
ENDBRANCH   4   5
ENDBRANCH   3   4
ENDBRANCH   2   3
ENDBRANCH   1   2
BRANCH   1  10
ATOM     10  C   UNL     1      25.203  11.911  34.115  1.00  0.00     0.000 C 
BRANCH  10  11
ATOM     11  C   UNL     1      26.636  11.696  34.639  1.00  0.00    -0.000 C 
BRANCH  11  12
ATOM     12  C   UNL     1      27.467  12.983  34.800  1.00  0.00    -0.000 C 
BRANCH  12  13
ATOM     13  C   UNL     1      27.859  13.616  33.458  1.00  0.00    -0.000 C 
BRANCH  13  14
ATOM     14  C   UNL     1      28.518  12.581  32.533  1.00  0.00    -0.000 C 
BRANCH  14  15
ATOM     15  C   UNL     1      28.709  13.104  31.101  1.00  0.00    -0.003 C 
ATOM     16  C   UNL     1      27.490  12.857  30.213  1.00  0.00     0.004 C 
ENDBRANCH  14  15
ENDBRANCH  13  14
ENDBRANCH  12  13
ENDBRANCH  11  12
ENDBRANCH  10  11
ENDBRANCH   1  10
TORSDOF 12
ENDMDL
MODEL 9
REMARK VINA RESULT:    -4.604      2.678      6.508
REMARK INTER + INTRA:          -9.061
REMARK INTER:                  -8.096
REMARK INTRA:                  -0.965
REMARK UNBOUND:                -1.226
REMARK SMILES CCCCCCCCCCCCCC(=O)[O-]
REMARK SMILES IDX 8 1 9 2 10 3 11 4 12 5 13 6 14 7 15 8 16 9 7 10 6 11 5 12
REMARK SMILES IDX 4 13 3 14 2 15 1 16
REMARK H PARENT
REMARK Flexibility Score: inf
ROOT
ATOM      1  C   UNL     1      27.450  11.580  34.815  1.00  0.00     0.000 C 
ENDROOT
BRANCH   1   2
ATOM      2  C   UNL     1      27.619  13.114  34.861  1.00  0.00     0.000 C 
BRANCH   2   3
ATOM      3  C   UNL     1      27.959  13.706  33.483  1.00  0.00     0.000 C 
BRANCH   3   4
ATOM      4  C   UNL     1      28.524  12.661  32.504  1.00  0.00     0.000 C 
BRANCH   4   5
ATOM      5  C   UNL     1      28.313  12.983  31.010  1.00  0.00     0.006 C 
BRANCH   5   6
ATOM      6  C   UNL     1      27.482  11.941  30.244  1.00  0.00     0.053 C 
BRANCH   6   7
ATOM      7  C   UNL     1      26.279  11.503  31.020  1.00  0.00     0.041 C 
ATOM      8  O   UNL     1      25.345  12.314  31.252  1.00  0.00    -0.550 OA
ATOM      9  O   UNL     1      26.173  10.188  31.457  1.00  0.00    -0.550 OA
ENDBRANCH   6   7
ENDBRANCH   5   6
ENDBRANCH   4   5
ENDBRANCH   3   4
ENDBRANCH   2   3
ENDBRANCH   1   2
BRANCH   1  10
ATOM     10  C   UNL     1      25.983  11.116  34.911  1.00  0.00     0.000 C 
BRANCH  10  11
ATOM     11  C   UNL     1      25.015  12.142  35.530  1.00  0.00    -0.000 C 
BRANCH  11  12
ATOM     12  C   UNL     1      23.837  12.551  34.626  1.00  0.00    -0.000 C 
BRANCH  12  13
ATOM     13  C   UNL     1      22.484  12.516  35.351  1.00  0.00    -0.000 C 
BRANCH  13  14
ATOM     14  C   UNL     1      21.392  13.188  34.506  1.00  0.00    -0.000 C 
BRANCH  14  15
ATOM     15  C   UNL     1      20.041  12.463  34.602  1.00  0.00    -0.003 C 
ATOM     16  C   UNL     1      19.355  12.664  35.953  1.00  0.00     0.004 C 
ENDBRANCH  14  15
ENDBRANCH  13  14
ENDBRANCH  12  13
ENDBRANCH  11  12
ENDBRANCH  10  11
ENDBRANCH   1  10
TORSDOF 12
ENDMDL
