MODEL 1
REMARK VINA RESULT:    -4.909      0.000      0.000
REMARK INTER + INTRA:          -6.189
REMARK INTER:                  -5.914
REMARK INTRA:                  -0.275
REMARK UNBOUND:                -0.275
REMARK SMILES O=c1c(O)c(-c2ccc(O)c(O)c2)oc2cc(O)cc(O)c12
REMARK SMILES IDX 5 1 3 2 2 3 1 4 22 5 20 6 19 7 17 8 16 9 15 10 14 11 6 12
REMARK SMILES IDX 7 13 8 14 9 15 13 16 11 17 10 18 12 20 4 22 21 24 18 26
REMARK H PARENT 10 19 12 21 4 23 21 25 18 27
REMARK Flexibility Score: inf
ROOT
ATOM      1  C   UNL     1      40.147 -30.586  10.601  1.00  0.00     0.180 A 
ATOM      2  C   UNL     1      39.667 -30.161  11.854  1.00  0.00     0.208 A 
ATOM      3  C   UNL     1      38.295 -29.900  12.002  1.00  0.00     0.238 A 
ATOM      4  O   UNL     1      37.856 -29.509  13.117  1.00  0.00    -0.285 OA
ATOM      5  C   UNL     1      37.429 -30.086  10.906  1.00  0.00     0.111 A 
ATOM      6  C   UNL     1      36.035 -29.848  10.972  1.00  0.00     0.134 A 
ATOM      7  C   UNL     1      35.237 -30.066   9.839  1.00  0.00     0.093 A 
ATOM      8  C   UNL     1      35.807 -30.515   8.642  1.00  0.00     0.123 A 
ATOM      9  C   UNL     1      37.181 -30.750   8.572  1.00  0.00     0.094 A 
ATOM     10  C   UNL     1      37.993 -30.538   9.690  1.00  0.00     0.146 A 
ATOM     11  O   UNL     1      39.298 -30.765   9.593  1.00  0.00    -0.452 OA
ENDROOT
BRANCH   1  12
ATOM     12  C   UNL     1      41.582 -30.863  10.361  1.00  0.00     0.025 A 
ATOM     13  C   UNL     1      42.475 -29.793  10.210  1.00  0.00     0.016 A 
ATOM     14  C   UNL     1      43.834 -30.031  10.002  1.00  0.00     0.051 A 
ATOM     15  C   UNL     1      44.333 -31.337   9.958  1.00  0.00     0.157 A 
ATOM     16  C   UNL     1      42.082 -32.176  10.340  1.00  0.00     0.062 A 
ATOM     17  C   UNL     1      43.445 -32.425  10.136  1.00  0.00     0.158 A 
BRANCH  15  18
ATOM     18  O   UNL     1      45.701 -31.507   9.740  1.00  0.00    -0.504 OA
ATOM     19  H   UNL     1      46.364 -31.746  10.464  1.00  0.00     0.293 HD
ENDBRANCH  15  18
BRANCH  17  20
ATOM     20  O   UNL     1      43.871 -33.754  10.125  1.00  0.00    -0.504 OA
ATOM     21  H   UNL     1      44.297 -34.205   9.328  1.00  0.00     0.293 HD
ENDBRANCH  17  20
ENDBRANCH   1  12
BRANCH   2  22
ATOM     22  O   UNL     1      40.539 -30.033  12.938  1.00  0.00    -0.502 OA
ATOM     23  H   UNL     1      40.334 -30.425  13.849  1.00  0.00     0.293 HD
ENDBRANCH   2  22
BRANCH   6  24
ATOM     24  O   UNL     1      35.438 -29.401  12.152  1.00  0.00    -0.507 OA
ATOM     25  H   UNL     1      34.616 -28.807  12.142  1.00  0.00     0.293 HD
ENDBRANCH   6  24
BRANCH   8  26
ATOM     26  O   UNL     1      35.015 -30.732   7.517  1.00  0.00    -0.508 OA
ATOM     27  H   UNL     1      34.833 -29.995   6.847  1.00  0.00     0.293 HD
ENDBRANCH   8  26
TORSDOF 6
ENDMDL
MODEL 2
REMARK VINA RESULT:    -4.659      2.326      7.276
REMARK INTER + INTRA:          -5.887
REMARK INTER:                  -5.669
REMARK INTRA:                  -0.218
REMARK UNBOUND:                -0.275
REMARK SMILES O=c1c(O)c(-c2ccc(O)c(O)c2)oc2cc(O)cc(O)c12
REMARK SMILES IDX 5 1 3 2 2 3 1 4 22 5 20 6 19 7 17 8 16 9 15 10 14 11 6 12
REMARK SMILES IDX 7 13 8 14 9 15 13 16 11 17 10 18 12 20 4 22 21 24 18 26
REMARK H PARENT 10 19 12 21 4 23 21 25 18 27
REMARK Flexibility Score: inf
ROOT
ATOM      1  C   UNL     1      41.092 -31.218  11.714  1.00  0.00     0.180 A 
ATOM      2  C   UNL     1      42.020 -30.161  11.664  1.00  0.00     0.208 A 
ATOM      3  C   UNL     1      43.369 -30.427  11.947  1.00  0.00     0.238 A 
ATOM      4  O   UNL     1      44.207 -29.485  11.915  1.00  0.00    -0.285 OA
ATOM      5  C   UNL     1      43.768 -31.743  12.256  1.00  0.00     0.111 A 
ATOM      6  C   UNL     1      45.108 -32.096  12.551  1.00  0.00     0.134 A 
ATOM      7  C   UNL     1      45.428 -33.430  12.839  1.00  0.00     0.093 A 
ATOM      8  C   UNL     1      44.436 -34.417  12.839  1.00  0.00     0.123 A 
ATOM      9  C   UNL     1      43.115 -34.074  12.550  1.00  0.00     0.094 A 
ATOM     10  C   UNL     1      42.775 -32.749  12.261  1.00  0.00     0.146 A 
ATOM     11  O   UNL     1      41.508 -32.450  11.995  1.00  0.00    -0.452 OA
ENDROOT
BRANCH   1  12
ATOM     12  C   UNL     1      39.650 -31.014  11.447  1.00  0.00     0.025 A 
ATOM     13  C   UNL     1      38.738 -31.060  12.510  1.00  0.00     0.016 A 
ATOM     14  C   UNL     1      37.377 -30.851  12.284  1.00  0.00     0.051 A 
ATOM     15  C   UNL     1      36.901 -30.575  10.997  1.00  0.00     0.157 A 
ATOM     16  C   UNL     1      39.179 -30.714  10.157  1.00  0.00     0.062 A 
ATOM     17  C   UNL     1      37.815 -30.499   9.920  1.00  0.00     0.158 A 
BRANCH  15  18
ATOM     18  O   UNL     1      35.527 -30.383  10.836  1.00  0.00    -0.504 OA
ATOM     19  H   UNL     1      34.838 -31.115  10.941  1.00  0.00     0.293 HD
ENDBRANCH  15  18
BRANCH  17  20
ATOM     20  O   UNL     1      37.419 -30.208   8.614  1.00  0.00    -0.504 OA
ATOM     21  H   UNL     1      36.855 -29.410   8.359  1.00  0.00     0.293 HD
ENDBRANCH  17  20
ENDBRANCH   1  12
BRANCH   2  22
ATOM     22  O   UNL     1      41.606 -28.875  11.306  1.00  0.00    -0.502 OA
ATOM     23  H   UNL     1      40.652 -28.668  11.032  1.00  0.00     0.293 HD
ENDBRANCH   2  22
BRANCH   6  24
ATOM     24  O   UNL     1      46.120 -31.134  12.557  1.00  0.00    -0.507 OA
ATOM     25  H   UNL     1      45.983 -30.214  12.153  1.00  0.00     0.293 HD
ENDBRANCH   6  24
BRANCH   8  26
ATOM     26  O   UNL     1      44.754 -35.744  13.125  1.00  0.00    -0.508 OA
ATOM     27  H   UNL     1      44.036 -36.446  13.252  1.00  0.00     0.293 HD
ENDBRANCH   8  26
TORSDOF 6
ENDMDL
MODEL 3
REMARK VINA RESULT:    -4.652      1.610      7.149
REMARK INTER + INTRA:          -5.879
REMARK INTER:                  -5.583
REMARK INTRA:                  -0.296
REMARK UNBOUND:                -0.275
REMARK SMILES O=c1c(O)c(-c2ccc(O)c(O)c2)oc2cc(O)cc(O)c12
REMARK SMILES IDX 5 1 3 2 2 3 1 4 22 5 20 6 19 7 17 8 16 9 15 10 14 11 6 12
REMARK SMILES IDX 7 13 8 14 9 15 13 16 11 17 10 18 12 20 4 22 21 24 18 26
REMARK H PARENT 10 19 12 21 4 23 21 25 18 27
REMARK Flexibility Score: inf
ROOT
ATOM      1  C   UNL     1      40.728 -30.725  10.495  1.00  0.00     0.180 A 
ATOM      2  C   UNL     1      41.660 -29.977   9.751  1.00  0.00     0.208 A 
ATOM      3  C   UNL     1      43.006 -30.375   9.752  1.00  0.00     0.238 A 
ATOM      4  O   UNL     1      43.850 -29.706   9.096  1.00  0.00    -0.285 OA
ATOM      5  C   UNL     1      43.393 -31.520  10.477  1.00  0.00     0.111 A 
ATOM      6  C   UNL     1      44.727 -31.990  10.527  1.00  0.00     0.134 A 
ATOM      7  C   UNL     1      45.032 -33.144  11.264  1.00  0.00     0.093 A 
ATOM      8  C   UNL     1      44.027 -33.835  11.952  1.00  0.00     0.123 A 
ATOM      9  C   UNL     1      42.711 -33.375  11.906  1.00  0.00     0.094 A 
ATOM     10  C   UNL     1      42.387 -32.226  11.178  1.00  0.00     0.146 A 
ATOM     11  O   UNL     1      41.127 -31.808  11.156  1.00  0.00    -0.452 OA
ENDROOT
BRANCH   1  12
ATOM     12  C   UNL     1      39.295 -30.358  10.559  1.00  0.00     0.025 A 
ATOM     13  C   UNL     1      38.819 -29.628  11.658  1.00  0.00     0.016 A 
ATOM     14  C   UNL     1      37.476 -29.254  11.729  1.00  0.00     0.051 A 
ATOM     15  C   UNL     1      36.586 -29.586  10.702  1.00  0.00     0.157 A 
ATOM     16  C   UNL     1      38.410 -30.673   9.515  1.00  0.00     0.062 A 
ATOM     17  C   UNL     1      37.061 -30.299   9.575  1.00  0.00     0.158 A 
BRANCH  15  18
ATOM     18  O   UNL     1      35.255 -29.189  10.837  1.00  0.00    -0.504 OA
ATOM     19  H   UNL     1      34.464 -29.778  10.617  1.00  0.00     0.293 HD
ENDBRANCH  15  18
BRANCH  17  20
ATOM     20  O   UNL     1      36.239 -30.647   8.502  1.00  0.00    -0.504 OA
ATOM     21  H   UNL     1      36.583 -30.914   7.591  1.00  0.00     0.293 HD
ENDBRANCH  17  20
ENDBRANCH   1  12
BRANCH   2  22
ATOM     22  O   UNL     1      41.241 -28.875   9.000  1.00  0.00    -0.502 OA
ATOM     23  H   UNL     1      41.791 -28.497   8.237  1.00  0.00     0.293 HD
ENDBRANCH   2  22
BRANCH   6  24
ATOM     24  O   UNL     1      45.750 -31.323   9.850  1.00  0.00    -0.507 OA
ATOM     25  H   UNL     1      45.692 -30.333   9.640  1.00  0.00     0.293 HD
ENDBRANCH   6  24
BRANCH   8  26
ATOM     26  O   UNL     1      44.329 -34.982  12.684  1.00  0.00    -0.508 OA
ATOM     27  H   UNL     1      43.605 -35.537  13.122  1.00  0.00     0.293 HD
ENDBRANCH   8  26
TORSDOF 6
ENDMDL
MODEL 4
REMARK VINA RESULT:    -4.500      1.877      2.725
REMARK INTER + INTRA:          -5.695
REMARK INTER:                  -5.373
REMARK INTRA:                  -0.322
REMARK UNBOUND:                -0.275
REMARK SMILES O=c1c(O)c(-c2ccc(O)c(O)c2)oc2cc(O)cc(O)c12
REMARK SMILES IDX 5 1 3 2 2 3 1 4 22 5 20 6 19 7 17 8 16 9 15 10 14 11 6 12
REMARK SMILES IDX 7 13 8 14 9 15 13 16 11 17 10 18 12 20 4 22 21 24 18 26
REMARK H PARENT 10 19 12 21 4 23 21 25 18 27
REMARK Flexibility Score: inf
ROOT
ATOM      1  C   UNL     1      40.327 -30.918  11.207  1.00  0.00     0.180 A 
ATOM      2  C   UNL     1      40.106 -30.043  10.125  1.00  0.00     0.208 A 
ATOM      3  C   UNL     1      38.791 -29.654   9.824  1.00  0.00     0.238 A 
ATOM      4  O   UNL     1      38.582 -28.879   8.852  1.00  0.00    -0.285 OA
ATOM      5  C   UNL     1      37.727 -30.128  10.617  1.00  0.00     0.111 A 
ATOM      6  C   UNL     1      36.374 -29.782  10.382  1.00  0.00     0.134 A 
ATOM      7  C   UNL     1      35.370 -30.287  11.222  1.00  0.00     0.093 A 
ATOM      8  C   UNL     1      35.694 -31.132  12.290  1.00  0.00     0.123 A 
ATOM      9  C   UNL     1      37.026 -31.476  12.524  1.00  0.00     0.094 A 
ATOM     10  C   UNL     1      38.040 -30.984  11.698  1.00  0.00     0.146 A 
ATOM     11  O   UNL     1      39.298 -31.333  11.941  1.00  0.00    -0.452 OA
ENDROOT
BRANCH   1  12
ATOM     12  C   UNL     1      41.681 -31.388  11.574  1.00  0.00     0.025 A 
ATOM     13  C   UNL     1      42.356 -30.780  12.643  1.00  0.00     0.016 A 
ATOM     14  C   UNL     1      43.626 -31.220  13.019  1.00  0.00     0.051 A 
ATOM     15  C   UNL     1      44.241 -32.284  12.350  1.00  0.00     0.157 A 
ATOM     16  C   UNL     1      42.286 -32.471  10.915  1.00  0.00     0.062 A 
ATOM     17  C   UNL     1      43.558 -32.923  11.288  1.00  0.00     0.158 A 
BRANCH  15  18
ATOM     18  O   UNL     1      45.515 -32.671  12.770  1.00  0.00    -0.504 OA
ATOM     19  H   UNL     1      45.700 -33.492  13.328  1.00  0.00     0.293 HD
ENDBRANCH  15  18
BRANCH  17  20
ATOM     20  O   UNL     1      44.098 -34.003  10.586  1.00  0.00    -0.504 OA
ATOM     21  H   UNL     1      44.315 -34.896  11.005  1.00  0.00     0.293 HD
ENDBRANCH  17  20
ENDBRANCH   1  12
BRANCH   2  22
ATOM     22  O   UNL     1      41.184 -29.548   9.387  1.00  0.00    -0.502 OA
ATOM     23  H   UNL     1      41.735 -28.755   9.694  1.00  0.00     0.293 HD
ENDBRANCH   2  22
BRANCH   6  24
ATOM     24  O   UNL     1      36.020 -28.940   9.326  1.00  0.00    -0.507 OA
ATOM     25  H   UNL     1      36.162 -27.938   9.372  1.00  0.00     0.293 HD
ENDBRANCH   6  24
BRANCH   8  26
ATOM     26  O   UNL     1      34.698 -31.634  13.125  1.00  0.00    -0.508 OA
ATOM     27  H   UNL     1      34.741 -31.520  14.130  1.00  0.00     0.293 HD
ENDBRANCH   8  26
TORSDOF 6
ENDMDL
MODEL 5
REMARK VINA RESULT:    -4.216      2.383      7.271
REMARK INTER + INTRA:          -5.353
REMARK INTER:                  -5.631
REMARK INTRA:                   0.278
REMARK UNBOUND:                -0.275
REMARK SMILES O=c1c(O)c(-c2ccc(O)c(O)c2)oc2cc(O)cc(O)c12
REMARK SMILES IDX 5 1 3 2 2 3 1 4 22 5 20 6 19 7 17 8 16 9 15 10 14 11 6 12
REMARK SMILES IDX 7 13 8 14 9 15 13 16 11 17 10 18 12 20 4 22 21 24 18 26
REMARK H PARENT 10 19 12 21 4 23 21 25 18 27
REMARK Flexibility Score: inf
ROOT
ATOM      1  C   UNL     1      40.644 -31.238  11.617  1.00  0.00     0.180 A 
ATOM      2  C   UNL     1      41.329 -30.489  10.641  1.00  0.00     0.208 A 
ATOM      3  C   UNL     1      42.646 -30.846  10.312  1.00  0.00     0.238 A 
ATOM      4  O   UNL     1      43.272 -30.176   9.446  1.00  0.00    -0.285 OA
ATOM      5  C   UNL     1      43.246 -31.952  10.946  1.00  0.00     0.111 A 
ATOM      6  C   UNL     1      44.568 -32.380  10.670  1.00  0.00     0.134 A 
ATOM      7  C   UNL     1      45.092 -33.497  11.337  1.00  0.00     0.093 A 
ATOM      8  C   UNL     1      44.320 -34.193  12.275  1.00  0.00     0.123 A 
ATOM      9  C   UNL     1      43.018 -33.775  12.551  1.00  0.00     0.094 A 
ATOM     10  C   UNL     1      42.478 -32.663  11.898  1.00  0.00     0.146 A 
ATOM     11  O   UNL     1      41.238 -32.284  12.185  1.00  0.00    -0.452 OA
ENDROOT
BRANCH   1  12
ATOM     12  C   UNL     1      39.261 -30.911  12.032  1.00  0.00     0.025 A 
ATOM     13  C   UNL     1      38.832 -29.577  12.014  1.00  0.00     0.016 A 
ATOM     14  C   UNL     1      37.527 -29.249  12.382  1.00  0.00     0.051 A 
ATOM     15  C   UNL     1      36.619 -30.244  12.760  1.00  0.00     0.157 A 
ATOM     16  C   UNL     1      38.346 -31.917  12.389  1.00  0.00     0.062 A 
ATOM     17  C   UNL     1      37.032 -31.598  12.756  1.00  0.00     0.158 A 
BRANCH  15  18
ATOM     18  O   UNL     1      35.331 -29.849  13.125  1.00  0.00    -0.504 OA
ATOM     19  H   UNL     1      34.507 -30.420  12.996  1.00  0.00     0.293 HD
ENDBRANCH  15  18
BRANCH  17  20
ATOM     20  O   UNL     1      36.179 -32.647  13.100  1.00  0.00    -0.504 OA
ATOM     21  H   UNL     1      36.210 -33.134  13.985  1.00  0.00     0.293 HD
ENDBRANCH  17  20
ENDBRANCH   1  12
BRANCH   2  22
ATOM     22  O   UNL     1      40.693 -29.428   9.991  1.00  0.00    -0.502 OA
ATOM     23  H   UNL     1      41.158 -28.864   9.289  1.00  0.00     0.293 HD
ENDBRANCH   2  22
BRANCH   6  24
ATOM     24  O   UNL     1      45.361 -31.707   9.739  1.00  0.00    -0.507 OA
ATOM     25  H   UNL     1      45.211 -31.806   8.741  1.00  0.00     0.293 HD
ENDBRANCH   6  24
BRANCH   8  26
ATOM     26  O   UNL     1      44.841 -35.303  12.937  1.00  0.00    -0.508 OA
ATOM     27  H   UNL     1      44.783 -35.395  13.944  1.00  0.00     0.293 HD
ENDBRANCH   8  26
TORSDOF 6
ENDMDL
MODEL 6
REMARK VINA RESULT:    -3.288      1.338      6.613
REMARK INTER + INTRA:          -4.236
REMARK INTER:                  -4.654
REMARK INTRA:                   0.418
REMARK UNBOUND:                -0.275
REMARK SMILES O=c1c(O)c(-c2ccc(O)c(O)c2)oc2cc(O)cc(O)c12
REMARK SMILES IDX 5 1 3 2 2 3 1 4 22 5 20 6 19 7 17 8 16 9 15 10 14 11 6 12
REMARK SMILES IDX 7 13 8 14 9 15 13 16 11 17 10 18 12 20 4 22 21 24 18 26
REMARK H PARENT 10 19 12 21 4 23 21 25 18 27
REMARK Flexibility Score: inf
ROOT
ATOM      1  C   UNL     1      38.578 -30.608  10.447  1.00  0.00     0.180 A 
ATOM      2  C   UNL     1      38.898 -29.777  11.538  1.00  0.00     0.208 A 
ATOM      3  C   UNL     1      40.186 -29.849  12.091  1.00  0.00     0.238 A 
ATOM      4  O   UNL     1      40.480 -29.116  13.075  1.00  0.00    -0.285 OA
ATOM      5  C   UNL     1      41.134 -30.731  11.535  1.00  0.00     0.111 A 
ATOM      6  C   UNL     1      42.454 -30.862  12.031  1.00  0.00     0.134 A 
ATOM      7  C   UNL     1      43.343 -31.756  11.417  1.00  0.00     0.093 A 
ATOM      8  C   UNL     1      42.937 -32.522  10.318  1.00  0.00     0.123 A 
ATOM      9  C   UNL     1      41.638 -32.397   9.826  1.00  0.00     0.094 A 
ATOM     10  C   UNL     1      40.736 -31.512  10.425  1.00  0.00     0.146 A 
ATOM     11  O   UNL     1      39.504 -31.418   9.940  1.00  0.00    -0.452 OA
ENDROOT
BRANCH   1  12
ATOM     12  C   UNL     1      37.237 -30.603   9.822  1.00  0.00     0.025 A 
ATOM     13  C   UNL     1      36.142 -30.102  10.541  1.00  0.00     0.016 A 
ATOM     14  C   UNL     1      34.872 -30.071   9.963  1.00  0.00     0.051 A 
ATOM     15  C   UNL     1      34.670 -30.523   8.655  1.00  0.00     0.157 A 
ATOM     16  C   UNL     1      37.043 -31.037   8.499  1.00  0.00     0.062 A 
ATOM     17  C   UNL     1      35.772 -31.006   7.910  1.00  0.00     0.158 A 
BRANCH  15  18
ATOM     18  O   UNL     1      33.374 -30.472   8.139  1.00  0.00    -0.504 OA
ATOM     19  H   UNL     1      32.540 -30.429   8.708  1.00  0.00     0.293 HD
ENDBRANCH  15  18
BRANCH  17  20
ATOM     20  O   UNL     1      35.653 -31.454   6.593  1.00  0.00    -0.504 OA
ATOM     21  H   UNL     1      35.271 -32.352   6.335  1.00  0.00     0.293 HD
ENDBRANCH  17  20
ENDBRANCH   1  12
BRANCH   2  22
ATOM     22  O   UNL     1      37.955 -28.875  12.038  1.00  0.00    -0.502 OA
ATOM     23  H   UNL     1      37.191 -28.520  11.475  1.00  0.00     0.293 HD
ENDBRANCH   2  22
BRANCH   6  24
ATOM     24  O   UNL     1      42.888 -30.111  13.125  1.00  0.00    -0.507 OA
ATOM     25  H   UNL     1      43.869 -30.049  13.374  1.00  0.00     0.293 HD
ENDBRANCH   6  24
BRANCH   8  26
ATOM     26  O   UNL     1      43.821 -33.410   9.707  1.00  0.00    -0.508 OA
ATOM     27  H   UNL     1      44.347 -33.150   8.882  1.00  0.00     0.293 HD
ENDBRANCH   8  26
TORSDOF 6
ENDMDL
