MODEL 1
REMARK VINA RESULT:    -5.531      0.000      0.000
REMARK INTER + INTRA:         -12.960
REMARK INTER:                 -10.705
REMARK INTRA:                  -2.255
REMARK UNBOUND:                -2.255
REMARK SMILES CCCCCCCCCCCCCCCCCC(=O)[O-]
REMARK SMILES IDX 10 1 11 2 12 3 13 4 14 5 15 6 16 7 17 8 18 9 19 10 20 11
REMARK SMILES IDX 9 12 8 13 7 14 6 15 5 16 4 17 3 18 2 19 1 20
REMARK H PARENT
REMARK Flexibility Score: inf
ROOT
ATOM      1  C   UNL     1     -21.621  40.367  -6.165  1.00  0.00     0.000 C 
ENDROOT
BRANCH   1   2
ATOM      2  C   UNL     1     -22.169  40.924  -7.494  1.00  0.00     0.000 C 
BRANCH   2   3
ATOM      3  C   UNL     1     -22.911  42.269  -7.379  1.00  0.00     0.000 C 
BRANCH   3   4
ATOM      4  C   UNL     1     -23.499  42.571  -5.986  1.00  0.00     0.000 C 
BRANCH   4   5
ATOM      5  C   UNL     1     -23.088  43.930  -5.384  1.00  0.00     0.000 C 
BRANCH   5   6
ATOM      6  C   UNL     1     -22.276  44.837  -6.325  1.00  0.00     0.000 C 
BRANCH   6   7
ATOM      7  C   UNL     1     -23.124  45.958  -6.951  1.00  0.00     0.006 C 
BRANCH   7   8
ATOM      8  C   UNL     1     -24.506  46.074  -6.294  1.00  0.00     0.053 C 
BRANCH   8   9
ATOM      9  C   UNL     1     -25.601  45.661  -7.230  1.00  0.00     0.041 C 
ATOM     10  O   UNL     1     -25.372  44.822  -8.141  1.00  0.00    -0.550 OA
ATOM     11  O   UNL     1     -26.881  46.175  -7.074  1.00  0.00    -0.550 OA
ENDBRANCH   8   9
ENDBRANCH   7   8
ENDBRANCH   6   7
ENDBRANCH   5   6
ENDBRANCH   4   5
ENDBRANCH   3   4
ENDBRANCH   2   3
ENDBRANCH   1   2
BRANCH   1  12
ATOM     12  C   UNL     1     -20.239  40.912  -5.752  1.00  0.00     0.000 C 
BRANCH  12  13
ATOM     13  C   UNL     1     -19.110  40.656  -6.769  1.00  0.00    -0.000 C 
BRANCH  13  14
ATOM     14  C   UNL     1     -18.224  41.877  -7.085  1.00  0.00    -0.000 C 
BRANCH  14  15
ATOM     15  C   UNL     1     -18.892  43.246  -6.860  1.00  0.00    -0.000 C 
BRANCH  15  16
ATOM     16  C   UNL     1     -18.398  43.949  -5.584  1.00  0.00    -0.000 C 
BRANCH  16  17
ATOM     17  C   UNL     1     -17.136  43.292  -5.001  1.00  0.00    -0.000 C 
BRANCH  17  18
ATOM     18  C   UNL     1     -17.395  42.600  -3.655  1.00  0.00    -0.000 C 
BRANCH  18  19
ATOM     19  C   UNL     1     -16.310  41.558  -3.358  1.00  0.00    -0.003 C 
ATOM     20  C   UNL     1     -16.626  40.226  -4.033  1.00  0.00     0.004 C 
ENDBRANCH  18  19
ENDBRANCH  17  18
ENDBRANCH  16  17
ENDBRANCH  15  16
ENDBRANCH  14  15
ENDBRANCH  13  14
ENDBRANCH  12  13
ENDBRANCH   1  12
TORSDOF 16
ENDMDL
MODEL 2
REMARK VINA RESULT:    -5.351      1.481      4.634
REMARK INTER + INTRA:         -12.612
REMARK INTER:                 -10.762
REMARK INTRA:                  -1.850
REMARK UNBOUND:                -2.255
REMARK SMILES CCCCCCCCCCCCCCCCCC(=O)[O-]
REMARK SMILES IDX 10 1 11 2 12 3 13 4 14 5 15 6 16 7 17 8 18 9 19 10 20 11
REMARK SMILES IDX 9 12 8 13 7 14 6 15 5 16 4 17 3 18 2 19 1 20
REMARK H PARENT
REMARK Flexibility Score: inf
ROOT
ATOM      1  C   UNL     1     -16.321  42.359  -3.500  1.00  0.00     0.000 C 
ENDROOT
BRANCH   1   2
ATOM      2  C   UNL     1     -17.620  43.030  -3.989  1.00  0.00     0.000 C 
BRANCH   2   3
ATOM      3  C   UNL     1     -17.531  43.684  -5.381  1.00  0.00     0.000 C 
BRANCH   3   4
ATOM      4  C   UNL     1     -18.748  44.545  -5.773  1.00  0.00     0.000 C 
BRANCH   4   5
ATOM      5  C   UNL     1     -19.245  44.353  -7.220  1.00  0.00     0.000 C 
BRANCH   5   6
ATOM      6  C   UNL     1     -20.142  45.484  -7.753  1.00  0.00     0.000 C 
BRANCH   6   7
ATOM      7  C   UNL     1     -21.606  45.048  -7.937  1.00  0.00     0.006 C 
BRANCH   7   8
ATOM      8  C   UNL     1     -22.587  46.210  -7.730  1.00  0.00     0.053 C 
BRANCH   8   9
ATOM      9  C   UNL     1     -23.431  46.012  -6.509  1.00  0.00     0.041 C 
ATOM     10  O   UNL     1     -22.966  46.278  -5.368  1.00  0.00    -0.550 OA
ATOM     11  O   UNL     1     -24.742  45.571  -6.631  1.00  0.00    -0.550 OA
ENDBRANCH   8   9
ENDBRANCH   7   8
ENDBRANCH   6   7
ENDBRANCH   5   6
ENDBRANCH   4   5
ENDBRANCH   3   4
ENDBRANCH   2   3
ENDBRANCH   1   2
BRANCH   1  12
ATOM     12  C   UNL     1     -15.953  41.048  -4.224  1.00  0.00     0.000 C 
BRANCH  12  13
ATOM     13  C   UNL     1     -17.146  40.123  -4.537  1.00  0.00    -0.000 C 
BRANCH  13  14
ATOM     14  C   UNL     1     -17.475  39.964  -6.035  1.00  0.00    -0.000 C 
BRANCH  14  15
ATOM     15  C   UNL     1     -18.808  40.593  -6.483  1.00  0.00    -0.000 C 
BRANCH  15  16
ATOM     16  C   UNL     1     -19.798  40.783  -5.322  1.00  0.00    -0.000 C 
BRANCH  16  17
ATOM     17  C   UNL     1     -21.158  41.326  -5.790  1.00  0.00    -0.000 C 
BRANCH  17  18
ATOM     18  C   UNL     1     -22.100  40.220  -6.287  1.00  0.00    -0.000 C 
BRANCH  18  19
ATOM     19  C   UNL     1     -23.503  40.776  -6.556  1.00  0.00    -0.003 C 
ATOM     20  C   UNL     1     -23.522  42.299  -6.453  1.00  0.00     0.004 C 
ENDBRANCH  18  19
ENDBRANCH  17  18
ENDBRANCH  16  17
ENDBRANCH  15  16
ENDBRANCH  14  15
ENDBRANCH  13  14
ENDBRANCH  12  13
ENDBRANCH   1  12
TORSDOF 16
ENDMDL
MODEL 3
REMARK VINA RESULT:    -5.344      3.357      7.057
REMARK INTER + INTRA:         -12.597
REMARK INTER:                 -10.302
REMARK INTRA:                  -2.295
REMARK UNBOUND:                -2.255
REMARK SMILES CCCCCCCCCCCCCCCCCC(=O)[O-]
REMARK SMILES IDX 10 1 11 2 12 3 13 4 14 5 15 6 16 7 17 8 18 9 19 10 20 11
REMARK SMILES IDX 9 12 8 13 7 14 6 15 5 16 4 17 3 18 2 19 1 20
REMARK H PARENT
REMARK Flexibility Score: inf
ROOT
ATOM      1  C   UNL     1     -19.477  45.168  -6.625  1.00  0.00     0.000 C 
ENDROOT
BRANCH   1   2
ATOM      2  C   UNL     1     -19.240  43.923  -7.502  1.00  0.00     0.000 C 
BRANCH   2   3
ATOM      3  C   UNL     1     -18.557  42.743  -6.785  1.00  0.00     0.000 C 
BRANCH   3   4
ATOM      4  C   UNL     1     -18.352  41.485  -7.653  1.00  0.00     0.000 C 
BRANCH   4   5
ATOM      5  C   UNL     1     -18.012  40.200  -6.872  1.00  0.00     0.000 C 
BRANCH   5   6
ATOM      6  C   UNL     1     -17.944  40.369  -5.344  1.00  0.00     0.000 C 
BRANCH   6   7
ATOM      7  C   UNL     1     -16.514  40.238  -4.792  1.00  0.00     0.006 C 
BRANCH   7   8
ATOM      8  C   UNL     1     -16.352  40.931  -3.433  1.00  0.00     0.053 C 
BRANCH   8   9
ATOM      9  C   UNL     1     -16.670  42.393  -3.514  1.00  0.00     0.041 C 
ATOM     10  O   UNL     1     -15.882  43.180  -4.102  1.00  0.00    -0.550 OA
ATOM     11  O   UNL     1     -17.851  42.880  -2.971  1.00  0.00    -0.550 OA
ENDBRANCH   8   9
ENDBRANCH   7   8
ENDBRANCH   6   7
ENDBRANCH   5   6
ENDBRANCH   4   5
ENDBRANCH   3   4
ENDBRANCH   2   3
ENDBRANCH   1   2
BRANCH   1  12
ATOM     12  C   UNL     1     -20.518  46.164  -7.176  1.00  0.00     0.000 C 
BRANCH  12  13
ATOM     13  C   UNL     1     -21.931  46.022  -6.577  1.00  0.00    -0.000 C 
BRANCH  13  14
ATOM     14  C   UNL     1     -23.017  45.554  -7.565  1.00  0.00    -0.000 C 
BRANCH  14  15
ATOM     15  C   UNL     1     -23.742  44.253  -7.174  1.00  0.00    -0.000 C 
BRANCH  15  16
ATOM     16  C   UNL     1     -23.104  43.557  -5.959  1.00  0.00    -0.000 C 
BRANCH  16  17
ATOM     17  C   UNL     1     -23.236  42.026  -6.021  1.00  0.00    -0.000 C 
BRANCH  17  18
ATOM     18  C   UNL     1     -21.876  41.314  -6.063  1.00  0.00    -0.000 C 
BRANCH  18  19
ATOM     19  C   UNL     1     -21.825  40.300  -7.212  1.00  0.00    -0.003 C 
ATOM     20  C   UNL     1     -21.961  40.992  -8.565  1.00  0.00     0.004 C 
ENDBRANCH  18  19
ENDBRANCH  17  18
ENDBRANCH  16  17
ENDBRANCH  15  16
ENDBRANCH  14  15
ENDBRANCH  13  14
ENDBRANCH  12  13
ENDBRANCH   1  12
TORSDOF 16
ENDMDL
MODEL 4
REMARK VINA RESULT:    -5.336      1.253      1.840
REMARK INTER + INTRA:         -12.582
REMARK INTER:                 -10.590
REMARK INTRA:                  -1.992
REMARK UNBOUND:                -2.255
REMARK SMILES CCCCCCCCCCCCCCCCCC(=O)[O-]
REMARK SMILES IDX 10 1 11 2 12 3 13 4 14 5 15 6 16 7 17 8 18 9 19 10 20 11
REMARK SMILES IDX 9 12 8 13 7 14 6 15 5 16 4 17 3 18 2 19 1 20
REMARK H PARENT
REMARK Flexibility Score: inf
ROOT
ATOM      1  C   UNL     1     -21.090  40.034  -7.700  1.00  0.00     0.000 C 
ENDROOT
BRANCH   1   2
ATOM      2  C   UNL     1     -21.769  40.458  -6.383  1.00  0.00     0.000 C 
BRANCH   2   3
ATOM      3  C   UNL     1     -23.292  40.672  -6.475  1.00  0.00     0.000 C 
BRANCH   3   4
ATOM      4  C   UNL     1     -23.747  42.143  -6.405  1.00  0.00     0.000 C 
BRANCH   4   5
ATOM      5  C   UNL     1     -22.708  43.121  -5.820  1.00  0.00     0.000 C 
BRANCH   5   6
ATOM      6  C   UNL     1     -23.128  44.602  -5.840  1.00  0.00     0.000 C 
BRANCH   6   7
ATOM      7  C   UNL     1     -24.577  44.805  -6.314  1.00  0.00     0.006 C 
BRANCH   7   8
ATOM      8  C   UNL     1     -24.716  46.014  -7.249  1.00  0.00     0.053 C 
BRANCH   8   9
ATOM      9  C   UNL     1     -26.113  46.154  -7.771  1.00  0.00     0.041 C 
ATOM     10  O   UNL     1     -26.362  45.919  -8.983  1.00  0.00    -0.550 OA
ATOM     11  O   UNL     1     -27.145  46.510  -6.913  1.00  0.00    -0.550 OA
ENDBRANCH   8   9
ENDBRANCH   7   8
ENDBRANCH   6   7
ENDBRANCH   5   6
ENDBRANCH   4   5
ENDBRANCH   3   4
ENDBRANCH   2   3
ENDBRANCH   1   2
BRANCH   1  12
ATOM     12  C   UNL     1     -21.501  40.857  -8.938  1.00  0.00     0.000 C 
BRANCH  12  13
ATOM     13  C   UNL     1     -20.946  42.295  -8.975  1.00  0.00    -0.000 C 
BRANCH  13  14
ATOM     14  C   UNL     1     -19.424  42.414  -8.763  1.00  0.00    -0.000 C 
BRANCH  14  15
ATOM     15  C   UNL     1     -18.993  43.373  -7.638  1.00  0.00    -0.000 C 
BRANCH  15  16
ATOM     16  C   UNL     1     -18.698  42.645  -6.315  1.00  0.00    -0.000 C 
BRANCH  16  17
ATOM     17  C   UNL     1     -17.849  41.380  -6.515  1.00  0.00    -0.000 C 
BRANCH  17  18
ATOM     18  C   UNL     1     -17.617  40.607  -5.208  1.00  0.00    -0.000 C 
BRANCH  18  19
ATOM     19  C   UNL     1     -16.235  40.921  -4.624  1.00  0.00    -0.003 C 
ATOM     20  C   UNL     1     -16.312  42.053  -3.603  1.00  0.00     0.004 C 
ENDBRANCH  18  19
ENDBRANCH  17  18
ENDBRANCH  16  17
ENDBRANCH  15  16
ENDBRANCH  14  15
ENDBRANCH  13  14
ENDBRANCH  12  13
ENDBRANCH   1  12
TORSDOF 16
ENDMDL
MODEL 5
REMARK VINA RESULT:    -5.314      2.202      5.094
REMARK INTER + INTRA:         -12.540
REMARK INTER:                 -10.146
REMARK INTRA:                  -2.394
REMARK UNBOUND:                -2.255
REMARK SMILES CCCCCCCCCCCCCCCCCC(=O)[O-]
REMARK SMILES IDX 10 1 11 2 12 3 13 4 14 5 15 6 16 7 17 8 18 9 19 10 20 11
REMARK SMILES IDX 9 12 8 13 7 14 6 15 5 16 4 17 3 18 2 19 1 20
REMARK H PARENT
REMARK Flexibility Score: inf
ROOT
ATOM      1  C   UNL     1     -16.753  39.990  -4.184  1.00  0.00     0.000 C 
ENDROOT
BRANCH   1   2
ATOM      2  C   UNL     1     -15.955  41.305  -4.081  1.00  0.00     0.000 C 
BRANCH   2   3
ATOM      3  C   UNL     1     -16.587  42.381  -3.177  1.00  0.00     0.000 C 
BRANCH   3   4
ATOM      4  C   UNL     1     -17.876  43.021  -3.730  1.00  0.00     0.000 C 
BRANCH   4   5
ATOM      5  C   UNL     1     -17.722  43.728  -5.092  1.00  0.00     0.000 C 
BRANCH   5   6
ATOM      6  C   UNL     1     -18.924  43.578  -6.040  1.00  0.00     0.000 C 
BRANCH   6   7
ATOM      7  C   UNL     1     -19.351  44.912  -6.678  1.00  0.00     0.006 C 
BRANCH   7   8
ATOM      8  C   UNL     1     -20.093  44.707  -8.005  1.00  0.00     0.053 C 
BRANCH   8   9
ATOM      9  C   UNL     1     -21.576  44.639  -7.807  1.00  0.00     0.041 C 
ATOM     10  O   UNL     1     -22.088  45.026  -6.723  1.00  0.00    -0.550 OA
ATOM     11  O   UNL     1     -22.396  44.184  -8.831  1.00  0.00    -0.550 OA
ENDBRANCH   8   9
ENDBRANCH   7   8
ENDBRANCH   6   7
ENDBRANCH   5   6
ENDBRANCH   4   5
ENDBRANCH   3   4
ENDBRANCH   2   3
ENDBRANCH   1   2
BRANCH   1  12
ATOM     12  C   UNL     1     -17.894  40.000  -5.222  1.00  0.00     0.000 C 
BRANCH  12  13
ATOM     13  C   UNL     1     -17.454  40.318  -6.665  1.00  0.00    -0.000 C 
BRANCH  13  14
ATOM     14  C   UNL     1     -17.751  39.213  -7.697  1.00  0.00    -0.000 C 
BRANCH  14  15
ATOM     15  C   UNL     1     -18.748  39.603  -8.805  1.00  0.00    -0.000 C 
BRANCH  15  16
ATOM     16  C   UNL     1     -19.317  41.020  -8.624  1.00  0.00    -0.000 C 
BRANCH  16  17
ATOM     17  C   UNL     1     -20.834  41.017  -8.372  1.00  0.00    -0.000 C 
BRANCH  17  18
ATOM     18  C   UNL     1     -21.212  40.375  -7.029  1.00  0.00    -0.000 C 
BRANCH  18  19
ATOM     19  C   UNL     1     -21.933  41.382  -6.125  1.00  0.00    -0.003 C 
ATOM     20  C   UNL     1     -23.408  41.502  -6.500  1.00  0.00     0.004 C 
ENDBRANCH  18  19
ENDBRANCH  17  18
ENDBRANCH  16  17
ENDBRANCH  15  16
ENDBRANCH  14  15
ENDBRANCH  13  14
ENDBRANCH  12  13
ENDBRANCH   1  12
TORSDOF 16
ENDMDL
MODEL 6
REMARK VINA RESULT:    -5.301      1.225      2.068
REMARK INTER + INTRA:         -12.515
REMARK INTER:                 -10.029
REMARK INTRA:                  -2.487
REMARK UNBOUND:                -2.255
REMARK SMILES CCCCCCCCCCCCCCCCCC(=O)[O-]
REMARK SMILES IDX 10 1 11 2 12 3 13 4 14 5 15 6 16 7 17 8 18 9 19 10 20 11
REMARK SMILES IDX 9 12 8 13 7 14 6 15 5 16 4 17 3 18 2 19 1 20
REMARK H PARENT
REMARK Flexibility Score: inf
ROOT
ATOM      1  C   UNL     1     -21.836  40.619  -6.201  1.00  0.00     0.000 C 
ENDROOT
BRANCH   1   2
ATOM      2  C   UNL     1     -23.262  41.102  -6.531  1.00  0.00     0.000 C 
BRANCH   2   3
ATOM      3  C   UNL     1     -23.603  42.517  -6.028  1.00  0.00     0.000 C 
BRANCH   3   4
ATOM      4  C   UNL     1     -22.384  43.395  -5.681  1.00  0.00     0.000 C 
BRANCH   4   5
ATOM      5  C   UNL     1     -22.161  44.602  -6.616  1.00  0.00     0.000 C 
BRANCH   5   6
ATOM      6  C   UNL     1     -22.323  45.978  -5.947  1.00  0.00     0.000 C 
BRANCH   6   7
ATOM      7  C   UNL     1     -23.453  46.815  -6.572  1.00  0.00     0.006 C 
BRANCH   7   8
ATOM      8  C   UNL     1     -24.793  46.606  -5.855  1.00  0.00     0.053 C 
BRANCH   8   9
ATOM      9  C   UNL     1     -25.840  46.070  -6.782  1.00  0.00     0.041 C 
ATOM     10  O   UNL     1     -25.748  44.895  -7.230  1.00  0.00    -0.550 OA
ATOM     11  O   UNL     1     -26.936  46.851  -7.123  1.00  0.00    -0.550 OA
ENDBRANCH   8   9
ENDBRANCH   7   8
ENDBRANCH   6   7
ENDBRANCH   5   6
ENDBRANCH   4   5
ENDBRANCH   3   4
ENDBRANCH   2   3
ENDBRANCH   1   2
BRANCH   1  12
ATOM     12  C   UNL     1     -20.953  40.311  -7.427  1.00  0.00     0.000 C 
BRANCH  12  13
ATOM     13  C   UNL     1     -20.133  41.506  -7.952  1.00  0.00    -0.000 C 
BRANCH  13  14
ATOM     14  C   UNL     1     -18.608  41.289  -7.987  1.00  0.00    -0.000 C 
BRANCH  14  15
ATOM     15  C   UNL     1     -18.089  40.143  -7.097  1.00  0.00    -0.000 C 
BRANCH  15  16
ATOM     16  C   UNL     1     -17.463  40.644  -5.784  1.00  0.00    -0.000 C 
BRANCH  16  17
ATOM     17  C   UNL     1     -18.486  40.731  -4.640  1.00  0.00    -0.000 C 
BRANCH  17  18
ATOM     18  C   UNL     1     -18.938  42.171  -4.354  1.00  0.00    -0.000 C 
BRANCH  18  19
ATOM     19  C   UNL     1     -17.873  43.178  -4.805  1.00  0.00    -0.003 C 
ATOM     20  C   UNL     1     -18.455  44.195  -5.783  1.00  0.00     0.004 C 
ENDBRANCH  18  19
ENDBRANCH  17  18
ENDBRANCH  16  17
ENDBRANCH  15  16
ENDBRANCH  14  15
ENDBRANCH  13  14
ENDBRANCH  12  13
ENDBRANCH   1  12
TORSDOF 16
ENDMDL
MODEL 7
REMARK VINA RESULT:    -5.269     12.136     13.999
REMARK INTER + INTRA:         -12.452
REMARK INTER:                 -10.515
REMARK INTRA:                  -1.937
REMARK UNBOUND:                -2.255
REMARK SMILES CCCCCCCCCCCCCCCCCC(=O)[O-]
REMARK SMILES IDX 10 1 11 2 12 3 13 4 14 5 15 6 16 7 17 8 18 9 19 10 20 11
REMARK SMILES IDX 9 12 8 13 7 14 6 15 5 16 4 17 3 18 2 19 1 20
REMARK H PARENT
REMARK Flexibility Score: inf
ROOT
ATOM      1  C   UNL     1     -21.010  37.217   5.313  1.00  0.00     0.000 C 
ENDROOT
BRANCH   1   2
ATOM      2  C   UNL     1     -22.245  38.139   5.346  1.00  0.00     0.000 C 
BRANCH   2   3
ATOM      3  C   UNL     1     -22.231  39.207   6.457  1.00  0.00     0.000 C 
BRANCH   3   4
ATOM      4  C   UNL     1     -21.984  40.649   5.970  1.00  0.00     0.000 C 
BRANCH   4   5
ATOM      5  C   UNL     1     -22.146  40.861   4.451  1.00  0.00     0.000 C 
BRANCH   5   6
ATOM      6  C   UNL     1     -20.850  41.226   3.706  1.00  0.00     0.000 C 
BRANCH   6   7
ATOM      7  C   UNL     1     -19.626  41.296   4.636  1.00  0.00     0.006 C 
BRANCH   7   8
ATOM      8  C   UNL     1     -18.525  42.206   4.076  1.00  0.00     0.053 C 
BRANCH   8   9
ATOM      9  C   UNL     1     -18.947  43.644   4.061  1.00  0.00     0.041 C 
ATOM     10  O   UNL     1     -19.414  44.155   3.009  1.00  0.00    -0.550 OA
ATOM     11  O   UNL     1     -18.860  44.408   5.217  1.00  0.00    -0.550 OA
ENDBRANCH   8   9
ENDBRANCH   7   8
ENDBRANCH   6   7
ENDBRANCH   5   6
ENDBRANCH   4   5
ENDBRANCH   3   4
ENDBRANCH   2   3
ENDBRANCH   1   2
BRANCH   1  12
ATOM     12  C   UNL     1     -19.724  37.831   5.904  1.00  0.00     0.000 C 
BRANCH  12  13
ATOM     13  C   UNL     1     -18.955  36.914   6.876  1.00  0.00    -0.000 C 
BRANCH  13  14
ATOM     14  C   UNL     1     -19.821  35.885   7.628  1.00  0.00    -0.000 C 
BRANCH  14  15
ATOM     15  C   UNL     1     -20.251  36.304   9.046  1.00  0.00    -0.000 C 
BRANCH  15  16
ATOM     16  C   UNL     1     -21.773  36.482   9.180  1.00  0.00    -0.000 C 
BRANCH  16  17
ATOM     17  C   UNL     1     -22.556  35.667   8.138  1.00  0.00    -0.000 C 
BRANCH  17  18
ATOM     18  C   UNL     1     -23.921  36.285   7.803  1.00  0.00    -0.000 C 
BRANCH  18  19
ATOM     19  C   UNL     1     -24.122  37.607   8.554  1.00  0.00    -0.003 C 
ATOM     20  C   UNL     1     -24.970  37.405   9.807  1.00  0.00     0.004 C 
ENDBRANCH  18  19
ENDBRANCH  17  18
ENDBRANCH  16  17
ENDBRANCH  15  16
ENDBRANCH  14  15
ENDBRANCH  13  14
ENDBRANCH  12  13
ENDBRANCH   1  12
TORSDOF 16
ENDMDL
MODEL 8
REMARK VINA RESULT:    -5.189      3.816      6.979
REMARK INTER + INTRA:         -12.299
REMARK INTER:                  -9.773
REMARK INTRA:                  -2.526
REMARK UNBOUND:                -2.255
REMARK SMILES CCCCCCCCCCCCCCCCCC(=O)[O-]
REMARK SMILES IDX 10 1 11 2 12 3 13 4 14 5 15 6 16 7 17 8 18 9 19 10 20 11
REMARK SMILES IDX 9 12 8 13 7 14 6 15 5 16 4 17 3 18 2 19 1 20
REMARK H PARENT
REMARK Flexibility Score: inf
ROOT
ATOM      1  C   UNL     1     -21.540  46.359  -6.156  1.00  0.00     0.000 C 
ENDROOT
BRANCH   1   2
ATOM      2  C   UNL     1     -20.925  45.703  -7.408  1.00  0.00     0.000 C 
BRANCH   2   3
ATOM      3  C   UNL     1     -19.503  45.142  -7.216  1.00  0.00     0.000 C 
BRANCH   3   4
ATOM      4  C   UNL     1     -19.266  43.747  -7.828  1.00  0.00     0.000 C 
BRANCH   4   5
ATOM      5  C   UNL     1     -18.538  42.745  -6.909  1.00  0.00     0.000 C 
BRANCH   5   6
ATOM      6  C   UNL     1     -18.026  43.335  -5.583  1.00  0.00     0.000 C 
BRANCH   6   7
ATOM      7  C   UNL     1     -18.645  42.658  -4.349  1.00  0.00     0.006 C 
BRANCH   7   8
ATOM      8  C   UNL     1     -18.447  41.136  -4.364  1.00  0.00     0.053 C 
BRANCH   8   9
ATOM      9  C   UNL     1     -17.072  40.751  -3.908  1.00  0.00     0.041 C 
ATOM     10  O   UNL     1     -16.554  39.673  -4.303  1.00  0.00    -0.550 OA
ATOM     11  O   UNL     1     -16.350  41.599  -3.079  1.00  0.00    -0.550 OA
ENDBRANCH   8   9
ENDBRANCH   7   8
ENDBRANCH   6   7
ENDBRANCH   5   6
ENDBRANCH   4   5
ENDBRANCH   3   4
ENDBRANCH   2   3
ENDBRANCH   1   2
BRANCH   1  12
ATOM     12  C   UNL     1     -22.956  45.867  -5.793  1.00  0.00     0.000 C 
BRANCH  12  13
ATOM     13  C   UNL     1     -24.013  46.062  -6.898  1.00  0.00    -0.000 C 
BRANCH  13  14
ATOM     14  C   UNL     1     -24.664  44.765  -7.417  1.00  0.00    -0.000 C 
BRANCH  14  15
ATOM     15  C   UNL     1     -23.995  44.149  -8.661  1.00  0.00    -0.000 C 
BRANCH  15  16
ATOM     16  C   UNL     1     -23.204  42.869  -8.341  1.00  0.00    -0.000 C 
BRANCH  16  17
ATOM     17  C   UNL     1     -23.514  42.320  -6.939  1.00  0.00    -0.000 C 
BRANCH  17  18
ATOM     18  C   UNL     1     -22.251  42.097  -6.095  1.00  0.00    -0.000 C 
BRANCH  18  19
ATOM     19  C   UNL     1     -21.535  40.806  -6.512  1.00  0.00    -0.003 C 
ATOM     20  C   UNL     1     -22.407  39.582  -6.246  1.00  0.00     0.004 C 
ENDBRANCH  18  19
ENDBRANCH  17  18
ENDBRANCH  16  17
ENDBRANCH  15  16
ENDBRANCH  14  15
ENDBRANCH  13  14
ENDBRANCH  12  13
ENDBRANCH   1  12
TORSDOF 16
ENDMDL
MODEL 9
REMARK VINA RESULT:    -5.117      1.438      4.174
REMARK INTER + INTRA:         -12.159
REMARK INTER:                  -9.801
REMARK INTRA:                  -2.358
REMARK UNBOUND:                -2.255
REMARK SMILES CCCCCCCCCCCCCCCCCC(=O)[O-]
REMARK SMILES IDX 10 1 11 2 12 3 13 4 14 5 15 6 16 7 17 8 18 9 19 10 20 11
REMARK SMILES IDX 9 12 8 13 7 14 6 15 5 16 4 17 3 18 2 19 1 20
REMARK H PARENT
REMARK Flexibility Score: inf
ROOT
ATOM      1  C   UNL     1     -17.611  42.936  -3.418  1.00  0.00     0.000 C 
ENDROOT
BRANCH   1   2
ATOM      2  C   UNL     1     -18.617  43.189  -4.559  1.00  0.00     0.000 C 
BRANCH   2   3
ATOM      3  C   UNL     1     -18.067  44.009  -5.742  1.00  0.00     0.000 C 
BRANCH   3   4
ATOM      4  C   UNL     1     -18.972  45.168  -6.207  1.00  0.00     0.000 C 
BRANCH   4   5
ATOM      5  C   UNL     1     -19.651  44.958  -7.575  1.00  0.00     0.000 C 
BRANCH   5   6
ATOM      6  C   UNL     1     -21.189  44.961  -7.543  1.00  0.00     0.000 C 
BRANCH   6   7
ATOM      7  C   UNL     1     -21.760  44.401  -6.229  1.00  0.00     0.006 C 
BRANCH   7   8
ATOM      8  C   UNL     1     -23.160  44.950  -5.926  1.00  0.00     0.053 C 
BRANCH   8   9
ATOM      9  C   UNL     1     -24.225  44.188  -6.655  1.00  0.00     0.041 C 
ATOM     10  O   UNL     1     -24.049  42.974  -6.943  1.00  0.00    -0.550 OA
ATOM     11  O   UNL     1     -25.423  44.806  -6.983  1.00  0.00    -0.550 OA
ENDBRANCH   8   9
ENDBRANCH   7   8
ENDBRANCH   6   7
ENDBRANCH   5   6
ENDBRANCH   4   5
ENDBRANCH   3   4
ENDBRANCH   2   3
ENDBRANCH   1   2
BRANCH   1  12
ATOM     12  C   UNL     1     -16.251  42.365  -3.865  1.00  0.00     0.000 C 
BRANCH  12  13
ATOM     13  C   UNL     1     -16.101  40.840  -3.699  1.00  0.00    -0.000 C 
BRANCH  13  14
ATOM     14  C   UNL     1     -17.007  39.990  -4.611  1.00  0.00    -0.000 C 
BRANCH  14  15
ATOM     15  C   UNL     1     -17.069  40.446  -6.081  1.00  0.00    -0.000 C 
BRANCH  15  16
ATOM     16  C   UNL     1     -17.661  39.375  -7.013  1.00  0.00    -0.000 C 
BRANCH  16  17
ATOM     17  C   UNL     1     -18.425  39.984  -8.199  1.00  0.00    -0.000 C 
BRANCH  17  18
ATOM     18  C   UNL     1     -19.099  41.320  -7.849  1.00  0.00    -0.000 C 
BRANCH  18  19
ATOM     19  C   UNL     1     -20.607  41.134  -7.643  1.00  0.00    -0.003 C 
ATOM     20  C   UNL     1     -20.928  40.813  -6.185  1.00  0.00     0.004 C 
ENDBRANCH  18  19
ENDBRANCH  17  18
ENDBRANCH  16  17
ENDBRANCH  15  16
ENDBRANCH  14  15
ENDBRANCH  13  14
ENDBRANCH  12  13
ENDBRANCH   1  12
TORSDOF 16
ENDMDL
