MODEL 1
REMARK VINA RESULT:    -3.579      0.000      0.000
REMARK INTER + INTRA:          -8.617
REMARK INTER:                  -6.927
REMARK INTRA:                  -1.690
REMARK UNBOUND:                -1.690
REMARK SMILES CCCCCCCCCCCCCCCCCC(=O)[O-]
REMARK SMILES IDX 10 1 11 2 12 3 13 4 14 5 15 6 16 7 17 8 18 9 19 10 20 11
REMARK SMILES IDX 9 12 8 13 7 14 6 15 5 16 4 17 3 18 2 19 1 20
REMARK H PARENT
REMARK Flexibility Score: inf
ROOT
ATOM      1  C   UNL     1     -19.467  44.169 -10.881  1.00  0.00     0.000 C 
ENDROOT
BRANCH   1   2
ATOM      2  C   UNL     1     -19.865  43.885  -9.422  1.00  0.00     0.000 C 
BRANCH   2   3
ATOM      3  C   UNL     1     -18.736  43.214  -8.620  1.00  0.00     0.000 C 
BRANCH   3   4
ATOM      4  C   UNL     1     -18.183  44.123  -7.509  1.00  0.00     0.000 C 
BRANCH   4   5
ATOM      5  C   UNL     1     -16.651  44.034  -7.370  1.00  0.00     0.000 C 
BRANCH   5   6
ATOM      6  C   UNL     1     -16.146  43.592  -5.984  1.00  0.00     0.000 C 
BRANCH   6   7
ATOM      7  C   UNL     1     -17.097  42.610  -5.283  1.00  0.00     0.006 C 
BRANCH   7   8
ATOM      8  C   UNL     1     -17.282  42.988  -3.810  1.00  0.00     0.053 C 
BRANCH   8   9
ATOM      9  C   UNL     1     -18.719  43.287  -3.522  1.00  0.00     0.041 C 
ATOM     10  O   UNL     1     -19.195  44.423  -3.786  1.00  0.00    -0.550 OA
ATOM     11  O   UNL     1     -19.525  42.325  -2.925  1.00  0.00    -0.550 OA
ENDBRANCH   8   9
ENDBRANCH   7   8
ENDBRANCH   6   7
ENDBRANCH   5   6
ENDBRANCH   4   5
ENDBRANCH   3   4
ENDBRANCH   2   3
ENDBRANCH   1   2
BRANCH   1  12
ATOM     12  C   UNL     1     -19.099  45.645 -11.123  1.00  0.00     0.000 C 
BRANCH  12  13
ATOM     13  C   UNL     1     -17.767  46.094 -10.492  1.00  0.00    -0.000 C 
BRANCH  13  14
ATOM     14  C   UNL     1     -16.571  45.242 -10.952  1.00  0.00    -0.000 C 
BRANCH  14  15
ATOM     15  C   UNL     1     -15.219  45.890 -10.608  1.00  0.00    -0.000 C 
BRANCH  15  16
ATOM     16  C   UNL     1     -15.265  46.697  -9.298  1.00  0.00    -0.000 C 
BRANCH  16  17
ATOM     17  C   UNL     1     -14.563  48.060  -9.415  1.00  0.00    -0.000 C 
BRANCH  17  18
ATOM     18  C   UNL     1     -14.907  48.789 -10.725  1.00  0.00    -0.000 C 
BRANCH  18  19
ATOM     19  C   UNL     1     -14.645  50.301 -10.642  1.00  0.00    -0.003 C 
ATOM     20  C   UNL     1     -14.374  50.779  -9.215  1.00  0.00     0.004 C 
ENDBRANCH  18  19
ENDBRANCH  17  18
ENDBRANCH  16  17
ENDBRANCH  15  16
ENDBRANCH  14  15
ENDBRANCH  13  14
ENDBRANCH  12  13
ENDBRANCH   1  12
TORSDOF 16
ENDMDL
MODEL 2
REMARK VINA RESULT:    -3.542      1.636      2.184
REMARK INTER + INTRA:          -8.546
REMARK INTER:                  -6.574
REMARK INTRA:                  -1.972
REMARK UNBOUND:                -1.690
REMARK SMILES CCCCCCCCCCCCCCCCCC(=O)[O-]
REMARK SMILES IDX 10 1 11 2 12 3 13 4 14 5 15 6 16 7 17 8 18 9 19 10 20 11
REMARK SMILES IDX 9 12 8 13 7 14 6 15 5 16 4 17 3 18 2 19 1 20
REMARK H PARENT
REMARK Flexibility Score: inf
ROOT
ATOM      1  C   UNL     1     -19.420  42.869  -9.856  1.00  0.00     0.000 C 
ENDROOT
BRANCH   1   2
ATOM      2  C   UNL     1     -19.830  44.271  -9.369  1.00  0.00     0.000 C 
BRANCH   2   3
ATOM      3  C   UNL     1     -19.587  44.469  -7.863  1.00  0.00     0.000 C 
BRANCH   3   4
ATOM      4  C   UNL     1     -18.105  44.718  -7.533  1.00  0.00     0.000 C 
BRANCH   4   5
ATOM      5  C   UNL     1     -17.389  43.460  -7.007  1.00  0.00     0.000 C 
BRANCH   5   6
ATOM      6  C   UNL     1     -16.224  43.728  -6.038  1.00  0.00     0.000 C 
BRANCH   6   7
ATOM      7  C   UNL     1     -16.454  43.131  -4.642  1.00  0.00     0.006 C 
BRANCH   7   8
ATOM      8  C   UNL     1     -17.732  42.286  -4.613  1.00  0.00     0.053 C 
BRANCH   8   9
ATOM      9  C   UNL     1     -18.773  42.937  -3.759  1.00  0.00     0.041 C 
ATOM     10  O   UNL     1     -19.300  42.301  -2.808  1.00  0.00    -0.550 OA
ATOM     11  O   UNL     1     -19.190  44.234  -4.035  1.00  0.00    -0.550 OA
ENDBRANCH   8   9
ENDBRANCH   7   8
ENDBRANCH   6   7
ENDBRANCH   5   6
ENDBRANCH   4   5
ENDBRANCH   3   4
ENDBRANCH   2   3
ENDBRANCH   1   2
BRANCH   1  12
ATOM     12  C   UNL     1     -18.544  42.909 -11.121  1.00  0.00     0.000 C 
BRANCH  12  13
ATOM     13  C   UNL     1     -17.026  42.926 -10.860  1.00  0.00    -0.000 C 
BRANCH  13  14
ATOM     14  C   UNL     1     -16.455  44.350 -10.748  1.00  0.00    -0.000 C 
BRANCH  14  15
ATOM     15  C   UNL     1     -15.167  44.404  -9.908  1.00  0.00    -0.000 C 
BRANCH  15  16
ATOM     16  C   UNL     1     -14.598  45.830  -9.789  1.00  0.00    -0.000 C 
BRANCH  16  17
ATOM     17  C   UNL     1     -15.370  46.694  -8.779  1.00  0.00    -0.000 C 
BRANCH  17  18
ATOM     18  C   UNL     1     -14.491  47.785  -8.143  1.00  0.00    -0.000 C 
BRANCH  18  19
ATOM     19  C   UNL     1     -14.048  47.426  -6.717  1.00  0.00    -0.003 C 
ATOM     20  C   UNL     1     -14.182  48.597  -5.742  1.00  0.00     0.004 C 
ENDBRANCH  18  19
ENDBRANCH  17  18
ENDBRANCH  16  17
ENDBRANCH  15  16
ENDBRANCH  14  15
ENDBRANCH  13  14
ENDBRANCH  12  13
ENDBRANCH   1  12
TORSDOF 16
ENDMDL
MODEL 3
REMARK VINA RESULT:    -3.528      2.595      6.283
REMARK INTER + INTRA:          -8.518
REMARK INTER:                  -6.288
REMARK INTRA:                  -2.230
REMARK UNBOUND:                -1.690
REMARK SMILES CCCCCCCCCCCCCCCCCC(=O)[O-]
REMARK SMILES IDX 10 1 11 2 12 3 13 4 14 5 15 6 16 7 17 8 18 9 19 10 20 11
REMARK SMILES IDX 9 12 8 13 7 14 6 15 5 16 4 17 3 18 2 19 1 20
REMARK H PARENT
REMARK Flexibility Score: inf
ROOT
ATOM      1  C   UNL     1     -19.879  43.737  -9.571  1.00  0.00     0.000 C 
ENDROOT
BRANCH   1   2
ATOM      2  C   UNL     1     -19.831  44.584 -10.855  1.00  0.00     0.000 C 
BRANCH   2   3
ATOM      3  C   UNL     1     -18.447  45.210 -11.101  1.00  0.00     0.000 C 
BRANCH   3   4
ATOM      4  C   UNL     1     -17.323  44.160 -11.125  1.00  0.00     0.000 C 
BRANCH   4   5
ATOM      5  C   UNL     1     -16.044  44.635 -10.410  1.00  0.00     0.000 C 
BRANCH   5   6
ATOM      6  C   UNL     1     -16.100  46.070  -9.855  1.00  0.00     0.000 C 
BRANCH   6   7
ATOM      7  C   UNL     1     -14.717  46.625  -9.485  1.00  0.00     0.006 C 
BRANCH   7   8
ATOM      8  C   UNL     1     -14.835  48.029  -8.882  1.00  0.00     0.053 C 
BRANCH   8   9
ATOM      9  C   UNL     1     -14.555  47.995  -7.413  1.00  0.00     0.041 C 
ATOM     10  O   UNL     1     -14.613  49.054  -6.733  1.00  0.00    -0.550 OA
ATOM     11  O   UNL     1     -14.192  46.802  -6.800  1.00  0.00    -0.550 OA
ENDBRANCH   8   9
ENDBRANCH   7   8
ENDBRANCH   6   7
ENDBRANCH   5   6
ENDBRANCH   4   5
ENDBRANCH   3   4
ENDBRANCH   2   3
ENDBRANCH   1   2
BRANCH   1  12
ATOM     12  C   UNL     1     -20.216  44.569  -8.319  1.00  0.00     0.000 C 
BRANCH  12  13
ATOM     13  C   UNL     1     -19.023  44.853  -7.388  1.00  0.00    -0.000 C 
BRANCH  13  14
ATOM     14  C   UNL     1     -17.977  43.725  -7.394  1.00  0.00    -0.000 C 
BRANCH  14  15
ATOM     15  C   UNL     1     -16.652  44.146  -6.737  1.00  0.00    -0.000 C 
BRANCH  15  16
ATOM     16  C   UNL     1     -16.065  43.048  -5.830  1.00  0.00    -0.000 C 
BRANCH  16  17
ATOM     17  C   UNL     1     -16.728  43.007  -4.444  1.00  0.00    -0.000 C 
BRANCH  17  18
ATOM     18  C   UNL     1     -17.926  42.042  -4.392  1.00  0.00    -0.000 C 
BRANCH  18  19
ATOM     19  C   UNL     1     -19.098  42.604  -3.572  1.00  0.00    -0.003 C 
ATOM     20  C   UNL     1     -19.086  44.131  -3.488  1.00  0.00     0.004 C 
ENDBRANCH  18  19
ENDBRANCH  17  18
ENDBRANCH  16  17
ENDBRANCH  15  16
ENDBRANCH  14  15
ENDBRANCH  13  14
ENDBRANCH  12  13
ENDBRANCH   1  12
TORSDOF 16
ENDMDL
MODEL 4
REMARK VINA RESULT:    -3.387      3.385      7.047
REMARK INTER + INTRA:          -8.246
REMARK INTER:                  -6.804
REMARK INTRA:                  -1.442
REMARK UNBOUND:                -1.690
REMARK SMILES CCCCCCCCCCCCCCCCCC(=O)[O-]
REMARK SMILES IDX 10 1 11 2 12 3 13 4 14 5 15 6 16 7 17 8 18 9 19 10 20 11
REMARK SMILES IDX 9 12 8 13 7 14 6 15 5 16 4 17 3 18 2 19 1 20
REMARK H PARENT
REMARK Flexibility Score: inf
ROOT
ATOM      1  C   UNL     1     -18.616  43.951 -10.808  1.00  0.00     0.000 C 
ENDROOT
BRANCH   1   2
ATOM      2  C   UNL     1     -18.017  45.359 -10.983  1.00  0.00     0.000 C 
BRANCH   2   3
ATOM      3  C   UNL     1     -16.479  45.353 -10.972  1.00  0.00     0.000 C 
BRANCH   3   4
ATOM      4  C   UNL     1     -15.893  46.470 -10.090  1.00  0.00     0.000 C 
BRANCH   4   5
ATOM      5  C   UNL     1     -14.708  45.994  -9.230  1.00  0.00     0.000 C 
BRANCH   5   6
ATOM      6  C   UNL     1     -13.897  47.116  -8.556  1.00  0.00     0.000 C 
BRANCH   6   7
ATOM      7  C   UNL     1     -14.271  48.516  -9.065  1.00  0.00     0.006 C 
BRANCH   7   8
ATOM      8  C   UNL     1     -14.724  49.414  -7.909  1.00  0.00     0.053 C 
BRANCH   8   9
ATOM      9  C   UNL     1     -14.752  50.847  -8.338  1.00  0.00     0.041 C 
ATOM     10  O   UNL     1     -15.231  51.727  -7.574  1.00  0.00    -0.550 OA
ATOM     11  O   UNL     1     -14.285  51.207  -9.596  1.00  0.00    -0.550 OA
ENDBRANCH   8   9
ENDBRANCH   7   8
ENDBRANCH   6   7
ENDBRANCH   5   6
ENDBRANCH   4   5
ENDBRANCH   3   4
ENDBRANCH   2   3
ENDBRANCH   1   2
BRANCH   1  12
ATOM     12  C   UNL     1     -19.417  43.801  -9.502  1.00  0.00     0.000 C 
BRANCH  12  13
ATOM     13  C   UNL     1     -18.968  44.725  -8.354  1.00  0.00    -0.000 C 
BRANCH  13  14
ATOM     14  C   UNL     1     -18.320  43.959  -7.188  1.00  0.00    -0.000 C 
BRANCH  14  15
ATOM     15  C   UNL     1     -16.784  43.990  -7.243  1.00  0.00    -0.000 C 
BRANCH  15  16
ATOM     16  C   UNL     1     -16.133  43.212  -6.084  1.00  0.00    -0.000 C 
BRANCH  16  17
ATOM     17  C   UNL     1     -17.167  42.525  -5.177  1.00  0.00    -0.000 C 
BRANCH  17  18
ATOM     18  C   UNL     1     -17.317  43.228  -3.817  1.00  0.00    -0.000 C 
BRANCH  18  19
ATOM     19  C   UNL     1     -18.779  43.568  -3.488  1.00  0.00    -0.003 C 
ATOM     20  C   UNL     1     -19.522  42.408  -2.824  1.00  0.00     0.004 C 
ENDBRANCH  18  19
ENDBRANCH  17  18
ENDBRANCH  16  17
ENDBRANCH  15  16
ENDBRANCH  14  15
ENDBRANCH  13  14
ENDBRANCH  12  13
ENDBRANCH   1  12
TORSDOF 16
ENDMDL
MODEL 5
REMARK VINA RESULT:    -3.266      0.770      1.932
REMARK INTER + INTRA:          -8.011
REMARK INTER:                  -6.145
REMARK INTRA:                  -1.866
REMARK UNBOUND:                -1.690
REMARK SMILES CCCCCCCCCCCCCCCCCC(=O)[O-]
REMARK SMILES IDX 10 1 11 2 12 3 13 4 14 5 15 6 16 7 17 8 18 9 19 10 20 11
REMARK SMILES IDX 9 12 8 13 7 14 6 15 5 16 4 17 3 18 2 19 1 20
REMARK H PARENT
REMARK Flexibility Score: inf
ROOT
ATOM      1  C   UNL     1     -20.179  44.337  -8.855  1.00  0.00     0.000 C 
ENDROOT
BRANCH   1   2
ATOM      2  C   UNL     1     -19.281  44.690  -7.656  1.00  0.00     0.000 C 
BRANCH   2   3
ATOM      3  C   UNL     1     -18.054  43.771  -7.543  1.00  0.00     0.000 C 
BRANCH   3   4
ATOM      4  C   UNL     1     -16.728  44.549  -7.601  1.00  0.00     0.000 C 
BRANCH   4   5
ATOM      5  C   UNL     1     -15.680  44.023  -6.603  1.00  0.00     0.000 C 
BRANCH   5   6
ATOM      6  C   UNL     1     -16.166  42.889  -5.682  1.00  0.00     0.000 C 
BRANCH   6   7
ATOM      7  C   UNL     1     -16.510  43.372  -4.264  1.00  0.00     0.006 C 
BRANCH   7   8
ATOM      8  C   UNL     1     -17.591  42.489  -3.634  1.00  0.00     0.053 C 
BRANCH   8   9
ATOM      9  C   UNL     1     -18.880  43.238  -3.519  1.00  0.00     0.041 C 
ATOM     10  O   UNL     1     -19.763  42.859  -2.704  1.00  0.00    -0.550 OA
ATOM     11  O   UNL     1     -19.126  44.332  -4.340  1.00  0.00    -0.550 OA
ENDBRANCH   8   9
ENDBRANCH   7   8
ENDBRANCH   6   7
ENDBRANCH   5   6
ENDBRANCH   4   5
ENDBRANCH   3   4
ENDBRANCH   2   3
ENDBRANCH   1   2
BRANCH   1  12
ATOM     12  C   UNL     1     -19.476  43.425  -9.878  1.00  0.00     0.000 C 
BRANCH  12  13
ATOM     13  C   UNL     1     -18.932  44.147 -11.125  1.00  0.00    -0.000 C 
BRANCH  13  14
ATOM     14  C   UNL     1     -18.990  45.679 -11.002  1.00  0.00    -0.000 C 
BRANCH  14  15
ATOM     15  C   UNL     1     -17.603  46.333 -11.124  1.00  0.00    -0.000 C 
BRANCH  15  16
ATOM     16  C   UNL     1     -16.459  45.303 -11.110  1.00  0.00    -0.000 C 
BRANCH  16  17
ATOM     17  C   UNL     1     -15.115  45.915 -10.684  1.00  0.00    -0.000 C 
BRANCH  17  18
ATOM     18  C   UNL     1     -15.288  47.201  -9.857  1.00  0.00    -0.000 C 
BRANCH  18  19
ATOM     19  C   UNL     1     -14.229  48.262 -10.191  1.00  0.00    -0.003 C 
ATOM     20  C   UNL     1     -14.620  49.661  -9.713  1.00  0.00     0.004 C 
ENDBRANCH  18  19
ENDBRANCH  17  18
ENDBRANCH  16  17
ENDBRANCH  15  16
ENDBRANCH  14  15
ENDBRANCH  13  14
ENDBRANCH  12  13
ENDBRANCH   1  12
TORSDOF 16
ENDMDL
MODEL 6
REMARK VINA RESULT:    -3.151      3.061      7.054
REMARK INTER + INTRA:          -7.788
REMARK INTER:                  -6.251
REMARK INTRA:                  -1.538
REMARK UNBOUND:                -1.690
REMARK SMILES CCCCCCCCCCCCCCCCCC(=O)[O-]
REMARK SMILES IDX 10 1 11 2 12 3 13 4 14 5 15 6 16 7 17 8 18 9 19 10 20 11
REMARK SMILES IDX 9 12 8 13 7 14 6 15 5 16 4 17 3 18 2 19 1 20
REMARK H PARENT
REMARK Flexibility Score: inf
ROOT
ATOM      1  C   UNL     1     -19.528  44.826 -10.617  1.00  0.00     0.000 C 
ENDROOT
BRANCH   1   2
ATOM      2  C   UNL     1     -18.133  45.301 -11.060  1.00  0.00     0.000 C 
BRANCH   2   3
ATOM      3  C   UNL     1     -17.012  44.348 -10.610  1.00  0.00     0.000 C 
BRANCH   3   4
ATOM      4  C   UNL     1     -15.628  44.785 -11.120  1.00  0.00     0.000 C 
BRANCH   4   5
ATOM      5  C   UNL     1     -14.921  45.767 -10.166  1.00  0.00     0.000 C 
BRANCH   5   6
ATOM      6  C   UNL     1     -14.602  47.147 -10.768  1.00  0.00     0.000 C 
BRANCH   6   7
ATOM      7  C   UNL     1     -15.110  48.311  -9.904  1.00  0.00     0.006 C 
BRANCH   7   8
ATOM      8  C   UNL     1     -14.065  49.429  -9.825  1.00  0.00     0.053 C 
BRANCH   8   9
ATOM      9  C   UNL     1     -14.444  50.429  -8.779  1.00  0.00     0.041 C 
ATOM     10  O   UNL     1     -15.000  50.051  -7.713  1.00  0.00    -0.550 OA
ATOM     11  O   UNL     1     -14.221  51.783  -8.997  1.00  0.00    -0.550 OA
ENDBRANCH   8   9
ENDBRANCH   7   8
ENDBRANCH   6   7
ENDBRANCH   5   6
ENDBRANCH   4   5
ENDBRANCH   3   4
ENDBRANCH   2   3
ENDBRANCH   1   2
BRANCH   1  12
ATOM     12  C   UNL     1     -19.499  44.041  -9.292  1.00  0.00     0.000 C 
BRANCH  12  13
ATOM     13  C   UNL     1     -19.815  44.875  -8.036  1.00  0.00    -0.000 C 
BRANCH  13  14
ATOM     14  C   UNL     1     -18.762  44.709  -6.928  1.00  0.00    -0.000 C 
BRANCH  14  15
ATOM     15  C   UNL     1     -17.746  43.598  -7.241  1.00  0.00    -0.000 C 
BRANCH  15  16
ATOM     16  C   UNL     1     -16.446  43.735  -6.426  1.00  0.00    -0.000 C 
BRANCH  16  17
ATOM     17  C   UNL     1     -16.635  43.374  -4.944  1.00  0.00    -0.000 C 
BRANCH  17  18
ATOM     18  C   UNL     1     -17.478  42.102  -4.750  1.00  0.00    -0.000 C 
BRANCH  18  19
ATOM     19  C   UNL     1     -18.617  42.299  -3.738  1.00  0.00    -0.003 C 
ATOM     20  C   UNL     1     -18.752  43.749  -3.272  1.00  0.00     0.004 C 
ENDBRANCH  18  19
ENDBRANCH  17  18
ENDBRANCH  16  17
ENDBRANCH  15  16
ENDBRANCH  14  15
ENDBRANCH  13  14
ENDBRANCH  12  13
ENDBRANCH   1  12
TORSDOF 16
ENDMDL
MODEL 7
REMARK VINA RESULT:    -2.951      2.462      7.098
REMARK INTER + INTRA:          -7.402
REMARK INTER:                  -5.793
REMARK INTRA:                  -1.610
REMARK UNBOUND:                -1.690
REMARK SMILES CCCCCCCCCCCCCCCCCC(=O)[O-]
REMARK SMILES IDX 10 1 11 2 12 3 13 4 14 5 15 6 16 7 17 8 18 9 19 10 20 11
REMARK SMILES IDX 9 12 8 13 7 14 6 15 5 16 4 17 3 18 2 19 1 20
REMARK H PARENT
REMARK Flexibility Score: inf
ROOT
ATOM      1  C   UNL     1     -13.998  46.957  -7.559  1.00  0.00     0.000 C 
ENDROOT
BRANCH   1   2
ATOM      2  C   UNL     1     -14.446  48.335  -8.079  1.00  0.00     0.000 C 
BRANCH   2   3
ATOM      3  C   UNL     1     -14.062  48.566  -9.550  1.00  0.00     0.000 C 
BRANCH   3   4
ATOM      4  C   UNL     1     -15.291  48.714 -10.464  1.00  0.00     0.000 C 
BRANCH   4   5
ATOM      5  C   UNL     1     -15.721  47.383 -11.109  1.00  0.00     0.000 C 
BRANCH   5   6
ATOM      6  C   UNL     1     -17.214  47.037 -10.958  1.00  0.00     0.000 C 
BRANCH   6   7
ATOM      7  C   UNL     1     -17.469  45.528 -10.823  1.00  0.00     0.006 C 
BRANCH   7   8
ATOM      8  C   UNL     1     -18.580  45.251  -9.805  1.00  0.00     0.053 C 
BRANCH   8   9
ATOM      9  C   UNL     1     -19.385  44.060 -10.217  1.00  0.00     0.041 C 
ATOM     10  O   UNL     1     -19.028  42.903  -9.869  1.00  0.00    -0.550 OA
ATOM     11  O   UNL     1     -20.509  44.221 -11.018  1.00  0.00    -0.550 OA
ENDBRANCH   8   9
ENDBRANCH   7   8
ENDBRANCH   6   7
ENDBRANCH   5   6
ENDBRANCH   4   5
ENDBRANCH   3   4
ENDBRANCH   2   3
ENDBRANCH   1   2
BRANCH   1  12
ATOM     12  C   UNL     1     -13.875  45.907  -8.679  1.00  0.00     0.000 C 
BRANCH  12  13
ATOM     13  C   UNL     1     -14.762  44.661  -8.501  1.00  0.00    -0.000 C 
BRANCH  13  14
ATOM     14  C   UNL     1     -15.874  44.863  -7.458  1.00  0.00    -0.000 C 
BRANCH  14  15
ATOM     15  C   UNL     1     -15.853  43.788  -6.358  1.00  0.00    -0.000 C 
BRANCH  15  16
ATOM     16  C   UNL     1     -17.171  42.995  -6.279  1.00  0.00    -0.000 C 
BRANCH  16  17
ATOM     17  C   UNL     1     -17.307  42.199  -4.971  1.00  0.00    -0.000 C 
BRANCH  17  18
ATOM     18  C   UNL     1     -17.464  43.109  -3.740  1.00  0.00    -0.000 C 
BRANCH  18  19
ATOM     19  C   UNL     1     -18.929  43.479  -3.466  1.00  0.00    -0.003 C 
ATOM     20  C   UNL     1     -19.671  42.411  -2.661  1.00  0.00     0.004 C 
ENDBRANCH  18  19
ENDBRANCH  17  18
ENDBRANCH  16  17
ENDBRANCH  15  16
ENDBRANCH  14  15
ENDBRANCH  13  14
ENDBRANCH  12  13
ENDBRANCH   1  12
TORSDOF 16
ENDMDL
MODEL 8
REMARK VINA RESULT:    -2.910      1.728      2.720
REMARK INTER + INTRA:          -7.322
REMARK INTER:                  -5.738
REMARK INTRA:                  -1.584
REMARK UNBOUND:                -1.690
REMARK SMILES CCCCCCCCCCCCCCCCCC(=O)[O-]
REMARK SMILES IDX 10 1 11 2 12 3 13 4 14 5 15 6 16 7 17 8 18 9 19 10 20 11
REMARK SMILES IDX 9 12 8 13 7 14 6 15 5 16 4 17 3 18 2 19 1 20
REMARK H PARENT
REMARK Flexibility Score: inf
ROOT
ATOM      1  C   UNL     1     -16.575  43.847 -10.649  1.00  0.00     0.000 C 
ENDROOT
BRANCH   1   2
ATOM      2  C   UNL     1     -17.682  44.832 -11.067  1.00  0.00     0.000 C 
BRANCH   2   3
ATOM      3  C   UNL     1     -18.434  45.422  -9.862  1.00  0.00     0.000 C 
BRANCH   3   4
ATOM      4  C   UNL     1     -18.996  44.335  -8.929  1.00  0.00     0.000 C 
BRANCH   4   5
ATOM      5  C   UNL     1     -18.380  44.379  -7.518  1.00  0.00     0.000 C 
BRANCH   5   6
ATOM      6  C   UNL     1     -19.320  44.888  -6.410  1.00  0.00     0.000 C 
BRANCH   6   7
ATOM      7  C   UNL     1     -19.113  44.168  -5.069  1.00  0.00     0.006 C 
BRANCH   7   8
ATOM      8  C   UNL     1     -18.196  42.952  -5.238  1.00  0.00     0.053 C 
BRANCH   8   9
ATOM      9  C   UNL     1     -16.850  43.223  -4.645  1.00  0.00     0.041 C 
ATOM     10  O   UNL     1     -16.706  43.264  -3.395  1.00  0.00    -0.550 OA
ATOM     11  O   UNL     1     -15.761  43.469  -5.473  1.00  0.00    -0.550 OA
ENDBRANCH   8   9
ENDBRANCH   7   8
ENDBRANCH   6   7
ENDBRANCH   5   6
ENDBRANCH   4   5
ENDBRANCH   3   4
ENDBRANCH   2   3
ENDBRANCH   1   2
BRANCH   1  12
ATOM     12  C   UNL     1     -15.173  44.300 -11.094  1.00  0.00     0.000 C 
BRANCH  12  13
ATOM     13  C   UNL     1     -14.061  44.088 -10.050  1.00  0.00    -0.000 C 
BRANCH  13  14
ATOM     14  C   UNL     1     -14.326  44.837  -8.733  1.00  0.00    -0.000 C 
BRANCH  14  15
ATOM     15  C   UNL     1     -13.989  46.334  -8.828  1.00  0.00    -0.000 C 
BRANCH  15  16
ATOM     16  C   UNL     1     -15.245  47.217  -8.954  1.00  0.00    -0.000 C 
BRANCH  16  17
ATOM     17  C   UNL     1     -15.107  48.292 -10.044  1.00  0.00    -0.000 C 
BRANCH  17  18
ATOM     18  C   UNL     1     -14.449  49.581  -9.521  1.00  0.00    -0.000 C 
BRANCH  18  19
ATOM     19  C   UNL     1     -14.899  49.935  -8.095  1.00  0.00    -0.003 C 
ATOM     20  C   UNL     1     -14.907  51.441  -7.832  1.00  0.00     0.004 C 
ENDBRANCH  18  19
ENDBRANCH  17  18
ENDBRANCH  16  17
ENDBRANCH  15  16
ENDBRANCH  14  15
ENDBRANCH  13  14
ENDBRANCH  12  13
ENDBRANCH   1  12
TORSDOF 16
ENDMDL
MODEL 9
REMARK VINA RESULT:    -2.668      2.797      4.614
REMARK INTER + INTRA:          -6.854
REMARK INTER:                  -5.062
REMARK INTRA:                  -1.793
REMARK UNBOUND:                -1.690
REMARK SMILES CCCCCCCCCCCCCCCCCC(=O)[O-]
REMARK SMILES IDX 10 1 11 2 12 3 13 4 14 5 15 6 16 7 17 8 18 9 19 10 20 11
REMARK SMILES IDX 9 12 8 13 7 14 6 15 5 16 4 17 3 18 2 19 1 20
REMARK H PARENT
REMARK Flexibility Score: inf
ROOT
ATOM      1  C   UNL     1     -15.030  45.150  -7.731  1.00  0.00     0.000 C 
ENDROOT
BRANCH   1   2
ATOM      2  C   UNL     1     -15.578  43.777  -7.304  1.00  0.00     0.000 C 
BRANCH   2   3
ATOM      3  C   UNL     1     -16.105  43.773  -5.859  1.00  0.00     0.000 C 
BRANCH   3   4
ATOM      4  C   UNL     1     -17.607  43.447  -5.781  1.00  0.00     0.000 C 
BRANCH   4   5
ATOM      5  C   UNL     1     -18.294  43.456  -7.159  1.00  0.00     0.000 C 
BRANCH   5   6
ATOM      6  C   UNL     1     -18.827  44.827  -7.614  1.00  0.00     0.000 C 
BRANCH   6   7
ATOM      7  C   UNL     1     -18.455  45.163  -9.066  1.00  0.00     0.006 C 
BRANCH   7   8
ATOM      8  C   UNL     1     -18.916  44.056 -10.019  1.00  0.00     0.053 C 
BRANCH   8   9
ATOM      9  C   UNL     1     -17.743  43.278 -10.527  1.00  0.00     0.041 C 
ATOM     10  O   UNL     1     -16.677  43.872 -10.838  1.00  0.00    -0.550 OA
ATOM     11  O   UNL     1     -17.839  41.902 -10.693  1.00  0.00    -0.550 OA
ENDBRANCH   8   9
ENDBRANCH   7   8
ENDBRANCH   6   7
ENDBRANCH   5   6
ENDBRANCH   4   5
ENDBRANCH   3   4
ENDBRANCH   2   3
ENDBRANCH   1   2
BRANCH   1  12
ATOM     12  C   UNL     1     -13.990  45.053  -8.862  1.00  0.00     0.000 C 
BRANCH  12  13
ATOM     13  C   UNL     1     -14.105  46.142  -9.945  1.00  0.00    -0.000 C 
BRANCH  13  14
ATOM     14  C   UNL     1     -15.272  47.112  -9.696  1.00  0.00    -0.000 C 
BRANCH  14  15
ATOM     15  C   UNL     1     -15.530  48.043 -10.893  1.00  0.00    -0.000 C 
BRANCH  15  16
ATOM     16  C   UNL     1     -15.115  49.499 -10.611  1.00  0.00    -0.000 C 
BRANCH  16  17
ATOM     17  C   UNL     1     -14.170  49.623  -9.405  1.00  0.00    -0.000 C 
BRANCH  17  18
ATOM     18  C   UNL     1     -14.804  50.398  -8.236  1.00  0.00    -0.000 C 
BRANCH  18  19
ATOM     19  C   UNL     1     -14.142  50.073  -6.888  1.00  0.00    -0.003 C 
ATOM     20  C   UNL     1     -14.365  48.625  -6.451  1.00  0.00     0.004 C 
ENDBRANCH  18  19
ENDBRANCH  17  18
ENDBRANCH  16  17
ENDBRANCH  15  16
ENDBRANCH  14  15
ENDBRANCH  13  14
ENDBRANCH  12  13
ENDBRANCH   1  12
TORSDOF 16
ENDMDL
