MODEL 1
REMARK VINA RESULT:    -3.817      0.000      0.000
REMARK INTER + INTRA:          -9.959
REMARK INTER:                  -7.386
REMARK INTRA:                  -2.572
REMARK UNBOUND:                -2.572
REMARK SMILES CCCCCCCCCCCCCCCCCC(=O)[O-]
REMARK SMILES IDX 10 1 11 2 12 3 13 4 14 5 15 6 16 7 17 8 18 9 19 10 20 11
REMARK SMILES IDX 9 12 8 13 7 14 6 15 5 16 4 17 3 18 2 19 1 20
REMARK H PARENT
REMARK Flexibility Score: inf
ROOT
ATOM      1  C   UNL     1      26.598 -18.016  24.691  1.00  0.00     0.000 C 
ENDROOT
BRANCH   1   2
ATOM      2  C   UNL     1      27.981 -18.660  24.490  1.00  0.00     0.000 C 
BRANCH   2   3
ATOM      3  C   UNL     1      28.151 -19.966  25.285  1.00  0.00     0.000 C 
BRANCH   3   4
ATOM      4  C   UNL     1      29.275 -19.878  26.331  1.00  0.00     0.000 C 
BRANCH   4   5
ATOM      5  C   UNL     1      28.736 -19.722  27.764  1.00  0.00     0.000 C 
BRANCH   5   6
ATOM      6  C   UNL     1      29.168 -18.403  28.420  1.00  0.00     0.000 C 
BRANCH   6   7
ATOM      7  C   UNL     1      28.300 -18.092  29.649  1.00  0.00     0.006 C 
BRANCH   7   8
ATOM      8  C   UNL     1      28.307 -16.599  30.002  1.00  0.00     0.053 C 
BRANCH   8   9
ATOM      9  C   UNL     1      28.014 -16.368  31.453  1.00  0.00     0.041 C 
ATOM     10  O   UNL     1      27.443 -17.261  32.134  1.00  0.00    -0.550 OA
ATOM     11  O   UNL     1      28.342 -15.155  32.045  1.00  0.00    -0.550 OA
ENDBRANCH   8   9
ENDBRANCH   7   8
ENDBRANCH   6   7
ENDBRANCH   5   6
ENDBRANCH   4   5
ENDBRANCH   3   4
ENDBRANCH   2   3
ENDBRANCH   1   2
BRANCH   1  12
ATOM     12  C   UNL     1      26.692 -16.645  25.393  1.00  0.00     0.000 C 
BRANCH  12  13
ATOM     13  C   UNL     1      26.252 -16.675  26.867  1.00  0.00    -0.000 C 
BRANCH  13  14
ATOM     14  C   UNL     1      25.512 -17.968  27.243  1.00  0.00    -0.000 C 
BRANCH  14  15
ATOM     15  C   UNL     1      24.047 -17.718  27.638  1.00  0.00    -0.000 C 
BRANCH  15  16
ATOM     16  C   UNL     1      23.072 -17.945  26.473  1.00  0.00    -0.000 C 
BRANCH  16  17
ATOM     17  C   UNL     1      22.563 -16.610  25.916  1.00  0.00    -0.000 C 
BRANCH  17  18
ATOM     18  C   UNL     1      22.818 -15.466  26.911  1.00  0.00    -0.000 C 
BRANCH  18  19
ATOM     19  C   UNL     1      23.342 -14.195  26.227  1.00  0.00    -0.003 C 
ATOM     20  C   UNL     1      24.412 -13.479  27.050  1.00  0.00     0.004 C 
ENDBRANCH  18  19
ENDBRANCH  17  18
ENDBRANCH  16  17
ENDBRANCH  15  16
ENDBRANCH  14  15
ENDBRANCH  13  14
ENDBRANCH  12  13
ENDBRANCH   1  12
TORSDOF 16
ENDMDL
MODEL 2
REMARK VINA RESULT:    -3.805      1.397      2.238
REMARK INTER + INTRA:          -9.937
REMARK INTER:                  -7.125
REMARK INTRA:                  -2.811
REMARK UNBOUND:                -2.572
REMARK SMILES CCCCCCCCCCCCCCCCCC(=O)[O-]
REMARK SMILES IDX 10 1 11 2 12 3 13 4 14 5 15 6 16 7 17 8 18 9 19 10 20 11
REMARK SMILES IDX 9 12 8 13 7 14 6 15 5 16 4 17 3 18 2 19 1 20
REMARK H PARENT
REMARK Flexibility Score: inf
ROOT
ATOM      1  C   UNL     1      26.419 -16.471  25.734  1.00  0.00     0.000 C 
ENDROOT
BRANCH   1   2
ATOM      2  C   UNL     1      26.156 -17.703  24.850  1.00  0.00     0.000 C 
BRANCH   2   3
ATOM      3  C   UNL     1      27.427 -18.222  24.158  1.00  0.00     0.000 C 
BRANCH   3   4
ATOM      4  C   UNL     1      27.755 -19.675  24.539  1.00  0.00     0.000 C 
BRANCH   4   5
ATOM      5  C   UNL     1      28.867 -19.771  25.598  1.00  0.00     0.000 C 
BRANCH   5   6
ATOM      6  C   UNL     1      29.818 -18.565  25.570  1.00  0.00     0.000 C 
BRANCH   6   7
ATOM      7  C   UNL     1      30.447 -18.331  26.952  1.00  0.00     0.006 C 
BRANCH   7   8
ATOM      8  C   UNL     1      29.509 -18.743  28.095  1.00  0.00     0.053 C 
BRANCH   8   9
ATOM      9  C   UNL     1      29.714 -17.899  29.316  1.00  0.00     0.041 C 
ATOM     10  O   UNL     1      30.814 -17.928  29.928  1.00  0.00    -0.550 OA
ATOM     11  O   UNL     1      28.678 -17.108  29.796  1.00  0.00    -0.550 OA
ENDBRANCH   8   9
ENDBRANCH   7   8
ENDBRANCH   6   7
ENDBRANCH   5   6
ENDBRANCH   4   5
ENDBRANCH   3   4
ENDBRANCH   2   3
ENDBRANCH   1   2
BRANCH   1  12
ATOM     12  C   UNL     1      26.278 -16.794  27.237  1.00  0.00     0.000 C 
BRANCH  12  13
ATOM     13  C   UNL     1      25.942 -18.268  27.522  1.00  0.00    -0.000 C 
BRANCH  13  14
ATOM     14  C   UNL     1      24.541 -18.454  28.128  1.00  0.00    -0.000 C 
BRANCH  14  15
ATOM     15  C   UNL     1      23.506 -18.918  27.091  1.00  0.00    -0.000 C 
BRANCH  15  16
ATOM     16  C   UNL     1      22.312 -17.958  26.974  1.00  0.00    -0.000 C 
BRANCH  16  17
ATOM     17  C   UNL     1      22.675 -16.736  26.121  1.00  0.00    -0.000 C 
BRANCH  17  18
ATOM     18  C   UNL     1      22.777 -15.471  26.987  1.00  0.00    -0.000 C 
BRANCH  18  19
ATOM     19  C   UNL     1      23.355 -14.274  26.219  1.00  0.00    -0.003 C 
ATOM     20  C   UNL     1      24.458 -13.551  26.993  1.00  0.00     0.004 C 
ENDBRANCH  18  19
ENDBRANCH  17  18
ENDBRANCH  16  17
ENDBRANCH  15  16
ENDBRANCH  14  15
ENDBRANCH  13  14
ENDBRANCH  12  13
ENDBRANCH   1  12
TORSDOF 16
ENDMDL
MODEL 3
REMARK VINA RESULT:    -3.788      3.125      5.906
REMARK INTER + INTRA:          -9.904
REMARK INTER:                  -8.263
REMARK INTRA:                  -1.641
REMARK UNBOUND:                -2.572
REMARK SMILES CCCCCCCCCCCCCCCCCC(=O)[O-]
REMARK SMILES IDX 10 1 11 2 12 3 13 4 14 5 15 6 16 7 17 8 18 9 19 10 20 11
REMARK SMILES IDX 9 12 8 13 7 14 6 15 5 16 4 17 3 18 2 19 1 20
REMARK H PARENT
REMARK Flexibility Score: inf
ROOT
ATOM      1  C   UNL     1      29.655 -19.251  26.633  1.00  0.00     0.000 C 
ENDROOT
BRANCH   1   2
ATOM      2  C   UNL     1      29.495 -18.651  25.225  1.00  0.00     0.000 C 
BRANCH   2   3
ATOM      3  C   UNL     1      28.317 -19.262  24.448  1.00  0.00     0.000 C 
BRANCH   3   4
ATOM      4  C   UNL     1      26.954 -18.743  24.937  1.00  0.00     0.000 C 
BRANCH   4   5
ATOM      5  C   UNL     1      26.669 -17.304  24.473  1.00  0.00     0.000 C 
BRANCH   5   6
ATOM      6  C   UNL     1      26.281 -16.373  25.631  1.00  0.00     0.000 C 
BRANCH   6   7
ATOM      7  C   UNL     1      25.170 -16.998  26.488  1.00  0.00     0.006 C 
BRANCH   7   8
ATOM      8  C   UNL     1      24.148 -15.957  26.965  1.00  0.00     0.053 C 
BRANCH   8   9
ATOM      9  C   UNL     1      22.952 -15.898  26.066  1.00  0.00     0.041 C 
ATOM     10  O   UNL     1      22.428 -14.789  25.781  1.00  0.00    -0.550 OA
ATOM     11  O   UNL     1      22.394 -17.071  25.572  1.00  0.00    -0.550 OA
ENDBRANCH   8   9
ENDBRANCH   7   8
ENDBRANCH   6   7
ENDBRANCH   5   6
ENDBRANCH   4   5
ENDBRANCH   3   4
ENDBRANCH   2   3
ENDBRANCH   1   2
BRANCH   1  12
ATOM     12  C   UNL     1      30.351 -18.273  27.605  1.00  0.00     0.000 C 
BRANCH  12  13
ATOM     13  C   UNL     1      29.630 -18.131  28.957  1.00  0.00    -0.000 C 
BRANCH  13  14
ATOM     14  C   UNL     1      28.101 -18.054  28.814  1.00  0.00    -0.000 C 
BRANCH  14  15
ATOM     15  C   UNL     1      27.513 -16.780  29.441  1.00  0.00    -0.000 C 
BRANCH  15  16
ATOM     16  C   UNL     1      28.260 -16.343  30.709  1.00  0.00    -0.000 C 
BRANCH  16  17
ATOM     17  C   UNL     1      28.402 -14.816  30.763  1.00  0.00    -0.000 C 
BRANCH  17  18
ATOM     18  C   UNL     1      29.879 -14.404  30.855  1.00  0.00    -0.000 C 
BRANCH  18  19
ATOM     19  C   UNL     1      30.195 -13.625  32.140  1.00  0.00    -0.003 C 
ATOM     20  C   UNL     1      29.181 -12.516  32.425  1.00  0.00     0.004 C 
ENDBRANCH  18  19
ENDBRANCH  17  18
ENDBRANCH  16  17
ENDBRANCH  15  16
ENDBRANCH  14  15
ENDBRANCH  13  14
ENDBRANCH  12  13
ENDBRANCH   1  12
TORSDOF 16
ENDMDL
MODEL 4
REMARK VINA RESULT:    -3.754      5.080      7.233
REMARK INTER + INTRA:          -9.838
REMARK INTER:                  -8.263
REMARK INTRA:                  -1.575
REMARK UNBOUND:                -2.572
REMARK SMILES CCCCCCCCCCCCCCCCCC(=O)[O-]
REMARK SMILES IDX 10 1 11 2 12 3 13 4 14 5 15 6 16 7 17 8 18 9 19 10 20 11
REMARK SMILES IDX 9 12 8 13 7 14 6 15 5 16 4 17 3 18 2 19 1 20
REMARK H PARENT
REMARK Flexibility Score: inf
ROOT
ATOM      1  C   UNL     1      21.679 -16.697  28.426  1.00  0.00     0.000 C 
ENDROOT
BRANCH   1   2
ATOM      2  C   UNL     1      22.018 -15.295  27.893  1.00  0.00     0.000 C 
BRANCH   2   3
ATOM      3  C   UNL     1      22.817 -15.334  26.579  1.00  0.00     0.000 C 
BRANCH   3   4
ATOM      4  C   UNL     1      22.902 -16.749  25.982  1.00  0.00     0.000 C 
BRANCH   4   5
ATOM      5  C   UNL     1      24.353 -17.208  25.756  1.00  0.00     0.000 C 
BRANCH   5   6
ATOM      6  C   UNL     1      25.379 -16.110  26.073  1.00  0.00     0.000 C 
BRANCH   6   7
ATOM      7  C   UNL     1      26.697 -16.358  25.323  1.00  0.00     0.006 C 
BRANCH   7   8
ATOM      8  C   UNL     1      26.761 -17.764  24.712  1.00  0.00     0.053 C 
BRANCH   8   9
ATOM      9  C   UNL     1      28.095 -18.408  24.933  1.00  0.00     0.041 C 
ATOM     10  O   UNL     1      28.736 -18.189  25.995  1.00  0.00    -0.550 OA
ATOM     11  O   UNL     1      28.646 -19.222  23.952  1.00  0.00    -0.550 OA
ENDBRANCH   8   9
ENDBRANCH   7   8
ENDBRANCH   6   7
ENDBRANCH   5   6
ENDBRANCH   4   5
ENDBRANCH   3   4
ENDBRANCH   2   3
ENDBRANCH   1   2
BRANCH   1  12
ATOM     12  C   UNL     1      20.683 -16.645  29.605  1.00  0.00     0.000 C 
BRANCH  12  13
ATOM     13  C   UNL     1      19.998 -15.277  29.774  1.00  0.00    -0.000 C 
BRANCH  13  14
ATOM     14  C   UNL     1      19.168 -15.180  31.064  1.00  0.00    -0.000 C 
BRANCH  14  15
ATOM     15  C   UNL     1      19.720 -16.070  32.190  1.00  0.00    -0.000 C 
BRANCH  15  16
ATOM     16  C   UNL     1      18.615 -16.821  32.948  1.00  0.00    -0.000 C 
BRANCH  16  17
ATOM     17  C   UNL     1      17.880 -17.796  32.020  1.00  0.00    -0.000 C 
BRANCH  17  18
ATOM     18  C   UNL     1      16.374 -17.494  31.986  1.00  0.00    -0.000 C 
BRANCH  18  19
ATOM     19  C   UNL     1      15.894 -17.038  30.600  1.00  0.00    -0.003 C 
ATOM     20  C   UNL     1      16.799 -17.531  29.470  1.00  0.00     0.004 C 
ENDBRANCH  18  19
ENDBRANCH  17  18
ENDBRANCH  16  17
ENDBRANCH  15  16
ENDBRANCH  14  15
ENDBRANCH  13  14
ENDBRANCH  12  13
ENDBRANCH   1  12
TORSDOF 16
ENDMDL
MODEL 5
REMARK VINA RESULT:    -3.693      2.804      5.732
REMARK INTER + INTRA:          -9.720
REMARK INTER:                  -8.083
REMARK INTRA:                  -1.637
REMARK UNBOUND:                -2.572
REMARK SMILES CCCCCCCCCCCCCCCCCC(=O)[O-]
REMARK SMILES IDX 10 1 11 2 12 3 13 4 14 5 15 6 16 7 17 8 18 9 19 10 20 11
REMARK SMILES IDX 9 12 8 13 7 14 6 15 5 16 4 17 3 18 2 19 1 20
REMARK H PARENT
REMARK Flexibility Score: inf
ROOT
ATOM      1  C   UNL     1      29.568 -18.261  25.891  1.00  0.00     0.000 C 
ENDROOT
BRANCH   1   2
ATOM      2  C   UNL     1      28.828 -18.825  24.666  1.00  0.00     0.000 C 
BRANCH   2   3
ATOM      3  C   UNL     1      27.318 -18.533  24.694  1.00  0.00     0.000 C 
BRANCH   3   4
ATOM      4  C   UNL     1      27.010 -17.028  24.778  1.00  0.00     0.000 C 
BRANCH   4   5
ATOM      5  C   UNL     1      26.038 -16.688  25.920  1.00  0.00     0.000 C 
BRANCH   5   6
ATOM      6  C   UNL     1      24.767 -17.550  25.895  1.00  0.00     0.000 C 
BRANCH   6   7
ATOM      7  C   UNL     1      23.856 -17.218  27.087  1.00  0.00     0.006 C 
BRANCH   7   8
ATOM      8  C   UNL     1      22.583 -16.478  26.657  1.00  0.00     0.053 C 
BRANCH   8   9
ATOM      9  C   UNL     1      22.628 -15.028  27.029  1.00  0.00     0.041 C 
ATOM     10  O   UNL     1      21.851 -14.576  27.911  1.00  0.00    -0.550 OA
ATOM     11  O   UNL     1      23.505 -14.170  26.378  1.00  0.00    -0.550 OA
ENDBRANCH   8   9
ENDBRANCH   7   8
ENDBRANCH   6   7
ENDBRANCH   5   6
ENDBRANCH   4   5
ENDBRANCH   3   4
ENDBRANCH   2   3
ENDBRANCH   1   2
BRANCH   1  12
ATOM     12  C   UNL     1      29.795 -19.334  26.977  1.00  0.00     0.000 C 
BRANCH  12  13
ATOM     13  C   UNL     1      29.315 -18.907  28.376  1.00  0.00    -0.000 C 
BRANCH  13  14
ATOM     14  C   UNL     1      27.825 -18.529  28.405  1.00  0.00    -0.000 C 
BRANCH  14  15
ATOM     15  C   UNL     1      27.546 -17.294  29.278  1.00  0.00    -0.000 C 
BRANCH  15  16
ATOM     16  C   UNL     1      28.759 -16.881  30.125  1.00  0.00    -0.000 C 
BRANCH  16  17
ATOM     17  C   UNL     1      28.332 -15.974  31.287  1.00  0.00    -0.000 C 
BRANCH  17  18
ATOM     18  C   UNL     1      29.473 -15.029  31.694  1.00  0.00    -0.000 C 
BRANCH  18  19
ATOM     19  C   UNL     1      29.260 -13.595  31.188  1.00  0.00    -0.003 C 
ATOM     20  C   UNL     1      29.235 -12.566  32.319  1.00  0.00     0.004 C 
ENDBRANCH  18  19
ENDBRANCH  17  18
ENDBRANCH  16  17
ENDBRANCH  15  16
ENDBRANCH  14  15
ENDBRANCH  13  14
ENDBRANCH  12  13
ENDBRANCH   1  12
TORSDOF 16
ENDMDL
MODEL 6
REMARK VINA RESULT:    -3.680      1.338      2.573
REMARK INTER + INTRA:          -9.694
REMARK INTER:                  -7.464
REMARK INTRA:                  -2.230
REMARK UNBOUND:                -2.572
REMARK SMILES CCCCCCCCCCCCCCCCCC(=O)[O-]
REMARK SMILES IDX 10 1 11 2 12 3 13 4 14 5 15 6 16 7 17 8 18 9 19 10 20 11
REMARK SMILES IDX 9 12 8 13 7 14 6 15 5 16 4 17 3 18 2 19 1 20
REMARK H PARENT
REMARK Flexibility Score: inf
ROOT
ATOM      1  C   UNL     1      28.910 -18.989  24.318  1.00  0.00     0.000 C 
ENDROOT
BRANCH   1   2
ATOM      2  C   UNL     1      29.844 -18.576  25.469  1.00  0.00     0.000 C 
BRANCH   2   3
ATOM      3  C   UNL     1      30.381 -19.779  26.262  1.00  0.00     0.000 C 
BRANCH   3   4
ATOM      4  C   UNL     1      30.094 -19.669  27.769  1.00  0.00     0.000 C 
BRANCH   4   5
ATOM      5  C   UNL     1      29.476 -18.314  28.154  1.00  0.00     0.000 C 
BRANCH   5   6
ATOM      6  C   UNL     1      28.183 -18.463  28.970  1.00  0.00     0.000 C 
BRANCH   6   7
ATOM      7  C   UNL     1      27.752 -17.114  29.564  1.00  0.00     0.006 C 
BRANCH   7   8
ATOM      8  C   UNL     1      28.530 -16.766  30.841  1.00  0.00     0.053 C 
BRANCH   8   9
ATOM      9  C   UNL     1      29.181 -15.421  30.747  1.00  0.00     0.041 C 
ATOM     10  O   UNL     1      30.401 -15.327  30.449  1.00  0.00    -0.550 OA
ATOM     11  O   UNL     1      28.449 -14.273  31.023  1.00  0.00    -0.550 OA
ENDBRANCH   8   9
ENDBRANCH   7   8
ENDBRANCH   6   7
ENDBRANCH   5   6
ENDBRANCH   4   5
ENDBRANCH   3   4
ENDBRANCH   2   3
ENDBRANCH   1   2
BRANCH   1  12
ATOM     12  C   UNL     1      27.818 -19.976  24.783  1.00  0.00     0.000 C 
BRANCH  12  13
ATOM     13  C   UNL     1      26.744 -19.332  25.677  1.00  0.00    -0.000 C 
BRANCH  13  14
ATOM     14  C   UNL     1      26.235 -17.990  25.126  1.00  0.00    -0.000 C 
BRANCH  14  15
ATOM     15  C   UNL     1      26.595 -16.803  26.034  1.00  0.00    -0.000 C 
BRANCH  15  16
ATOM     16  C   UNL     1      25.877 -15.507  25.630  1.00  0.00    -0.000 C 
BRANCH  16  17
ATOM     17  C   UNL     1      24.975 -15.004  26.764  1.00  0.00    -0.000 C 
BRANCH  17  18
ATOM     18  C   UNL     1      23.493 -15.096  26.371  1.00  0.00    -0.000 C 
BRANCH  18  19
ATOM     19  C   UNL     1      22.854 -16.430  26.785  1.00  0.00    -0.003 C 
ATOM     20  C   UNL     1      22.501 -17.314  25.589  1.00  0.00     0.004 C 
ENDBRANCH  18  19
ENDBRANCH  17  18
ENDBRANCH  16  17
ENDBRANCH  15  16
ENDBRANCH  14  15
ENDBRANCH  13  14
ENDBRANCH  12  13
ENDBRANCH   1  12
TORSDOF 16
ENDMDL
MODEL 7
REMARK VINA RESULT:    -3.623      2.647      6.032
REMARK INTER + INTRA:          -9.583
REMARK INTER:                  -6.986
REMARK INTRA:                  -2.597
REMARK UNBOUND:                -2.572
REMARK SMILES CCCCCCCCCCCCCCCCCC(=O)[O-]
REMARK SMILES IDX 10 1 11 2 12 3 13 4 14 5 15 6 16 7 17 8 18 9 19 10 20 11
REMARK SMILES IDX 9 12 8 13 7 14 6 15 5 16 4 17 3 18 2 19 1 20
REMARK H PARENT
REMARK Flexibility Score: inf
ROOT
ATOM      1  C   UNL     1      26.587 -16.870  25.700  1.00  0.00     0.000 C 
ENDROOT
BRANCH   1   2
ATOM      2  C   UNL     1      26.302 -17.113  27.193  1.00  0.00     0.000 C 
BRANCH   2   3
ATOM      3  C   UNL     1      25.715 -18.507  27.468  1.00  0.00     0.000 C 
BRANCH   3   4
ATOM      4  C   UNL     1      24.624 -18.485  28.552  1.00  0.00     0.000 C 
BRANCH   4   5
ATOM      5  C   UNL     1      23.215 -18.706  27.975  1.00  0.00     0.000 C 
BRANCH   5   6
ATOM      6  C   UNL     1      23.200 -18.732  26.439  1.00  0.00     0.000 C 
BRANCH   6   7
ATOM      7  C   UNL     1      22.664 -17.408  25.874  1.00  0.00     0.006 C 
BRANCH   7   8
ATOM      8  C   UNL     1      22.480 -16.343  26.963  1.00  0.00     0.053 C 
BRANCH   8   9
ATOM      9  C   UNL     1      22.787 -14.968  26.455  1.00  0.00     0.041 C 
ATOM     10  O   UNL     1      22.109 -14.474  25.516  1.00  0.00    -0.550 OA
ATOM     11  O   UNL     1      23.843 -14.246  26.996  1.00  0.00    -0.550 OA
ENDBRANCH   8   9
ENDBRANCH   7   8
ENDBRANCH   6   7
ENDBRANCH   5   6
ENDBRANCH   4   5
ENDBRANCH   3   4
ENDBRANCH   2   3
ENDBRANCH   1   2
BRANCH   1  12
ATOM     12  C   UNL     1      26.604 -18.184  24.891  1.00  0.00     0.000 C 
BRANCH  12  13
ATOM     13  C   UNL     1      27.876 -18.372  24.046  1.00  0.00    -0.000 C 
BRANCH  13  14
ATOM     14  C   UNL     1      29.045 -18.963  24.850  1.00  0.00    -0.000 C 
BRANCH  14  15
ATOM     15  C   UNL     1      28.591 -20.043  25.845  1.00  0.00    -0.000 C 
BRANCH  15  16
ATOM     16  C   UNL     1      29.309 -19.941  27.199  1.00  0.00    -0.000 C 
BRANCH  16  17
ATOM     17  C   UNL     1      30.042 -18.600  27.331  1.00  0.00    -0.000 C 
BRANCH  17  18
ATOM     18  C   UNL     1      30.181 -18.192  28.805  1.00  0.00    -0.000 C 
BRANCH  18  19
ATOM     19  C   UNL     1      28.838 -18.197  29.549  1.00  0.00    -0.003 C 
ATOM     20  C   UNL     1      28.486 -16.833  30.144  1.00  0.00     0.004 C 
ENDBRANCH  18  19
ENDBRANCH  17  18
ENDBRANCH  16  17
ENDBRANCH  15  16
ENDBRANCH  14  15
ENDBRANCH  13  14
ENDBRANCH  12  13
ENDBRANCH   1  12
TORSDOF 16
ENDMDL
MODEL 8
REMARK VINA RESULT:    -3.613      2.675      5.504
REMARK INTER + INTRA:          -9.564
REMARK INTER:                  -7.130
REMARK INTRA:                  -2.434
REMARK UNBOUND:                -2.572
REMARK SMILES CCCCCCCCCCCCCCCCCC(=O)[O-]
REMARK SMILES IDX 10 1 11 2 12 3 13 4 14 5 15 6 16 7 17 8 18 9 19 10 20 11
REMARK SMILES IDX 9 12 8 13 7 14 6 15 5 16 4 17 3 18 2 19 1 20
REMARK H PARENT
REMARK Flexibility Score: inf
ROOT
ATOM      1  C   UNL     1      29.388 -18.630  27.216  1.00  0.00     0.000 C 
ENDROOT
BRANCH   1   2
ATOM      2  C   UNL     1      28.776 -19.964  26.754  1.00  0.00     0.000 C 
BRANCH   2   3
ATOM      3  C   UNL     1      28.240 -19.907  25.313  1.00  0.00     0.000 C 
BRANCH   3   4
ATOM      4  C   UNL     1      26.895 -19.170  25.212  1.00  0.00     0.000 C 
BRANCH   4   5
ATOM      5  C   UNL     1      27.017 -17.814  24.496  1.00  0.00     0.000 C 
BRANCH   5   6
ATOM      6  C   UNL     1      26.528 -16.641  25.360  1.00  0.00     0.000 C 
BRANCH   6   7
ATOM      7  C   UNL     1      25.182 -16.972  26.022  1.00  0.00     0.006 C 
BRANCH   7   8
ATOM      8  C   UNL     1      24.790 -15.941  27.089  1.00  0.00     0.053 C 
BRANCH   8   9
ATOM      9  C   UNL     1      24.148 -14.730  26.485  1.00  0.00     0.041 C 
ATOM     10  O   UNL     1      22.982 -14.800  26.014  1.00  0.00    -0.550 OA
ATOM     11  O   UNL     1      24.850 -13.534  26.412  1.00  0.00    -0.550 OA
ENDBRANCH   8   9
ENDBRANCH   7   8
ENDBRANCH   6   7
ENDBRANCH   5   6
ENDBRANCH   4   5
ENDBRANCH   3   4
ENDBRANCH   2   3
ENDBRANCH   1   2
BRANCH   1  12
ATOM     12  C   UNL     1      29.008 -18.290  28.672  1.00  0.00     0.000 C 
BRANCH  12  13
ATOM     13  C   UNL     1      27.717 -17.461  28.795  1.00  0.00    -0.000 C 
BRANCH  13  14
ATOM     14  C   UNL     1      26.589 -18.216  29.518  1.00  0.00    -0.000 C 
BRANCH  14  15
ATOM     15  C   UNL     1      27.039 -18.798  30.868  1.00  0.00    -0.000 C 
BRANCH  15  16
ATOM     16  C   UNL     1      27.107 -17.739  31.978  1.00  0.00    -0.000 C 
BRANCH  16  17
ATOM     17  C   UNL     1      28.506 -17.694  32.607  1.00  0.00    -0.000 C 
BRANCH  17  18
ATOM     18  C   UNL     1      29.205 -16.361  32.300  1.00  0.00    -0.000 C 
BRANCH  18  19
ATOM     19  C   UNL     1      28.265 -15.339  31.645  1.00  0.00    -0.003 C 
ATOM     20  C   UNL     1      29.017 -14.249  30.881  1.00  0.00     0.004 C 
ENDBRANCH  18  19
ENDBRANCH  17  18
ENDBRANCH  16  17
ENDBRANCH  15  16
ENDBRANCH  14  15
ENDBRANCH  13  14
ENDBRANCH  12  13
ENDBRANCH   1  12
TORSDOF 16
ENDMDL
MODEL 9
REMARK VINA RESULT:    -3.602      1.661      3.275
REMARK INTER + INTRA:          -9.544
REMARK INTER:                  -7.502
REMARK INTRA:                  -2.043
REMARK UNBOUND:                -2.572
REMARK SMILES CCCCCCCCCCCCCCCCCC(=O)[O-]
REMARK SMILES IDX 10 1 11 2 12 3 13 4 14 5 15 6 16 7 17 8 18 9 19 10 20 11
REMARK SMILES IDX 9 12 8 13 7 14 6 15 5 16 4 17 3 18 2 19 1 20
REMARK H PARENT
REMARK Flexibility Score: inf
ROOT
ATOM      1  C   UNL     1      29.939 -18.240  26.206  1.00  0.00     0.000 C 
ENDROOT
BRANCH   1   2
ATOM      2  C   UNL     1      30.257 -19.154  27.402  1.00  0.00     0.000 C 
BRANCH   2   3
ATOM      3  C   UNL     1      29.526 -18.730  28.687  1.00  0.00     0.000 C 
BRANCH   3   4
ATOM      4  C   UNL     1      28.217 -17.976  28.401  1.00  0.00     0.000 C 
BRANCH   4   5
ATOM      5  C   UNL     1      27.817 -17.030  29.546  1.00  0.00     0.000 C 
BRANCH   5   6
ATOM      6  C   UNL     1      28.257 -17.548  30.924  1.00  0.00     0.000 C 
BRANCH   6   7
ATOM      7  C   UNL     1      28.955 -16.441  31.728  1.00  0.00     0.006 C 
BRANCH   7   8
ATOM      8  C   UNL     1      28.433 -15.044  31.369  1.00  0.00     0.053 C 
BRANCH   8   9
ATOM      9  C   UNL     1      29.544 -14.048  31.245  1.00  0.00     0.041 C 
ATOM     10  O   UNL     1      30.676 -14.410  30.828  1.00  0.00    -0.550 OA
ATOM     11  O   UNL     1      29.340 -12.727  31.622  1.00  0.00    -0.550 OA
ENDBRANCH   8   9
ENDBRANCH   7   8
ENDBRANCH   6   7
ENDBRANCH   5   6
ENDBRANCH   4   5
ENDBRANCH   3   4
ENDBRANCH   2   3
ENDBRANCH   1   2
BRANCH   1  12
ATOM     12  C   UNL     1      29.918 -19.016  24.872  1.00  0.00     0.000 C 
BRANCH  12  13
ATOM     13  C   UNL     1      28.562 -18.957  24.146  1.00  0.00    -0.000 C 
BRANCH  13  14
ATOM     14  C   UNL     1      27.451 -19.711  24.893  1.00  0.00    -0.000 C 
BRANCH  14  15
ATOM     15  C   UNL     1      26.312 -18.785  25.350  1.00  0.00    -0.000 C 
BRANCH  15  16
ATOM     16  C   UNL     1      26.431 -17.368  24.769  1.00  0.00    -0.000 C 
BRANCH  16  17
ATOM     17  C   UNL     1      26.293 -16.310  25.872  1.00  0.00    -0.000 C 
BRANCH  17  18
ATOM     18  C   UNL     1      25.106 -16.629  26.794  1.00  0.00    -0.000 C 
BRANCH  18  19
ATOM     19  C   UNL     1      23.857 -15.803  26.456  1.00  0.00    -0.003 C 
ATOM     20  C   UNL     1      24.094 -14.297  26.575  1.00  0.00     0.004 C 
ENDBRANCH  18  19
ENDBRANCH  17  18
ENDBRANCH  16  17
ENDBRANCH  15  16
ENDBRANCH  14  15
ENDBRANCH  13  14
ENDBRANCH  12  13
ENDBRANCH   1  12
TORSDOF 16
ENDMDL
