MODEL 1
REMARK VINA RESULT:    -4.062      0.000      0.000
REMARK INTER + INTRA:          -4.909
REMARK INTER:                  -4.775
REMARK INTRA:                  -0.134
REMARK UNBOUND:                -0.134
REMARK SMILES O=C([O-])C=Cc1ccc(O)c(O)c1
REMARK SMILES IDX 6 1 13 2 7 3 11 4 8 5 9 6 5 7 4 8 2 9 1 10 3 11 12 12 10 14
REMARK H PARENT 12 13 10 15
REMARK Flexibility Score: inf
ROOT
ATOM      1  C   UNL     1     -11.735   3.154  -4.556  1.00  0.00    -0.022 A 
ATOM      2  C   UNL     1     -11.373   1.885  -4.076  1.00  0.00     0.058 A 
ATOM      3  C   UNL     1     -12.124   4.145  -3.632  1.00  0.00     0.012 A 
ATOM      4  C   UNL     1     -11.372   1.611  -2.701  1.00  0.00     0.157 A 
ATOM      5  C   UNL     1     -12.125   3.873  -2.262  1.00  0.00     0.051 A 
ATOM      6  C   UNL     1     -11.749   2.612  -1.790  1.00  0.00     0.157 A 
ENDROOT
BRANCH   1   7
ATOM      7  C   UNL     1     -11.728   3.387  -6.022  1.00  0.00     0.010 C 
ATOM      8  C   UNL     1     -11.772   2.404  -6.933  1.00  0.00     0.025 C 
BRANCH   8   9
ATOM      9  C   UNL     1     -11.775   2.674  -8.380  1.00  0.00     0.064 C 
ATOM     10  O   UNL     1     -11.790   3.854  -8.824  1.00  0.00    -0.545 OA
ATOM     11  O   UNL     1     -11.759   1.611  -9.273  1.00  0.00    -0.545 OA
ENDBRANCH   8   9
ENDBRANCH   1   7
BRANCH   4  12
ATOM     12  O   UNL     1     -11.002   0.350  -2.236  1.00  0.00    -0.504 OA
ATOM     13  H   UNL     1     -10.073   0.171  -1.873  1.00  0.00     0.293 HD
ENDBRANCH   4  12
BRANCH   6  14
ATOM     14  O   UNL     1     -11.757   2.373  -0.416  1.00  0.00    -0.504 OA
ATOM     15  H   UNL     1     -11.576   1.454  -0.029  1.00  0.00     0.293 HD
ENDBRANCH   6  14
TORSDOF 4
ENDMDL
MODEL 2
REMARK VINA RESULT:    -3.956     13.877     14.904
REMARK INTER + INTRA:          -4.784
REMARK INTER:                  -4.657
REMARK INTRA:                  -0.127
REMARK UNBOUND:                -0.134
REMARK SMILES O=C([O-])C=Cc1ccc(O)c(O)c1
REMARK SMILES IDX 6 1 13 2 7 3 11 4 8 5 9 6 5 7 4 8 2 9 1 10 3 11 12 12 10 14
REMARK H PARENT 12 13 10 15
REMARK Flexibility Score: inf
ROOT
ATOM      1  C   UNL     1       0.783  -3.812  -8.660  1.00  0.00    -0.022 A 
ATOM      2  C   UNL     1      -0.442  -3.217  -9.001  1.00  0.00     0.058 A 
ATOM      3  C   UNL     1       0.805  -5.183  -8.335  1.00  0.00     0.012 A 
ATOM      4  C   UNL     1      -1.621  -3.975  -9.044  1.00  0.00     0.157 A 
ATOM      5  C   UNL     1      -0.369  -5.939  -8.376  1.00  0.00     0.051 A 
ATOM      6  C   UNL     1      -1.583  -5.344  -8.731  1.00  0.00     0.157 A 
ENDROOT
BRANCH   1   7
ATOM      7  C   UNL     1       1.999  -2.963  -8.621  1.00  0.00     0.010 C 
ATOM      8  C   UNL     1       2.100  -1.838  -7.898  1.00  0.00     0.025 C 
BRANCH   8   9
ATOM      9  C   UNL     1       3.327  -1.026  -7.874  1.00  0.00     0.064 C 
ATOM     10  O   UNL     1       3.749  -0.450  -8.913  1.00  0.00    -0.545 OA
ATOM     11  O   UNL     1       4.032  -0.889  -6.686  1.00  0.00    -0.545 OA
ENDBRANCH   8   9
ENDBRANCH   1   7
BRANCH   4  12
ATOM     12  O   UNL     1      -2.830  -3.373  -9.393  1.00  0.00    -0.504 OA
ATOM     13  H   UNL     1      -3.718  -3.832  -9.226  1.00  0.00     0.293 HD
ENDBRANCH   4  12
BRANCH   6  14
ATOM     14  O   UNL     1      -2.737  -6.125  -8.765  1.00  0.00    -0.504 OA
ATOM     15  H   UNL     1      -3.238  -6.307  -9.627  1.00  0.00     0.293 HD
ENDBRANCH   6  14
TORSDOF 4
ENDMDL
MODEL 3
REMARK VINA RESULT:    -3.889      3.240      5.903
REMARK INTER + INTRA:          -4.706
REMARK INTER:                  -4.573
REMARK INTRA:                  -0.132
REMARK UNBOUND:                -0.134
REMARK SMILES O=C([O-])C=Cc1ccc(O)c(O)c1
REMARK SMILES IDX 6 1 13 2 7 3 11 4 8 5 9 6 5 7 4 8 2 9 1 10 3 11 12 12 10 14
REMARK H PARENT 12 13 10 15
REMARK Flexibility Score: inf
ROOT
ATOM      1  C   UNL     1     -11.928   5.236  -3.193  1.00  0.00    -0.022 A 
ATOM      2  C   UNL     1     -11.691   6.455  -2.536  1.00  0.00     0.058 A 
ATOM      3  C   UNL     1     -12.125   5.243  -4.588  1.00  0.00     0.012 A 
ATOM      4  C   UNL     1     -11.624   7.657  -3.256  1.00  0.00     0.157 A 
ATOM      5  C   UNL     1     -12.060   6.440  -5.306  1.00  0.00     0.051 A 
ATOM      6  C   UNL     1     -11.808   7.647  -4.649  1.00  0.00     0.157 A 
ENDROOT
BRANCH   1   7
ATOM      7  C   UNL     1     -11.998   3.995  -2.382  1.00  0.00     0.010 C 
ATOM      8  C   UNL     1     -11.358   2.860  -2.700  1.00  0.00     0.025 C 
BRANCH   8   9
ATOM      9  C   UNL     1     -11.441   1.651  -1.865  1.00  0.00     0.064 C 
ATOM     10  O   UNL     1     -11.875   1.703  -0.682  1.00  0.00    -0.545 OA
ATOM     11  O   UNL     1     -11.036   0.431  -2.389  1.00  0.00    -0.545 OA
ENDBRANCH   8   9
ENDBRANCH   1   7
BRANCH   4  12
ATOM     12  O   UNL     1     -11.379   8.859  -2.594  1.00  0.00    -0.504 OA
ATOM     13  H   UNL     1     -10.644   8.942  -1.901  1.00  0.00     0.293 HD
ENDBRANCH   4  12
BRANCH   6  14
ATOM     14  O   UNL     1     -11.747   8.824  -5.394  1.00  0.00    -0.504 OA
ATOM     15  H   UNL     1     -10.960   9.459  -5.334  1.00  0.00     0.293 HD
ENDBRANCH   6  14
TORSDOF 4
ENDMDL
MODEL 4
REMARK VINA RESULT:    -3.881     14.718     15.851
REMARK INTER + INTRA:          -4.696
REMARK INTER:                  -4.562
REMARK INTRA:                  -0.134
REMARK UNBOUND:                -0.134
REMARK SMILES O=C([O-])C=Cc1ccc(O)c(O)c1
REMARK SMILES IDX 6 1 13 2 7 3 11 4 8 5 9 6 5 7 4 8 2 9 1 10 3 11 12 12 10 14
REMARK H PARENT 12 13 10 15
REMARK Flexibility Score: inf
ROOT
ATOM      1  C   UNL     1       0.914  -4.982  -8.259  1.00  0.00    -0.022 A 
ATOM      2  C   UNL     1      -0.222  -5.807  -8.265  1.00  0.00     0.058 A 
ATOM      3  C   UNL     1       0.780  -3.637  -8.656  1.00  0.00     0.012 A 
ATOM      4  C   UNL     1      -1.476  -5.298  -8.634  1.00  0.00     0.157 A 
ATOM      5  C   UNL     1      -0.469  -3.129  -9.026  1.00  0.00     0.051 A 
ATOM      6  C   UNL     1      -1.599  -3.952  -9.015  1.00  0.00     0.157 A 
ENDROOT
BRANCH   1   7
ATOM      7  C   UNL     1       2.218  -5.573  -7.869  1.00  0.00     0.010 C 
ATOM      8  C   UNL     1       3.214  -4.874  -7.304  1.00  0.00     0.025 C 
BRANCH   8   9
ATOM      9  C   UNL     1       4.491  -5.497  -6.919  1.00  0.00     0.064 C 
ATOM     10  O   UNL     1       4.891  -5.481  -5.724  1.00  0.00    -0.545 OA
ATOM     11  O   UNL     1       5.268  -6.117  -7.889  1.00  0.00    -0.545 OA
ENDBRANCH   8   9
ENDBRANCH   1   7
BRANCH   4  12
ATOM     12  O   UNL     1      -2.599  -6.125  -8.627  1.00  0.00    -0.504 OA
ATOM     13  H   UNL     1      -2.715  -6.867  -9.307  1.00  0.00     0.293 HD
ENDBRANCH   4  12
BRANCH   6  14
ATOM     14  O   UNL     1      -2.831  -3.415  -9.386  1.00  0.00    -0.504 OA
ATOM     15  H   UNL     1      -3.417  -3.850 -10.089  1.00  0.00     0.293 HD
ENDBRANCH   6  14
TORSDOF 4
ENDMDL
MODEL 5
REMARK VINA RESULT:    -3.800      2.800      6.072
REMARK INTER + INTRA:          -4.601
REMARK INTER:                  -4.471
REMARK INTRA:                  -0.130
REMARK UNBOUND:                -0.134
REMARK SMILES O=C([O-])C=Cc1ccc(O)c(O)c1
REMARK SMILES IDX 6 1 13 2 7 3 11 4 8 5 9 6 5 7 4 8 2 9 1 10 3 11 12 12 10 14
REMARK H PARENT 12 13 10 15
REMARK Flexibility Score: inf
ROOT
ATOM      1  C   UNL     1     -11.972   4.572  -4.683  1.00  0.00    -0.022 A 
ATOM      2  C   UNL     1     -12.096   5.131  -5.966  1.00  0.00     0.058 A 
ATOM      3  C   UNL     1     -11.778   3.181  -4.564  1.00  0.00     0.012 A 
ATOM      4  C   UNL     1     -12.002   4.328  -7.111  1.00  0.00     0.157 A 
ATOM      5  C   UNL     1     -11.686   2.379  -5.705  1.00  0.00     0.051 A 
ATOM      6  C   UNL     1     -11.795   2.945  -6.979  1.00  0.00     0.157 A 
ENDROOT
BRANCH   1   7
ATOM      7  C   UNL     1     -12.088   5.465  -3.504  1.00  0.00     0.010 C 
ATOM      8  C   UNL     1     -11.487   6.661  -3.413  1.00  0.00     0.025 C 
BRANCH   8   9
ATOM      9  C   UNL     1     -11.634   7.527  -2.232  1.00  0.00     0.064 C 
ATOM     10  O   UNL     1     -12.091   7.077  -1.146  1.00  0.00    -0.545 OA
ATOM     11  O   UNL     1     -11.262   8.862  -2.314  1.00  0.00    -0.545 OA
ENDBRANCH   8   9
ENDBRANCH   1   7
BRANCH   4  12
ATOM     12  O   UNL     1     -12.117   4.896  -8.379  1.00  0.00    -0.504 OA
ATOM     13  H   UNL     1     -12.759   4.526  -9.070  1.00  0.00     0.293 HD
ENDBRANCH   4  12
BRANCH   6  14
ATOM     14  O   UNL     1     -11.696   2.119  -8.098  1.00  0.00    -0.504 OA
ATOM     15  H   UNL     1     -10.852   1.602  -8.313  1.00  0.00     0.293 HD
ENDBRANCH   6  14
TORSDOF 4
ENDMDL
MODEL 6
REMARK VINA RESULT:    -3.775      1.452      6.017
REMARK INTER + INTRA:          -4.571
REMARK INTER:                  -4.448
REMARK INTRA:                  -0.123
REMARK UNBOUND:                -0.134
REMARK SMILES O=C([O-])C=Cc1ccc(O)c(O)c1
REMARK SMILES IDX 6 1 13 2 7 3 11 4 8 5 9 6 5 7 4 8 2 9 1 10 3 11 12 12 10 14
REMARK H PARENT 12 13 10 15
REMARK Flexibility Score: inf
ROOT
ATOM      1  C   UNL     1     -11.994   3.149  -5.826  1.00  0.00    -0.022 A 
ATOM      2  C   UNL     1     -12.102   4.546  -5.910  1.00  0.00     0.058 A 
ATOM      3  C   UNL     1     -11.801   2.409  -7.010  1.00  0.00     0.012 A 
ATOM      4  C   UNL     1     -11.994   5.201  -7.146  1.00  0.00     0.157 A 
ATOM      5  C   UNL     1     -11.695   3.060  -8.241  1.00  0.00     0.051 A 
ATOM      6  C   UNL     1     -11.787   4.453  -8.317  1.00  0.00     0.157 A 
ENDROOT
BRANCH   1   7
ATOM      7  C   UNL     1     -12.125   2.506  -4.495  1.00  0.00     0.010 C 
ATOM      8  C   UNL     1     -11.082   2.199  -3.709  1.00  0.00     0.025 C 
BRANCH   8   9
ATOM      9  C   UNL     1     -11.251   1.572  -2.388  1.00  0.00     0.064 C 
ATOM     10  O   UNL     1     -10.976   0.356  -2.203  1.00  0.00    -0.545 OA
ATOM     11  O   UNL     1     -11.718   2.334  -1.326  1.00  0.00    -0.545 OA
ENDBRANCH   8   9
ENDBRANCH   1   7
BRANCH   4  12
ATOM     12  O   UNL     1     -12.093   6.590  -7.215  1.00  0.00    -0.504 OA
ATOM     13  H   UNL     1     -11.446   7.193  -6.721  1.00  0.00     0.293 HD
ENDBRANCH   4  12
BRANCH   6  14
ATOM     14  O   UNL     1     -11.675   5.073  -9.560  1.00  0.00    -0.504 OA
ATOM     15  H   UNL     1     -11.871   6.059  -9.689  1.00  0.00     0.293 HD
ENDBRANCH   6  14
TORSDOF 4
ENDMDL
MODEL 7
REMARK VINA RESULT:    -1.705      1.107      5.673
REMARK INTER + INTRA:          -2.139
REMARK INTER:                  -2.009
REMARK INTRA:                  -0.130
REMARK UNBOUND:                -0.134
REMARK SMILES O=C([O-])C=Cc1ccc(O)c(O)c1
REMARK SMILES IDX 6 1 13 2 7 3 11 4 8 5 9 6 5 7 4 8 2 9 1 10 3 11 12 12 10 14
REMARK H PARENT 12 13 10 15
REMARK Flexibility Score: inf
ROOT
ATOM      1  C   UNL     1     -11.996   3.514  -5.552  1.00  0.00    -0.022 A 
ATOM      2  C   UNL     1     -11.723   2.635  -6.613  1.00  0.00     0.058 A 
ATOM      3  C   UNL     1     -12.125   4.890  -5.826  1.00  0.00     0.012 A 
ATOM      4  C   UNL     1     -11.607   3.110  -7.927  1.00  0.00     0.157 A 
ATOM      5  C   UNL     1     -12.007   5.365  -7.135  1.00  0.00     0.051 A 
ATOM      6  C   UNL     1     -11.751   4.483  -8.188  1.00  0.00     0.157 A 
ENDROOT
BRANCH   1   7
ATOM      7  C   UNL     1     -12.101   2.959  -4.180  1.00  0.00     0.010 C 
ATOM      8  C   UNL     1     -11.228   2.082  -3.662  1.00  0.00     0.025 C 
BRANCH   8   9
ATOM      9  C   UNL     1     -11.357   1.562  -2.291  1.00  0.00     0.064 C 
ATOM     10  O   UNL     1     -11.783   2.290  -1.354  1.00  0.00    -0.545 OA
ATOM     11  O   UNL     1     -11.006   0.245  -2.024  1.00  0.00    -0.545 OA
ENDBRANCH   8   9
ENDBRANCH   1   7
BRANCH   4  12
ATOM     12  O   UNL     1     -11.345   2.226  -8.973  1.00  0.00    -0.504 OA
ATOM     13  H   UNL     1     -11.314   2.539  -9.937  1.00  0.00     0.293 HD
ENDBRANCH   4  12
BRANCH   6  14
ATOM     14  O   UNL     1     -11.642   4.987  -9.484  1.00  0.00    -0.504 OA
ATOM     15  H   UNL     1     -11.944   5.924  -9.724  1.00  0.00     0.293 HD
ENDBRANCH   6  14
TORSDOF 4
ENDMDL
