MODEL 1
REMARK VINA RESULT:    -4.069      0.000      0.000
REMARK INTER + INTRA:          -8.425
REMARK INTER:                  -6.685
REMARK INTRA:                  -1.740
REMARK UNBOUND:                -1.740
REMARK SMILES C[C@H]1O[C@H](OC[C@@H]2O[C@H](Oc3c(-c4ccc(O)c(O)c4)oc4cc(O)cc(O)c4c3=O)[C@@H](O)[C@H](O)[C@H]2O)[C@H](O)[C@H](O)[C@H]1O
REMARK SMILES IDX 7 1 36 2 34 3 32 4 9 5 8 6 6 7 5 8 4 9 1 10 2 11 42 12 3 13
REMARK SMILES IDX 40 14 38 15 43 16 41 18 39 20 37 22 35 24 10 26 11 27 12 28
REMARK SMILES IDX 30 29 21 30 29 31 31 32 22 33 27 34 23 35 26 36 24 37 13 38
REMARK SMILES IDX 20 39 14 40 18 41 15 42 16 43 19 44 17 46 28 48 25 50 33 52
REMARK H PARENT 43 17 41 19 39 21 37 23 35 25 19 45 17 47 28 49 25 51 33 53
REMARK Flexibility Score: inf
ROOT
ATOM      1  C   UNL     1      22.470  20.309   6.746  1.00  0.00     0.180 C 
ATOM      2  C   UNL     1      23.780  19.619   7.201  1.00  0.00     0.177 C 
ATOM      3  C   UNL     1      24.775  19.571   6.024  1.00  0.00     0.180 C 
ATOM      4  C   UNL     1      24.050  19.343   4.671  1.00  0.00     0.214 C 
ATOM      5  C   UNL     1      22.609  18.820   4.858  1.00  0.00     0.339 C 
ATOM      6  O   UNL     1      21.797  19.640   5.686  1.00  0.00    -0.332 OA
ENDROOT
BRANCH   1   7
ATOM      7  C   UNL     1      21.486  20.466   7.924  1.00  0.00     0.198 C 
BRANCH   7   8
ATOM      8  O   UNL     1      21.956  19.758   9.058  1.00  0.00    -0.347 OA
BRANCH   8   9
ATOM      9  C   UNL     1      21.767  20.517  10.247  1.00  0.00     0.281 C 
ATOM     10  C   UNL     1      18.444  19.259  11.237  1.00  0.00     0.041 C 
ATOM     11  C   UNL     1      19.951  19.207  10.959  1.00  0.00     0.150 C 
ATOM     12  C   UNL     1      20.718  18.627  12.172  1.00  0.00     0.174 C 
ATOM     13  O   UNL     1      20.403  20.518  10.649  1.00  0.00    -0.344 OA
ATOM     14  C   UNL     1      22.228  18.610  11.873  1.00  0.00     0.179 C 
ATOM     15  C   UNL     1      22.683  19.998  11.376  1.00  0.00     0.202 C 
BRANCH  12  16
ATOM     16  O   UNL     1      20.472  19.412  13.313  1.00  0.00    -0.388 OA
ATOM     17  H   UNL     1      19.590  19.127  13.672  1.00  0.00     0.211 HD
ENDBRANCH  12  16
BRANCH  14  18
ATOM     18  O   UNL     1      22.518  17.633  10.903  1.00  0.00    -0.387 OA
ATOM     19  H   UNL     1      23.340  17.160  11.207  1.00  0.00     0.211 HD
ENDBRANCH  14  18
BRANCH  15  20
ATOM     20  O   UNL     1      24.011  19.945  10.924  1.00  0.00    -0.385 OA
ATOM     21  H   UNL     1      24.024  19.351  10.127  1.00  0.00     0.211 HD
ENDBRANCH  15  20
ENDBRANCH   8   9
ENDBRANCH   7   8
ENDBRANCH   1   7
BRANCH   2  22
ATOM     22  O   UNL     1      24.357  20.332   8.269  1.00  0.00    -0.387 OA
ATOM     23  H   UNL     1      25.135  20.831   7.906  1.00  0.00     0.211 HD
ENDBRANCH   2  22
BRANCH   3  24
ATOM     24  O   UNL     1      25.712  18.543   6.231  1.00  0.00    -0.387 OA
ATOM     25  H   UNL     1      25.910  18.155   5.340  1.00  0.00     0.211 HD
ENDBRANCH   3  24
BRANCH   5  26
ATOM     26  O   UNL     1      22.642  17.481   5.358  1.00  0.00    -0.454 OA
BRANCH  26  27
ATOM     27  C   UNL     1      22.375  16.266   4.690  1.00  0.00     0.214 A 
ATOM     28  C   UNL     1      21.090  15.735   4.381  1.00  0.00     0.180 A 
ATOM     29  C   UNL     1      23.499  15.508   4.324  1.00  0.00     0.239 A 
ATOM     30  O   UNL     1      20.987  14.533   3.819  1.00  0.00    -0.452 OA
ATOM     31  C   UNL     1      23.346  14.256   3.698  1.00  0.00     0.111 A 
ATOM     32  O   UNL     1      24.647  15.966   4.578  1.00  0.00    -0.285 OA
ATOM     33  C   UNL     1      22.031  13.793   3.477  1.00  0.00     0.146 A 
ATOM     34  C   UNL     1      24.440  13.449   3.299  1.00  0.00     0.134 A 
ATOM     35  C   UNL     1      21.812  12.548   2.882  1.00  0.00     0.094 A 
ATOM     36  C   UNL     1      24.196  12.204   2.697  1.00  0.00     0.093 A 
ATOM     37  C   UNL     1      22.893  11.755   2.487  1.00  0.00     0.123 A 
BRANCH  28  38
ATOM     38  C   UNL     1      19.818  16.430   4.628  1.00  0.00     0.025 A 
ATOM     39  C   UNL     1      18.800  15.814   5.366  1.00  0.00     0.062 A 
ATOM     40  C   UNL     1      19.673  17.774   4.250  1.00  0.00     0.016 A 
ATOM     41  C   UNL     1      17.606  16.499   5.647  1.00  0.00     0.158 A 
ATOM     42  C   UNL     1      18.485  18.459   4.516  1.00  0.00     0.051 A 
ATOM     43  C   UNL     1      17.446  17.825   5.212  1.00  0.00     0.157 A 
BRANCH  41  44
ATOM     44  O   UNL     1      16.608  15.851   6.375  1.00  0.00    -0.504 OA
ATOM     45  H   UNL     1      16.817  15.228   7.147  1.00  0.00     0.293 HD
ENDBRANCH  41  44
BRANCH  43  46
ATOM     46  O   UNL     1      16.263  18.511   5.484  1.00  0.00    -0.504 OA
ATOM     47  H   UNL     1      15.892  19.211   4.841  1.00  0.00     0.293 HD
ENDBRANCH  43  46
ENDBRANCH  28  38
BRANCH  34  48
ATOM     48  O   UNL     1      25.758  13.867   3.495  1.00  0.00    -0.507 OA
ATOM     49  H   UNL     1      25.978  14.796   3.835  1.00  0.00     0.293 HD
ENDBRANCH  34  48
BRANCH  37  50
ATOM     50  O   UNL     1      22.681  10.523   1.876  1.00  0.00    -0.508 OA
ATOM     51  H   UNL     1      22.275   9.746   2.384  1.00  0.00     0.293 HD
ENDBRANCH  37  50
ENDBRANCH  26  27
ENDBRANCH   5  26
BRANCH   4  52
ATOM     52  O   UNL     1      24.011  20.543   3.935  1.00  0.00    -0.384 OA
ATOM     53  H   UNL     1      24.811  21.067   4.196  1.00  0.00     0.211 HD
ENDBRANCH   4  52
TORSDOF 16
ENDMDL
MODEL 2
REMARK VINA RESULT:    -2.148      1.734      2.310
REMARK INTER + INTRA:          -5.270
REMARK INTER:                  -3.635
REMARK INTRA:                  -1.634
REMARK UNBOUND:                -1.740
REMARK SMILES C[C@H]1O[C@H](OC[C@@H]2O[C@H](Oc3c(-c4ccc(O)c(O)c4)oc4cc(O)cc(O)c4c3=O)[C@@H](O)[C@H](O)[C@H]2O)[C@H](O)[C@H](O)[C@H]1O
REMARK SMILES IDX 7 1 36 2 34 3 32 4 9 5 8 6 6 7 5 8 4 9 1 10 2 11 42 12 3 13
REMARK SMILES IDX 40 14 38 15 43 16 41 18 39 20 37 22 35 24 10 26 11 27 12 28
REMARK SMILES IDX 30 29 21 30 29 31 31 32 22 33 27 34 23 35 26 36 24 37 13 38
REMARK SMILES IDX 20 39 14 40 18 41 15 42 16 43 19 44 17 46 28 48 25 50 33 52
REMARK H PARENT 43 17 41 19 39 21 37 23 35 25 19 45 17 47 28 49 25 51 33 53
REMARK Flexibility Score: inf
ROOT
ATOM      1  C   UNL     1      22.166  19.812   6.242  1.00  0.00     0.180 C 
ATOM      2  C   UNL     1      23.161  18.669   6.563  1.00  0.00     0.177 C 
ATOM      3  C   UNL     1      23.818  18.173   5.259  1.00  0.00     0.180 C 
ATOM      4  C   UNL     1      22.821  18.204   4.069  1.00  0.00     0.214 C 
ATOM      5  C   UNL     1      21.353  18.319   4.536  1.00  0.00     0.339 C 
ATOM      6  O   UNL     1      21.099  19.432   5.382  1.00  0.00    -0.332 OA
ENDROOT
BRANCH   1   7
ATOM      7  C   UNL     1      21.562  20.403   7.534  1.00  0.00     0.198 C 
BRANCH   7   8
ATOM      8  O   UNL     1      22.024  19.688   8.667  1.00  0.00    -0.347 OA
BRANCH   8   9
ATOM      9  C   UNL     1      22.012  20.512   9.828  1.00  0.00     0.281 C 
ATOM     10  C   UNL     1      18.870  19.336  11.360  1.00  0.00     0.041 C 
ATOM     11  C   UNL     1      20.319  19.257  10.868  1.00  0.00     0.150 C 
ATOM     12  C   UNL     1      21.257  18.736  11.985  1.00  0.00     0.174 C 
ATOM     13  O   UNL     1      20.722  20.545  10.424  1.00  0.00    -0.344 OA
ATOM     14  C   UNL     1      22.706  18.690  11.469  1.00  0.00     0.179 C 
ATOM     15  C   UNL     1      23.083  20.046  10.836  1.00  0.00     0.202 C 
BRANCH  12  16
ATOM     16  O   UNL     1      21.181  19.583  13.105  1.00  0.00    -0.388 OA
ATOM     17  H   UNL     1      20.344  20.111  13.010  1.00  0.00     0.211 HD
ENDBRANCH  12  16
BRANCH  14  18
ATOM     18  O   UNL     1      22.850  17.660  10.521  1.00  0.00    -0.387 OA
ATOM     19  H   UNL     1      23.414  16.956  10.943  1.00  0.00     0.211 HD
ENDBRANCH  14  18
BRANCH  15  20
ATOM     20  O   UNL     1      24.331  19.957  10.198  1.00  0.00    -0.385 OA
ATOM     21  H   UNL     1      24.780  19.143  10.549  1.00  0.00     0.211 HD
ENDBRANCH  15  20
ENDBRANCH   8   9
ENDBRANCH   7   8
ENDBRANCH   1   7
BRANCH   2  22
ATOM     22  O   UNL     1      24.160  19.130   7.441  1.00  0.00    -0.387 OA
ATOM     23  H   UNL     1      24.982  19.279   6.903  1.00  0.00     0.211 HD
ENDBRANCH   2  22
BRANCH   3  24
ATOM     24  O   UNL     1      24.298  16.863   5.432  1.00  0.00    -0.387 OA
ATOM     25  H   UNL     1      25.176  16.818   4.973  1.00  0.00     0.211 HD
ENDBRANCH   3  24
BRANCH   5  26
ATOM     26  O   UNL     1      20.953  17.104   5.173  1.00  0.00    -0.454 OA
BRANCH  26  27
ATOM     27  C   UNL     1      20.157  16.049   4.674  1.00  0.00     0.214 A 
ATOM     28  C   UNL     1      18.764  15.859   4.901  1.00  0.00     0.180 A 
ATOM     29  C   UNL     1      20.829  15.087   3.902  1.00  0.00     0.239 A 
ATOM     30  O   UNL     1      18.159  14.769   4.434  1.00  0.00    -0.452 OA
ATOM     31  C   UNL     1      20.142  13.966   3.397  1.00  0.00     0.111 A 
ATOM     32  O   UNL     1      22.061  15.243   3.678  1.00  0.00    -0.285 OA
ATOM     33  C   UNL     1      18.772  13.841   3.716  1.00  0.00     0.146 A 
ATOM     34  C   UNL     1      20.763  12.967   2.606  1.00  0.00     0.134 A 
ATOM     35  C   UNL     1      18.040  12.740   3.266  1.00  0.00     0.094 A 
ATOM     36  C   UNL     1      20.006  11.872   2.160  1.00  0.00     0.093 A 
ATOM     37  C   UNL     1      18.655  11.757   2.484  1.00  0.00     0.123 A 
BRANCH  28  38
ATOM     38  C   UNL     1      17.899  16.804   5.623  1.00  0.00     0.025 A 
ATOM     39  C   UNL     1      16.953  16.343   6.545  1.00  0.00     0.062 A 
ATOM     40  C   UNL     1      18.120  18.185   5.499  1.00  0.00     0.016 A 
ATOM     41  C   UNL     1      16.164  17.249   7.274  1.00  0.00     0.158 A 
ATOM     42  C   UNL     1      17.333  19.093   6.212  1.00  0.00     0.051 A 
ATOM     43  C   UNL     1      16.351  18.630   7.099  1.00  0.00     0.157 A 
BRANCH  41  44
ATOM     44  O   UNL     1      15.222  16.755   8.177  1.00  0.00    -0.504 OA
ATOM     45  H   UNL     1      15.473  16.128   8.933  1.00  0.00     0.293 HD
ENDBRANCH  41  44
BRANCH  43  46
ATOM     46  O   UNL     1      15.571  19.537   7.816  1.00  0.00    -0.504 OA
ATOM     47  H   UNL     1      14.819  19.225   8.431  1.00  0.00     0.293 HD
ENDBRANCH  43  46
ENDBRANCH  28  38
BRANCH  34  48
ATOM     48  O   UNL     1      22.114  13.050   2.264  1.00  0.00    -0.507 OA
ATOM     49  H   UNL     1      22.486  12.586   1.443  1.00  0.00     0.293 HD
ENDBRANCH  34  48
BRANCH  37  50
ATOM     50  O   UNL     1      17.926  10.667   2.015  1.00  0.00    -0.508 OA
ATOM     51  H   UNL     1      17.632  10.608   1.048  1.00  0.00     0.293 HD
ENDBRANCH  37  50
ENDBRANCH  26  27
ENDBRANCH   5  26
BRANCH   4  52
ATOM     52  O   UNL     1      23.118  19.286   3.218  1.00  0.00    -0.384 OA
ATOM     53  H   UNL     1      22.275  19.789   3.088  1.00  0.00     0.211 HD
ENDBRANCH   4  52
TORSDOF 16
ENDMDL
