MODEL 1
REMARK VINA RESULT:    -3.393      0.000      0.000
REMARK INTER + INTRA:          -7.374
REMARK INTER:                  -6.171
REMARK INTRA:                  -1.203
REMARK UNBOUND:                -1.203
REMARK SMILES CCCCCCCCCCCCCCCC(=O)[O-]
REMARK SMILES IDX 9 1 10 2 11 3 12 4 13 5 14 6 15 7 16 8 17 9 18 10 8 11 7 12
REMARK SMILES IDX 6 13 5 14 4 15 3 16 2 17 1 18
REMARK H PARENT
REMARK Flexibility Score: inf
ROOT
ATOM      1  C   UNL     1      57.261 -15.957   7.455  1.00  0.00     0.000 C 
ENDROOT
BRANCH   1   2
ATOM      2  C   UNL     1      56.963 -15.916   5.943  1.00  0.00     0.000 C 
BRANCH   2   3
ATOM      3  C   UNL     1      55.537 -15.460   5.576  1.00  0.00     0.000 C 
BRANCH   3   4
ATOM      4  C   UNL     1      54.420 -16.463   5.926  1.00  0.00     0.000 C 
BRANCH   4   5
ATOM      5  C   UNL     1      53.449 -16.000   7.029  1.00  0.00     0.000 C 
BRANCH   5   6
ATOM      6  C   UNL     1      51.972 -16.155   6.628  1.00  0.00     0.006 C 
BRANCH   6   7
ATOM      7  C   UNL     1      51.529 -15.077   5.630  1.00  0.00     0.053 C 
BRANCH   7   8
ATOM      8  C   UNL     1      50.758 -13.981   6.300  1.00  0.00     0.041 C 
ATOM      9  O   UNL     1      50.516 -12.909   5.685  1.00  0.00    -0.550 OA
ATOM     10  O   UNL     1      50.331 -14.134   7.613  1.00  0.00    -0.550 OA
ENDBRANCH   7   8
ENDBRANCH   6   7
ENDBRANCH   5   6
ENDBRANCH   4   5
ENDBRANCH   3   4
ENDBRANCH   2   3
ENDBRANCH   1   2
BRANCH   1  11
ATOM     11  C   UNL     1      56.770 -14.730   8.252  1.00  0.00     0.000 C 
BRANCH  11  12
ATOM     12  C   UNL     1      56.220 -15.036   9.657  1.00  0.00    -0.000 C 
BRANCH  12  13
ATOM     13  C   UNL     1      55.653 -16.460   9.781  1.00  0.00    -0.000 C 
BRANCH  13  14
ATOM     14  C   UNL     1      55.577 -16.952  11.239  1.00  0.00    -0.000 C 
BRANCH  14  15
ATOM     15  C   UNL     1      56.871 -16.791  12.058  1.00  0.00    -0.000 C 
BRANCH  15  16
ATOM     16  C   UNL     1      56.623 -16.751  13.575  1.00  0.00    -0.000 C 
BRANCH  16  17
ATOM     17  C   UNL     1      57.885 -16.377  14.369  1.00  0.00    -0.003 C 
ATOM     18  C   UNL     1      59.145 -16.355  13.502  1.00  0.00     0.004 C 
ENDBRANCH  16  17
ENDBRANCH  15  16
ENDBRANCH  14  15
ENDBRANCH  13  14
ENDBRANCH  12  13
ENDBRANCH  11  12
ENDBRANCH   1  11
TORSDOF 14
ENDMDL
MODEL 2
REMARK VINA RESULT:    -3.351     19.876     22.344
REMARK INTER + INTRA:          -7.297
REMARK INTER:                  -5.677
REMARK INTRA:                  -1.620
REMARK UNBOUND:                -1.203
REMARK SMILES CCCCCCCCCCCCCCCC(=O)[O-]
REMARK SMILES IDX 9 1 10 2 11 3 12 4 13 5 14 6 15 7 16 8 17 9 18 10 8 11 7 12
REMARK SMILES IDX 6 13 5 14 4 15 3 16 2 17 1 18
REMARK H PARENT
REMARK Flexibility Score: inf
ROOT
ATOM      1  C   UNL     1      54.475   2.791  24.146  1.00  0.00     0.000 C 
ENDROOT
BRANCH   1   2
ATOM      2  C   UNL     1      55.363   1.534  24.237  1.00  0.00     0.000 C 
BRANCH   2   3
ATOM      3  C   UNL     1      56.492   1.462  23.190  1.00  0.00     0.000 C 
BRANCH   3   4
ATOM      4  C   UNL     1      56.171   0.622  21.939  1.00  0.00     0.000 C 
BRANCH   4   5
ATOM      5  C   UNL     1      57.333  -0.245  21.418  1.00  0.00     0.000 C 
BRANCH   5   6
ATOM      6  C   UNL     1      57.427  -1.606  22.128  1.00  0.00     0.006 C 
BRANCH   6   7
ATOM      7  C   UNL     1      58.828  -1.865  22.696  1.00  0.00     0.053 C 
BRANCH   7   8
ATOM      8  C   UNL     1      58.847  -1.781  24.192  1.00  0.00     0.041 C 
ATOM      9  O   UNL     1      59.873  -2.130  24.834  1.00  0.00    -0.550 OA
ATOM     10  O   UNL     1      57.722  -1.343  24.878  1.00  0.00    -0.550 OA
ENDBRANCH   7   8
ENDBRANCH   6   7
ENDBRANCH   5   6
ENDBRANCH   4   5
ENDBRANCH   3   4
ENDBRANCH   2   3
ENDBRANCH   1   2
BRANCH   1  11
ATOM     11  C   UNL     1      53.317   2.702  23.130  1.00  0.00     0.000 C 
BRANCH  11  12
ATOM     12  C   UNL     1      51.928   2.432  23.737  1.00  0.00    -0.000 C 
BRANCH  12  13
ATOM     13  C   UNL     1      51.726   0.961  24.137  1.00  0.00    -0.000 C 
BRANCH  13  14
ATOM     14  C   UNL     1      50.753   0.212  23.206  1.00  0.00    -0.000 C 
BRANCH  14  15
ATOM     15  C   UNL     1      51.331  -1.038  22.518  1.00  0.00    -0.000 C 
BRANCH  15  16
ATOM     16  C   UNL     1      52.678  -0.775  21.824  1.00  0.00    -0.000 C 
BRANCH  16  17
ATOM     17  C   UNL     1      52.536   0.117  20.581  1.00  0.00    -0.003 C 
ATOM     18  C   UNL     1      51.401  -0.327  19.659  1.00  0.00     0.004 C 
ENDBRANCH  16  17
ENDBRANCH  15  16
ENDBRANCH  14  15
ENDBRANCH  13  14
ENDBRANCH  12  13
ENDBRANCH  11  12
ENDBRANCH   1  11
TORSDOF 14
ENDMDL
MODEL 3
REMARK VINA RESULT:    -3.307      1.346      2.253
REMARK INTER + INTRA:          -7.217
REMARK INTER:                  -6.041
REMARK INTRA:                  -1.176
REMARK UNBOUND:                -1.203
REMARK SMILES CCCCCCCCCCCCCCCC(=O)[O-]
REMARK SMILES IDX 9 1 10 2 11 3 12 4 13 5 14 6 15 7 16 8 17 9 18 10 8 11 7 12
REMARK SMILES IDX 6 13 5 14 4 15 3 16 2 17 1 18
REMARK H PARENT
REMARK Flexibility Score: inf
ROOT
ATOM      1  C   UNL     1      57.535 -14.540   9.094  1.00  0.00     0.000 C 
ENDROOT
BRANCH   1   2
ATOM      2  C   UNL     1      58.027 -14.117   7.696  1.00  0.00     0.000 C 
BRANCH   2   3
ATOM      3  C   UNL     1      58.069 -15.252   6.653  1.00  0.00     0.000 C 
BRANCH   3   4
ATOM      4  C   UNL     1      56.998 -15.164   5.548  1.00  0.00     0.000 C 
BRANCH   4   5
ATOM      5  C   UNL     1      55.997 -16.334   5.516  1.00  0.00     0.000 C 
BRANCH   5   6
ATOM      6  C   UNL     1      54.605 -15.915   5.012  1.00  0.00     0.006 C 
BRANCH   6   7
ATOM      7  C   UNL     1      53.510 -16.178   6.053  1.00  0.00     0.053 C 
BRANCH   7   8
ATOM      8  C   UNL     1      52.185 -15.630   5.618  1.00  0.00     0.041 C 
ATOM      9  O   UNL     1      51.122 -16.242   5.903  1.00  0.00    -0.550 OA
ATOM     10  O   UNL     1      52.127 -14.458   4.875  1.00  0.00    -0.550 OA
ENDBRANCH   7   8
ENDBRANCH   6   7
ENDBRANCH   5   6
ENDBRANCH   4   5
ENDBRANCH   3   4
ENDBRANCH   2   3
ENDBRANCH   1   2
BRANCH   1  11
ATOM     11  C   UNL     1      56.040 -14.916   9.176  1.00  0.00     0.000 C 
BRANCH  11  12
ATOM     12  C   UNL     1      55.738 -16.425   9.140  1.00  0.00    -0.000 C 
BRANCH  12  13
ATOM     13  C   UNL     1      55.360 -16.992  10.519  1.00  0.00    -0.000 C 
BRANCH  13  14
ATOM     14  C   UNL     1      55.621 -16.002  11.669  1.00  0.00    -0.000 C 
BRANCH  14  15
ATOM     15  C   UNL     1      55.488 -16.588  13.087  1.00  0.00    -0.000 C 
BRANCH  15  16
ATOM     16  C   UNL     1      56.845 -16.850  13.760  1.00  0.00    -0.000 C 
BRANCH  16  17
ATOM     17  C   UNL     1      58.020 -16.757  12.773  1.00  0.00    -0.003 C 
ATOM     18  C   UNL     1      59.335 -16.376  13.453  1.00  0.00     0.004 C 
ENDBRANCH  16  17
ENDBRANCH  15  16
ENDBRANCH  14  15
ENDBRANCH  13  14
ENDBRANCH  12  13
ENDBRANCH  11  12
ENDBRANCH   1  11
TORSDOF 14
ENDMDL
MODEL 4
REMARK VINA RESULT:    -3.275     19.797     21.591
REMARK INTER + INTRA:          -7.159
REMARK INTER:                  -5.420
REMARK INTRA:                  -1.739
REMARK UNBOUND:                -1.203
REMARK SMILES CCCCCCCCCCCCCCCC(=O)[O-]
REMARK SMILES IDX 9 1 10 2 11 3 12 4 13 5 14 6 15 7 16 8 17 9 18 10 8 11 7 12
REMARK SMILES IDX 6 13 5 14 4 15 3 16 2 17 1 18
REMARK H PARENT
REMARK Flexibility Score: inf
ROOT
ATOM      1  C   UNL     1      53.244   1.740  23.903  1.00  0.00     0.000 C 
ENDROOT
BRANCH   1   2
ATOM      2  C   UNL     1      52.048   2.539  23.347  1.00  0.00     0.000 C 
BRANCH   2   3
ATOM      3  C   UNL     1      51.747   2.299  21.854  1.00  0.00     0.000 C 
BRANCH   3   4
ATOM      4  C   UNL     1      52.949   1.826  21.013  1.00  0.00     0.000 C 
BRANCH   4   5
ATOM      5  C   UNL     1      52.929   0.334  20.627  1.00  0.00     0.000 C 
BRANCH   5   6
ATOM      6  C   UNL     1      51.610  -0.362  21.005  1.00  0.00     0.006 C 
BRANCH   6   7
ATOM      7  C   UNL     1      51.806  -1.406  22.112  1.00  0.00     0.053 C 
BRANCH   7   8
ATOM      8  C   UNL     1      50.642  -1.443  23.055  1.00  0.00     0.041 C 
ATOM      9  O   UNL     1      50.010  -0.387  23.323  1.00  0.00    -0.550 OA
ATOM     10  O   UNL     1      50.273  -2.638  23.659  1.00  0.00    -0.550 OA
ENDBRANCH   7   8
ENDBRANCH   6   7
ENDBRANCH   5   6
ENDBRANCH   4   5
ENDBRANCH   3   4
ENDBRANCH   2   3
ENDBRANCH   1   2
BRANCH   1  11
ATOM     11  C   UNL     1      54.444   2.593  24.362  1.00  0.00     0.000 C 
BRANCH  11  12
ATOM     12  C   UNL     1      55.553   2.788  23.313  1.00  0.00    -0.000 C 
BRANCH  12  13
ATOM     13  C   UNL     1      56.617   1.678  23.353  1.00  0.00    -0.000 C 
BRANCH  13  14
ATOM     14  C   UNL     1      56.505   0.695  22.172  1.00  0.00    -0.000 C 
BRANCH  14  15
ATOM     15  C   UNL     1      56.545  -0.797  22.551  1.00  0.00    -0.000 C 
BRANCH  15  16
ATOM     16  C   UNL     1      57.762  -1.534  21.968  1.00  0.00    -0.000 C 
BRANCH  16  17
ATOM     17  C   UNL     1      58.696  -2.084  23.058  1.00  0.00    -0.003 C 
ATOM     18  C   UNL     1      58.262  -1.683  24.468  1.00  0.00     0.004 C 
ENDBRANCH  16  17
ENDBRANCH  15  16
ENDBRANCH  14  15
ENDBRANCH  13  14
ENDBRANCH  12  13
ENDBRANCH  11  12
ENDBRANCH   1  11
TORSDOF 14
ENDMDL
MODEL 5
REMARK VINA RESULT:    -3.244     19.861     22.056
REMARK INTER + INTRA:          -7.102
REMARK INTER:                  -5.199
REMARK INTRA:                  -1.903
REMARK UNBOUND:                -1.203
REMARK SMILES CCCCCCCCCCCCCCCC(=O)[O-]
REMARK SMILES IDX 9 1 10 2 11 3 12 4 13 5 14 6 15 7 16 8 17 9 18 10 8 11 7 12
REMARK SMILES IDX 6 13 5 14 4 15 3 16 2 17 1 18
REMARK H PARENT
REMARK Flexibility Score: inf
ROOT
ATOM      1  C   UNL     1      52.518   3.007  20.978  1.00  0.00     0.000 C 
ENDROOT
BRANCH   1   2
ATOM      2  C   UNL     1      52.561   3.093  22.517  1.00  0.00     0.000 C 
BRANCH   2   3
ATOM      3  C   UNL     1      53.461   2.044  23.200  1.00  0.00     0.000 C 
BRANCH   3   4
ATOM      4  C   UNL     1      54.869   2.542  23.583  1.00  0.00     0.000 C 
BRANCH   4   5
ATOM      5  C   UNL     1      56.011   2.013  22.695  1.00  0.00     0.000 C 
BRANCH   5   6
ATOM      6  C   UNL     1      55.707   0.631  22.091  1.00  0.00     0.006 C 
BRANCH   6   7
ATOM      7  C   UNL     1      56.975  -0.069  21.585  1.00  0.00     0.053 C 
BRANCH   7   8
ATOM      8  C   UNL     1      57.443  -1.128  22.536  1.00  0.00     0.041 C 
ATOM      9  O   UNL     1      57.012  -1.152  23.719  1.00  0.00    -0.550 OA
ATOM     10  O   UNL     1      58.376  -2.070  22.124  1.00  0.00    -0.550 OA
ENDBRANCH   7   8
ENDBRANCH   6   7
ENDBRANCH   5   6
ENDBRANCH   4   5
ENDBRANCH   3   4
ENDBRANCH   2   3
ENDBRANCH   1   2
BRANCH   1  11
ATOM     11  C   UNL     1      51.112   3.125  20.354  1.00  0.00     0.000 C 
BRANCH  11  12
ATOM     12  C   UNL     1      50.187   1.916  20.584  1.00  0.00    -0.000 C 
BRANCH  12  13
ATOM     13  C   UNL     1      50.245   0.891  19.439  1.00  0.00    -0.000 C 
BRANCH  13  14
ATOM     14  C   UNL     1      50.790  -0.479  19.885  1.00  0.00    -0.000 C 
BRANCH  14  15
ATOM     15  C   UNL     1      52.151  -0.444  20.605  1.00  0.00    -0.000 C 
BRANCH  15  16
ATOM     16  C   UNL     1      52.119  -1.126  21.983  1.00  0.00    -0.000 C 
BRANCH  16  17
ATOM     17  C   UNL     1      50.717  -1.117  22.613  1.00  0.00    -0.003 C 
ATOM     18  C   UNL     1      50.659  -0.322  23.917  1.00  0.00     0.004 C 
ENDBRANCH  16  17
ENDBRANCH  15  16
ENDBRANCH  14  15
ENDBRANCH  13  14
ENDBRANCH  12  13
ENDBRANCH  11  12
ENDBRANCH   1  11
TORSDOF 14
ENDMDL
MODEL 6
REMARK VINA RESULT:    -3.145      3.716      7.358
REMARK INTER + INTRA:          -6.922
REMARK INTER:                  -5.763
REMARK INTRA:                  -1.159
REMARK UNBOUND:                -1.203
REMARK SMILES CCCCCCCCCCCCCCCC(=O)[O-]
REMARK SMILES IDX 9 1 10 2 11 3 12 4 13 5 14 6 15 7 16 8 17 9 18 10 8 11 7 12
REMARK SMILES IDX 6 13 5 14 4 15 3 16 2 17 1 18
REMARK H PARENT
REMARK Flexibility Score: inf
ROOT
ATOM      1  C   UNL     1      57.060 -13.856   9.311  1.00  0.00     0.000 C 
ENDROOT
BRANCH   1   2
ATOM      2  C   UNL     1      55.918 -14.880   9.155  1.00  0.00     0.000 C 
BRANCH   2   3
ATOM      3  C   UNL     1      56.267 -16.313   9.602  1.00  0.00     0.000 C 
BRANCH   3   4
ATOM      4  C   UNL     1      55.392 -16.874  10.740  1.00  0.00     0.000 C 
BRANCH   4   5
ATOM      5  C   UNL     1      55.540 -16.153  12.093  1.00  0.00     0.000 C 
BRANCH   5   6
ATOM      6  C   UNL     1      56.214 -17.027  13.165  1.00  0.00     0.006 C 
BRANCH   6   7
ATOM      7  C   UNL     1      57.426 -16.332  13.799  1.00  0.00     0.053 C 
BRANCH   7   8
ATOM      8  C   UNL     1      58.702 -16.689  13.098  1.00  0.00     0.041 C 
ATOM      9  O   UNL     1      59.805 -16.578  13.694  1.00  0.00    -0.550 OA
ATOM     10  O   UNL     1      58.673 -17.117  11.777  1.00  0.00    -0.550 OA
ENDBRANCH   7   8
ENDBRANCH   6   7
ENDBRANCH   5   6
ENDBRANCH   4   5
ENDBRANCH   3   4
ENDBRANCH   2   3
ENDBRANCH   1   2
BRANCH   1  11
ATOM     11  C   UNL     1      58.038 -13.779   8.121  1.00  0.00     0.000 C 
BRANCH  11  12
ATOM     12  C   UNL     1      58.238 -15.095   7.348  1.00  0.00    -0.000 C 
BRANCH  12  13
ATOM     13  C   UNL     1      57.651 -15.050   5.927  1.00  0.00    -0.000 C 
BRANCH  13  14
ATOM     14  C   UNL     1      57.643 -16.426   5.236  1.00  0.00    -0.000 C 
BRANCH  14  15
ATOM     15  C   UNL     1      56.248 -16.991   4.907  1.00  0.00    -0.000 C 
BRANCH  15  16
ATOM     16  C   UNL     1      55.333 -17.090   6.139  1.00  0.00    -0.000 C 
BRANCH  16  17
ATOM     17  C   UNL     1      54.194 -16.058   6.111  1.00  0.00    -0.003 C 
ATOM     18  C   UNL     1      53.085 -16.373   7.116  1.00  0.00     0.004 C 
ENDBRANCH  16  17
ENDBRANCH  15  16
ENDBRANCH  14  15
ENDBRANCH  13  14
ENDBRANCH  12  13
ENDBRANCH  11  12
ENDBRANCH   1  11
TORSDOF 14
ENDMDL
MODEL 7
REMARK VINA RESULT:    -3.120     19.394     21.324
REMARK INTER + INTRA:          -6.877
REMARK INTER:                  -5.191
REMARK INTRA:                  -1.686
REMARK UNBOUND:                -1.203
REMARK SMILES CCCCCCCCCCCCCCCC(=O)[O-]
REMARK SMILES IDX 9 1 10 2 11 3 12 4 13 5 14 6 15 7 16 8 17 9 18 10 8 11 7 12
REMARK SMILES IDX 6 13 5 14 4 15 3 16 2 17 1 18
REMARK H PARENT
REMARK Flexibility Score: inf
ROOT
ATOM      1  C   UNL     1      54.000   0.344  21.834  1.00  0.00     0.000 C 
ENDROOT
BRANCH   1   2
ATOM      2  C   UNL     1      53.242   1.653  21.531  1.00  0.00     0.000 C 
BRANCH   2   3
ATOM      3  C   UNL     1      52.253   2.097  22.627  1.00  0.00     0.000 C 
BRANCH   3   4
ATOM      4  C   UNL     1      52.176   1.166  23.853  1.00  0.00     0.000 C 
BRANCH   4   5
ATOM      5  C   UNL     1      50.754   0.728  24.250  1.00  0.00     0.000 C 
BRANCH   5   6
ATOM      6  C   UNL     1      49.982   0.080  23.087  1.00  0.00     0.006 C 
BRANCH   6   7
ATOM      7  C   UNL     1      50.583  -1.271  22.678  1.00  0.00     0.053 C 
BRANCH   7   8
ATOM      8  C   UNL     1      50.422  -1.530  21.210  1.00  0.00     0.041 C 
ATOM      9  O   UNL     1      49.934  -2.619  20.809  1.00  0.00    -0.550 OA
ATOM     10  O   UNL     1      50.836  -0.579  20.287  1.00  0.00    -0.550 OA
ENDBRANCH   7   8
ENDBRANCH   6   7
ENDBRANCH   5   6
ENDBRANCH   4   5
ENDBRANCH   3   4
ENDBRANCH   2   3
ENDBRANCH   1   2
BRANCH   1  11
ATOM     11  C   UNL     1      55.538   0.458  21.806  1.00  0.00     0.000 C 
BRANCH  11  12
ATOM     12  C   UNL     1      56.137   1.512  22.755  1.00  0.00    -0.000 C 
BRANCH  12  13
ATOM     13  C   UNL     1      55.865   1.206  24.238  1.00  0.00    -0.000 C 
BRANCH  13  14
ATOM     14  C   UNL     1      57.053   0.520  24.939  1.00  0.00    -0.000 C 
BRANCH  14  15
ATOM     15  C   UNL     1      57.167  -0.998  24.708  1.00  0.00    -0.000 C 
BRANCH  15  16
ATOM     16  C   UNL     1      58.600  -1.527  24.885  1.00  0.00    -0.000 C 
BRANCH  16  17
ATOM     17  C   UNL     1      59.132  -2.222  23.621  1.00  0.00    -0.003 C 
ATOM     18  C   UNL     1      58.346  -1.847  22.364  1.00  0.00     0.004 C 
ENDBRANCH  16  17
ENDBRANCH  15  16
ENDBRANCH  14  15
ENDBRANCH  13  14
ENDBRANCH  12  13
ENDBRANCH  11  12
ENDBRANCH   1  11
TORSDOF 14
ENDMDL
MODEL 8
REMARK VINA RESULT:    -3.063     18.714     20.742
REMARK INTER + INTRA:          -6.773
REMARK INTER:                  -5.549
REMARK INTRA:                  -1.224
REMARK UNBOUND:                -1.203
REMARK SMILES CCCCCCCCCCCCCCCC(=O)[O-]
REMARK SMILES IDX 9 1 10 2 11 3 12 4 13 5 14 6 15 7 16 8 17 9 18 10 8 11 7 12
REMARK SMILES IDX 6 13 5 14 4 15 3 16 2 17 1 18
REMARK H PARENT
REMARK Flexibility Score: inf
ROOT
ATOM      1  C   UNL     1      69.371  -1.857  11.028  1.00  0.00     0.000 C 
ENDROOT
BRANCH   1   2
ATOM      2  C   UNL     1      69.024  -1.301   9.632  1.00  0.00     0.000 C 
BRANCH   2   3
ATOM      3  C   UNL     1      68.860  -2.369   8.533  1.00  0.00     0.000 C 
BRANCH   3   4
ATOM      4  C   UNL     1      70.125  -2.645   7.696  1.00  0.00     0.000 C 
BRANCH   4   5
ATOM      5  C   UNL     1      69.869  -2.951   6.208  1.00  0.00     0.000 C 
BRANCH   5   6
ATOM      6  C   UNL     1      70.124  -4.426   5.850  1.00  0.00     0.006 C 
BRANCH   6   7
ATOM      7  C   UNL     1      69.375  -5.385   6.784  1.00  0.00     0.053 C 
BRANCH   7   8
ATOM      8  C   UNL     1      69.739  -6.814   6.523  1.00  0.00     0.041 C 
ATOM      9  O   UNL     1      69.824  -7.240   5.341  1.00  0.00    -0.550 OA
ATOM     10  O   UNL     1      69.956  -7.682   7.585  1.00  0.00    -0.550 OA
ENDBRANCH   7   8
ENDBRANCH   6   7
ENDBRANCH   5   6
ENDBRANCH   4   5
ENDBRANCH   3   4
ENDBRANCH   2   3
ENDBRANCH   1   2
BRANCH   1  11
ATOM     11  C   UNL     1      69.951  -0.825  12.018  1.00  0.00     0.000 C 
BRANCH  11  12
ATOM     12  C   UNL     1      69.855   0.644  11.567  1.00  0.00    -0.000 C 
BRANCH  12  13
ATOM     13  C   UNL     1      68.509   1.294  11.927  1.00  0.00    -0.000 C 
BRANCH  13  14
ATOM     14  C   UNL     1      68.218   2.567  11.110  1.00  0.00    -0.000 C 
BRANCH  14  15
ATOM     15  C   UNL     1      68.024   2.348   9.597  1.00  0.00    -0.000 C 
BRANCH  15  16
ATOM     16  C   UNL     1      66.774   1.516   9.265  1.00  0.00    -0.000 C 
BRANCH  16  17
ATOM     17  C   UNL     1      66.782   0.993   7.819  1.00  0.00    -0.003 C 
ATOM     18  C   UNL     1      68.112   1.241   7.107  1.00  0.00     0.004 C 
ENDBRANCH  16  17
ENDBRANCH  15  16
ENDBRANCH  14  15
ENDBRANCH  13  14
ENDBRANCH  12  13
ENDBRANCH  11  12
ENDBRANCH   1  11
TORSDOF 14
ENDMDL
MODEL 9
REMARK VINA RESULT:    -2.989     19.817     22.296
REMARK INTER + INTRA:          -6.639
REMARK INTER:                  -4.935
REMARK INTRA:                  -1.704
REMARK UNBOUND:                -1.203
REMARK SMILES CCCCCCCCCCCCCCCC(=O)[O-]
REMARK SMILES IDX 9 1 10 2 11 3 12 4 13 5 14 6 15 7 16 8 17 9 18 10 8 11 7 12
REMARK SMILES IDX 6 13 5 14 4 15 3 16 2 17 1 18
REMARK H PARENT
REMARK Flexibility Score: inf
ROOT
ATOM      1  C   UNL     1      53.711   1.349  22.573  1.00  0.00     0.000 C 
ENDROOT
BRANCH   1   2
ATOM      2  C   UNL     1      54.714   2.518  22.507  1.00  0.00     0.000 C 
BRANCH   2   3
ATOM      3  C   UNL     1      55.791   2.511  23.610  1.00  0.00     0.000 C 
BRANCH   3   4
ATOM      4  C   UNL     1      55.711   1.326  24.593  1.00  0.00     0.000 C 
BRANCH   4   5
ATOM      5  C   UNL     1      57.071   0.776  25.063  1.00  0.00     0.000 C 
BRANCH   5   6
ATOM      6  C   UNL     1      57.292  -0.692  24.659  1.00  0.00     0.006 C 
BRANCH   6   7
ATOM      7  C   UNL     1      56.558  -1.050  23.361  1.00  0.00     0.053 C 
BRANCH   7   8
ATOM      8  C   UNL     1      57.480  -1.048  22.180  1.00  0.00     0.041 C 
ATOM      9  O   UNL     1      58.414  -1.889  22.105  1.00  0.00    -0.550 OA
ATOM     10  O   UNL     1      57.325  -0.098  21.179  1.00  0.00    -0.550 OA
ENDBRANCH   7   8
ENDBRANCH   6   7
ENDBRANCH   5   6
ENDBRANCH   4   5
ENDBRANCH   3   4
ENDBRANCH   2   3
ENDBRANCH   1   2
BRANCH   1  11
ATOM     11  C   UNL     1      52.271   1.743  22.960  1.00  0.00     0.000 C 
BRANCH  11  12
ATOM     12  C   UNL     1      51.536   0.741  23.868  1.00  0.00    -0.000 C 
BRANCH  12  13
ATOM     13  C   UNL     1      50.469  -0.076  23.118  1.00  0.00    -0.000 C 
BRANCH  13  14
ATOM     14  C   UNL     1      51.058  -1.282  22.361  1.00  0.00    -0.000 C 
BRANCH  14  15
ATOM     15  C   UNL     1      50.691  -1.365  20.868  1.00  0.00    -0.000 C 
BRANCH  15  16
ATOM     16  C   UNL     1      51.295  -0.221  20.035  1.00  0.00    -0.000 C 
BRANCH  16  17
ATOM     17  C   UNL     1      50.228   0.756  19.517  1.00  0.00    -0.003 C 
ATOM     18  C   UNL     1      50.609   2.220  19.738  1.00  0.00     0.004 C 
ENDBRANCH  16  17
ENDBRANCH  15  16
ENDBRANCH  14  15
ENDBRANCH  13  14
ENDBRANCH  12  13
ENDBRANCH  11  12
ENDBRANCH   1  11
TORSDOF 14
ENDMDL
