MODEL 1
REMARK VINA RESULT:    -4.502      0.000      0.000
REMARK INTER + INTRA:         -10.159
REMARK INTER:                  -8.187
REMARK INTRA:                  -1.972
REMARK UNBOUND:                -1.972
REMARK SMILES CCCCCCCCCCCCCCCC(=O)[O-]
REMARK SMILES IDX 9 1 10 2 11 3 12 4 13 5 14 6 15 7 16 8 17 9 18 10 8 11 7 12
REMARK SMILES IDX 6 13 5 14 4 15 3 16 2 17 1 18
REMARK H PARENT
REMARK Flexibility Score: inf
ROOT
ATOM      1  C   UNL     1      58.113  12.755  92.949  1.00  0.00     0.000 C 
ENDROOT
BRANCH   1   2
ATOM      2  C   UNL     1      56.717  12.124  93.064  1.00  0.00     0.000 C 
BRANCH   2   3
ATOM      3  C   UNL     1      56.303  11.867  94.520  1.00  0.00     0.000 C 
BRANCH   3   4
ATOM      4  C   UNL     1      55.974  13.182  95.238  1.00  0.00     0.000 C 
BRANCH   4   5
ATOM      5  C   UNL     1      56.946  13.433  96.401  1.00  0.00     0.000 C 
BRANCH   5   6
ATOM      6  C   UNL     1      57.833  14.672  96.179  1.00  0.00     0.006 C 
BRANCH   6   7
ATOM      7  C   UNL     1      59.336  14.418  96.375  1.00  0.00     0.053 C 
BRANCH   7   8
ATOM      8  C   UNL     1      60.079  15.678  96.701  1.00  0.00     0.041 C 
ATOM      9  O   UNL     1      60.348  15.964  97.897  1.00  0.00    -0.550 OA
ATOM     10  O   UNL     1      60.503  16.518  95.680  1.00  0.00    -0.550 OA
ENDBRANCH   7   8
ENDBRANCH   6   7
ENDBRANCH   5   6
ENDBRANCH   4   5
ENDBRANCH   3   4
ENDBRANCH   2   3
ENDBRANCH   1   2
BRANCH   1  11
ATOM     11  C   UNL     1      58.228  13.724  91.758  1.00  0.00     0.000 C 
BRANCH  11  12
ATOM     12  C   UNL     1      56.892  13.913  91.020  1.00  0.00    -0.000 C 
BRANCH  12  13
ATOM     13  C   UNL     1      57.035  13.780  89.498  1.00  0.00    -0.000 C 
BRANCH  13  14
ATOM     14  C   UNL     1      56.240  12.578  88.974  1.00  0.00    -0.000 C 
BRANCH  14  15
ATOM     15  C   UNL     1      57.178  11.432  88.567  1.00  0.00    -0.000 C 
BRANCH  15  16
ATOM     16  C   UNL     1      57.358  10.389  89.681  1.00  0.00    -0.000 C 
BRANCH  16  17
ATOM     17  C   UNL     1      58.790  10.356  90.234  1.00  0.00    -0.003 C 
ATOM     18  C   UNL     1      59.732  11.188  89.369  1.00  0.00     0.004 C 
ENDBRANCH  16  17
ENDBRANCH  15  16
ENDBRANCH  14  15
ENDBRANCH  13  14
ENDBRANCH  12  13
ENDBRANCH  11  12
ENDBRANCH   1  11
TORSDOF 14
ENDMDL
MODEL 2
REMARK VINA RESULT:    -4.476      1.308      2.181
REMARK INTER + INTRA:         -10.112
REMARK INTER:                  -7.853
REMARK INTRA:                  -2.259
REMARK UNBOUND:                -1.972
REMARK SMILES CCCCCCCCCCCCCCCC(=O)[O-]
REMARK SMILES IDX 9 1 10 2 11 3 12 4 13 5 14 6 15 7 16 8 17 9 18 10 8 11 7 12
REMARK SMILES IDX 6 13 5 14 4 15 3 16 2 17 1 18
REMARK H PARENT
REMARK Flexibility Score: inf
ROOT
ATOM      1  C   UNL     1      58.716  14.533  90.455  1.00  0.00     0.000 C 
ENDROOT
BRANCH   1   2
ATOM      2  C   UNL     1      58.989  14.506  91.967  1.00  0.00     0.000 C 
BRANCH   2   3
ATOM      3  C   UNL     1      58.707  13.132  92.593  1.00  0.00     0.000 C 
BRANCH   3   4
ATOM      4  C   UNL     1      57.381  13.142  93.364  1.00  0.00     0.000 C 
BRANCH   4   5
ATOM      5  C   UNL     1      57.045  14.555  93.864  1.00  0.00     0.000 C 
BRANCH   5   6
ATOM      6  C   UNL     1      57.033  14.657  95.400  1.00  0.00     0.006 C 
BRANCH   6   7
ATOM      7  C   UNL     1      58.107  13.809  96.100  1.00  0.00     0.053 C 
BRANCH   7   8
ATOM      8  C   UNL     1      59.441  14.491  96.110  1.00  0.00     0.041 C 
ATOM      9  O   UNL     1      59.524  15.725  95.871  1.00  0.00    -0.550 OA
ATOM     10  O   UNL     1      60.587  13.770  96.416  1.00  0.00    -0.550 OA
ENDBRANCH   7   8
ENDBRANCH   6   7
ENDBRANCH   5   6
ENDBRANCH   4   5
ENDBRANCH   3   4
ENDBRANCH   2   3
ENDBRANCH   1   2
BRANCH   1  11
ATOM     11  C   UNL     1      57.270  14.940  90.121  1.00  0.00     0.000 C 
BRANCH  11  12
ATOM     12  C   UNL     1      56.573  13.931  89.193  1.00  0.00    -0.000 C 
BRANCH  12  13
ATOM     13  C   UNL     1      55.855  12.816  89.967  1.00  0.00    -0.000 C 
BRANCH  13  14
ATOM     14  C   UNL     1      56.697  11.535  89.992  1.00  0.00    -0.000 C 
BRANCH  14  15
ATOM     15  C   UNL     1      57.557  11.416  88.724  1.00  0.00    -0.000 C 
BRANCH  15  16
ATOM     16  C   UNL     1      59.041  11.170  89.036  1.00  0.00    -0.000 C 
BRANCH  16  17
ATOM     17  C   UNL     1      59.246  10.257  90.254  1.00  0.00    -0.003 C 
ATOM     18  C   UNL     1      60.609  10.496  90.896  1.00  0.00     0.004 C 
ENDBRANCH  16  17
ENDBRANCH  15  16
ENDBRANCH  14  15
ENDBRANCH  13  14
ENDBRANCH  12  13
ENDBRANCH  11  12
ENDBRANCH   1  11
TORSDOF 14
ENDMDL
MODEL 3
REMARK VINA RESULT:    -4.437      3.011      5.418
REMARK INTER + INTRA:         -10.040
REMARK INTER:                  -7.780
REMARK INTRA:                  -2.260
REMARK UNBOUND:                -1.972
REMARK SMILES CCCCCCCCCCCCCCCC(=O)[O-]
REMARK SMILES IDX 9 1 10 2 11 3 12 4 13 5 14 6 15 7 16 8 17 9 18 10 8 11 7 12
REMARK SMILES IDX 6 13 5 14 4 15 3 16 2 17 1 18
REMARK H PARENT
REMARK Flexibility Score: inf
ROOT
ATOM      1  C   UNL     1      59.337  11.479  89.769  1.00  0.00     0.000 C 
ENDROOT
BRANCH   1   2
ATOM      2  C   UNL     1      58.144  11.333  88.811  1.00  0.00     0.000 C 
BRANCH   2   3
ATOM      3  C   UNL     1      56.829  11.836  89.425  1.00  0.00     0.000 C 
BRANCH   3   4
ATOM      4  C   UNL     1      56.023  12.651  88.406  1.00  0.00     0.000 C 
BRANCH   4   5
ATOM      5  C   UNL     1      56.091  14.152  88.724  1.00  0.00     0.000 C 
BRANCH   5   6
ATOM      6  C   UNL     1      57.087  14.478  89.852  1.00  0.00     0.006 C 
BRANCH   6   7
ATOM      7  C   UNL     1      58.321  15.272  89.398  1.00  0.00     0.053 C 
BRANCH   7   8
ATOM      8  C   UNL     1      58.676  16.360  90.365  1.00  0.00     0.041 C 
ATOM      9  O   UNL     1      57.832  16.754  91.213  1.00  0.00    -0.550 OA
ATOM     10  O   UNL     1      59.948  16.915  90.351  1.00  0.00    -0.550 OA
ENDBRANCH   7   8
ENDBRANCH   6   7
ENDBRANCH   5   6
ENDBRANCH   4   5
ENDBRANCH   3   4
ENDBRANCH   2   3
ENDBRANCH   1   2
BRANCH   1  11
ATOM     11  C   UNL     1      58.934  11.313  91.245  1.00  0.00     0.000 C 
BRANCH  11  12
ATOM     12  C   UNL     1      59.375  12.502  92.114  1.00  0.00    -0.000 C 
BRANCH  12  13
ATOM     13  C   UNL     1      58.216  13.106  92.919  1.00  0.00    -0.000 C 
BRANCH  13  14
ATOM     14  C   UNL     1      57.101  12.076  93.136  1.00  0.00    -0.000 C 
BRANCH  14  15
ATOM     15  C   UNL     1      55.733  12.653  92.740  1.00  0.00    -0.000 C 
BRANCH  15  16
ATOM     16  C   UNL     1      54.663  11.566  92.553  1.00  0.00    -0.000 C 
BRANCH  16  17
ATOM     17  C   UNL     1      55.268  10.188  92.244  1.00  0.00    -0.003 C 
ATOM     18  C   UNL     1      54.458   9.074  92.900  1.00  0.00     0.004 C 
ENDBRANCH  16  17
ENDBRANCH  15  16
ENDBRANCH  14  15
ENDBRANCH  13  14
ENDBRANCH  12  13
ENDBRANCH  11  12
ENDBRANCH   1  11
TORSDOF 14
ENDMDL
MODEL 4
REMARK VINA RESULT:    -4.417      3.371      6.300
REMARK INTER + INTRA:         -10.005
REMARK INTER:                  -7.536
REMARK INTRA:                  -2.470
REMARK UNBOUND:                -1.972
REMARK SMILES CCCCCCCCCCCCCCCC(=O)[O-]
REMARK SMILES IDX 9 1 10 2 11 3 12 4 13 5 14 6 15 7 16 8 17 9 18 10 8 11 7 12
REMARK SMILES IDX 6 13 5 14 4 15 3 16 2 17 1 18
REMARK H PARENT
REMARK Flexibility Score: inf
ROOT
ATOM      1  C   UNL     1      56.567  14.474  93.686  1.00  0.00     0.000 C 
ENDROOT
BRANCH   1   2
ATOM      2  C   UNL     1      56.819  12.960  93.618  1.00  0.00     0.000 C 
BRANCH   2   3
ATOM      3  C   UNL     1      57.375  12.514  92.258  1.00  0.00     0.000 C 
BRANCH   3   4
ATOM      4  C   UNL     1      56.484  13.006  91.112  1.00  0.00     0.000 C 
BRANCH   4   5
ATOM      5  C   UNL     1      57.219  12.917  89.766  1.00  0.00     0.000 C 
BRANCH   5   6
ATOM      6  C   UNL     1      58.725  12.639  89.926  1.00  0.00     0.006 C 
BRANCH   6   7
ATOM      7  C   UNL     1      59.212  11.365  89.217  1.00  0.00     0.053 C 
BRANCH   7   8
ATOM      8  C   UNL     1      59.311  10.203  90.158  1.00  0.00     0.041 C 
ATOM      9  O   UNL     1      60.357  10.023  90.835  1.00  0.00    -0.550 OA
ATOM     10  O   UNL     1      58.235   9.339  90.310  1.00  0.00    -0.550 OA
ENDBRANCH   7   8
ENDBRANCH   6   7
ENDBRANCH   5   6
ENDBRANCH   4   5
ENDBRANCH   3   4
ENDBRANCH   2   3
ENDBRANCH   1   2
BRANCH   1  11
ATOM     11  C   UNL     1      56.709  15.034  95.112  1.00  0.00     0.000 C 
BRANCH  11  12
ATOM     12  C   UNL     1      57.989  14.548  95.812  1.00  0.00    -0.000 C 
BRANCH  12  13
ATOM     13  C   UNL     1      59.254  15.226  95.266  1.00  0.00    -0.000 C 
BRANCH  13  14
ATOM     14  C   UNL     1      60.184  14.201  94.606  1.00  0.00    -0.000 C 
BRANCH  14  15
ATOM     15  C   UNL     1      60.590  14.654  93.195  1.00  0.00    -0.000 C 
BRANCH  15  16
ATOM     16  C   UNL     1      59.923  15.975  92.782  1.00  0.00    -0.000 C 
BRANCH  16  17
ATOM     17  C   UNL     1      59.274  15.900  91.392  1.00  0.00    -0.003 C 
ATOM     18  C   UNL     1      57.972  16.696  91.351  1.00  0.00     0.004 C 
ENDBRANCH  16  17
ENDBRANCH  15  16
ENDBRANCH  14  15
ENDBRANCH  13  14
ENDBRANCH  12  13
ENDBRANCH  11  12
ENDBRANCH   1  11
TORSDOF 14
ENDMDL
MODEL 5
REMARK VINA RESULT:    -4.346      3.180      4.348
REMARK INTER + INTRA:          -9.874
REMARK INTER:                  -7.828
REMARK INTRA:                  -2.047
REMARK UNBOUND:                -1.972
REMARK SMILES CCCCCCCCCCCCCCCC(=O)[O-]
REMARK SMILES IDX 9 1 10 2 11 3 12 4 13 5 14 6 15 7 16 8 17 9 18 10 8 11 7 12
REMARK SMILES IDX 6 13 5 14 4 15 3 16 2 17 1 18
REMARK H PARENT
REMARK Flexibility Score: inf
ROOT
ATOM      1  C   UNL     1      58.735  16.110  90.026  1.00  0.00     0.000 C 
ENDROOT
BRANCH   1   2
ATOM      2  C   UNL     1      59.058  16.205  91.526  1.00  0.00     0.000 C 
BRANCH   2   3
ATOM      3  C   UNL     1      57.814  16.030  92.410  1.00  0.00     0.000 C 
BRANCH   3   4
ATOM      4  C   UNL     1      58.056  14.976  93.497  1.00  0.00     0.000 C 
BRANCH   4   5
ATOM      5  C   UNL     1      58.927  13.828  92.965  1.00  0.00     0.000 C 
BRANCH   5   6
ATOM      6  C   UNL     1      58.171  12.489  92.896  1.00  0.00     0.006 C 
BRANCH   6   7
ATOM      7  C   UNL     1      56.642  12.619  92.985  1.00  0.00     0.053 C 
BRANCH   7   8
ATOM      8  C   UNL     1      55.973  11.286  93.127  1.00  0.00     0.041 C 
ATOM      9  O   UNL     1      55.817  10.545  92.121  1.00  0.00    -0.550 OA
ATOM     10  O   UNL     1      55.553  10.850  94.376  1.00  0.00    -0.550 OA
ENDBRANCH   7   8
ENDBRANCH   6   7
ENDBRANCH   5   6
ENDBRANCH   4   5
ENDBRANCH   3   4
ENDBRANCH   2   3
ENDBRANCH   1   2
BRANCH   1  11
ATOM     11  C   UNL     1      58.338  14.687  89.596  1.00  0.00     0.000 C 
BRANCH  11  12
ATOM     12  C   UNL     1      56.871  14.595  89.144  1.00  0.00    -0.000 C 
BRANCH  12  13
ATOM     13  C   UNL     1      56.219  13.258  89.523  1.00  0.00    -0.000 C 
BRANCH  13  14
ATOM     14  C   UNL     1      56.449  12.205  88.433  1.00  0.00    -0.000 C 
BRANCH  14  15
ATOM     15  C   UNL     1      57.109  10.945  89.015  1.00  0.00    -0.000 C 
BRANCH  15  16
ATOM     16  C   UNL     1      58.621  11.113  89.228  1.00  0.00    -0.000 C 
BRANCH  16  17
ATOM     17  C   UNL     1      59.181  10.146  90.281  1.00  0.00    -0.003 C 
ATOM     18  C   UNL     1      60.607  10.522  90.670  1.00  0.00     0.004 C 
ENDBRANCH  16  17
ENDBRANCH  15  16
ENDBRANCH  14  15
ENDBRANCH  13  14
ENDBRANCH  12  13
ENDBRANCH  11  12
ENDBRANCH   1  11
TORSDOF 14
ENDMDL
MODEL 6
REMARK VINA RESULT:    -4.320      3.322      6.465
REMARK INTER + INTRA:          -9.828
REMARK INTER:                  -7.513
REMARK INTRA:                  -2.315
REMARK UNBOUND:                -1.972
REMARK SMILES CCCCCCCCCCCCCCCC(=O)[O-]
REMARK SMILES IDX 9 1 10 2 11 3 12 4 13 5 14 6 15 7 16 8 17 9 18 10 8 11 7 12
REMARK SMILES IDX 6 13 5 14 4 15 3 16 2 17 1 18
REMARK H PARENT
REMARK Flexibility Score: inf
ROOT
ATOM      1  C   UNL     1      58.415  13.686  92.342  1.00  0.00     0.000 C 
ENDROOT
BRANCH   1   2
ATOM      2  C   UNL     1      58.435  15.081  91.699  1.00  0.00     0.000 C 
BRANCH   2   3
ATOM      3  C   UNL     1      57.408  15.224  90.566  1.00  0.00     0.000 C 
BRANCH   3   4
ATOM      4  C   UNL     1      57.698  14.231  89.434  1.00  0.00     0.000 C 
BRANCH   4   5
ATOM      5  C   UNL     1      56.433  13.449  89.050  1.00  0.00     0.000 C 
BRANCH   5   6
ATOM      6  C   UNL     1      56.698  11.946  88.852  1.00  0.00     0.006 C 
BRANCH   6   7
ATOM      7  C   UNL     1      58.148  11.517  89.127  1.00  0.00     0.053 C 
BRANCH   7   8
ATOM      8  C   UNL     1      58.220  10.359  90.076  1.00  0.00     0.041 C 
ATOM      9  O   UNL     1      59.334   9.962  90.508  1.00  0.00    -0.550 OA
ATOM     10  O   UNL     1      57.054   9.742  90.508  1.00  0.00    -0.550 OA
ENDBRANCH   7   8
ENDBRANCH   6   7
ENDBRANCH   5   6
ENDBRANCH   4   5
ENDBRANCH   3   4
ENDBRANCH   2   3
ENDBRANCH   1   2
BRANCH   1  11
ATOM     11  C   UNL     1      58.642  13.733  93.864  1.00  0.00     0.000 C 
BRANCH  11  12
ATOM     12  C   UNL     1      58.171  15.055  94.490  1.00  0.00    -0.000 C 
BRANCH  12  13
ATOM     13  C   UNL     1      56.723  14.986  94.995  1.00  0.00    -0.000 C 
BRANCH  13  14
ATOM     14  C   UNL     1      56.372  13.570  95.467  1.00  0.00    -0.000 C 
BRANCH  14  15
ATOM     15  C   UNL     1      55.124  13.042  94.742  1.00  0.00    -0.000 C 
BRANCH  15  16
ATOM     16  C   UNL     1      54.602  14.016  93.674  1.00  0.00    -0.000 C 
BRANCH  16  17
ATOM     17  C   UNL     1      54.737  13.459  92.249  1.00  0.00    -0.003 C 
ATOM     18  C   UNL     1      54.671  11.934  92.248  1.00  0.00     0.004 C 
ENDBRANCH  16  17
ENDBRANCH  15  16
ENDBRANCH  14  15
ENDBRANCH  13  14
ENDBRANCH  12  13
ENDBRANCH  11  12
ENDBRANCH   1  11
TORSDOF 14
ENDMDL
MODEL 7
REMARK VINA RESULT:    -4.310      3.828      6.961
REMARK INTER + INTRA:          -9.810
REMARK INTER:                  -7.706
REMARK INTRA:                  -2.104
REMARK UNBOUND:                -1.972
REMARK SMILES CCCCCCCCCCCCCCCC(=O)[O-]
REMARK SMILES IDX 9 1 10 2 11 3 12 4 13 5 14 6 15 7 16 8 17 9 18 10 8 11 7 12
REMARK SMILES IDX 6 13 5 14 4 15 3 16 2 17 1 18
REMARK H PARENT
REMARK Flexibility Score: inf
ROOT
ATOM      1  C   UNL     1      58.522  17.073  91.008  1.00  0.00     0.000 C 
ENDROOT
BRANCH   1   2
ATOM      2  C   UNL     1      59.368  16.175  90.092  1.00  0.00     0.000 C 
BRANCH   2   3
ATOM      3  C   UNL     1      58.673  14.845  89.765  1.00  0.00     0.000 C 
BRANCH   3   4
ATOM      4  C   UNL     1      57.148  15.006  89.768  1.00  0.00     0.000 C 
BRANCH   4   5
ATOM      5  C   UNL     1      56.474  13.869  88.985  1.00  0.00     0.000 C 
BRANCH   5   6
ATOM      6  C   UNL     1      56.629  12.499  89.669  1.00  0.00     0.006 C 
BRANCH   6   7
ATOM      7  C   UNL     1      57.244  11.410  88.775  1.00  0.00     0.053 C 
BRANCH   7   8
ATOM      8  C   UNL     1      58.534  10.890  89.332  1.00  0.00     0.041 C 
ATOM      9  O   UNL     1      59.613  11.496  89.103  1.00  0.00    -0.550 OA
ATOM     10  O   UNL     1      58.537   9.754  90.131  1.00  0.00    -0.550 OA
ENDBRANCH   7   8
ENDBRANCH   6   7
ENDBRANCH   5   6
ENDBRANCH   4   5
ENDBRANCH   3   4
ENDBRANCH   2   3
ENDBRANCH   1   2
BRANCH   1  11
ATOM     11  C   UNL     1      59.369  18.113  91.762  1.00  0.00     0.000 C 
BRANCH  11  12
ATOM     12  C   UNL     1      60.773  17.591  92.109  1.00  0.00    -0.000 C 
BRANCH  12  13
ATOM     13  C   UNL     1      60.846  16.982  93.517  1.00  0.00    -0.000 C 
BRANCH  13  14
ATOM     14  C   UNL     1      61.025  15.461  93.450  1.00  0.00    -0.000 C 
BRANCH  14  15
ATOM     15  C   UNL     1      60.056  14.749  94.405  1.00  0.00    -0.000 C 
BRANCH  15  16
ATOM     16  C   UNL     1      58.620  15.286  94.301  1.00  0.00    -0.000 C 
BRANCH  16  17
ATOM     17  C   UNL     1      57.737  14.435  93.376  1.00  0.00    -0.003 C 
ATOM     18  C   UNL     1      56.275  14.862  93.468  1.00  0.00     0.004 C 
ENDBRANCH  16  17
ENDBRANCH  15  16
ENDBRANCH  14  15
ENDBRANCH  13  14
ENDBRANCH  12  13
ENDBRANCH  11  12
ENDBRANCH   1  11
TORSDOF 14
ENDMDL
MODEL 8
REMARK VINA RESULT:    -4.297      1.733      4.054
REMARK INTER + INTRA:          -9.786
REMARK INTER:                  -7.115
REMARK INTRA:                  -2.671
REMARK UNBOUND:                -1.972
REMARK SMILES CCCCCCCCCCCCCCCC(=O)[O-]
REMARK SMILES IDX 9 1 10 2 11 3 12 4 13 5 14 6 15 7 16 8 17 9 18 10 8 11 7 12
REMARK SMILES IDX 6 13 5 14 4 15 3 16 2 17 1 18
REMARK H PARENT
REMARK Flexibility Score: inf
ROOT
ATOM      1  C   UNL     1      56.205  13.262  88.733  1.00  0.00     0.000 C 
ENDROOT
BRANCH   1   2
ATOM      2  C   UNL     1      57.141  14.159  89.559  1.00  0.00     0.000 C 
BRANCH   2   3
ATOM      3  C   UNL     1      56.403  14.911  90.677  1.00  0.00     0.000 C 
BRANCH   3   4
ATOM      4  C   UNL     1      57.260  14.988  91.946  1.00  0.00     0.000 C 
BRANCH   4   5
ATOM      5  C   UNL     1      58.613  14.291  91.739  1.00  0.00     0.000 C 
BRANCH   5   6
ATOM      6  C   UNL     1      59.076  13.506  92.981  1.00  0.00     0.006 C 
BRANCH   6   7
ATOM      7  C   UNL     1      60.492  13.859  93.461  1.00  0.00     0.053 C 
BRANCH   7   8
ATOM      8  C   UNL     1      60.471  14.807  94.621  1.00  0.00     0.041 C 
ATOM      9  O   UNL     1      61.547  15.151  95.178  1.00  0.00    -0.550 OA
ATOM     10  O   UNL     1      59.266  15.336  95.063  1.00  0.00    -0.550 OA
ENDBRANCH   7   8
ENDBRANCH   6   7
ENDBRANCH   5   6
ENDBRANCH   4   5
ENDBRANCH   3   4
ENDBRANCH   2   3
ENDBRANCH   1   2
BRANCH   1  11
ATOM     11  C   UNL     1      56.671  11.796  88.697  1.00  0.00     0.000 C 
BRANCH  11  12
ATOM     12  C   UNL     1      58.098  11.617  89.240  1.00  0.00    -0.000 C 
BRANCH  12  13
ATOM     13  C   UNL     1      58.136  10.814  90.549  1.00  0.00    -0.000 C 
BRANCH  13  14
ATOM     14  C   UNL     1      56.724  10.401  90.981  1.00  0.00    -0.000 C 
BRANCH  14  15
ATOM     15  C   UNL     1      56.245  11.241  92.174  1.00  0.00    -0.000 C 
BRANCH  15  16
ATOM     16  C   UNL     1      54.819  11.781  91.985  1.00  0.00    -0.000 C 
BRANCH  16  17
ATOM     17  C   UNL     1      54.442  12.836  93.035  1.00  0.00    -0.003 C 
ATOM     18  C   UNL     1      55.375  12.767  94.241  1.00  0.00     0.004 C 
ENDBRANCH  16  17
ENDBRANCH  15  16
ENDBRANCH  14  15
ENDBRANCH  13  14
ENDBRANCH  12  13
ENDBRANCH  11  12
ENDBRANCH   1  11
TORSDOF 14
ENDMDL
MODEL 9
REMARK VINA RESULT:    -4.280      3.308      4.472
REMARK INTER + INTRA:          -9.755
REMARK INTER:                  -7.506
REMARK INTRA:                  -2.249
REMARK UNBOUND:                -1.972
REMARK SMILES CCCCCCCCCCCCCCCC(=O)[O-]
REMARK SMILES IDX 9 1 10 2 11 3 12 4 13 5 14 6 15 7 16 8 17 9 18 10 8 11 7 12
REMARK SMILES IDX 6 13 5 14 4 15 3 16 2 17 1 18
REMARK H PARENT
REMARK Flexibility Score: inf
ROOT
ATOM      1  C   UNL     1      59.909  16.672  92.318  1.00  0.00     0.000 C 
ENDROOT
BRANCH   1   2
ATOM      2  C   UNL     1      59.228  15.689  93.284  1.00  0.00     0.000 C 
BRANCH   2   3
ATOM      3  C   UNL     1      59.595  14.226  92.992  1.00  0.00     0.000 C 
BRANCH   3   4
ATOM      4  C   UNL     1      58.385  13.306  93.194  1.00  0.00     0.000 C 
BRANCH   4   5
ATOM      5  C   UNL     1      57.070  14.090  93.061  1.00  0.00     0.000 C 
BRANCH   5   6
ATOM      6  C   UNL     1      55.847  13.174  92.870  1.00  0.00     0.006 C 
BRANCH   6   7
ATOM      7  C   UNL     1      56.183  11.676  92.788  1.00  0.00     0.053 C 
BRANCH   7   8
ATOM      8  C   UNL     1      55.481  10.885  93.848  1.00  0.00     0.041 C 
ATOM      9  O   UNL     1      55.397  11.332  95.022  1.00  0.00    -0.550 OA
ATOM     10  O   UNL     1      54.891   9.669  93.531  1.00  0.00    -0.550 OA
ENDBRANCH   7   8
ENDBRANCH   6   7
ENDBRANCH   5   6
ENDBRANCH   4   5
ENDBRANCH   3   4
ENDBRANCH   2   3
ENDBRANCH   1   2
BRANCH   1  11
ATOM     11  C   UNL     1      58.991  17.089  91.155  1.00  0.00     0.000 C 
BRANCH  11  12
ATOM     12  C   UNL     1      59.169  16.199  89.914  1.00  0.00    -0.000 C 
BRANCH  12  13
ATOM     13  C   UNL     1      57.935  15.331  89.628  1.00  0.00    -0.000 C 
BRANCH  13  14
ATOM     14  C   UNL     1      58.316  13.849  89.528  1.00  0.00    -0.000 C 
BRANCH  14  15
ATOM     15  C   UNL     1      57.067  12.968  89.382  1.00  0.00    -0.000 C 
BRANCH  15  16
ATOM     16  C   UNL     1      57.390  11.565  88.844  1.00  0.00    -0.000 C 
BRANCH  16  17
ATOM     17  C   UNL     1      58.641  10.956  89.495  1.00  0.00    -0.003 C 
ATOM     18  C   UNL     1      58.286   9.715  90.308  1.00  0.00     0.004 C 
ENDBRANCH  16  17
ENDBRANCH  15  16
ENDBRANCH  14  15
ENDBRANCH  13  14
ENDBRANCH  12  13
ENDBRANCH  11  12
ENDBRANCH   1  11
TORSDOF 14
ENDMDL
