MODEL 1
REMARK VINA RESULT:    -3.527      0.000      0.000
REMARK INTER + INTRA:          -3.527
REMARK INTER:                  -3.527
REMARK INTRA:                   0.000
REMARK UNBOUND:                 0.000
REMARK SMILES CC1(C)O[C@]2(C)CC[C@H]1CC2
REMARK SMILES IDX 1 1 2 2 9 3 10 4 11 5 5 6 4 7 7 8 8 9 6 10 3 11
REMARK H PARENT
REMARK Flexibility Score: inf
ROOT
ATOM      1  C   UNL     1      -2.872   6.724  10.018  1.00  0.00     0.042 C 
ATOM      2  C   UNL     1      -2.387   5.466   9.266  1.00  0.00     0.066 C 
ATOM      3  C   UNL     1      -1.059   5.770   8.471  1.00  0.00     0.021 C 
ATOM      4  C   UNL     1       0.048   6.135   9.488  1.00  0.00     0.009 C 
ATOM      5  C   UNL     1       0.121   5.038  10.577  1.00  0.00     0.035 C 
ATOM      6  C   UNL     1      -0.876   3.892  10.238  1.00  0.00     0.066 C 
ATOM      7  O   UNL     1      -2.205   4.414  10.225  1.00  0.00    -0.369 OA
ATOM      8  C   UNL     1      -0.536   3.327   8.828  1.00  0.00     0.035 C 
ATOM      9  C   UNL     1      -0.593   4.465   7.780  1.00  0.00     0.009 C 
ATOM     10  C   UNL     1      -0.790   2.782  11.291  1.00  0.00     0.042 C 
ATOM     11  C   UNL     1      -3.516   5.044   8.301  1.00  0.00     0.042 C 
ENDROOT
TORSDOF 0
ENDMDL
MODEL 2
REMARK VINA RESULT:    -3.475      0.944      3.284
REMARK INTER + INTRA:          -3.475
REMARK INTER:                  -3.475
REMARK INTRA:                   0.000
REMARK UNBOUND:                 0.000
REMARK SMILES CC1(C)O[C@]2(C)CC[C@H]1CC2
REMARK SMILES IDX 1 1 2 2 9 3 10 4 11 5 5 6 4 7 7 8 8 9 6 10 3 11
REMARK H PARENT
REMARK Flexibility Score: inf
ROOT
ATOM      1  C   UNL     1      -1.170   2.235   9.675  1.00  0.00     0.042 C 
ATOM      2  C   UNL     1      -0.835   3.712   9.979  1.00  0.00     0.066 C 
ATOM      3  C   UNL     1      -0.140   4.392   8.738  1.00  0.00     0.021 C 
ATOM      4  C   UNL     1      -1.140   4.396   7.558  1.00  0.00     0.009 C 
ATOM      5  C   UNL     1      -2.482   5.006   8.030  1.00  0.00     0.035 C 
ATOM      6  C   UNL     1      -2.350   5.495   9.501  1.00  0.00     0.066 C 
ATOM      7  O   UNL     1      -2.053   4.380  10.342  1.00  0.00    -0.369 OA
ATOM      8  C   UNL     1      -1.187   6.525   9.589  1.00  0.00     0.035 C 
ATOM      9  C   UNL     1       0.125   5.879   9.080  1.00  0.00     0.009 C 
ATOM     10  C   UNL     1      -3.662   6.133   9.971  1.00  0.00     0.042 C 
ATOM     11  C   UNL     1       0.102   3.726  11.206  1.00  0.00     0.042 C 
ENDROOT
TORSDOF 0
ENDMDL
MODEL 3
REMARK VINA RESULT:    -3.201      1.430      3.231
REMARK INTER + INTRA:          -3.201
REMARK INTER:                  -3.201
REMARK INTRA:                   0.000
REMARK UNBOUND:                 0.000
REMARK SMILES CC1(C)O[C@]2(C)CC[C@H]1CC2
REMARK SMILES IDX 1 1 2 2 9 3 10 4 11 5 5 6 4 7 7 8 8 9 6 10 3 11
REMARK H PARENT
REMARK Flexibility Score: inf
ROOT
ATOM      1  C   UNL     1      -1.746   7.194   9.972  1.00  0.00     0.042 C 
ATOM      2  C   UNL     1      -1.041   5.870   9.604  1.00  0.00     0.066 C 
ATOM      3  C   UNL     1      -2.049   4.660   9.687  1.00  0.00     0.021 C 
ATOM      4  C   UNL     1      -3.163   4.879   8.635  1.00  0.00     0.009 C 
ATOM      5  C   UNL     1      -2.515   5.157   7.258  1.00  0.00     0.035 C 
ATOM      6  C   UNL     1      -0.968   5.033   7.369  1.00  0.00     0.066 C 
ATOM      7  O   UNL     1      -0.484   6.011   8.290  1.00  0.00    -0.369 OA
ATOM      8  C   UNL     1      -0.611   3.614   7.897  1.00  0.00     0.035 C 
ATOM      9  C   UNL     1      -1.304   3.372   9.259  1.00  0.00     0.009 C 
ATOM     10  C   UNL     1      -0.315   5.273   6.003  1.00  0.00     0.042 C 
ATOM     11  C   UNL     1       0.124   5.678  10.600  1.00  0.00     0.042 C 
ENDROOT
TORSDOF 0
ENDMDL
MODEL 4
REMARK VINA RESULT:    -3.136      1.135      3.499
REMARK INTER + INTRA:          -3.136
REMARK INTER:                  -3.136
REMARK INTRA:                   0.000
REMARK UNBOUND:                 0.000
REMARK SMILES CC1(C)O[C@]2(C)CC[C@H]1CC2
REMARK SMILES IDX 1 1 2 2 9 3 10 4 11 5 5 6 4 7 7 8 8 9 6 10 3 11
REMARK H PARENT
REMARK Flexibility Score: inf
ROOT
ATOM      1  C   UNL     1      -1.179   3.249   9.242  1.00  0.00     0.042 C 
ATOM      2  C   UNL     1      -1.262   4.784   9.388  1.00  0.00     0.066 C 
ATOM      3  C   UNL     1      -1.113   5.486   7.984  1.00  0.00     0.021 C 
ATOM      4  C   UNL     1      -2.304   5.058   7.094  1.00  0.00     0.009 C 
ATOM      5  C   UNL     1      -3.626   5.302   7.861  1.00  0.00     0.035 C 
ATOM      6  C   UNL     1      -3.324   5.979   9.230  1.00  0.00     0.066 C 
ATOM      7  O   UNL     1      -2.511   5.106  10.016  1.00  0.00    -0.369 OA
ATOM      8  C   UNL     1      -2.552   7.306   8.978  1.00  0.00     0.035 C 
ATOM      9  C   UNL     1      -1.255   7.015   8.184  1.00  0.00     0.009 C 
ATOM     10  C   UNL     1      -4.627   6.256   9.987  1.00  0.00     0.042 C 
ATOM     11  C   UNL     1      -0.124   5.216  10.338  1.00  0.00     0.042 C 
ENDROOT
TORSDOF 0
ENDMDL
MODEL 5
REMARK VINA RESULT:    -3.120      1.391      3.167
REMARK INTER + INTRA:          -3.120
REMARK INTER:                  -3.120
REMARK INTRA:                   0.000
REMARK UNBOUND:                 0.000
REMARK SMILES CC1(C)O[C@]2(C)CC[C@H]1CC2
REMARK SMILES IDX 1 1 2 2 9 3 10 4 11 5 5 6 4 7 7 8 8 9 6 10 3 11
REMARK H PARENT
REMARK Flexibility Score: inf
ROOT
ATOM      1  C   UNL     1       0.125   4.096  10.830  1.00  0.00     0.042 C 
ATOM      2  C   UNL     1      -0.862   3.942   9.652  1.00  0.00     0.066 C 
ATOM      3  C   UNL     1      -2.094   4.910   9.829  1.00  0.00     0.021 C 
ATOM      4  C   UNL     1      -1.580   6.369   9.793  1.00  0.00     0.009 C 
ATOM      5  C   UNL     1      -0.708   6.571   8.530  1.00  0.00     0.035 C 
ATOM      6  C   UNL     1      -0.714   5.271   7.673  1.00  0.00     0.066 C 
ATOM      7  O   UNL     1      -0.148   4.204   8.435  1.00  0.00    -0.369 OA
ATOM      8  C   UNL     1      -2.183   4.914   7.307  1.00  0.00     0.035 C 
ATOM      9  C   UNL     1      -3.021   4.752   8.598  1.00  0.00     0.009 C 
ATOM     10  C   UNL     1       0.119   5.468   6.402  1.00  0.00     0.042 C 
ATOM     11  C   UNL     1      -1.323   2.469   9.629  1.00  0.00     0.042 C 
ENDROOT
TORSDOF 0
ENDMDL
MODEL 6
REMARK VINA RESULT:    -3.052      1.416      2.380
REMARK INTER + INTRA:          -3.052
REMARK INTER:                  -3.052
REMARK INTRA:                   0.000
REMARK UNBOUND:                 0.000
REMARK SMILES CC1(C)O[C@]2(C)CC[C@H]1CC2
REMARK SMILES IDX 1 1 2 2 9 3 10 4 11 5 5 6 4 7 7 8 8 9 6 10 3 11
REMARK H PARENT
REMARK Flexibility Score: inf
ROOT
ATOM      1  C   UNL     1      -3.270   5.162   6.671  1.00  0.00     0.042 C 
ATOM      2  C   UNL     1      -1.824   5.210   7.212  1.00  0.00     0.066 C 
ATOM      3  C   UNL     1      -1.623   6.457   8.156  1.00  0.00     0.021 C 
ATOM      4  C   UNL     1      -2.552   6.296   9.382  1.00  0.00     0.009 C 
ATOM      5  C   UNL     1      -2.330   4.900  10.011  1.00  0.00     0.035 C 
ATOM      6  C   UNL     1      -1.185   4.160   9.259  1.00  0.00     0.066 C 
ATOM      7  O   UNL     1      -1.563   3.975   7.895  1.00  0.00    -0.369 OA
ATOM      8  C   UNL     1       0.103   5.030   9.319  1.00  0.00     0.035 C 
ATOM      9  C   UNL     1      -0.177   6.424   8.707  1.00  0.00     0.009 C 
ATOM     10  C   UNL     1      -0.931   2.789   9.893  1.00  0.00     0.042 C 
ATOM     11  C   UNL     1      -0.881   5.291   5.992  1.00  0.00     0.042 C 
ENDROOT
TORSDOF 0
ENDMDL
MODEL 7
REMARK VINA RESULT:    -3.020      2.240      3.614
REMARK INTER + INTRA:          -3.020
REMARK INTER:                  -3.020
REMARK INTRA:                   0.000
REMARK UNBOUND:                 0.000
REMARK SMILES CC1(C)O[C@]2(C)CC[C@H]1CC2
REMARK SMILES IDX 1 1 2 2 9 3 10 4 11 5 5 6 4 7 7 8 8 9 6 10 3 11
REMARK H PARENT
REMARK Flexibility Score: inf
ROOT
ATOM      1  C   UNL     1      -4.573   8.118  10.369  1.00  0.00     0.042 C 
ATOM      2  C   UNL     1      -4.868   7.052   9.290  1.00  0.00     0.066 C 
ATOM      3  C   UNL     1      -4.615   7.636   7.847  1.00  0.00     0.021 C 
ATOM      4  C   UNL     1      -3.115   7.995   7.721  1.00  0.00     0.009 C 
ATOM      5  C   UNL     1      -2.262   6.774   8.141  1.00  0.00     0.035 C 
ATOM      6  C   UNL     1      -3.191   5.567   8.461  1.00  0.00     0.066 C 
ATOM      7  O   UNL     1      -4.043   5.909   9.556  1.00  0.00    -0.369 OA
ATOM      8  C   UNL     1      -4.065   5.257   7.212  1.00  0.00     0.035 C 
ATOM      9  C   UNL     1      -4.875   6.514   6.813  1.00  0.00     0.009 C 
ATOM     10  C   UNL     1      -2.358   4.341   8.847  1.00  0.00     0.042 C 
ATOM     11  C   UNL     1      -6.343   6.628   9.457  1.00  0.00     0.042 C 
ENDROOT
TORSDOF 0
ENDMDL
MODEL 8
REMARK VINA RESULT:    -2.941      1.392      3.211
REMARK INTER + INTRA:          -2.941
REMARK INTER:                  -2.941
REMARK INTRA:                   0.000
REMARK UNBOUND:                 0.000
REMARK SMILES CC1(C)O[C@]2(C)CC[C@H]1CC2
REMARK SMILES IDX 1 1 2 2 9 3 10 4 11 5 5 6 4 7 7 8 8 9 6 10 3 11
REMARK H PARENT
REMARK Flexibility Score: inf
ROOT
ATOM      1  C   UNL     1      -1.307   2.899   9.319  1.00  0.00     0.042 C 
ATOM      2  C   UNL     1      -0.959   4.161   8.501  1.00  0.00     0.066 C 
ATOM      3  C   UNL     1      -2.239   4.722   7.770  1.00  0.00     0.021 C 
ATOM      4  C   UNL     1      -3.265   5.155   8.844  1.00  0.00     0.009 C 
ATOM      5  C   UNL     1      -2.572   6.094   9.860  1.00  0.00     0.035 C 
ATOM      6  C   UNL     1      -1.105   6.363   9.415  1.00  0.00     0.066 C 
ATOM      7  O   UNL     1      -0.388   5.128   9.394  1.00  0.00    -0.369 OA
ATOM      8  C   UNL     1      -1.115   6.972   7.983  1.00  0.00     0.035 C 
ATOM      9  C   UNL     1      -1.843   6.012   7.011  1.00  0.00     0.009 C 
ATOM     10  C   UNL     1      -0.417   7.318  10.395  1.00  0.00     0.042 C 
ATOM     11  C   UNL     1       0.123   3.760   7.475  1.00  0.00     0.042 C 
ENDROOT
TORSDOF 0
ENDMDL
MODEL 9
REMARK VINA RESULT:    -2.887      1.451      3.064
REMARK INTER + INTRA:          -2.887
REMARK INTER:                  -2.887
REMARK INTRA:                   0.000
REMARK UNBOUND:                 0.000
REMARK SMILES CC1(C)O[C@]2(C)CC[C@H]1CC2
REMARK SMILES IDX 1 1 2 2 9 3 10 4 11 5 5 6 4 7 7 8 8 9 6 10 3 11
REMARK H PARENT
REMARK Flexibility Score: inf
ROOT
ATOM      1  C   UNL     1       0.028   4.250   6.937  1.00  0.00     0.042 C 
ATOM      2  C   UNL     1      -1.000   5.190   7.605  1.00  0.00     0.066 C 
ATOM      3  C   UNL     1      -2.122   4.359   8.337  1.00  0.00     0.021 C 
ATOM      4  C   UNL     1      -1.462   3.541   9.473  1.00  0.00     0.009 C 
ATOM      5  C   UNL     1      -0.607   4.486  10.351  1.00  0.00     0.035 C 
ATOM      6  C   UNL     1      -0.767   5.953   9.856  1.00  0.00     0.066 C 
ATOM      7  O   UNL     1      -0.294   6.050   8.512  1.00  0.00    -0.369 OA
ATOM      8  C   UNL     1      -2.274   6.338   9.896  1.00  0.00     0.035 C 
ATOM      9  C   UNL     1      -3.091   5.349   9.029  1.00  0.00     0.009 C 
ATOM     10  C   UNL     1       0.049   6.904  10.737  1.00  0.00     0.042 C 
ATOM     11  C   UNL     1      -1.609   6.068   6.491  1.00  0.00     0.042 C 
ENDROOT
TORSDOF 0
ENDMDL
