MODEL 1
REMARK VINA RESULT:    -4.094      0.000      0.000
REMARK INTER + INTRA:          -7.945
REMARK INTER:                  -6.487
REMARK INTRA:                  -1.458
REMARK UNBOUND:                -1.458
REMARK SMILES CCCCCCCCCCCC(=O)[O-]
REMARK SMILES IDX 7 1 8 2 9 3 10 4 11 5 12 6 13 7 14 8 6 9 5 10 4 11 3 12 2 13
REMARK SMILES IDX 1 14
REMARK H PARENT
REMARK Flexibility Score: inf
ROOT
ATOM      1  C   UNL     1     -34.734  19.294 -28.145  1.00  0.00     0.000 C 
ENDROOT
BRANCH   1   2
ATOM      2  C   UNL     1     -34.818  18.822 -29.608  1.00  0.00     0.000 C 
BRANCH   2   3
ATOM      3  C   UNL     1     -34.950  20.003 -30.593  1.00  0.00     0.000 C 
BRANCH   3   4
ATOM      4  C   UNL     1     -35.237  21.348 -29.906  1.00  0.00     0.006 C 
BRANCH   4   5
ATOM      5  C   UNL     1     -36.615  21.918 -30.262  1.00  0.00     0.053 C 
BRANCH   5   6
ATOM      6  C   UNL     1     -37.275  22.489 -29.046  1.00  0.00     0.041 C 
ATOM      7  O   UNL     1     -36.588  23.079 -28.171  1.00  0.00    -0.550 OA
ATOM      8  O   UNL     1     -38.641  22.327 -28.856  1.00  0.00    -0.550 OA
ENDBRANCH   5   6
ENDBRANCH   4   5
ENDBRANCH   3   4
ENDBRANCH   2   3
ENDBRANCH   1   2
BRANCH   1   9
ATOM      9  C   UNL     1     -35.965  18.885 -27.321  1.00  0.00     0.000 C 
BRANCH   9  10
ATOM     10  C   UNL     1     -37.045  18.197 -28.174  1.00  0.00    -0.000 C 
BRANCH  10  11
ATOM     11  C   UNL     1     -38.442  18.802 -27.965  1.00  0.00    -0.000 C 
BRANCH  11  12
ATOM     12  C   UNL     1     -39.267  18.846 -29.263  1.00  0.00    -0.000 C 
BRANCH  12  13
ATOM     13  C   UNL     1     -38.396  18.693 -30.519  1.00  0.00    -0.003 C 
ATOM     14  C   UNL     1     -38.807  17.503 -31.385  1.00  0.00     0.004 C 
ENDBRANCH  12  13
ENDBRANCH  11  12
ENDBRANCH  10  11
ENDBRANCH   9  10
ENDBRANCH   1   9
TORSDOF 10
ENDMDL
MODEL 2
REMARK VINA RESULT:    -4.086      1.313      3.143
REMARK INTER + INTRA:          -7.933
REMARK INTER:                  -6.310
REMARK INTRA:                  -1.623
REMARK UNBOUND:                -1.458
REMARK SMILES CCCCCCCCCCCC(=O)[O-]
REMARK SMILES IDX 7 1 8 2 9 3 10 4 11 5 12 6 13 7 14 8 6 9 5 10 4 11 3 12 2 13
REMARK SMILES IDX 1 14
REMARK H PARENT
REMARK Flexibility Score: inf
ROOT
ATOM      1  C   UNL     1     -38.724  19.129 -30.182  1.00  0.00     0.000 C 
ENDROOT
BRANCH   1   2
ATOM      2  C   UNL     1     -38.679  20.599 -30.633  1.00  0.00     0.000 C 
BRANCH   2   3
ATOM      3  C   UNL     1     -37.413  20.915 -31.458  1.00  0.00     0.000 C 
BRANCH   3   4
ATOM      4  C   UNL     1     -36.358  21.719 -30.682  1.00  0.00     0.006 C 
BRANCH   4   5
ATOM      5  C   UNL     1     -36.919  22.377 -29.416  1.00  0.00     0.053 C 
BRANCH   5   6
ATOM      6  C   UNL     1     -35.811  22.937 -28.582  1.00  0.00     0.041 C 
ATOM      7  O   UNL     1     -36.066  23.737 -27.644  1.00  0.00    -0.550 OA
ATOM      8  O   UNL     1     -34.491  22.613 -28.872  1.00  0.00    -0.550 OA
ENDBRANCH   5   6
ENDBRANCH   4   5
ENDBRANCH   3   4
ENDBRANCH   2   3
ENDBRANCH   1   2
BRANCH   1   9
ATOM      9  C   UNL     1     -39.231  18.970 -28.739  1.00  0.00     0.000 C 
BRANCH   9  10
ATOM     10  C   UNL     1     -38.111  18.580 -27.759  1.00  0.00    -0.000 C 
BRANCH  10  11
ATOM     11  C   UNL     1     -36.809  18.183 -28.473  1.00  0.00    -0.000 C 
BRANCH  11  12
ATOM     12  C   UNL     1     -35.621  19.075 -28.072  1.00  0.00    -0.000 C 
BRANCH  12  13
ATOM     13  C   UNL     1     -34.451  18.977 -29.063  1.00  0.00    -0.003 C 
ATOM     14  C   UNL     1     -34.809  18.202 -30.330  1.00  0.00     0.004 C 
ENDBRANCH  12  13
ENDBRANCH  11  12
ENDBRANCH  10  11
ENDBRANCH   9  10
ENDBRANCH   1   9
TORSDOF 10
ENDMDL
MODEL 3
REMARK VINA RESULT:    -4.025      1.486      2.208
REMARK INTER + INTRA:          -7.835
REMARK INTER:                  -6.282
REMARK INTRA:                  -1.553
REMARK UNBOUND:                -1.458
REMARK SMILES CCCCCCCCCCCC(=O)[O-]
REMARK SMILES IDX 7 1 8 2 9 3 10 4 11 5 12 6 13 7 14 8 6 9 5 10 4 11 3 12 2 13
REMARK SMILES IDX 1 14
REMARK H PARENT
REMARK Flexibility Score: inf
ROOT
ATOM      1  C   UNL     1     -36.953  17.489 -29.935  1.00  0.00     0.000 C 
ENDROOT
BRANCH   1   2
ATOM      2  C   UNL     1     -35.481  17.773 -30.283  1.00  0.00     0.000 C 
BRANCH   2   3
ATOM      3  C   UNL     1     -34.856  18.831 -29.348  1.00  0.00     0.000 C 
BRANCH   3   4
ATOM      4  C   UNL     1     -35.297  20.269 -29.666  1.00  0.00     0.006 C 
BRANCH   4   5
ATOM      5  C   UNL     1     -35.408  21.150 -28.416  1.00  0.00     0.053 C 
BRANCH   5   6
ATOM      6  C   UNL     1     -35.795  22.545 -28.791  1.00  0.00     0.041 C 
ATOM      7  O   UNL     1     -36.848  23.057 -28.329  1.00  0.00    -0.550 OA
ATOM      8  O   UNL     1     -35.018  23.263 -29.693  1.00  0.00    -0.550 OA
ENDBRANCH   5   6
ENDBRANCH   4   5
ENDBRANCH   3   4
ENDBRANCH   2   3
ENDBRANCH   1   2
BRANCH   1   9
ATOM      9  C   UNL     1     -37.216  17.517 -28.421  1.00  0.00     0.000 C 
BRANCH   9  10
ATOM     10  C   UNL     1     -38.288  18.547 -28.026  1.00  0.00    -0.000 C 
BRANCH  10  11
ATOM     11  C   UNL     1     -39.053  19.102 -29.239  1.00  0.00    -0.000 C 
BRANCH  11  12
ATOM     12  C   UNL     1     -39.284  20.620 -29.146  1.00  0.00    -0.000 C 
BRANCH  12  13
ATOM     13  C   UNL     1     -39.109  21.325 -30.500  1.00  0.00    -0.003 C 
ATOM     14  C   UNL     1     -38.322  20.489 -31.508  1.00  0.00     0.004 C 
ENDBRANCH  12  13
ENDBRANCH  11  12
ENDBRANCH  10  11
ENDBRANCH   9  10
ENDBRANCH   1   9
TORSDOF 10
ENDMDL
MODEL 4
REMARK VINA RESULT:    -3.992      1.406      2.036
REMARK INTER + INTRA:          -7.784
REMARK INTER:                  -6.200
REMARK INTRA:                  -1.584
REMARK UNBOUND:                -1.458
REMARK SMILES CCCCCCCCCCCC(=O)[O-]
REMARK SMILES IDX 7 1 8 2 9 3 10 4 11 5 12 6 13 7 14 8 6 9 5 10 4 11 3 12 2 13
REMARK SMILES IDX 1 14
REMARK H PARENT
REMARK Flexibility Score: inf
ROOT
ATOM      1  C   UNL     1     -35.025  19.120 -30.025  1.00  0.00     0.000 C 
ENDROOT
BRANCH   1   2
ATOM      2  C   UNL     1     -34.882  20.553 -30.568  1.00  0.00     0.000 C 
BRANCH   2   3
ATOM      3  C   UNL     1     -36.250  21.248 -30.738  1.00  0.00     0.000 C 
BRANCH   3   4
ATOM      4  C   UNL     1     -36.307  22.655 -30.120  1.00  0.00     0.006 C 
BRANCH   4   5
ATOM      5  C   UNL     1     -36.576  22.633 -28.611  1.00  0.00     0.053 C 
BRANCH   5   6
ATOM      6  C   UNL     1     -35.387  23.143 -27.860  1.00  0.00     0.041 C 
ATOM      7  O   UNL     1     -34.628  22.340 -27.255  1.00  0.00    -0.550 OA
ATOM      8  O   UNL     1     -35.145  24.509 -27.785  1.00  0.00    -0.550 OA
ENDBRANCH   5   6
ENDBRANCH   4   5
ENDBRANCH   3   4
ENDBRANCH   2   3
ENDBRANCH   1   2
BRANCH   1   9
ATOM      9  C   UNL     1     -34.725  19.027 -28.521  1.00  0.00     0.000 C 
BRANCH   9  10
ATOM     10  C   UNL     1     -36.002  19.011 -27.663  1.00  0.00    -0.000 C 
BRANCH  10  11
ATOM     11  C   UNL     1     -37.107  18.125 -28.261  1.00  0.00    -0.000 C 
BRANCH  11  12
ATOM     12  C   UNL     1     -38.503  18.758 -28.136  1.00  0.00    -0.000 C 
BRANCH  12  13
ATOM     13  C   UNL     1     -39.070  19.204 -29.493  1.00  0.00    -0.003 C 
ATOM     14  C   UNL     1     -38.555  18.361 -30.658  1.00  0.00     0.004 C 
ENDBRANCH  12  13
ENDBRANCH  11  12
ENDBRANCH  10  11
ENDBRANCH   9  10
ENDBRANCH   1   9
TORSDOF 10
ENDMDL
MODEL 5
REMARK VINA RESULT:    -3.975      1.539      3.569
REMARK INTER + INTRA:          -7.757
REMARK INTER:                  -6.346
REMARK INTRA:                  -1.411
REMARK UNBOUND:                -1.458
REMARK SMILES CCCCCCCCCCCC(=O)[O-]
REMARK SMILES IDX 7 1 8 2 9 3 10 4 11 5 12 6 13 7 14 8 6 9 5 10 4 11 3 12 2 13
REMARK SMILES IDX 1 14
REMARK H PARENT
REMARK Flexibility Score: inf
ROOT
ATOM      1  C   UNL     1     -37.764  17.282 -30.449  1.00  0.00     0.000 C 
ENDROOT
BRANCH   1   2
ATOM      2  C   UNL     1     -38.739  18.439 -30.728  1.00  0.00     0.000 C 
BRANCH   2   3
ATOM      3  C   UNL     1     -38.063  19.597 -31.493  1.00  0.00     0.000 C 
BRANCH   3   4
ATOM      4  C   UNL     1     -38.424  20.988 -30.946  1.00  0.00     0.006 C 
BRANCH   4   5
ATOM      5  C   UNL     1     -39.089  20.934 -29.566  1.00  0.00     0.053 C 
BRANCH   5   6
ATOM      6  C   UNL     1     -39.895  22.171 -29.325  1.00  0.00     0.041 C 
ATOM      7  O   UNL     1     -40.934  22.392 -30.001  1.00  0.00    -0.550 OA
ATOM      8  O   UNL     1     -39.470  23.105 -28.388  1.00  0.00    -0.550 OA
ENDBRANCH   5   6
ENDBRANCH   4   5
ENDBRANCH   3   4
ENDBRANCH   2   3
ENDBRANCH   1   2
BRANCH   1   9
ATOM      9  C   UNL     1     -36.648  17.676 -29.468  1.00  0.00     0.000 C 
BRANCH   9  10
ATOM     10  C   UNL     1     -37.188  18.053 -28.078  1.00  0.00    -0.000 C 
BRANCH  10  11
ATOM     11  C   UNL     1     -36.160  18.814 -27.227  1.00  0.00    -0.000 C 
BRANCH  11  12
ATOM     12  C   UNL     1     -35.080  19.500 -28.082  1.00  0.00    -0.000 C 
BRANCH  12  13
ATOM     13  C   UNL     1     -35.439  20.954 -28.427  1.00  0.00    -0.003 C 
ATOM     14  C   UNL     1     -34.962  21.368 -29.819  1.00  0.00     0.004 C 
ENDBRANCH  12  13
ENDBRANCH  11  12
ENDBRANCH  10  11
ENDBRANCH   9  10
ENDBRANCH   1   9
TORSDOF 10
ENDMDL
MODEL 6
REMARK VINA RESULT:    -3.939      2.697      5.223
REMARK INTER + INTRA:          -7.699
REMARK INTER:                  -6.304
REMARK INTRA:                  -1.394
REMARK UNBOUND:                -1.458
REMARK SMILES CCCCCCCCCCCC(=O)[O-]
REMARK SMILES IDX 7 1 8 2 9 3 10 4 11 5 12 6 13 7 14 8 6 9 5 10 4 11 3 12 2 13
REMARK SMILES IDX 1 14
REMARK H PARENT
REMARK Flexibility Score: inf
ROOT
ATOM      1  C   UNL     1     -39.336  21.196 -30.489  1.00  0.00     0.000 C 
ENDROOT
BRANCH   1   2
ATOM      2  C   UNL     1     -39.128  20.925 -28.988  1.00  0.00     0.000 C 
BRANCH   2   3
ATOM      3  C   UNL     1     -39.019  19.416 -28.680  1.00  0.00     0.000 C 
BRANCH   3   4
ATOM      4  C   UNL     1     -37.658  19.005 -28.096  1.00  0.00     0.006 C 
BRANCH   4   5
ATOM      5  C   UNL     1     -37.283  17.553 -28.417  1.00  0.00     0.053 C 
BRANCH   5   6
ATOM      6  C   UNL     1     -36.862  17.426 -29.847  1.00  0.00     0.041 C 
ATOM      7  O   UNL     1     -37.653  16.945 -30.700  1.00  0.00    -0.550 OA
ATOM      8  O   UNL     1     -35.577  17.793 -30.228  1.00  0.00    -0.550 OA
ENDBRANCH   5   6
ENDBRANCH   4   5
ENDBRANCH   3   4
ENDBRANCH   2   3
ENDBRANCH   1   2
BRANCH   1   9
ATOM      9  C   UNL     1     -38.376  20.385 -31.373  1.00  0.00     0.000 C 
BRANCH   9  10
ATOM     10  C   UNL     1     -37.212  21.233 -31.914  1.00  0.00    -0.000 C 
BRANCH  10  11
ATOM     11  C   UNL     1     -36.017  21.286 -30.949  1.00  0.00    -0.000 C 
BRANCH  11  12
ATOM     12  C   UNL     1     -35.655  22.724 -30.537  1.00  0.00    -0.000 C 
BRANCH  12  13
ATOM     13  C   UNL     1     -36.009  23.023 -29.072  1.00  0.00    -0.003 C 
ATOM     14  C   UNL     1     -35.470  21.971 -28.105  1.00  0.00     0.004 C 
ENDBRANCH  12  13
ENDBRANCH  11  12
ENDBRANCH  10  11
ENDBRANCH   9  10
ENDBRANCH   1   9
TORSDOF 10
ENDMDL
MODEL 7
REMARK VINA RESULT:    -3.926      2.223      4.109
REMARK INTER + INTRA:          -7.679
REMARK INTER:                  -6.048
REMARK INTRA:                  -1.630
REMARK UNBOUND:                -1.458
REMARK SMILES CCCCCCCCCCCC(=O)[O-]
REMARK SMILES IDX 7 1 8 2 9 3 10 4 11 5 12 6 13 7 14 8 6 9 5 10 4 11 3 12 2 13
REMARK SMILES IDX 1 14
REMARK H PARENT
REMARK Flexibility Score: inf
ROOT
ATOM      1  C   UNL     1     -34.259  19.663 -29.664  1.00  0.00     0.000 C 
ENDROOT
BRANCH   1   2
ATOM      2  C   UNL     1     -34.540  18.983 -28.313  1.00  0.00     0.000 C 
BRANCH   2   3
ATOM      3  C   UNL     1     -35.897  19.413 -27.716  1.00  0.00     0.000 C 
BRANCH   3   4
ATOM      4  C   UNL     1     -36.946  18.290 -27.701  1.00  0.00     0.006 C 
BRANCH   4   5
ATOM      5  C   UNL     1     -38.147  18.580 -28.609  1.00  0.00     0.053 C 
BRANCH   5   6
ATOM      6  C   UNL     1     -37.931  17.989 -29.966  1.00  0.00     0.041 C 
ATOM      7  O   UNL     1     -38.702  18.286 -30.916  1.00  0.00    -0.550 OA
ATOM      8  O   UNL     1     -36.908  17.072 -30.170  1.00  0.00    -0.550 OA
ENDBRANCH   5   6
ENDBRANCH   4   5
ENDBRANCH   3   4
ENDBRANCH   2   3
ENDBRANCH   1   2
BRANCH   1   9
ATOM      9  C   UNL     1     -35.049  20.970 -29.841  1.00  0.00     0.000 C 
BRANCH   9  10
ATOM     10  C   UNL     1     -35.995  20.928 -31.053  1.00  0.00    -0.000 C 
BRANCH  10  11
ATOM     11  C   UNL     1     -37.358  21.579 -30.766  1.00  0.00    -0.000 C 
BRANCH  11  12
ATOM     12  C   UNL     1     -37.357  22.397 -29.463  1.00  0.00    -0.000 C 
BRANCH  12  13
ATOM     13  C   UNL     1     -38.719  22.373 -28.752  1.00  0.00    -0.003 C 
ATOM     14  C   UNL     1     -39.816  21.722 -29.593  1.00  0.00     0.004 C 
ENDBRANCH  12  13
ENDBRANCH  11  12
ENDBRANCH  10  11
ENDBRANCH   9  10
ENDBRANCH   1   9
TORSDOF 10
ENDMDL
MODEL 8
REMARK VINA RESULT:    -3.917      2.025      3.840
REMARK INTER + INTRA:          -7.665
REMARK INTER:                  -6.300
REMARK INTRA:                  -1.364
REMARK UNBOUND:                -1.458
REMARK SMILES CCCCCCCCCCCC(=O)[O-]
REMARK SMILES IDX 7 1 8 2 9 3 10 4 11 5 12 6 13 7 14 8 6 9 5 10 4 11 3 12 2 13
REMARK SMILES IDX 1 14
REMARK H PARENT
REMARK Flexibility Score: inf
ROOT
ATOM      1  C   UNL     1     -39.017  21.019 -30.830  1.00  0.00     0.000 C 
ENDROOT
BRANCH   1   2
ATOM      2  C   UNL     1     -38.912  21.180 -29.303  1.00  0.00     0.000 C 
BRANCH   2   3
ATOM      3  C   UNL     1     -38.095  22.429 -28.905  1.00  0.00     0.000 C 
BRANCH   3   4
ATOM      4  C   UNL     1     -36.574  22.223 -28.995  1.00  0.00     0.006 C 
BRANCH   4   5
ATOM      5  C   UNL     1     -35.938  22.976 -30.169  1.00  0.00     0.053 C 
BRANCH   5   6
ATOM      6  C   UNL     1     -35.483  22.014 -31.222  1.00  0.00     0.041 C 
ATOM      7  O   UNL     1     -35.144  20.844 -30.906  1.00  0.00    -0.550 OA
ATOM      8  O   UNL     1     -35.386  22.427 -32.545  1.00  0.00    -0.550 OA
ENDBRANCH   5   6
ENDBRANCH   4   5
ENDBRANCH   3   4
ENDBRANCH   2   3
ENDBRANCH   1   2
BRANCH   1   9
ATOM      9  C   UNL     1     -38.384  19.711 -31.330  1.00  0.00     0.000 C 
BRANCH   9  10
ATOM     10  C   UNL     1     -38.686  18.518 -30.407  1.00  0.00    -0.000 C 
BRANCH  10  11
ATOM     11  C   UNL     1     -37.551  17.481 -30.387  1.00  0.00    -0.000 C 
BRANCH  11  12
ATOM     12  C   UNL     1     -36.378  17.908 -29.488  1.00  0.00    -0.000 C 
BRANCH  12  13
ATOM     13  C   UNL     1     -36.843  18.412 -28.113  1.00  0.00    -0.003 C 
ATOM     14  C   UNL     1     -35.710  19.025 -27.291  1.00  0.00     0.004 C 
ENDBRANCH  12  13
ENDBRANCH  11  12
ENDBRANCH  10  11
ENDBRANCH   9  10
ENDBRANCH   1   9
TORSDOF 10
ENDMDL
MODEL 9
REMARK VINA RESULT:    -3.908      1.659      4.342
REMARK INTER + INTRA:          -7.650
REMARK INTER:                  -6.392
REMARK INTRA:                  -1.259
REMARK UNBOUND:                -1.458
REMARK SMILES CCCCCCCCCCCC(=O)[O-]
REMARK SMILES IDX 7 1 8 2 9 3 10 4 11 5 12 6 13 7 14 8 6 9 5 10 4 11 3 12 2 13
REMARK SMILES IDX 1 14
REMARK H PARENT
REMARK Flexibility Score: inf
ROOT
ATOM      1  C   UNL     1     -35.548  18.682 -28.916  1.00  0.00     0.000 C 
ENDROOT
BRANCH   1   2
ATOM      2  C   UNL     1     -36.841  17.848 -28.926  1.00  0.00     0.000 C 
BRANCH   2   3
ATOM      3  C   UNL     1     -37.804  18.256 -27.790  1.00  0.00     0.000 C 
BRANCH   3   4
ATOM      4  C   UNL     1     -39.074  18.967 -28.286  1.00  0.00     0.006 C 
BRANCH   4   5
ATOM      5  C   UNL     1     -39.064  19.221 -29.797  1.00  0.00     0.053 C 
BRANCH   5   6
ATOM      6  C   UNL     1     -39.069  20.690 -30.080  1.00  0.00     0.041 C 
ATOM      7  O   UNL     1     -38.598  21.129 -31.162  1.00  0.00    -0.550 OA
ATOM      8  O   UNL     1     -39.549  21.581 -29.127  1.00  0.00    -0.550 OA
ENDBRANCH   5   6
ENDBRANCH   4   5
ENDBRANCH   3   4
ENDBRANCH   2   3
ENDBRANCH   1   2
BRANCH   1   9
ATOM      9  C   UNL     1     -35.307  19.412 -30.247  1.00  0.00     0.000 C 
BRANCH   9  10
ATOM     10  C   UNL     1     -35.303  20.942 -30.089  1.00  0.00    -0.000 C 
BRANCH  10  11
ATOM     11  C   UNL     1     -35.674  21.393 -28.668  1.00  0.00    -0.000 C 
BRANCH  11  12
ATOM     12  C   UNL     1     -36.299  22.799 -28.639  1.00  0.00    -0.000 C 
BRANCH  12  13
ATOM     13  C   UNL     1     -35.484  23.789 -27.793  1.00  0.00    -0.003 C 
ATOM     14  C   UNL     1     -34.411  23.104 -26.948  1.00  0.00     0.004 C 
ENDBRANCH  12  13
ENDBRANCH  11  12
ENDBRANCH  10  11
ENDBRANCH   9  10
ENDBRANCH   1   9
TORSDOF 10
ENDMDL
