MODEL 1
REMARK VINA RESULT:    -4.297      0.000      0.000
REMARK INTER + INTRA:         -12.082
REMARK INTER:                  -9.824
REMARK INTRA:                  -2.259
REMARK UNBOUND:                -2.259
REMARK SMILES CCCCCCCCCCCCCCCCCCCCCCCC(=O)[O-]
REMARK SMILES IDX 13 1 14 2 15 3 16 4 17 5 18 6 19 7 20 8 21 9 22 10 23 11
REMARK SMILES IDX 24 12 25 13 26 14 12 15 11 16 10 17 9 18 8 19 7 20 6 21 5 22
REMARK SMILES IDX 4 23 3 24 2 25 1 26
REMARK H PARENT
REMARK Flexibility Score: inf
ROOT
ATOM      1  C   UNL     1      -8.156 -13.369  -3.361  1.00  0.00     0.000 C 
ENDROOT
BRANCH   1   2
ATOM      2  C   UNL     1      -9.081 -12.699  -2.332  1.00  0.00     0.000 C 
BRANCH   2   3
ATOM      3  C   UNL     1     -10.096 -13.672  -1.714  1.00  0.00     0.000 C 
BRANCH   3   4
ATOM      4  C   UNL     1     -11.451 -12.983  -1.491  1.00  0.00     0.000 C 
BRANCH   4   5
ATOM      5  C   UNL     1     -12.254 -13.605  -0.338  1.00  0.00     0.000 C 
BRANCH   5   6
ATOM      6  C   UNL     1     -13.528 -12.810  -0.006  1.00  0.00     0.000 C 
BRANCH   6   7
ATOM      7  C   UNL     1     -13.231 -11.522   0.780  1.00  0.00     0.000 C 
BRANCH   7   8
ATOM      8  C   UNL     1     -13.203 -11.752   2.302  1.00  0.00     0.000 C 
BRANCH   8   9
ATOM      9  C   UNL     1     -14.097 -10.763   3.066  1.00  0.00     0.000 C 
BRANCH   9  10
ATOM     10  C   UNL     1     -13.464 -10.284   4.384  1.00  0.00     0.006 C 
BRANCH  10  11
ATOM     11  C   UNL     1     -11.931 -10.254   4.311  1.00  0.00     0.053 C 
BRANCH  11  12
ATOM     12  C   UNL     1     -11.308 -10.973   5.468  1.00  0.00     0.041 C 
ATOM     13  O   UNL     1     -10.654 -12.031   5.280  1.00  0.00    -0.550 OA
ATOM     14  O   UNL     1     -11.417 -10.450   6.750  1.00  0.00    -0.550 OA
ENDBRANCH  11  12
ENDBRANCH  10  11
ENDBRANCH   9  10
ENDBRANCH   8   9
ENDBRANCH   7   8
ENDBRANCH   6   7
ENDBRANCH   5   6
ENDBRANCH   4   5
ENDBRANCH   3   4
ENDBRANCH   2   3
ENDBRANCH   1   2
BRANCH   1  15
ATOM     15  C   UNL     1      -6.842 -12.598  -3.566  1.00  0.00     0.000 C 
BRANCH  15  16
ATOM     16  C   UNL     1      -5.743 -13.452  -4.222  1.00  0.00     0.000 C 
BRANCH  16  17
ATOM     17  C   UNL     1      -5.271 -12.968  -5.609  1.00  0.00     0.000 C 
BRANCH  17  18
ATOM     18  C   UNL     1      -6.126 -11.852  -6.238  1.00  0.00    -0.000 C 
BRANCH  18  19
ATOM     19  C   UNL     1      -7.015 -12.297  -7.415  1.00  0.00    -0.000 C 
BRANCH  19  20
ATOM     20  C   UNL     1      -8.145 -13.269  -7.012  1.00  0.00    -0.000 C 
BRANCH  20  21
ATOM     21  C   UNL     1      -9.527 -12.593  -6.970  1.00  0.00    -0.000 C 
BRANCH  21  22
ATOM     22  C   UNL     1     -10.639 -13.527  -6.462  1.00  0.00    -0.000 C 
BRANCH  22  23
ATOM     23  C   UNL     1     -11.360 -13.053  -5.186  1.00  0.00    -0.000 C 
BRANCH  23  24
ATOM     24  C   UNL     1     -12.286 -11.848  -5.428  1.00  0.00    -0.000 C 
BRANCH  24  25
ATOM     25  C   UNL     1     -13.682 -12.046  -4.818  1.00  0.00    -0.003 C 
ATOM     26  C   UNL     1     -13.930 -11.155  -3.601  1.00  0.00     0.004 C 
ENDBRANCH  24  25
ENDBRANCH  23  24
ENDBRANCH  22  23
ENDBRANCH  21  22
ENDBRANCH  20  21
ENDBRANCH  19  20
ENDBRANCH  18  19
ENDBRANCH  17  18
ENDBRANCH  16  17
ENDBRANCH  15  16
ENDBRANCH   1  15
TORSDOF 22
ENDMDL
MODEL 2
REMARK VINA RESULT:    -4.239      1.085      3.804
REMARK INTER + INTRA:         -11.949
REMARK INTER:                  -9.830
REMARK INTRA:                  -2.119
REMARK UNBOUND:                -2.259
REMARK SMILES CCCCCCCCCCCCCCCCCCCCCCCC(=O)[O-]
REMARK SMILES IDX 13 1 14 2 15 3 16 4 17 5 18 6 19 7 20 8 21 9 22 10 23 11
REMARK SMILES IDX 24 12 25 13 26 14 12 15 11 16 10 17 9 18 8 19 7 20 6 21 5 22
REMARK SMILES IDX 4 23 3 24 2 25 1 26
REMARK H PARENT
REMARK Flexibility Score: inf
ROOT
ATOM      1  C   UNL     1     -11.935 -12.310  -4.586  1.00  0.00     0.000 C 
ENDROOT
BRANCH   1   2
ATOM      2  C   UNL     1     -13.306 -12.514  -3.921  1.00  0.00     0.000 C 
BRANCH   2   3
ATOM      3  C   UNL     1     -13.824 -11.252  -3.216  1.00  0.00     0.000 C 
BRANCH   3   4
ATOM      4  C   UNL     1     -13.875 -11.455  -1.694  1.00  0.00     0.000 C 
BRANCH   4   5
ATOM      5  C   UNL     1     -13.070 -12.678  -1.228  1.00  0.00     0.000 C 
BRANCH   5   6
ATOM      6  C   UNL     1     -12.399 -12.459   0.139  1.00  0.00     0.000 C 
BRANCH   6   7
ATOM      7  C   UNL     1     -13.216 -11.532   1.055  1.00  0.00     0.000 C 
BRANCH   7   8
ATOM      8  C   UNL     1     -13.165 -11.967   2.531  1.00  0.00     0.000 C 
BRANCH   8   9
ATOM      9  C   UNL     1     -13.912 -10.995   3.458  1.00  0.00     0.000 C 
BRANCH   9  10
ATOM     10  C   UNL     1     -12.986  -9.929   4.073  1.00  0.00     0.006 C 
BRANCH  10  11
ATOM     11  C   UNL     1     -12.958 -10.004   5.605  1.00  0.00     0.053 C 
BRANCH  11  12
ATOM     12  C   UNL     1     -11.740 -10.723   6.102  1.00  0.00     0.041 C 
ATOM     13  O   UNL     1     -11.597 -10.952   7.331  1.00  0.00    -0.550 OA
ATOM     14  O   UNL     1     -10.783 -11.172   5.201  1.00  0.00    -0.550 OA
ENDBRANCH  11  12
ENDBRANCH  10  11
ENDBRANCH   9  10
ENDBRANCH   8   9
ENDBRANCH   7   8
ENDBRANCH   6   7
ENDBRANCH   5   6
ENDBRANCH   4   5
ENDBRANCH   3   4
ENDBRANCH   2   3
ENDBRANCH   1   2
BRANCH   1  15
ATOM     15  C   UNL     1     -10.942 -13.437  -4.254  1.00  0.00     0.000 C 
BRANCH  15  16
ATOM     16  C   UNL     1      -9.927 -13.041  -3.168  1.00  0.00     0.000 C 
BRANCH  16  17
ATOM     17  C   UNL     1      -8.680 -13.945  -3.071  1.00  0.00     0.000 C 
BRANCH  17  18
ATOM     18  C   UNL     1      -7.654 -13.770  -4.207  1.00  0.00    -0.000 C 
BRANCH  18  19
ATOM     19  C   UNL     1      -6.563 -12.716  -3.942  1.00  0.00    -0.000 C 
BRANCH  19  20
ATOM     20  C   UNL     1      -5.983 -12.080  -5.224  1.00  0.00    -0.000 C 
BRANCH  20  21
ATOM     21  C   UNL     1      -4.977 -12.997  -5.942  1.00  0.00    -0.000 C 
BRANCH  21  22
ATOM     22  C   UNL     1      -5.078 -12.918  -7.475  1.00  0.00    -0.000 C 
BRANCH  22  23
ATOM     23  C   UNL     1      -6.436 -13.345  -8.065  1.00  0.00    -0.000 C 
BRANCH  23  24
ATOM     24  C   UNL     1      -7.154 -12.207  -8.812  1.00  0.00    -0.000 C 
BRANCH  24  25
ATOM     25  C   UNL     1      -8.448 -11.767  -8.109  1.00  0.00    -0.003 C 
ATOM     26  C   UNL     1      -9.136 -12.911  -7.363  1.00  0.00     0.004 C 
ENDBRANCH  24  25
ENDBRANCH  23  24
ENDBRANCH  22  23
ENDBRANCH  21  22
ENDBRANCH  20  21
ENDBRANCH  19  20
ENDBRANCH  18  19
ENDBRANCH  17  18
ENDBRANCH  16  17
ENDBRANCH  15  16
ENDBRANCH   1  15
TORSDOF 22
ENDMDL
MODEL 3
REMARK VINA RESULT:    -4.147      3.779      9.822
REMARK INTER + INTRA:         -11.740
REMARK INTER:                  -9.883
REMARK INTRA:                  -1.857
REMARK UNBOUND:                -2.259
REMARK SMILES CCCCCCCCCCCCCCCCCCCCCCCC(=O)[O-]
REMARK SMILES IDX 13 1 14 2 15 3 16 4 17 5 18 6 19 7 20 8 21 9 22 10 23 11
REMARK SMILES IDX 24 12 25 13 26 14 12 15 11 16 10 17 9 18 8 19 7 20 6 21 5 22
REMARK SMILES IDX 4 23 3 24 2 25 1 26
REMARK H PARENT
REMARK Flexibility Score: inf
ROOT
ATOM      1  C   UNL     1     -10.890 -13.565  -4.082  1.00  0.00     0.000 C 
ENDROOT
BRANCH   1   2
ATOM      2  C   UNL     1     -10.466 -13.262  -2.635  1.00  0.00     0.000 C 
BRANCH   2   3
ATOM      3  C   UNL     1      -8.965 -12.961  -2.501  1.00  0.00     0.000 C 
BRANCH   3   4
ATOM      4  C   UNL     1      -8.172 -13.600  -3.650  1.00  0.00     0.000 C 
BRANCH   4   5
ATOM      5  C   UNL     1      -6.818 -12.916  -3.893  1.00  0.00     0.000 C 
BRANCH   5   6
ATOM      6  C   UNL     1      -5.685 -13.923  -4.158  1.00  0.00     0.000 C 
BRANCH   6   7
ATOM      7  C   UNL     1      -4.790 -13.507  -5.337  1.00  0.00     0.000 C 
BRANCH   7   8
ATOM      8  C   UNL     1      -5.362 -12.309  -6.118  1.00  0.00     0.000 C 
BRANCH   8   9
ATOM      9  C   UNL     1      -5.414 -12.563  -7.633  1.00  0.00     0.000 C 
BRANCH   9  10
ATOM     10  C   UNL     1      -6.705 -13.278  -8.072  1.00  0.00     0.006 C 
BRANCH  10  11
ATOM     11  C   UNL     1      -7.602 -12.376  -8.929  1.00  0.00     0.053 C 
BRANCH  11  12
ATOM     12  C   UNL     1      -8.703 -11.761  -8.121  1.00  0.00     0.041 C 
ATOM     13  O   UNL     1      -9.378 -10.808  -8.590  1.00  0.00    -0.550 OA
ATOM     14  O   UNL     1      -9.008 -12.267  -6.864  1.00  0.00    -0.550 OA
ENDBRANCH  11  12
ENDBRANCH  10  11
ENDBRANCH   9  10
ENDBRANCH   8   9
ENDBRANCH   7   8
ENDBRANCH   6   7
ENDBRANCH   5   6
ENDBRANCH   4   5
ENDBRANCH   3   4
ENDBRANCH   2   3
ENDBRANCH   1   2
BRANCH   1  15
ATOM     15  C   UNL     1     -11.768 -12.456  -4.686  1.00  0.00     0.000 C 
BRANCH  15  16
ATOM     16  C   UNL     1     -13.268 -12.665  -4.412  1.00  0.00     0.000 C 
BRANCH  16  17
ATOM     17  C   UNL     1     -13.996 -11.460  -3.780  1.00  0.00     0.000 C 
BRANCH  17  18
ATOM     18  C   UNL     1     -14.547 -11.699  -2.362  1.00  0.00    -0.000 C 
BRANCH  18  19
ATOM     19  C   UNL     1     -13.570 -11.369  -1.218  1.00  0.00    -0.000 C 
BRANCH  19  20
ATOM     20  C   UNL     1     -13.165 -12.594  -0.369  1.00  0.00    -0.000 C 
BRANCH  20  21
ATOM     21  C   UNL     1     -13.794 -12.580   1.035  1.00  0.00    -0.000 C 
BRANCH  21  22
ATOM     22  C   UNL     1     -13.172 -11.521   1.963  1.00  0.00    -0.000 C 
BRANCH  22  23
ATOM     23  C   UNL     1     -14.075 -11.055   3.122  1.00  0.00    -0.000 C 
BRANCH  23  24
ATOM     24  C   UNL     1     -13.403 -10.006   4.026  1.00  0.00    -0.000 C 
BRANCH  24  25
ATOM     25  C   UNL     1     -11.978 -10.410   4.437  1.00  0.00    -0.003 C 
ATOM     26  C   UNL     1     -11.676 -10.106   5.905  1.00  0.00     0.004 C 
ENDBRANCH  24  25
ENDBRANCH  23  24
ENDBRANCH  22  23
ENDBRANCH  21  22
ENDBRANCH  20  21
ENDBRANCH  19  20
ENDBRANCH  18  19
ENDBRANCH  17  18
ENDBRANCH  16  17
ENDBRANCH  15  16
ENDBRANCH   1  15
TORSDOF 22
ENDMDL
MODEL 4
REMARK VINA RESULT:    -3.993      2.245      3.998
REMARK INTER + INTRA:         -11.387
REMARK INTER:                  -8.055
REMARK INTRA:                  -3.332
REMARK UNBOUND:                -2.259
REMARK SMILES CCCCCCCCCCCCCCCCCCCCCCCC(=O)[O-]
REMARK SMILES IDX 13 1 14 2 15 3 16 4 17 5 18 6 19 7 20 8 21 9 22 10 23 11
REMARK SMILES IDX 24 12 25 13 26 14 12 15 11 16 10 17 9 18 8 19 7 20 6 21 5 22
REMARK SMILES IDX 4 23 3 24 2 25 1 26
REMARK H PARENT
REMARK Flexibility Score: inf
ROOT
ATOM      1  C   UNL     1      -8.772 -12.623  -2.349  1.00  0.00     0.000 C 
ENDROOT
BRANCH   1   2
ATOM      2  C   UNL     1      -9.398 -14.017  -2.516  1.00  0.00     0.000 C 
BRANCH   2   3
ATOM      3  C   UNL     1     -10.867 -13.965  -2.963  1.00  0.00     0.000 C 
BRANCH   3   4
ATOM      4  C   UNL     1     -11.057 -12.959  -4.107  1.00  0.00     0.000 C 
BRANCH   4   5
ATOM      5  C   UNL     1     -12.445 -13.052  -4.760  1.00  0.00     0.000 C 
BRANCH   5   6
ATOM      6  C   UNL     1     -13.115 -11.678  -4.928  1.00  0.00     0.000 C 
BRANCH   6   7
ATOM      7  C   UNL     1     -14.180 -11.405  -3.852  1.00  0.00     0.000 C 
BRANCH   7   8
ATOM      8  C   UNL     1     -14.590 -12.679  -3.091  1.00  0.00     0.000 C 
BRANCH   8   9
ATOM      9  C   UNL     1     -14.602 -12.479  -1.568  1.00  0.00     0.000 C 
BRANCH   9  10
ATOM     10  C   UNL     1     -13.483 -11.540  -1.082  1.00  0.00     0.006 C 
BRANCH  10  11
ATOM     11  C   UNL     1     -12.511 -12.246  -0.127  1.00  0.00     0.053 C 
BRANCH  11  12
ATOM     12  C   UNL     1     -13.066 -12.336   1.262  1.00  0.00     0.041 C 
ATOM     13  O   UNL     1     -13.542 -11.315   1.822  1.00  0.00    -0.550 OA
ATOM     14  O   UNL     1     -13.092 -13.558   1.922  1.00  0.00    -0.550 OA
ENDBRANCH  11  12
ENDBRANCH  10  11
ENDBRANCH   9  10
ENDBRANCH   8   9
ENDBRANCH   7   8
ENDBRANCH   6   7
ENDBRANCH   5   6
ENDBRANCH   4   5
ENDBRANCH   3   4
ENDBRANCH   2   3
ENDBRANCH   1   2
BRANCH   1  15
ATOM     15  C   UNL     1      -7.453 -12.469  -3.125  1.00  0.00     0.000 C 
BRANCH  15  16
ATOM     16  C   UNL     1      -7.184 -13.640  -4.086  1.00  0.00     0.000 C 
BRANCH  16  17
ATOM     17  C   UNL     1      -5.707 -13.836  -4.489  1.00  0.00     0.000 C 
BRANCH  17  18
ATOM     18  C   UNL     1      -5.146 -12.777  -5.455  1.00  0.00    -0.000 C 
BRANCH  18  19
ATOM     19  C   UNL     1      -4.249 -13.330  -6.579  1.00  0.00    -0.000 C 
BRANCH  19  20
ATOM     20  C   UNL     1      -4.736 -12.973  -8.000  1.00  0.00    -0.000 C 
BRANCH  20  21
ATOM     21  C   UNL     1      -6.136 -13.531  -8.308  1.00  0.00    -0.000 C 
BRANCH  21  22
ATOM     22  C   UNL     1      -7.135 -12.444  -8.744  1.00  0.00    -0.000 C 
BRANCH  22  23
ATOM     23  C   UNL     1      -8.053 -11.913  -7.626  1.00  0.00    -0.000 C 
BRANCH  23  24
ATOM     24  C   UNL     1      -9.099 -12.942  -7.163  1.00  0.00    -0.000 C 
BRANCH  24  25
ATOM     25  C   UNL     1     -10.414 -12.839  -7.950  1.00  0.00    -0.003 C 
ATOM     26  C   UNL     1     -11.006 -11.430  -7.935  1.00  0.00     0.004 C 
ENDBRANCH  24  25
ENDBRANCH  23  24
ENDBRANCH  22  23
ENDBRANCH  21  22
ENDBRANCH  20  21
ENDBRANCH  19  20
ENDBRANCH  18  19
ENDBRANCH  17  18
ENDBRANCH  16  17
ENDBRANCH  15  16
ENDBRANCH   1  15
TORSDOF 22
ENDMDL
MODEL 5
REMARK VINA RESULT:    -3.990      3.999      9.879
REMARK INTER + INTRA:         -11.380
REMARK INTER:                  -9.183
REMARK INTRA:                  -2.198
REMARK UNBOUND:                -2.259
REMARK SMILES CCCCCCCCCCCCCCCCCCCCCCCC(=O)[O-]
REMARK SMILES IDX 13 1 14 2 15 3 16 4 17 5 18 6 19 7 20 8 21 9 22 10 23 11
REMARK SMILES IDX 24 12 25 13 26 14 12 15 11 16 10 17 9 18 8 19 7 20 6 21 5 22
REMARK SMILES IDX 4 23 3 24 2 25 1 26
REMARK H PARENT
REMARK Flexibility Score: inf
ROOT
ATOM      1  C   UNL     1     -13.676 -11.499  -1.466  1.00  0.00     0.000 C 
ENDROOT
BRANCH   1   2
ATOM      2  C   UNL     1     -13.495 -12.628  -2.494  1.00  0.00     0.000 C 
BRANCH   2   3
ATOM      3  C   UNL     1     -12.862 -12.148  -3.808  1.00  0.00     0.000 C 
BRANCH   3   4
ATOM      4  C   UNL     1     -11.501 -12.821  -4.040  1.00  0.00     0.000 C 
BRANCH   4   5
ATOM      5  C   UNL     1     -11.096 -13.759  -2.893  1.00  0.00     0.000 C 
BRANCH   5   6
ATOM      6  C   UNL     1     -10.163 -13.081  -1.874  1.00  0.00     0.000 C 
BRANCH   6   7
ATOM      7  C   UNL     1      -8.775 -12.773  -2.459  1.00  0.00     0.000 C 
BRANCH   7   8
ATOM      8  C   UNL     1      -8.184 -13.965  -3.233  1.00  0.00     0.000 C 
BRANCH   8   9
ATOM      9  C   UNL     1      -7.512 -13.541  -4.549  1.00  0.00     0.000 C 
BRANCH   9  10
ATOM     10  C   UNL     1      -6.120 -12.920  -4.333  1.00  0.00     0.006 C 
BRANCH  10  11
ATOM     11  C   UNL     1      -5.791 -11.859  -5.391  1.00  0.00     0.053 C 
BRANCH  11  12
ATOM     12  C   UNL     1      -6.409 -12.188  -6.716  1.00  0.00     0.041 C 
ATOM     13  O   UNL     1      -5.839 -12.991  -7.499  1.00  0.00    -0.550 OA
ATOM     14  O   UNL     1      -7.633 -11.635  -7.069  1.00  0.00    -0.550 OA
ENDBRANCH  11  12
ENDBRANCH  10  11
ENDBRANCH   9  10
ENDBRANCH   8   9
ENDBRANCH   7   8
ENDBRANCH   6   7
ENDBRANCH   5   6
ENDBRANCH   4   5
ENDBRANCH   3   4
ENDBRANCH   2   3
ENDBRANCH   1   2
BRANCH   1  15
ATOM     15  C   UNL     1     -13.100 -11.857  -0.085  1.00  0.00     0.000 C 
BRANCH  15  16
ATOM     16  C   UNL     1     -13.208 -13.357   0.237  1.00  0.00     0.000 C 
BRANCH  16  17
ATOM     17  C   UNL     1     -14.405 -13.756   1.124  1.00  0.00     0.000 C 
BRANCH  17  18
ATOM     18  C   UNL     1     -14.848 -12.691   2.145  1.00  0.00    -0.000 C 
BRANCH  18  19
ATOM     19  C   UNL     1     -14.674 -13.092   3.622  1.00  0.00    -0.000 C 
BRANCH  19  20
ATOM     20  C   UNL     1     -13.353 -13.835   3.918  1.00  0.00    -0.000 C 
BRANCH  20  21
ATOM     21  C   UNL     1     -12.118 -12.927   3.792  1.00  0.00    -0.000 C 
BRANCH  21  22
ATOM     22  C   UNL     1     -11.435 -12.649   5.143  1.00  0.00    -0.000 C 
BRANCH  22  23
ATOM     23  C   UNL     1     -11.632 -11.224   5.695  1.00  0.00    -0.000 C 
BRANCH  23  24
ATOM     24  C   UNL     1     -11.809 -10.167   4.590  1.00  0.00    -0.000 C 
BRANCH  24  25
ATOM     25  C   UNL     1     -13.274  -9.732   4.422  1.00  0.00    -0.003 C 
ATOM     26  C   UNL     1     -14.062  -9.786   5.731  1.00  0.00     0.004 C 
ENDBRANCH  24  25
ENDBRANCH  23  24
ENDBRANCH  22  23
ENDBRANCH  21  22
ENDBRANCH  20  21
ENDBRANCH  19  20
ENDBRANCH  18  19
ENDBRANCH  17  18
ENDBRANCH  16  17
ENDBRANCH  15  16
ENDBRANCH   1  15
TORSDOF 22
ENDMDL
MODEL 6
REMARK VINA RESULT:    -3.960      3.715     10.662
REMARK INTER + INTRA:         -11.312
REMARK INTER:                  -9.761
REMARK INTRA:                  -1.552
REMARK UNBOUND:                -2.259
REMARK SMILES CCCCCCCCCCCCCCCCCCCCCCCC(=O)[O-]
REMARK SMILES IDX 13 1 14 2 15 3 16 4 17 5 18 6 19 7 20 8 21 9 22 10 23 11
REMARK SMILES IDX 24 12 25 13 26 14 12 15 11 16 10 17 9 18 8 19 7 20 6 21 5 22
REMARK SMILES IDX 4 23 3 24 2 25 1 26
REMARK H PARENT
REMARK Flexibility Score: inf
ROOT
ATOM      1  C   UNL     1     -11.230 -13.053  -2.780  1.00  0.00     0.000 C 
ENDROOT
BRANCH   1   2
ATOM      2  C   UNL     1      -9.981 -13.433  -1.969  1.00  0.00     0.000 C 
BRANCH   2   3
ATOM      3  C   UNL     1      -8.739 -12.618  -2.361  1.00  0.00     0.000 C 
BRANCH   3   4
ATOM      4  C   UNL     1      -7.951 -13.321  -3.476  1.00  0.00     0.000 C 
BRANCH   4   5
ATOM      5  C   UNL     1      -6.611 -12.635  -3.782  1.00  0.00     0.000 C 
BRANCH   5   6
ATOM      6  C   UNL     1      -5.550 -13.617  -4.310  1.00  0.00     0.000 C 
BRANCH   6   7
ATOM      7  C   UNL     1      -5.032 -13.231  -5.706  1.00  0.00     0.000 C 
BRANCH   7   8
ATOM      8  C   UNL     1      -5.799 -12.042  -6.311  1.00  0.00     0.000 C 
BRANCH   8   9
ATOM      9  C   UNL     1      -6.551 -12.418  -7.598  1.00  0.00     0.000 C 
BRANCH   9  10
ATOM     10  C   UNL     1      -7.791 -13.289  -7.329  1.00  0.00     0.006 C 
BRANCH  10  11
ATOM     11  C   UNL     1      -8.985 -12.880  -8.201  1.00  0.00     0.053 C 
BRANCH  11  12
ATOM     12  C   UNL     1     -10.088 -12.280  -7.384  1.00  0.00     0.041 C 
ATOM     13  O   UNL     1     -10.191 -12.553  -6.160  1.00  0.00    -0.550 OA
ATOM     14  O   UNL     1     -10.980 -11.390  -7.967  1.00  0.00    -0.550 OA
ENDBRANCH  11  12
ENDBRANCH  10  11
ENDBRANCH   9  10
ENDBRANCH   8   9
ENDBRANCH   7   8
ENDBRANCH   6   7
ENDBRANCH   5   6
ENDBRANCH   4   5
ENDBRANCH   3   4
ENDBRANCH   2   3
ENDBRANCH   1   2
BRANCH   1  15
ATOM     15  C   UNL     1     -12.507 -13.028  -1.924  1.00  0.00     0.000 C 
BRANCH  15  16
ATOM     16  C   UNL     1     -12.215 -13.009  -0.414  1.00  0.00     0.000 C 
BRANCH  16  17
ATOM     17  C   UNL     1     -12.897 -11.872   0.375  1.00  0.00     0.000 C 
BRANCH  17  18
ATOM     18  C   UNL     1     -13.342 -12.240   1.803  1.00  0.00    -0.000 C 
BRANCH  18  19
ATOM     19  C   UNL     1     -14.110 -11.134   2.551  1.00  0.00    -0.000 C 
BRANCH  19  20
ATOM     20  C   UNL     1     -13.575 -10.853   3.972  1.00  0.00    -0.000 C 
BRANCH  20  21
ATOM     21  C   UNL     1     -12.046 -10.996   4.072  1.00  0.00    -0.000 C 
BRANCH  21  22
ATOM     22  C   UNL     1     -11.424 -10.071   5.133  1.00  0.00    -0.000 C 
BRANCH  22  23
ATOM     23  C   UNL     1     -11.773 -10.421   6.593  1.00  0.00    -0.000 C 
BRANCH  23  24
ATOM     24  C   UNL     1     -12.346  -9.229   7.379  1.00  0.00    -0.000 C 
BRANCH  24  25
ATOM     25  C   UNL     1     -13.880  -9.161   7.311  1.00  0.00    -0.003 C 
ATOM     26  C   UNL     1     -14.491  -8.367   8.465  1.00  0.00     0.004 C 
ENDBRANCH  24  25
ENDBRANCH  23  24
ENDBRANCH  22  23
ENDBRANCH  21  22
ENDBRANCH  20  21
ENDBRANCH  19  20
ENDBRANCH  18  19
ENDBRANCH  17  18
ENDBRANCH  16  17
ENDBRANCH  15  16
ENDBRANCH   1  15
TORSDOF 22
ENDMDL
MODEL 7
REMARK VINA RESULT:    -3.878      3.885     10.187
REMARK INTER + INTRA:         -11.125
REMARK INTER:                  -9.036
REMARK INTRA:                  -2.089
REMARK UNBOUND:                -2.259
REMARK SMILES CCCCCCCCCCCCCCCCCCCCCCCC(=O)[O-]
REMARK SMILES IDX 13 1 14 2 15 3 16 4 17 5 18 6 19 7 20 8 21 9 22 10 23 11
REMARK SMILES IDX 24 12 25 13 26 14 12 15 11 16 10 17 9 18 8 19 7 20 6 21 5 22
REMARK SMILES IDX 4 23 3 24 2 25 1 26
REMARK H PARENT
REMARK Flexibility Score: inf
ROOT
ATOM      1  C   UNL     1     -13.260 -11.510  -0.747  1.00  0.00     0.000 C 
ENDROOT
BRANCH   1   2
ATOM      2  C   UNL     1     -14.324 -11.872  -1.797  1.00  0.00     0.000 C 
BRANCH   2   3
ATOM      3  C   UNL     1     -14.140 -11.117  -3.122  1.00  0.00     0.000 C 
BRANCH   3   4
ATOM      4  C   UNL     1     -13.335 -11.957  -4.125  1.00  0.00     0.000 C 
BRANCH   4   5
ATOM      5  C   UNL     1     -13.359 -13.459  -3.800  1.00  0.00     0.000 C 
BRANCH   5   6
ATOM      6  C   UNL     1     -11.952 -14.039  -3.576  1.00  0.00     0.000 C 
BRANCH   6   7
ATOM      7  C   UNL     1     -10.843 -12.992  -3.779  1.00  0.00     0.000 C 
BRANCH   7   8
ATOM      8  C   UNL     1      -9.623 -13.243  -2.875  1.00  0.00     0.000 C 
BRANCH   8   9
ATOM      9  C   UNL     1      -8.362 -13.609  -3.673  1.00  0.00     0.000 C 
BRANCH   9  10
ATOM     10  C   UNL     1      -7.178 -12.670  -3.378  1.00  0.00     0.006 C 
BRANCH  10  11
ATOM     11  C   UNL     1      -5.913 -13.078  -4.145  1.00  0.00     0.053 C 
BRANCH  11  12
ATOM     12  C   UNL     1      -5.720 -12.248  -5.377  1.00  0.00     0.041 C 
ATOM     13  O   UNL     1      -6.215 -11.093  -5.447  1.00  0.00    -0.550 OA
ATOM     14  O   UNL     1      -4.961 -12.736  -6.432  1.00  0.00    -0.550 OA
ENDBRANCH  11  12
ENDBRANCH  10  11
ENDBRANCH   9  10
ENDBRANCH   8   9
ENDBRANCH   7   8
ENDBRANCH   6   7
ENDBRANCH   5   6
ENDBRANCH   4   5
ENDBRANCH   3   4
ENDBRANCH   2   3
ENDBRANCH   1   2
BRANCH   1  15
ATOM     15  C   UNL     1     -12.573 -12.749  -0.150  1.00  0.00     0.000 C 
BRANCH  15  16
ATOM     16  C   UNL     1     -13.552 -13.904   0.123  1.00  0.00     0.000 C 
BRANCH  16  17
ATOM     17  C   UNL     1     -13.954 -14.093   1.600  1.00  0.00     0.000 C 
BRANCH  17  18
ATOM     18  C   UNL     1     -14.500 -12.833   2.297  1.00  0.00    -0.000 C 
BRANCH  18  19
ATOM     19  C   UNL     1     -13.602 -12.261   3.410  1.00  0.00    -0.000 C 
BRANCH  19  20
ATOM     20  C   UNL     1     -13.253 -10.768   3.227  1.00  0.00    -0.000 C 
BRANCH  20  21
ATOM     21  C   UNL     1     -13.223  -9.996   4.558  1.00  0.00    -0.000 C 
BRANCH  21  22
ATOM     22  C   UNL     1     -11.817  -9.922   5.180  1.00  0.00    -0.000 C 
BRANCH  22  23
ATOM     23  C   UNL     1     -11.786  -9.676   6.701  1.00  0.00    -0.000 C 
BRANCH  23  24
ATOM     24  C   UNL     1     -13.174  -9.782   7.358  1.00  0.00    -0.000 C 
BRANCH  24  25
ATOM     25  C   UNL     1     -13.547  -8.518   8.149  1.00  0.00    -0.003 C 
ATOM     26  C   UNL     1     -13.120  -8.589   9.615  1.00  0.00     0.004 C 
ENDBRANCH  24  25
ENDBRANCH  23  24
ENDBRANCH  22  23
ENDBRANCH  21  22
ENDBRANCH  20  21
ENDBRANCH  19  20
ENDBRANCH  18  19
ENDBRANCH  17  18
ENDBRANCH  16  17
ENDBRANCH  15  16
ENDBRANCH   1  15
TORSDOF 22
ENDMDL
MODEL 8
REMARK VINA RESULT:    -3.875      1.222      3.825
REMARK INTER + INTRA:         -11.118
REMARK INTER:                  -8.732
REMARK INTRA:                  -2.386
REMARK UNBOUND:                -2.259
REMARK SMILES CCCCCCCCCCCCCCCCCCCCCCCC(=O)[O-]
REMARK SMILES IDX 13 1 14 2 15 3 16 4 17 5 18 6 19 7 20 8 21 9 22 10 23 11
REMARK SMILES IDX 24 12 25 13 26 14 12 15 11 16 10 17 9 18 8 19 7 20 6 21 5 22
REMARK SMILES IDX 4 23 3 24 2 25 1 26
REMARK H PARENT
REMARK Flexibility Score: inf
ROOT
ATOM      1  C   UNL     1      -9.820 -13.993  -3.751  1.00  0.00     0.000 C 
ENDROOT
BRANCH   1   2
ATOM      2  C   UNL     1     -10.025 -12.988  -2.606  1.00  0.00     0.000 C 
BRANCH   2   3
ATOM      3  C   UNL     1     -10.530 -13.646  -1.313  1.00  0.00     0.000 C 
BRANCH   3   4
ATOM      4  C   UNL     1     -12.064 -13.727  -1.302  1.00  0.00     0.000 C 
BRANCH   4   5
ATOM      5  C   UNL     1     -12.734 -12.347  -1.222  1.00  0.00     0.000 C 
BRANCH   5   6
ATOM      6  C   UNL     1     -13.781 -12.260  -0.098  1.00  0.00     0.000 C 
BRANCH   6   7
ATOM      7  C   UNL     1     -13.223 -11.611   1.179  1.00  0.00     0.000 C 
BRANCH   7   8
ATOM      8  C   UNL     1     -13.175 -12.589   2.367  1.00  0.00     0.000 C 
BRANCH   8   9
ATOM      9  C   UNL     1     -13.701 -11.964   3.668  1.00  0.00     0.000 C 
BRANCH   9  10
ATOM     10  C   UNL     1     -13.436 -10.450   3.751  1.00  0.00     0.006 C 
BRANCH  10  11
ATOM     11  C   UNL     1     -13.204  -9.982   5.194  1.00  0.00     0.053 C 
BRANCH  11  12
ATOM     12  C   UNL     1     -11.757 -10.058   5.575  1.00  0.00     0.041 C 
ATOM     13  O   UNL     1     -10.867  -9.705   4.759  1.00  0.00    -0.550 OA
ATOM     14  O   UNL     1     -11.395 -10.485   6.846  1.00  0.00    -0.550 OA
ENDBRANCH  11  12
ENDBRANCH  10  11
ENDBRANCH   9  10
ENDBRANCH   8   9
ENDBRANCH   7   8
ENDBRANCH   6   7
ENDBRANCH   5   6
ENDBRANCH   4   5
ENDBRANCH   3   4
ENDBRANCH   2   3
ENDBRANCH   1   2
BRANCH   1  15
ATOM     15  C   UNL     1     -10.771 -13.744  -4.934  1.00  0.00     0.000 C 
BRANCH  15  16
ATOM     16  C   UNL     1     -11.709 -12.545  -4.706  1.00  0.00     0.000 C 
BRANCH  16  17
ATOM     17  C   UNL     1     -12.296 -11.916  -5.987  1.00  0.00     0.000 C 
BRANCH  17  18
ATOM     18  C   UNL     1     -11.693 -12.433  -7.306  1.00  0.00    -0.000 C 
BRANCH  18  19
ATOM     19  C   UNL     1     -10.770 -11.438  -8.035  1.00  0.00    -0.000 C 
BRANCH  19  20
ATOM     20  C   UNL     1      -9.634 -12.110  -8.836  1.00  0.00    -0.000 C 
BRANCH  20  21
ATOM     21  C   UNL     1      -9.329 -13.538  -8.352  1.00  0.00    -0.000 C 
BRANCH  21  22
ATOM     22  C   UNL     1      -7.918 -13.682  -7.754  1.00  0.00    -0.000 C 
BRANCH  22  23
ATOM     23  C   UNL     1      -7.575 -12.676  -6.638  1.00  0.00    -0.000 C 
BRANCH  23  24
ATOM     24  C   UNL     1      -6.086 -12.289  -6.612  1.00  0.00    -0.000 C 
BRANCH  24  25
ATOM     25  C   UNL     1      -5.386 -12.733  -5.318  1.00  0.00    -0.003 C 
ATOM     26  C   UNL     1      -6.309 -12.693  -4.100  1.00  0.00     0.004 C 
ENDBRANCH  24  25
ENDBRANCH  23  24
ENDBRANCH  22  23
ENDBRANCH  21  22
ENDBRANCH  20  21
ENDBRANCH  19  20
ENDBRANCH  18  19
ENDBRANCH  17  18
ENDBRANCH  16  17
ENDBRANCH  15  16
ENDBRANCH   1  15
TORSDOF 22
ENDMDL
MODEL 9
REMARK VINA RESULT:    -3.855      3.744     10.370
REMARK INTER + INTRA:         -11.072
REMARK INTER:                  -9.273
REMARK INTRA:                  -1.799
REMARK UNBOUND:                -2.259
REMARK SMILES CCCCCCCCCCCCCCCCCCCCCCCC(=O)[O-]
REMARK SMILES IDX 13 1 14 2 15 3 16 4 17 5 18 6 19 7 20 8 21 9 22 10 23 11
REMARK SMILES IDX 24 12 25 13 26 14 12 15 11 16 10 17 9 18 8 19 7 20 6 21 5 22
REMARK SMILES IDX 4 23 3 24 2 25 1 26
REMARK H PARENT
REMARK Flexibility Score: inf
ROOT
ATOM      1  C   UNL     1     -11.186 -13.272  -3.113  1.00  0.00     0.000 C 
ENDROOT
BRANCH   1   2
ATOM      2  C   UNL     1     -10.123 -13.392  -2.009  1.00  0.00     0.000 C 
BRANCH   2   3
ATOM      3  C   UNL     1      -8.825 -12.640  -2.342  1.00  0.00     0.000 C 
BRANCH   3   4
ATOM      4  C   UNL     1      -8.034 -13.369  -3.439  1.00  0.00     0.000 C 
BRANCH   4   5
ATOM      5  C   UNL     1      -6.682 -12.705  -3.741  1.00  0.00     0.000 C 
BRANCH   5   6
ATOM      6  C   UNL     1      -5.698 -13.657  -4.443  1.00  0.00     0.000 C 
BRANCH   6   7
ATOM      7  C   UNL     1      -4.952 -12.981  -5.605  1.00  0.00     0.000 C 
BRANCH   7   8
ATOM      8  C   UNL     1      -5.835 -11.981  -6.373  1.00  0.00     0.000 C 
BRANCH   8   9
ATOM      9  C   UNL     1      -6.534 -12.619  -7.584  1.00  0.00     0.000 C 
BRANCH   9  10
ATOM     10  C   UNL     1      -7.958 -12.078  -7.803  1.00  0.00     0.006 C 
BRANCH  10  11
ATOM     11  C   UNL     1      -9.004 -12.869  -7.007  1.00  0.00     0.053 C 
BRANCH  11  12
ATOM     12  C   UNL     1     -10.397 -12.407  -7.311  1.00  0.00     0.041 C 
ATOM     13  O   UNL     1     -11.146 -11.999  -6.386  1.00  0.00    -0.550 OA
ATOM     14  O   UNL     1     -10.853 -12.392  -8.623  1.00  0.00    -0.550 OA
ENDBRANCH  11  12
ENDBRANCH  10  11
ENDBRANCH   9  10
ENDBRANCH   8   9
ENDBRANCH   7   8
ENDBRANCH   6   7
ENDBRANCH   5   6
ENDBRANCH   4   5
ENDBRANCH   3   4
ENDBRANCH   2   3
ENDBRANCH   1   2
BRANCH   1  15
ATOM     15  C   UNL     1     -12.592 -13.000  -2.553  1.00  0.00     0.000 C 
BRANCH  15  16
ATOM     16  C   UNL     1     -12.667 -13.151  -1.024  1.00  0.00     0.000 C 
BRANCH  16  17
ATOM     17  C   UNL     1     -13.087 -11.880  -0.256  1.00  0.00     0.000 C 
BRANCH  17  18
ATOM     18  C   UNL     1     -13.674 -12.125   1.146  1.00  0.00    -0.000 C 
BRANCH  18  19
ATOM     19  C   UNL     1     -13.075 -11.254   2.266  1.00  0.00    -0.000 C 
BRANCH  19  20
ATOM     20  C   UNL     1     -13.963 -11.155   3.525  1.00  0.00    -0.000 C 
BRANCH  20  21
ATOM     21  C   UNL     1     -13.584  -9.970   4.430  1.00  0.00    -0.000 C 
BRANCH  21  22
ATOM     22  C   UNL     1     -12.588 -10.355   5.539  1.00  0.00    -0.000 C 
BRANCH  22  23
ATOM     23  C   UNL     1     -12.980 -11.590   6.372  1.00  0.00    -0.000 C 
BRANCH  23  24
ATOM     24  C   UNL     1     -12.005 -12.769   6.201  1.00  0.00    -0.000 C 
BRANCH  24  25
ATOM     25  C   UNL     1     -10.992 -12.535   5.069  1.00  0.00    -0.003 C 
ATOM     26  C   UNL     1     -10.164 -13.779   4.748  1.00  0.00     0.004 C 
ENDBRANCH  24  25
ENDBRANCH  23  24
ENDBRANCH  22  23
ENDBRANCH  21  22
ENDBRANCH  20  21
ENDBRANCH  19  20
ENDBRANCH  18  19
ENDBRANCH  17  18
ENDBRANCH  16  17
ENDBRANCH  15  16
ENDBRANCH   1  15
TORSDOF 22
ENDMDL
