MODEL 1
REMARK VINA RESULT:    -6.285      0.000      0.000
REMARK INTER + INTRA:          -7.746
REMARK INTER:                  -7.571
REMARK INTRA:                  -0.175
REMARK UNBOUND:                -0.175
REMARK SMILES O=c1c(O)c(-c2ccc(O)c(O)c2)oc2cc(O)cc(O)c12
REMARK SMILES IDX 5 1 3 2 2 3 1 4 22 5 20 6 19 7 17 8 16 9 15 10 14 11 6 12
REMARK SMILES IDX 7 13 8 14 9 15 13 16 11 17 10 18 12 20 4 22 21 24 18 26
REMARK H PARENT 10 19 12 21 4 23 21 25 18 27
REMARK Flexibility Score: inf
ROOT
ATOM      1  C   UNL     1      18.375  -1.239 -16.578  1.00  0.00     0.180 A 
ATOM      2  C   UNL     1      17.646  -0.415 -15.699  1.00  0.00     0.208 A 
ATOM      3  C   UNL     1      16.909  -1.013 -14.664  1.00  0.00     0.238 A 
ATOM      4  O   UNL     1      16.243  -0.287 -13.877  1.00  0.00    -0.285 OA
ATOM      5  C   UNL     1      16.929  -2.414 -14.515  1.00  0.00     0.111 A 
ATOM      6  C   UNL     1      16.217  -3.094 -13.496  1.00  0.00     0.134 A 
ATOM      7  C   UNL     1      16.295  -4.492 -13.408  1.00  0.00     0.093 A 
ATOM      8  C   UNL     1      17.071  -5.222 -14.317  1.00  0.00     0.123 A 
ATOM      9  C   UNL     1      17.774  -4.555 -15.322  1.00  0.00     0.094 A 
ATOM     10  C   UNL     1      17.708  -3.163 -15.428  1.00  0.00     0.146 A 
ATOM     11  O   UNL     1      18.382  -2.556 -16.397  1.00  0.00    -0.452 OA
ENDROOT
BRANCH   1  12
ATOM     12  C   UNL     1      19.161  -0.685 -17.704  1.00  0.00     0.025 A 
ATOM     13  C   UNL     1      18.825  -0.967 -19.040  1.00  0.00     0.016 A 
ATOM     14  C   UNL     1      19.597  -0.452 -20.086  1.00  0.00     0.051 A 
ATOM     15  C   UNL     1      20.720   0.338 -19.813  1.00  0.00     0.157 A 
ATOM     16  C   UNL     1      20.301   0.090 -17.437  1.00  0.00     0.062 A 
ATOM     17  C   UNL     1      21.075   0.608 -18.481  1.00  0.00     0.158 A 
BRANCH  15  18
ATOM     18  O   UNL     1      21.486   0.851 -20.859  1.00  0.00    -0.504 OA
ATOM     19  H   UNL     1      21.081   1.049 -21.767  1.00  0.00     0.293 HD
ENDBRANCH  15  18
BRANCH  17  20
ATOM     20  O   UNL     1      22.192   1.385 -18.177  1.00  0.00    -0.504 OA
ATOM     21  H   UNL     1      22.942   1.533 -18.840  1.00  0.00     0.293 HD
ENDBRANCH  17  20
ENDBRANCH   1  12
BRANCH   2  22
ATOM     22  O   UNL     1      17.683   0.975 -15.838  1.00  0.00    -0.502 OA
ATOM     23  H   UNL     1      17.973   1.426 -16.697  1.00  0.00     0.293 HD
ENDBRANCH   2  22
BRANCH   6  24
ATOM     24  O   UNL     1      15.436  -2.395 -12.576  1.00  0.00    -0.507 OA
ATOM     25  H   UNL     1      14.994  -1.514 -12.812  1.00  0.00     0.293 HD
ENDBRANCH   6  24
BRANCH   8  26
ATOM     26  O   UNL     1      17.150  -6.609 -14.228  1.00  0.00    -0.508 OA
ATOM     27  H   UNL     1      17.841  -7.136 -14.750  1.00  0.00     0.293 HD
ENDBRANCH   8  26
TORSDOF 6
ENDMDL
MODEL 2
REMARK VINA RESULT:    -6.129      1.991      6.849
REMARK INTER + INTRA:          -7.558
REMARK INTER:                  -7.233
REMARK INTRA:                  -0.325
REMARK UNBOUND:                -0.175
REMARK SMILES O=c1c(O)c(-c2ccc(O)c(O)c2)oc2cc(O)cc(O)c12
REMARK SMILES IDX 5 1 3 2 2 3 1 4 22 5 20 6 19 7 17 8 16 9 15 10 14 11 6 12
REMARK SMILES IDX 7 13 8 14 9 15 13 16 11 17 10 18 12 20 4 22 21 24 18 26
REMARK H PARENT 10 19 12 21 4 23 21 25 18 27
REMARK Flexibility Score: inf
ROOT
ATOM      1  C   UNL     1      17.658  -0.212 -15.320  1.00  0.00     0.180 A 
ATOM      2  C   UNL     1      18.711   0.548 -14.772  1.00  0.00     0.208 A 
ATOM      3  C   UNL     1      19.833   0.824 -15.568  1.00  0.00     0.238 A 
ATOM      4  O   UNL     1      20.787   1.493 -15.086  1.00  0.00    -0.285 OA
ATOM      5  C   UNL     1      19.877   0.356 -16.898  1.00  0.00     0.111 A 
ATOM      6  C   UNL     1      20.969   0.595 -17.767  1.00  0.00     0.134 A 
ATOM      7  C   UNL     1      20.932   0.104 -19.081  1.00  0.00     0.093 A 
ATOM      8  C   UNL     1      19.826  -0.620 -19.541  1.00  0.00     0.123 A 
ATOM      9  C   UNL     1      18.747  -0.857 -18.687  1.00  0.00     0.094 A 
ATOM     10  C   UNL     1      18.765  -0.378 -17.374  1.00  0.00     0.146 A 
ATOM     11  O   UNL     1      17.728  -0.623 -16.583  1.00  0.00    -0.452 OA
ENDROOT
BRANCH   1  12
ATOM     12  C   UNL     1      16.450  -0.561 -14.538  1.00  0.00     0.025 A 
ATOM     13  C   UNL     1      15.340   0.300 -14.483  1.00  0.00     0.016 A 
ATOM     14  C   UNL     1      14.220  -0.040 -13.719  1.00  0.00     0.051 A 
ATOM     15  C   UNL     1      14.199  -1.235 -12.989  1.00  0.00     0.157 A 
ATOM     16  C   UNL     1      16.431  -1.747 -13.787  1.00  0.00     0.062 A 
ATOM     17  C   UNL     1      15.312  -2.092 -13.022  1.00  0.00     0.158 A 
BRANCH  15  18
ATOM     18  O   UNL     1      13.079  -1.572 -12.229  1.00  0.00    -0.504 OA
ATOM     19  H   UNL     1      12.690  -2.507 -12.242  1.00  0.00     0.293 HD
ENDBRANCH  15  18
BRANCH  17  20
ATOM     20  O   UNL     1      15.324  -3.284 -12.300  1.00  0.00    -0.504 OA
ATOM     21  H   UNL     1      15.710  -3.345 -11.366  1.00  0.00     0.293 HD
ENDBRANCH  17  20
ENDBRANCH   1  12
BRANCH   2  22
ATOM     22  O   UNL     1      18.621   1.042 -13.468  1.00  0.00    -0.502 OA
ATOM     23  H   UNL     1      18.342   0.461 -12.686  1.00  0.00     0.293 HD
ENDBRANCH   2  22
BRANCH   6  24
ATOM     24  O   UNL     1      22.085   1.313 -17.338  1.00  0.00    -0.507 OA
ATOM     25  H   UNL     1      22.657   1.847 -17.982  1.00  0.00     0.293 HD
ENDBRANCH   6  24
BRANCH   8  26
ATOM     26  O   UNL     1      19.789  -1.106 -20.845  1.00  0.00    -0.508 OA
ATOM     27  H   UNL     1      20.032  -0.522 -21.636  1.00  0.00     0.293 HD
ENDBRANCH   8  26
TORSDOF 6
ENDMDL
MODEL 3
REMARK VINA RESULT:    -5.973      7.486     10.997
REMARK INTER + INTRA:          -7.370
REMARK INTER:                  -7.095
REMARK INTRA:                  -0.275
REMARK UNBOUND:                -0.175
REMARK SMILES O=c1c(O)c(-c2ccc(O)c(O)c2)oc2cc(O)cc(O)c12
REMARK SMILES IDX 5 1 3 2 2 3 1 4 22 5 20 6 19 7 17 8 16 9 15 10 14 11 6 12
REMARK SMILES IDX 7 13 8 14 9 15 13 16 11 17 10 18 12 20 4 22 21 24 18 26
REMARK H PARENT 10 19 12 21 4 23 21 25 18 27
REMARK Flexibility Score: inf
ROOT
ATOM      1  C   UNL     1      11.016  -6.287 -10.681  1.00  0.00     0.180 A 
ATOM      2  C   UNL     1      10.771  -6.509  -9.311  1.00  0.00     0.208 A 
ATOM      3  C   UNL     1       9.622  -7.222  -8.936  1.00  0.00     0.238 A 
ATOM      4  O   UNL     1       9.385  -7.417  -7.713  1.00  0.00    -0.285 OA
ATOM      5  C   UNL     1       8.751  -7.715  -9.929  1.00  0.00     0.111 A 
ATOM      6  C   UNL     1       7.575  -8.446  -9.634  1.00  0.00     0.134 A 
ATOM      7  C   UNL     1       6.764  -8.911 -10.681  1.00  0.00     0.093 A 
ATOM      8  C   UNL     1       7.109  -8.661 -12.014  1.00  0.00     0.123 A 
ATOM      9  C   UNL     1       8.268  -7.941 -12.309  1.00  0.00     0.094 A 
ATOM     10  C   UNL     1       9.088  -7.467 -11.281  1.00  0.00     0.146 A 
ATOM     11  O   UNL     1      10.181  -6.780 -11.591  1.00  0.00    -0.452 OA
ENDROOT
BRANCH   1  12
ATOM     12  C   UNL     1      12.196  -5.529 -11.156  1.00  0.00     0.025 A 
ATOM     13  C   UNL     1      13.478  -6.107 -11.176  1.00  0.00     0.016 A 
ATOM     14  C   UNL     1      14.580  -5.363 -11.606  1.00  0.00     0.051 A 
ATOM     15  C   UNL     1      14.422  -4.031 -12.009  1.00  0.00     0.157 A 
ATOM     16  C   UNL     1      12.047  -4.187 -11.541  1.00  0.00     0.062 A 
ATOM     17  C   UNL     1      13.147  -3.440 -11.973  1.00  0.00     0.158 A 
BRANCH  15  18
ATOM     18  O   UNL     1      15.524  -3.293 -12.440  1.00  0.00    -0.504 OA
ATOM     19  H   UNL     1      16.143  -3.637 -13.164  1.00  0.00     0.293 HD
ENDBRANCH  15  18
BRANCH  17  20
ATOM     20  O   UNL     1      12.958  -2.114 -12.360  1.00  0.00    -0.504 OA
ATOM     21  H   UNL     1      12.376  -1.860 -13.149  1.00  0.00     0.293 HD
ENDBRANCH  17  20
ENDBRANCH   1  12
BRANCH   2  22
ATOM     22  O   UNL     1      11.675  -6.053  -8.349  1.00  0.00    -0.502 OA
ATOM     23  H   UNL     1      11.926  -6.602  -7.536  1.00  0.00     0.293 HD
ENDBRANCH   2  22
BRANCH   6  24
ATOM     24  O   UNL     1       7.205  -8.711  -8.316  1.00  0.00    -0.507 OA
ATOM     25  H   UNL     1       7.862  -8.620  -7.549  1.00  0.00     0.293 HD
ENDBRANCH   6  24
BRANCH   8  26
ATOM     26  O   UNL     1       6.305  -9.124 -13.054  1.00  0.00    -0.508 OA
ATOM     27  H   UNL     1       6.072  -8.538 -13.846  1.00  0.00     0.293 HD
ENDBRANCH   8  26
TORSDOF 6
ENDMDL
MODEL 4
REMARK VINA RESULT:    -5.942      7.211      9.760
REMARK INTER + INTRA:          -7.333
REMARK INTER:                  -7.048
REMARK INTRA:                  -0.285
REMARK UNBOUND:                -0.175
REMARK SMILES O=c1c(O)c(-c2ccc(O)c(O)c2)oc2cc(O)cc(O)c12
REMARK SMILES IDX 5 1 3 2 2 3 1 4 22 5 20 6 19 7 17 8 16 9 15 10 14 11 6 12
REMARK SMILES IDX 7 13 8 14 9 15 13 16 11 17 10 18 12 20 4 22 21 24 18 26
REMARK H PARENT 10 19 12 21 4 23 21 25 18 27
REMARK Flexibility Score: inf
ROOT
ATOM      1  C   UNL     1      19.186  -2.079  -8.226  1.00  0.00     0.180 A 
ATOM      2  C   UNL     1      19.094  -2.638  -6.935  1.00  0.00     0.208 A 
ATOM      3  C   UNL     1      20.271  -3.051  -6.291  1.00  0.00     0.238 A 
ATOM      4  O   UNL     1      20.201  -3.563  -5.141  1.00  0.00    -0.285 OA
ATOM      5  C   UNL     1      21.514  -2.883  -6.934  1.00  0.00     0.111 A 
ATOM      6  C   UNL     1      22.745  -3.269  -6.351  1.00  0.00     0.134 A 
ATOM      7  C   UNL     1      23.943  -3.059  -7.052  1.00  0.00     0.093 A 
ATOM      8  C   UNL     1      23.932  -2.470  -8.322  1.00  0.00     0.123 A 
ATOM      9  C   UNL     1      22.720  -2.088  -8.899  1.00  0.00     0.094 A 
ATOM     10  C   UNL     1      21.516  -2.290  -8.219  1.00  0.00     0.146 A 
ATOM     11  O   UNL     1      20.378  -1.922  -8.794  1.00  0.00    -0.452 OA
ENDROOT
BRANCH   1  12
ATOM     12  C   UNL     1      17.990  -1.636  -8.978  1.00  0.00     0.025 A 
ATOM     13  C   UNL     1      17.622  -0.281  -9.036  1.00  0.00     0.016 A 
ATOM     14  C   UNL     1      16.475   0.110  -9.733  1.00  0.00     0.051 A 
ATOM     15  C   UNL     1      15.674  -0.846 -10.369  1.00  0.00     0.157 A 
ATOM     16  C   UNL     1      17.171  -2.593  -9.599  1.00  0.00     0.062 A 
ATOM     17  C   UNL     1      16.023  -2.206 -10.298  1.00  0.00     0.158 A 
BRANCH  15  18
ATOM     18  O   UNL     1      14.531  -0.453 -11.064  1.00  0.00    -0.504 OA
ATOM     19  H   UNL     1      14.591   0.068 -11.932  1.00  0.00     0.293 HD
ENDBRANCH  15  18
BRANCH  17  20
ATOM     20  O   UNL     1      15.241  -3.182 -10.914  1.00  0.00    -0.504 OA
ATOM     21  H   UNL     1      14.831  -3.046 -11.829  1.00  0.00     0.293 HD
ENDBRANCH  17  20
ENDBRANCH   1  12
BRANCH   2  22
ATOM     22  O   UNL     1      17.855  -2.748  -6.300  1.00  0.00    -0.502 OA
ATOM     23  H   UNL     1      17.736  -3.245  -5.426  1.00  0.00     0.293 HD
ENDBRANCH   2  22
BRANCH   6  24
ATOM     24  O   UNL     1      22.789  -3.858  -5.087  1.00  0.00    -0.507 OA
ATOM     25  H   UNL     1      22.230  -3.509  -4.317  1.00  0.00     0.293 HD
ENDBRANCH   6  24
BRANCH   8  26
ATOM     26  O   UNL     1      25.120  -2.260  -9.017  1.00  0.00    -0.508 OA
ATOM     27  H   UNL     1      26.022  -2.405  -8.580  1.00  0.00     0.293 HD
ENDBRANCH   8  26
TORSDOF 6
ENDMDL
MODEL 5
REMARK VINA RESULT:    -5.905      8.290     12.172
REMARK INTER + INTRA:          -7.288
REMARK INTER:                  -7.571
REMARK INTRA:                   0.283
REMARK UNBOUND:                -0.175
REMARK SMILES O=c1c(O)c(-c2ccc(O)c(O)c2)oc2cc(O)cc(O)c12
REMARK SMILES IDX 5 1 3 2 2 3 1 4 22 5 20 6 19 7 17 8 16 9 15 10 14 11 6 12
REMARK SMILES IDX 7 13 8 14 9 15 13 16 11 17 10 18 12 20 4 22 21 24 18 26
REMARK H PARENT 10 19 12 21 4 23 21 25 18 27
REMARK Flexibility Score: inf
ROOT
ATOM      1  C   UNL     1      10.801  -6.935  -9.445  1.00  0.00     0.180 A 
ATOM      2  C   UNL     1       9.894  -7.997  -9.628  1.00  0.00     0.208 A 
ATOM      3  C   UNL     1       8.858  -8.171  -8.697  1.00  0.00     0.238 A 
ATOM      4  O   UNL     1       8.046  -9.124  -8.843  1.00  0.00    -0.285 OA
ATOM      5  C   UNL     1       8.734  -7.274  -7.616  1.00  0.00     0.111 A 
ATOM      6  C   UNL     1       7.716  -7.377  -6.637  1.00  0.00     0.134 A 
ATOM      7  C   UNL     1       7.655  -6.439  -5.595  1.00  0.00     0.093 A 
ATOM      8  C   UNL     1       8.591  -5.401  -5.516  1.00  0.00     0.123 A 
ATOM      9  C   UNL     1       9.595  -5.296  -6.479  1.00  0.00     0.094 A 
ATOM     10  C   UNL     1       9.675  -6.222  -7.523  1.00  0.00     0.146 A 
ATOM     11  O   UNL     1      10.644  -6.100  -8.422  1.00  0.00    -0.452 OA
ENDROOT
BRANCH   1  12
ATOM     12  C   UNL     1      11.931  -6.697 -10.373  1.00  0.00     0.025 A 
ATOM     13  C   UNL     1      12.496  -7.745 -11.121  1.00  0.00     0.016 A 
ATOM     14  C   UNL     1      13.577  -7.500 -11.972  1.00  0.00     0.051 A 
ATOM     15  C   UNL     1      14.117  -6.212 -12.079  1.00  0.00     0.157 A 
ATOM     16  C   UNL     1      12.489  -5.413 -10.468  1.00  0.00     0.062 A 
ATOM     17  C   UNL     1      13.570  -5.163 -11.320  1.00  0.00     0.158 A 
BRANCH  15  18
ATOM     18  O   UNL     1      15.194  -5.972 -12.931  1.00  0.00    -0.504 OA
ATOM     19  H   UNL     1      15.133  -6.147 -13.926  1.00  0.00     0.293 HD
ENDBRANCH  15  18
BRANCH  17  20
ATOM     20  O   UNL     1      14.089  -3.872 -11.398  1.00  0.00    -0.504 OA
ATOM     21  H   UNL     1      15.085  -3.693 -11.440  1.00  0.00     0.293 HD
ENDBRANCH  17  20
ENDBRANCH   1  12
BRANCH   2  22
ATOM     22  O   UNL     1      10.008  -8.842 -10.735  1.00  0.00    -0.502 OA
ATOM     23  H   UNL     1       9.205  -9.285 -11.165  1.00  0.00     0.293 HD
ENDBRANCH   2  22
BRANCH   6  24
ATOM     24  O   UNL     1       6.770  -8.401  -6.690  1.00  0.00    -0.507 OA
ATOM     25  H   UNL     1       5.866  -8.269  -7.128  1.00  0.00     0.293 HD
ENDBRANCH   6  24
BRANCH   8  26
ATOM     26  O   UNL     1       8.529  -4.468  -4.483  1.00  0.00    -0.508 OA
ATOM     27  H   UNL     1       8.668  -3.479  -4.653  1.00  0.00     0.293 HD
ENDBRANCH   8  26
TORSDOF 6
ENDMDL
MODEL 6
REMARK VINA RESULT:    -5.794      6.235      8.558
REMARK INTER + INTRA:          -7.155
REMARK INTER:                  -6.878
REMARK INTRA:                  -0.277
REMARK UNBOUND:                -0.175
REMARK SMILES O=c1c(O)c(-c2ccc(O)c(O)c2)oc2cc(O)cc(O)c12
REMARK SMILES IDX 5 1 3 2 2 3 1 4 22 5 20 6 19 7 17 8 16 9 15 10 14 11 6 12
REMARK SMILES IDX 7 13 8 14 9 15 13 16 11 17 10 18 12 20 4 22 21 24 18 26
REMARK H PARENT 10 19 12 21 4 23 21 25 18 27
REMARK Flexibility Score: inf
ROOT
ATOM      1  C   UNL     1      18.028  -2.163  -9.174  1.00  0.00     0.180 A 
ATOM      2  C   UNL     1      17.233  -1.000  -9.138  1.00  0.00     0.208 A 
ATOM      3  C   UNL     1      16.176  -0.874 -10.053  1.00  0.00     0.238 A 
ATOM      4  O   UNL     1      15.464   0.166 -10.039  1.00  0.00    -0.285 OA
ATOM      5  C   UNL     1      15.920  -1.914 -10.970  1.00  0.00     0.111 A 
ATOM      6  C   UNL     1      14.872  -1.867 -11.921  1.00  0.00     0.134 A 
ATOM      7  C   UNL     1      14.676  -2.947 -12.794  1.00  0.00     0.093 A 
ATOM      8  C   UNL     1      15.506  -4.073 -12.733  1.00  0.00     0.123 A 
ATOM      9  C   UNL     1      16.540  -4.123 -11.796  1.00  0.00     0.094 A 
ATOM     10  C   UNL     1      16.753  -3.056 -10.919  1.00  0.00     0.146 A 
ATOM     11  O   UNL     1      17.747  -3.129 -10.043  1.00  0.00    -0.452 OA
ENDROOT
BRANCH   1  12
ATOM     12  C   UNL     1      19.172  -2.361  -8.254  1.00  0.00     0.025 A 
ATOM     13  C   UNL     1      20.500  -2.221  -8.697  1.00  0.00     0.016 A 
ATOM     14  C   UNL     1      21.563  -2.437  -7.817  1.00  0.00     0.051 A 
ATOM     15  C   UNL     1      21.318  -2.808  -6.488  1.00  0.00     0.157 A 
ATOM     16  C   UNL     1      18.933  -2.754  -6.928  1.00  0.00     0.062 A 
ATOM     17  C   UNL     1      19.995  -2.970  -6.043  1.00  0.00     0.158 A 
BRANCH  15  18
ATOM     18  O   UNL     1      22.382  -3.021  -5.612  1.00  0.00    -0.504 OA
ATOM     19  H   UNL     1      23.152  -3.634  -5.852  1.00  0.00     0.293 HD
ENDBRANCH  15  18
BRANCH  17  20
ATOM     20  O   UNL     1      19.719  -3.346  -4.729  1.00  0.00    -0.504 OA
ATOM     21  H   UNL     1      18.786  -3.594  -4.425  1.00  0.00     0.293 HD
ENDBRANCH  17  20
ENDBRANCH   1  12
BRANCH   2  22
ATOM     22  O   UNL     1      17.477  -0.006  -8.187  1.00  0.00    -0.502 OA
ATOM     23  H   UNL     1      18.407   0.195  -7.839  1.00  0.00     0.293 HD
ENDBRANCH   2  22
BRANCH   6  24
ATOM     24  O   UNL     1      14.029  -0.759 -12.006  1.00  0.00    -0.507 OA
ATOM     25  H   UNL     1      13.678  -0.290 -11.179  1.00  0.00     0.293 HD
ENDBRANCH   6  24
BRANCH   8  26
ATOM     26  O   UNL     1      15.310  -5.147 -13.598  1.00  0.00    -0.508 OA
ATOM     27  H   UNL     1      15.164  -6.087 -13.251  1.00  0.00     0.293 HD
ENDBRANCH   8  26
TORSDOF 6
ENDMDL
MODEL 7
REMARK VINA RESULT:    -5.761      2.479      4.222
REMARK INTER + INTRA:          -7.115
REMARK INTER:                  -6.787
REMARK INTRA:                  -0.328
REMARK UNBOUND:                -0.175
REMARK SMILES O=c1c(O)c(-c2ccc(O)c(O)c2)oc2cc(O)cc(O)c12
REMARK SMILES IDX 5 1 3 2 2 3 1 4 22 5 20 6 19 7 17 8 16 9 15 10 14 11 6 12
REMARK SMILES IDX 7 13 8 14 9 15 13 16 11 17 10 18 12 20 4 22 21 24 18 26
REMARK H PARENT 10 19 12 21 4 23 21 25 18 27
REMARK Flexibility Score: inf
ROOT
ATOM      1  C   UNL     1      17.241  -0.396 -15.237  1.00  0.00     0.180 A 
ATOM      2  C   UNL     1      17.199  -1.452 -14.304  1.00  0.00     0.208 A 
ATOM      3  C   UNL     1      16.049  -1.616 -13.517  1.00  0.00     0.238 A 
ATOM      4  O   UNL     1      16.003  -2.550 -12.672  1.00  0.00    -0.285 OA
ATOM      5  C   UNL     1      14.958  -0.739 -13.687  1.00  0.00     0.111 A 
ATOM      6  C   UNL     1      13.761  -0.838 -12.936  1.00  0.00     0.134 A 
ATOM      7  C   UNL     1      12.716   0.068 -13.171  1.00  0.00     0.093 A 
ATOM      8  C   UNL     1      12.844   1.069 -14.141  1.00  0.00     0.123 A 
ATOM      9  C   UNL     1      14.022   1.170 -14.882  1.00  0.00     0.094 A 
ATOM     10  C   UNL     1      15.076   0.278 -14.663  1.00  0.00     0.146 A 
ATOM     11  O   UNL     1      16.187   0.402 -15.379  1.00  0.00    -0.452 OA
ENDROOT
BRANCH   1  12
ATOM     12  C   UNL     1      18.425  -0.147 -16.090  1.00  0.00     0.025 A 
ATOM     13  C   UNL     1      19.436   0.748 -15.696  1.00  0.00     0.016 A 
ATOM     14  C   UNL     1      20.533   0.984 -16.529  1.00  0.00     0.051 A 
ATOM     15  C   UNL     1      20.630   0.343 -17.771  1.00  0.00     0.157 A 
ATOM     16  C   UNL     1      18.517  -0.770 -17.344  1.00  0.00     0.062 A 
ATOM     17  C   UNL     1      19.614  -0.537 -18.181  1.00  0.00     0.158 A 
BRANCH  15  18
ATOM     18  O   UNL     1      21.726   0.581 -18.598  1.00  0.00    -0.504 OA
ATOM     19  H   UNL     1      21.825   1.448 -19.113  1.00  0.00     0.293 HD
ENDBRANCH  15  18
BRANCH  17  20
ATOM     20  O   UNL     1      19.677  -1.184 -19.414  1.00  0.00    -0.504 OA
ATOM     21  H   UNL     1      18.861  -1.307 -20.001  1.00  0.00     0.293 HD
ENDBRANCH  17  20
ENDBRANCH   1  12
BRANCH   2  22
ATOM     22  O   UNL     1      18.274  -2.337 -14.191  1.00  0.00    -0.502 OA
ATOM     23  H   UNL     1      19.230  -2.055 -14.369  1.00  0.00     0.293 HD
ENDBRANCH   2  22
BRANCH   6  24
ATOM     24  O   UNL     1      13.603  -1.825 -11.963  1.00  0.00    -0.507 OA
ATOM     25  H   UNL     1      12.775  -2.409 -11.924  1.00  0.00     0.293 HD
ENDBRANCH   6  24
BRANCH   8  26
ATOM     26  O   UNL     1      11.806   1.967 -14.375  1.00  0.00    -0.508 OA
ATOM     27  H   UNL     1      11.950   2.969 -14.324  1.00  0.00     0.293 HD
ENDBRANCH   8  26
TORSDOF 6
ENDMDL
MODEL 8
REMARK VINA RESULT:    -5.719      5.159      7.292
REMARK INTER + INTRA:          -7.065
REMARK INTER:                  -6.814
REMARK INTRA:                  -0.250
REMARK UNBOUND:                -0.175
REMARK SMILES O=c1c(O)c(-c2ccc(O)c(O)c2)oc2cc(O)cc(O)c12
REMARK SMILES IDX 5 1 3 2 2 3 1 4 22 5 20 6 19 7 17 8 16 9 15 10 14 11 6 12
REMARK SMILES IDX 7 13 8 14 9 15 13 16 11 17 10 18 12 20 4 22 21 24 18 26
REMARK H PARENT 10 19 12 21 4 23 21 25 18 27
REMARK Flexibility Score: inf
ROOT
ATOM      1  C   UNL     1      15.916  -1.187 -11.554  1.00  0.00     0.180 A 
ATOM      2  C   UNL     1      15.770  -2.552 -11.238  1.00  0.00     0.208 A 
ATOM      3  C   UNL     1      16.446  -3.065 -10.120  1.00  0.00     0.238 A 
ATOM      4  O   UNL     1      16.333  -4.287  -9.832  1.00  0.00    -0.285 OA
ATOM      5  C   UNL     1      17.238  -2.206  -9.330  1.00  0.00     0.111 A 
ATOM      6  C   UNL     1      17.948  -2.643  -8.185  1.00  0.00     0.134 A 
ATOM      7  C   UNL     1      18.707  -1.723  -7.445  1.00  0.00     0.093 A 
ATOM      8  C   UNL     1      18.768  -0.378  -7.827  1.00  0.00     0.123 A 
ATOM      9  C   UNL     1      18.069   0.056  -8.955  1.00  0.00     0.094 A 
ATOM     10  C   UNL     1      17.309  -0.844  -9.707  1.00  0.00     0.146 A 
ATOM     11  O   UNL     1      16.659  -0.404 -10.777  1.00  0.00    -0.452 OA
ENDROOT
BRANCH   1  12
ATOM     12  C   UNL     1      15.250  -0.576 -12.727  1.00  0.00     0.025 A 
ATOM     13  C   UNL     1      15.980  -0.193 -13.867  1.00  0.00     0.016 A 
ATOM     14  C   UNL     1      15.333   0.403 -14.952  1.00  0.00     0.051 A 
ATOM     15  C   UNL     1      13.953   0.638 -14.911  1.00  0.00     0.157 A 
ATOM     16  C   UNL     1      13.871  -0.319 -12.683  1.00  0.00     0.062 A 
ATOM     17  C   UNL     1      13.219   0.277 -13.768  1.00  0.00     0.158 A 
BRANCH  15  18
ATOM     18  O   UNL     1      13.310   1.232 -15.996  1.00  0.00    -0.504 OA
ATOM     19  H   UNL     1      12.718   2.046 -15.882  1.00  0.00     0.293 HD
ENDBRANCH  15  18
BRANCH  17  20
ATOM     20  O   UNL     1      11.845   0.505 -13.693  1.00  0.00    -0.504 OA
ATOM     21  H   UNL     1      11.170  -0.135 -14.093  1.00  0.00     0.293 HD
ENDBRANCH  17  20
ENDBRANCH   1  12
BRANCH   2  22
ATOM     22  O   UNL     1      14.940  -3.371 -12.008  1.00  0.00    -0.502 OA
ATOM     23  H   UNL     1      14.975  -4.382 -11.955  1.00  0.00     0.293 HD
ENDBRANCH   2  22
BRANCH   6  24
ATOM     24  O   UNL     1      17.907  -3.977  -7.780  1.00  0.00    -0.507 OA
ATOM     25  H   UNL     1      18.693  -4.419  -7.318  1.00  0.00     0.293 HD
ENDBRANCH   6  24
BRANCH   8  26
ATOM     26  O   UNL     1      19.520   0.535  -7.091  1.00  0.00    -0.508 OA
ATOM     27  H   UNL     1      19.393   0.643  -6.092  1.00  0.00     0.293 HD
ENDBRANCH   8  26
TORSDOF 6
ENDMDL
MODEL 9
REMARK VINA RESULT:    -4.570     11.924     15.030
REMARK INTER + INTRA:          -5.681
REMARK INTER:                  -5.933
REMARK INTRA:                   0.252
REMARK UNBOUND:                -0.175
REMARK SMILES O=c1c(O)c(-c2ccc(O)c(O)c2)oc2cc(O)cc(O)c12
REMARK SMILES IDX 5 1 3 2 2 3 1 4 22 5 20 6 19 7 17 8 16 9 15 10 14 11 6 12
REMARK SMILES IDX 7 13 8 14 9 15 13 16 11 17 10 18 12 20 4 22 21 24 18 26
REMARK H PARENT 10 19 12 21 4 23 21 25 18 27
REMARK Flexibility Score: inf
ROOT
ATOM      1  C   UNL     1       8.152  -6.667  -8.548  1.00  0.00     0.180 A 
ATOM      2  C   UNL     1       8.575  -7.807  -9.259  1.00  0.00     0.208 A 
ATOM      3  C   UNL     1       8.619  -7.753 -10.661  1.00  0.00     0.238 A 
ATOM      4  O   UNL     1       8.986  -8.770 -11.310  1.00  0.00    -0.285 OA
ATOM      5  C   UNL     1       8.258  -6.562 -11.325  1.00  0.00     0.111 A 
ATOM      6  C   UNL     1       8.279  -6.425 -12.734  1.00  0.00     0.134 A 
ATOM      7  C   UNL     1       7.914  -5.203 -13.319  1.00  0.00     0.093 A 
ATOM      8  C   UNL     1       7.532  -4.117 -12.522  1.00  0.00     0.123 A 
ATOM      9  C   UNL     1       7.511  -4.249 -11.132  1.00  0.00     0.094 A 
ATOM     10  C   UNL     1       7.868  -5.459 -10.530  1.00  0.00     0.146 A 
ATOM     11  O   UNL     1       7.834  -5.557  -9.207  1.00  0.00    -0.452 OA
ENDROOT
BRANCH   1  12
ATOM     12  C   UNL     1       8.061  -6.651  -7.070  1.00  0.00     0.025 A 
ATOM     13  C   UNL     1       7.801  -7.824  -6.340  1.00  0.00     0.016 A 
ATOM     14  C   UNL     1       7.696  -7.780  -4.947  1.00  0.00     0.051 A 
ATOM     15  C   UNL     1       7.837  -6.565  -4.265  1.00  0.00     0.157 A 
ATOM     16  C   UNL     1       8.180  -5.433  -6.383  1.00  0.00     0.062 A 
ATOM     17  C   UNL     1       8.078  -5.384  -4.988  1.00  0.00     0.158 A 
BRANCH  15  18
ATOM     18  O   UNL     1       7.734  -6.525  -2.875  1.00  0.00    -0.504 OA
ATOM     19  H   UNL     1       7.095  -5.892  -2.408  1.00  0.00     0.293 HD
ENDBRANCH  15  18
BRANCH  17  20
ATOM     20  O   UNL     1       8.215  -4.158  -4.340  1.00  0.00    -0.504 OA
ATOM     21  H   UNL     1       7.658  -3.911  -3.530  1.00  0.00     0.293 HD
ENDBRANCH  17  20
ENDBRANCH   1  12
BRANCH   2  22
ATOM     22  O   UNL     1       8.975  -8.958  -8.576  1.00  0.00    -0.502 OA
ATOM     23  H   UNL     1       8.691  -9.886  -8.865  1.00  0.00     0.293 HD
ENDBRANCH   2  22
BRANCH   6  24
ATOM     24  O   UNL     1       8.655  -7.488 -13.554  1.00  0.00    -0.507 OA
ATOM     25  H   UNL     1       7.986  -8.180 -13.872  1.00  0.00     0.293 HD
ENDBRANCH   6  24
BRANCH   8  26
ATOM     26  O   UNL     1       7.172  -2.903 -13.102  1.00  0.00    -0.508 OA
ATOM     27  H   UNL     1       6.347  -2.817 -13.682  1.00  0.00     0.293 HD
ENDBRANCH   8  26
TORSDOF 6
ENDMDL
