MODEL 1
REMARK VINA RESULT:    -2.736      0.000      0.000
REMARK INTER + INTRA:         -12.733
REMARK INTER:                  -6.894
REMARK INTRA:                  -5.838
REMARK UNBOUND:                -5.838
REMARK SMILES CCCCCCCCCCCCCCCCCCCCCCCCCCCC(=O)[O-]
REMARK SMILES IDX 15 1 16 2 17 3 18 4 19 5 20 6 21 7 22 8 23 9 24 10 25 11
REMARK SMILES IDX 26 12 27 13 28 14 29 15 30 16 14 17 13 18 12 19 11 20 10 21
REMARK SMILES IDX 9 22 8 23 7 24 6 25 5 26 4 27 3 28 2 29 1 30
REMARK H PARENT
REMARK Flexibility Score: inf
ROOT
ATOM      1  C   UNL     1      58.132  26.093  52.427  1.00  0.00     0.000 C 
ENDROOT
BRANCH   1   2
ATOM      2  C   UNL     1      59.376  25.488  51.749  1.00  0.00     0.000 C 
BRANCH   2   3
ATOM      3  C   UNL     1      59.747  26.140  50.398  1.00  0.00     0.000 C 
BRANCH   3   4
ATOM      4  C   UNL     1      58.707  27.127  49.829  1.00  0.00     0.000 C 
BRANCH   4   5
ATOM      5  C   UNL     1      59.219  28.553  49.554  1.00  0.00     0.000 C 
BRANCH   5   6
ATOM      6  C   UNL     1      58.701  29.585  50.569  1.00  0.00     0.000 C 
BRANCH   6   7
ATOM      7  C   UNL     1      59.815  30.157  51.462  1.00  0.00     0.000 C 
BRANCH   7   8
ATOM      8  C   UNL     1      60.117  29.345  52.739  1.00  0.00     0.000 C 
BRANCH   8   9
ATOM      9  C   UNL     1      61.412  28.511  52.657  1.00  0.00     0.000 C 
BRANCH   9  10
ATOM     10  C   UNL     1      62.430  29.108  51.673  1.00  0.00     0.000 C 
BRANCH  10  11
ATOM     11  C   UNL     1      62.985  28.033  50.732  1.00  0.00     0.000 C 
BRANCH  11  12
ATOM     12  C   UNL     1      62.776  28.429  49.263  1.00  0.00     0.006 C 
BRANCH  12  13
ATOM     13  C   UNL     1      64.102  28.629  48.517  1.00  0.00     0.053 C 
BRANCH  13  14
ATOM     14  C   UNL     1      64.497  30.073  48.450  1.00  0.00     0.041 C 
ATOM     15  O   UNL     1      65.606  30.405  47.952  1.00  0.00    -0.550 OA
ATOM     16  O   UNL     1      63.652  31.049  48.961  1.00  0.00    -0.550 OA
ENDBRANCH  13  14
ENDBRANCH  12  13
ENDBRANCH  11  12
ENDBRANCH  10  11
ENDBRANCH   9  10
ENDBRANCH   8   9
ENDBRANCH   7   8
ENDBRANCH   6   7
ENDBRANCH   5   6
ENDBRANCH   4   5
ENDBRANCH   3   4
ENDBRANCH   2   3
ENDBRANCH   1   2
BRANCH   1  17
ATOM     17  C   UNL     1      58.270  26.256  53.954  1.00  0.00     0.000 C 
BRANCH  17  18
ATOM     18  C   UNL     1      57.350  27.362  54.503  1.00  0.00     0.000 C 
BRANCH  18  19
ATOM     19  C   UNL     1      56.753  28.240  53.393  1.00  0.00     0.000 C 
BRANCH  19  20
ATOM     20  C   UNL     1      55.576  29.096  53.883  1.00  0.00     0.000 C 
BRANCH  20  21
ATOM     21  C   UNL     1      54.910  28.456  55.111  1.00  0.00     0.000 C 
BRANCH  21  22
ATOM     22  C   UNL     1      53.621  27.696  54.762  1.00  0.00    -0.000 C 
BRANCH  22  23
ATOM     23  C   UNL     1      53.712  26.196  55.091  1.00  0.00    -0.000 C 
BRANCH  23  24
ATOM     24  C   UNL     1      53.382  25.308  53.881  1.00  0.00    -0.000 C 
BRANCH  24  25
ATOM     25  C   UNL     1      54.499  25.306  52.824  1.00  0.00    -0.000 C 
BRANCH  25  26
ATOM     26  C   UNL     1      54.010  25.768  51.440  1.00  0.00    -0.000 C 
BRANCH  26  27
ATOM     27  C   UNL     1      55.108  26.342  50.521  1.00  0.00    -0.000 C 
BRANCH  27  28
ATOM     28  C   UNL     1      55.066  27.870  50.324  1.00  0.00    -0.000 C 
BRANCH  28  29
ATOM     29  C   UNL     1      53.740  28.537  50.735  1.00  0.00    -0.003 C 
ATOM     30  C   UNL     1      53.811  30.063  50.716  1.00  0.00     0.004 C 
ENDBRANCH  28  29
ENDBRANCH  27  28
ENDBRANCH  26  27
ENDBRANCH  25  26
ENDBRANCH  24  25
ENDBRANCH  23  24
ENDBRANCH  22  23
ENDBRANCH  21  22
ENDBRANCH  20  21
ENDBRANCH  19  20
ENDBRANCH  18  19
ENDBRANCH  17  18
ENDBRANCH   1  17
TORSDOF 26
ENDMDL
MODEL 2
REMARK VINA RESULT:    -2.734      4.818      7.383
REMARK INTER + INTRA:         -12.727
REMARK INTER:                  -8.289
REMARK INTRA:                  -4.439
REMARK UNBOUND:                -5.838
REMARK SMILES CCCCCCCCCCCCCCCCCCCCCCCCCCCC(=O)[O-]
REMARK SMILES IDX 15 1 16 2 17 3 18 4 19 5 20 6 21 7 22 8 23 9 24 10 25 11
REMARK SMILES IDX 26 12 27 13 28 14 29 15 30 16 14 17 13 18 12 19 11 20 10 21
REMARK SMILES IDX 9 22 8 23 7 24 6 25 5 26 4 27 3 28 2 29 1 30
REMARK H PARENT
REMARK Flexibility Score: inf
ROOT
ATOM      1  C   UNL     1      59.536  25.644  50.589  1.00  0.00     0.000 C 
ENDROOT
BRANCH   1   2
ATOM      2  C   UNL     1      60.862  26.093  51.233  1.00  0.00     0.000 C 
BRANCH   2   3
ATOM      3  C   UNL     1      60.949  25.841  52.756  1.00  0.00     0.000 C 
BRANCH   3   4
ATOM      4  C   UNL     1      60.829  24.367  53.194  1.00  0.00     0.000 C 
BRANCH   4   5
ATOM      5  C   UNL     1      59.601  24.024  54.057  1.00  0.00     0.000 C 
BRANCH   5   6
ATOM      6  C   UNL     1      58.647  23.026  53.380  1.00  0.00     0.000 C 
BRANCH   6   7
ATOM      7  C   UNL     1      57.793  22.236  54.385  1.00  0.00     0.000 C 
BRANCH   7   8
ATOM      8  C   UNL     1      56.628  21.433  53.771  1.00  0.00     0.000 C 
BRANCH   8   9
ATOM      9  C   UNL     1      56.468  20.016  54.360  1.00  0.00     0.000 C 
BRANCH   9  10
ATOM     10  C   UNL     1      56.483  18.928  53.274  1.00  0.00     0.000 C 
BRANCH  10  11
ATOM     11  C   UNL     1      55.826  19.426  51.983  1.00  0.00     0.000 C 
BRANCH  11  12
ATOM     12  C   UNL     1      56.370  18.669  50.763  1.00  0.00     0.006 C 
BRANCH  12  13
ATOM     13  C   UNL     1      57.652  17.889  51.083  1.00  0.00     0.053 C 
BRANCH  13  14
ATOM     14  C   UNL     1      58.868  18.545  50.501  1.00  0.00     0.041 C 
ATOM     15  O   UNL     1      60.015  18.076  50.736  1.00  0.00    -0.550 OA
ATOM     16  O   UNL     1      58.737  19.687  49.722  1.00  0.00    -0.550 OA
ENDBRANCH  13  14
ENDBRANCH  12  13
ENDBRANCH  11  12
ENDBRANCH  10  11
ENDBRANCH   9  10
ENDBRANCH   8   9
ENDBRANCH   7   8
ENDBRANCH   6   7
ENDBRANCH   5   6
ENDBRANCH   4   5
ENDBRANCH   3   4
ENDBRANCH   2   3
ENDBRANCH   1   2
BRANCH   1  17
ATOM     17  C   UNL     1      58.812  26.760  49.810  1.00  0.00     0.000 C 
BRANCH  17  18
ATOM     18  C   UNL     1      59.696  28.008  49.632  1.00  0.00     0.000 C 
BRANCH  18  19
ATOM     19  C   UNL     1      58.883  29.312  49.614  1.00  0.00     0.000 C 
BRANCH  19  20
ATOM     20  C   UNL     1      57.647  29.251  50.522  1.00  0.00     0.000 C 
BRANCH  20  21
ATOM     21  C   UNL     1      57.907  29.984  51.847  1.00  0.00     0.000 C 
BRANCH  21  22
ATOM     22  C   UNL     1      57.306  29.256  53.060  1.00  0.00    -0.000 C 
BRANCH  22  23
ATOM     23  C   UNL     1      57.917  27.860  53.271  1.00  0.00    -0.000 C 
BRANCH  23  24
ATOM     24  C   UNL     1      56.870  26.821  53.704  1.00  0.00    -0.000 C 
BRANCH  24  25
ATOM     25  C   UNL     1      56.560  25.796  52.599  1.00  0.00    -0.000 C 
BRANCH  25  26
ATOM     26  C   UNL     1      55.154  25.972  52.001  1.00  0.00    -0.000 C 
BRANCH  26  27
ATOM     27  C   UNL     1      55.127  26.369  50.511  1.00  0.00    -0.000 C 
BRANCH  27  28
ATOM     28  C   UNL     1      54.267  27.605  50.177  1.00  0.00    -0.000 C 
BRANCH  28  29
ATOM     29  C   UNL     1      54.101  28.607  51.335  1.00  0.00    -0.003 C 
ATOM     30  C   UNL     1      54.046  30.058  50.862  1.00  0.00     0.004 C 
ENDBRANCH  28  29
ENDBRANCH  27  28
ENDBRANCH  26  27
ENDBRANCH  25  26
ENDBRANCH  24  25
ENDBRANCH  23  24
ENDBRANCH  22  23
ENDBRANCH  21  22
ENDBRANCH  20  21
ENDBRANCH  19  20
ENDBRANCH  18  19
ENDBRANCH  17  18
ENDBRANCH   1  17
TORSDOF 26
ENDMDL
MODEL 3
REMARK VINA RESULT:    -2.718      1.906      5.293
REMARK INTER + INTRA:         -12.688
REMARK INTER:                  -6.922
REMARK INTRA:                  -5.765
REMARK UNBOUND:                -5.838
REMARK SMILES CCCCCCCCCCCCCCCCCCCCCCCCCCCC(=O)[O-]
REMARK SMILES IDX 15 1 16 2 17 3 18 4 19 5 20 6 21 7 22 8 23 9 24 10 25 11
REMARK SMILES IDX 26 12 27 13 28 14 29 15 30 16 14 17 13 18 12 19 11 20 10 21
REMARK SMILES IDX 9 22 8 23 7 24 6 25 5 26 4 27 3 28 2 29 1 30
REMARK H PARENT
REMARK Flexibility Score: inf
ROOT
ATOM      1  C   UNL     1      54.143  26.928  49.981  1.00  0.00     0.000 C 
ENDROOT
BRANCH   1   2
ATOM      2  C   UNL     1      53.722  25.495  50.356  1.00  0.00     0.000 C 
BRANCH   2   3
ATOM      3  C   UNL     1      53.052  25.370  51.744  1.00  0.00     0.000 C 
BRANCH   3   4
ATOM      4  C   UNL     1      54.019  25.214  52.937  1.00  0.00     0.000 C 
BRANCH   4   5
ATOM      5  C   UNL     1      54.547  26.527  53.544  1.00  0.00     0.000 C 
BRANCH   5   6
ATOM      6  C   UNL     1      56.082  26.586  53.609  1.00  0.00     0.000 C 
BRANCH   6   7
ATOM      7  C   UNL     1      56.760  25.650  52.594  1.00  0.00     0.000 C 
BRANCH   7   8
ATOM      8  C   UNL     1      58.052  26.200  51.953  1.00  0.00     0.000 C 
BRANCH   8   9
ATOM      9  C   UNL     1      57.851  26.770  50.533  1.00  0.00     0.000 C 
BRANCH   9  10
ATOM     10  C   UNL     1      59.161  27.292  49.924  1.00  0.00     0.000 C 
BRANCH  10  11
ATOM     11  C   UNL     1      59.007  28.738  49.441  1.00  0.00     0.000 C 
BRANCH  11  12
ATOM     12  C   UNL     1      59.841  29.697  50.304  1.00  0.00     0.006 C 
BRANCH  12  13
ATOM     13  C   UNL     1      61.037  28.998  50.965  1.00  0.00     0.053 C 
BRANCH  13  14
ATOM     14  C   UNL     1      62.286  29.128  50.145  1.00  0.00     0.041 C 
ATOM     15  O   UNL     1      62.673  28.170  49.423  1.00  0.00    -0.550 OA
ATOM     16  O   UNL     1      63.035  30.296  50.200  1.00  0.00    -0.550 OA
ENDBRANCH  13  14
ENDBRANCH  12  13
ENDBRANCH  11  12
ENDBRANCH  10  11
ENDBRANCH   9  10
ENDBRANCH   8   9
ENDBRANCH   7   8
ENDBRANCH   6   7
ENDBRANCH   5   6
ENDBRANCH   4   5
ENDBRANCH   3   4
ENDBRANCH   2   3
ENDBRANCH   1   2
BRANCH   1  17
ATOM     17  C   UNL     1      53.040  27.982  50.206  1.00  0.00     0.000 C 
BRANCH  17  18
ATOM     18  C   UNL     1      53.618  29.338  50.649  1.00  0.00     0.000 C 
BRANCH  18  19
ATOM     19  C   UNL     1      55.137  29.289  50.875  1.00  0.00     0.000 C 
BRANCH  19  20
ATOM     20  C   UNL     1      55.563  29.967  52.185  1.00  0.00     0.000 C 
BRANCH  20  21
ATOM     21  C   UNL     1      57.077  29.825  52.407  1.00  0.00     0.000 C 
BRANCH  21  22
ATOM     22  C   UNL     1      57.708  31.079  53.031  1.00  0.00    -0.000 C 
BRANCH  22  23
ATOM     23  C   UNL     1      58.679  30.741  54.177  1.00  0.00    -0.000 C 
BRANCH  23  24
ATOM     24  C   UNL     1      58.715  29.237  54.492  1.00  0.00    -0.000 C 
BRANCH  24  25
ATOM     25  C   UNL     1      58.904  28.951  55.992  1.00  0.00    -0.000 C 
BRANCH  25  26
ATOM     26  C   UNL     1      57.701  29.402  56.840  1.00  0.00    -0.000 C 
BRANCH  26  27
ATOM     27  C   UNL     1      56.338  28.846  56.380  1.00  0.00    -0.000 C 
BRANCH  27  28
ATOM     28  C   UNL     1      55.325  29.907  55.903  1.00  0.00    -0.000 C 
BRANCH  28  29
ATOM     29  C   UNL     1      55.442  31.272  56.605  1.00  0.00    -0.003 C 
ATOM     30  C   UNL     1      55.519  32.440  55.624  1.00  0.00     0.004 C 
ENDBRANCH  28  29
ENDBRANCH  27  28
ENDBRANCH  26  27
ENDBRANCH  25  26
ENDBRANCH  24  25
ENDBRANCH  23  24
ENDBRANCH  22  23
ENDBRANCH  21  22
ENDBRANCH  20  21
ENDBRANCH  19  20
ENDBRANCH  18  19
ENDBRANCH  17  18
ENDBRANCH   1  17
TORSDOF 26
ENDMDL
MODEL 4
REMARK VINA RESULT:    -2.643      1.744      3.437
REMARK INTER + INTRA:         -12.498
REMARK INTER:                  -7.410
REMARK INTRA:                  -5.088
REMARK UNBOUND:                -5.838
REMARK SMILES CCCCCCCCCCCCCCCCCCCCCCCCCCCC(=O)[O-]
REMARK SMILES IDX 15 1 16 2 17 3 18 4 19 5 20 6 21 7 22 8 23 9 24 10 25 11
REMARK SMILES IDX 26 12 27 13 28 14 29 15 30 16 14 17 13 18 12 19 11 20 10 21
REMARK SMILES IDX 9 22 8 23 7 24 6 25 5 26 4 27 3 28 2 29 1 30
REMARK H PARENT
REMARK Flexibility Score: inf
ROOT
ATOM      1  C   UNL     1      61.044  24.709  50.675  1.00  0.00     0.000 C 
ENDROOT
BRANCH   1   2
ATOM      2  C   UNL     1      61.436  26.060  51.305  1.00  0.00     0.000 C 
BRANCH   2   3
ATOM      3  C   UNL     1      61.236  27.278  50.376  1.00  0.00     0.000 C 
BRANCH   3   4
ATOM      4  C   UNL     1      59.795  27.501  49.871  1.00  0.00     0.000 C 
BRANCH   4   5
ATOM      5  C   UNL     1      59.534  28.844  49.166  1.00  0.00     0.000 C 
BRANCH   5   6
ATOM      6  C   UNL     1      58.394  29.650  49.810  1.00  0.00     0.000 C 
BRANCH   6   7
ATOM      7  C   UNL     1      57.420  28.773  50.615  1.00  0.00     0.000 C 
BRANCH   7   8
ATOM      8  C   UNL     1      57.175  29.225  52.069  1.00  0.00     0.000 C 
BRANCH   8   9
ATOM      9  C   UNL     1      58.342  30.030  52.679  1.00  0.00     0.000 C 
BRANCH   9  10
ATOM     10  C   UNL     1      59.527  29.134  53.070  1.00  0.00     0.000 C 
BRANCH  10  11
ATOM     11  C   UNL     1      60.819  29.949  53.192  1.00  0.00     0.000 C 
BRANCH  11  12
ATOM     12  C   UNL     1      60.990  30.890  51.989  1.00  0.00     0.006 C 
BRANCH  12  13
ATOM     13  C   UNL     1      62.464  31.197  51.692  1.00  0.00     0.053 C 
BRANCH  13  14
ATOM     14  C   UNL     1      62.759  31.165  50.223  1.00  0.00     0.041 C 
ATOM     15  O   UNL     1      62.686  32.222  49.539  1.00  0.00    -0.550 OA
ATOM     16  O   UNL     1      63.088  29.966  49.605  1.00  0.00    -0.550 OA
ENDBRANCH  13  14
ENDBRANCH  12  13
ENDBRANCH  11  12
ENDBRANCH  10  11
ENDBRANCH   9  10
ENDBRANCH   8   9
ENDBRANCH   7   8
ENDBRANCH   6   7
ENDBRANCH   5   6
ENDBRANCH   4   5
ENDBRANCH   3   4
ENDBRANCH   2   3
ENDBRANCH   1   2
BRANCH   1  17
ATOM     17  C   UNL     1      59.987  23.928  51.481  1.00  0.00     0.000 C 
BRANCH  17  18
ATOM     18  C   UNL     1      59.615  24.643  52.793  1.00  0.00     0.000 C 
BRANCH  18  19
ATOM     19  C   UNL     1      58.124  24.508  53.139  1.00  0.00     0.000 C 
BRANCH  19  20
ATOM     20  C   UNL     1      57.246  25.512  52.378  1.00  0.00     0.000 C 
BRANCH  20  21
ATOM     21  C   UNL     1      56.020  25.909  53.215  1.00  0.00     0.000 C 
BRANCH  21  22
ATOM     22  C   UNL     1      54.795  26.250  52.353  1.00  0.00    -0.000 C 
BRANCH  22  23
ATOM     23  C   UNL     1      55.082  26.130  50.846  1.00  0.00    -0.000 C 
BRANCH  23  24
ATOM     24  C   UNL     1      54.035  26.860  49.989  1.00  0.00    -0.000 C 
BRANCH  24  25
ATOM     25  C   UNL     1      53.278  27.945  50.774  1.00  0.00    -0.000 C 
BRANCH  25  26
ATOM     26  C   UNL     1      53.760  29.367  50.439  1.00  0.00    -0.000 C 
BRANCH  26  27
ATOM     27  C   UNL     1      53.720  30.361  51.618  1.00  0.00    -0.000 C 
BRANCH  27  28
ATOM     28  C   UNL     1      53.304  29.754  52.973  1.00  0.00    -0.000 C 
BRANCH  28  29
ATOM     29  C   UNL     1      54.311  29.976  54.116  1.00  0.00    -0.003 C 
ATOM     30  C   UNL     1      54.379  28.798  55.087  1.00  0.00     0.004 C 
ENDBRANCH  28  29
ENDBRANCH  27  28
ENDBRANCH  26  27
ENDBRANCH  25  26
ENDBRANCH  24  25
ENDBRANCH  23  24
ENDBRANCH  22  23
ENDBRANCH  21  22
ENDBRANCH  20  21
ENDBRANCH  19  20
ENDBRANCH  18  19
ENDBRANCH  17  18
ENDBRANCH   1  17
TORSDOF 26
ENDMDL
MODEL 5
REMARK VINA RESULT:    -2.637      3.526      7.516
REMARK INTER + INTRA:         -12.484
REMARK INTER:                  -7.962
REMARK INTRA:                  -4.522
REMARK UNBOUND:                -5.838
REMARK SMILES CCCCCCCCCCCCCCCCCCCCCCCCCCCC(=O)[O-]
REMARK SMILES IDX 15 1 16 2 17 3 18 4 19 5 20 6 21 7 22 8 23 9 24 10 25 11
REMARK SMILES IDX 26 12 27 13 28 14 29 15 30 16 14 17 13 18 12 19 11 20 10 21
REMARK SMILES IDX 9 22 8 23 7 24 6 25 5 26 4 27 3 28 2 29 1 30
REMARK H PARENT
REMARK Flexibility Score: inf
ROOT
ATOM      1  C   UNL     1      57.682  25.831  52.216  1.00  0.00     0.000 C 
ENDROOT
BRANCH   1   2
ATOM      2  C   UNL     1      56.189  25.996  51.871  1.00  0.00     0.000 C 
BRANCH   2   3
ATOM      3  C   UNL     1      55.916  26.448  50.419  1.00  0.00     0.000 C 
BRANCH   3   4
ATOM      4  C   UNL     1      54.438  26.414  49.978  1.00  0.00     0.000 C 
BRANCH   4   5
ATOM      5  C   UNL     1      53.608  27.663  50.328  1.00  0.00     0.000 C 
BRANCH   5   6
ATOM      6  C   UNL     1      54.470  28.915  50.558  1.00  0.00     0.000 C 
BRANCH   6   7
ATOM      7  C   UNL     1      53.635  30.196  50.719  1.00  0.00     0.000 C 
BRANCH   7   8
ATOM      8  C   UNL     1      53.657  30.823  52.129  1.00  0.00     0.000 C 
BRANCH   8   9
ATOM      9  C   UNL     1      55.067  30.924  52.747  1.00  0.00     0.000 C 
BRANCH   9  10
ATOM     10  C   UNL     1      55.031  30.937  54.282  1.00  0.00     0.000 C 
BRANCH  10  11
ATOM     11  C   UNL     1      56.306  31.562  54.859  1.00  0.00     0.000 C 
BRANCH  11  12
ATOM     12  C   UNL     1      56.516  31.132  56.319  1.00  0.00     0.006 C 
BRANCH  12  13
ATOM     13  C   UNL     1      57.997  30.926  56.661  1.00  0.00     0.053 C 
BRANCH  13  14
ATOM     14  C   UNL     1      58.345  31.478  58.010  1.00  0.00     0.041 C 
ATOM     15  O   UNL     1      59.236  30.928  58.710  1.00  0.00    -0.550 OA
ATOM     16  O   UNL     1      57.666  32.585  58.504  1.00  0.00    -0.550 OA
ENDBRANCH  13  14
ENDBRANCH  12  13
ENDBRANCH  11  12
ENDBRANCH  10  11
ENDBRANCH   9  10
ENDBRANCH   8   9
ENDBRANCH   7   8
ENDBRANCH   6   7
ENDBRANCH   5   6
ENDBRANCH   4   5
ENDBRANCH   3   4
ENDBRANCH   2   3
ENDBRANCH   1   2
BRANCH   1  17
ATOM     17  C   UNL     1      58.193  26.831  53.272  1.00  0.00     0.000 C 
BRANCH  17  18
ATOM     18  C   UNL     1      57.592  28.235  53.077  1.00  0.00     0.000 C 
BRANCH  18  19
ATOM     19  C   UNL     1      58.636  29.352  53.227  1.00  0.00     0.000 C 
BRANCH  19  20
ATOM     20  C   UNL     1      58.728  30.247  51.982  1.00  0.00     0.000 C 
BRANCH  20  21
ATOM     21  C   UNL     1      57.974  29.618  50.801  1.00  0.00     0.000 C 
BRANCH  21  22
ATOM     22  C   UNL     1      58.892  29.285  49.615  1.00  0.00    -0.000 C 
BRANCH  22  23
ATOM     23  C   UNL     1      59.303  27.803  49.586  1.00  0.00    -0.000 C 
BRANCH  23  24
ATOM     24  C   UNL     1      60.553  27.522  50.436  1.00  0.00    -0.000 C 
BRANCH  24  25
ATOM     25  C   UNL     1      61.821  28.175  49.858  1.00  0.00    -0.000 C 
BRANCH  25  26
ATOM     26  C   UNL     1      62.917  28.387  50.918  1.00  0.00    -0.000 C 
BRANCH  26  27
ATOM     27  C   UNL     1      63.415  29.840  51.055  1.00  0.00    -0.000 C 
BRANCH  27  28
ATOM     28  C   UNL     1      62.336  30.868  51.454  1.00  0.00    -0.000 C 
BRANCH  28  29
ATOM     29  C   UNL     1      61.803  31.727  50.294  1.00  0.00    -0.003 C 
ATOM     30  C   UNL     1      62.905  32.502  49.573  1.00  0.00     0.004 C 
ENDBRANCH  28  29
ENDBRANCH  27  28
ENDBRANCH  26  27
ENDBRANCH  25  26
ENDBRANCH  24  25
ENDBRANCH  23  24
ENDBRANCH  22  23
ENDBRANCH  21  22
ENDBRANCH  20  21
ENDBRANCH  19  20
ENDBRANCH  18  19
ENDBRANCH  17  18
ENDBRANCH   1  17
TORSDOF 26
ENDMDL
MODEL 6
REMARK VINA RESULT:    -2.635      2.113      5.083
REMARK INTER + INTRA:         -12.479
REMARK INTER:                  -7.144
REMARK INTRA:                  -5.335
REMARK UNBOUND:                -5.838
REMARK SMILES CCCCCCCCCCCCCCCCCCCCCCCCCCCC(=O)[O-]
REMARK SMILES IDX 15 1 16 2 17 3 18 4 19 5 20 6 21 7 22 8 23 9 24 10 25 11
REMARK SMILES IDX 26 12 27 13 28 14 29 15 30 16 14 17 13 18 12 19 11 20 10 21
REMARK SMILES IDX 9 22 8 23 7 24 6 25 5 26 4 27 3 28 2 29 1 30
REMARK H PARENT
REMARK Flexibility Score: inf
ROOT
ATOM      1  C   UNL     1      54.647  25.910  51.541  1.00  0.00     0.000 C 
ENDROOT
BRANCH   1   2
ATOM      2  C   UNL     1      55.009  26.484  52.925  1.00  0.00     0.000 C 
BRANCH   2   3
ATOM      3  C   UNL     1      56.245  25.830  53.582  1.00  0.00     0.000 C 
BRANCH   3   4
ATOM      4  C   UNL     1      57.389  26.795  53.957  1.00  0.00     0.000 C 
BRANCH   4   5
ATOM      5  C   UNL     1      58.192  27.370  52.776  1.00  0.00     0.000 C 
BRANCH   5   6
ATOM      6  C   UNL     1      59.480  26.583  52.483  1.00  0.00     0.000 C 
BRANCH   6   7
ATOM      7  C   UNL     1      59.458  25.886  51.112  1.00  0.00     0.000 C 
BRANCH   7   8
ATOM      8  C   UNL     1      58.811  26.699  49.971  1.00  0.00     0.000 C 
BRANCH   8   9
ATOM      9  C   UNL     1      59.632  27.930  49.538  1.00  0.00     0.000 C 
BRANCH   9  10
ATOM     10  C   UNL     1      58.772  29.199  49.438  1.00  0.00     0.000 C 
BRANCH  10  11
ATOM     11  C   UNL     1      59.029  30.136  50.623  1.00  0.00     0.000 C 
BRANCH  11  12
ATOM     12  C   UNL     1      60.453  29.954  51.168  1.00  0.00     0.006 C 
BRANCH  12  13
ATOM     13  C   UNL     1      61.194  31.288  51.326  1.00  0.00     0.053 C 
BRANCH  13  14
ATOM     14  C   UNL     1      62.283  31.450  50.309  1.00  0.00     0.041 C 
ATOM     15  O   UNL     1      62.301  32.459  49.554  1.00  0.00    -0.550 OA
ATOM     16  O   UNL     1      63.263  30.475  50.180  1.00  0.00    -0.550 OA
ENDBRANCH  13  14
ENDBRANCH  12  13
ENDBRANCH  11  12
ENDBRANCH  10  11
ENDBRANCH   9  10
ENDBRANCH   8   9
ENDBRANCH   7   8
ENDBRANCH   6   7
ENDBRANCH   5   6
ENDBRANCH   4   5
ENDBRANCH   3   4
ENDBRANCH   2   3
ENDBRANCH   1   2
BRANCH   1  17
ATOM     17  C   UNL     1      55.204  26.731  50.360  1.00  0.00     0.000 C 
BRANCH  17  18
ATOM     18  C   UNL     1      55.287  28.232  50.688  1.00  0.00     0.000 C 
BRANCH  18  19
ATOM     19  C   UNL     1      53.965  28.971  50.423  1.00  0.00     0.000 C 
BRANCH  19  20
ATOM     20  C   UNL     1      53.844  30.273  51.227  1.00  0.00     0.000 C 
BRANCH  20  21
ATOM     21  C   UNL     1      54.021  30.007  52.729  1.00  0.00     0.000 C 
BRANCH  21  22
ATOM     22  C   UNL     1      54.976  31.004  53.404  1.00  0.00    -0.000 C 
BRANCH  22  23
ATOM     23  C   UNL     1      56.454  30.618  53.223  1.00  0.00    -0.000 C 
BRANCH  23  24
ATOM     24  C   UNL     1      57.409  31.768  53.584  1.00  0.00    -0.000 C 
BRANCH  24  25
ATOM     25  C   UNL     1      58.682  31.279  54.298  1.00  0.00    -0.000 C 
BRANCH  25  26
ATOM     26  C   UNL     1      58.415  30.098  55.248  1.00  0.00    -0.000 C 
BRANCH  26  27
ATOM     27  C   UNL     1      58.345  30.471  56.743  1.00  0.00    -0.000 C 
BRANCH  27  28
ATOM     28  C   UNL     1      56.999  30.166  57.432  1.00  0.00    -0.000 C 
BRANCH  28  29
ATOM     29  C   UNL     1      55.849  31.116  57.050  1.00  0.00    -0.003 C 
ATOM     30  C   UNL     1      56.220  32.590  57.204  1.00  0.00     0.004 C 
ENDBRANCH  28  29
ENDBRANCH  27  28
ENDBRANCH  26  27
ENDBRANCH  25  26
ENDBRANCH  24  25
ENDBRANCH  23  24
ENDBRANCH  22  23
ENDBRANCH  21  22
ENDBRANCH  20  21
ENDBRANCH  19  20
ENDBRANCH  18  19
ENDBRANCH  17  18
ENDBRANCH   1  17
TORSDOF 26
ENDMDL
MODEL 7
REMARK VINA RESULT:    -2.589      3.423      6.066
REMARK INTER + INTRA:         -12.363
REMARK INTER:                  -7.320
REMARK INTRA:                  -5.043
REMARK UNBOUND:                -5.838
REMARK SMILES CCCCCCCCCCCCCCCCCCCCCCCCCCCC(=O)[O-]
REMARK SMILES IDX 15 1 16 2 17 3 18 4 19 5 20 6 21 7 22 8 23 9 24 10 25 11
REMARK SMILES IDX 26 12 27 13 28 14 29 15 30 16 14 17 13 18 12 19 11 20 10 21
REMARK SMILES IDX 9 22 8 23 7 24 6 25 5 26 4 27 3 28 2 29 1 30
REMARK H PARENT
REMARK Flexibility Score: inf
ROOT
ATOM      1  C   UNL     1      53.838  28.005  50.385  1.00  0.00     0.000 C 
ENDROOT
BRANCH   1   2
ATOM      2  C   UNL     1      54.536  26.661  50.100  1.00  0.00     0.000 C 
BRANCH   2   3
ATOM      3  C   UNL     1      56.056  26.661  50.379  1.00  0.00     0.000 C 
BRANCH   3   4
ATOM      4  C   UNL     1      56.481  26.088  51.747  1.00  0.00     0.000 C 
BRANCH   4   5
ATOM      5  C   UNL     1      57.681  26.779  52.418  1.00  0.00     0.000 C 
BRANCH   5   6
ATOM      6  C   UNL     1      57.266  27.880  53.408  1.00  0.00     0.000 C 
BRANCH   6   7
ATOM      7  C   UNL     1      58.237  29.072  53.420  1.00  0.00     0.000 C 
BRANCH   7   8
ATOM      8  C   UNL     1      58.007  30.120  52.310  1.00  0.00     0.000 C 
BRANCH   8   9
ATOM      9  C   UNL     1      59.082  30.104  51.204  1.00  0.00     0.000 C 
BRANCH   9  10
ATOM     10  C   UNL     1      58.511  29.679  49.842  1.00  0.00     0.000 C 
BRANCH  10  11
ATOM     11  C   UNL     1      59.197  28.408  49.328  1.00  0.00     0.000 C 
BRANCH  11  12
ATOM     12  C   UNL     1      60.567  28.217  49.994  1.00  0.00     0.006 C 
BRANCH  12  13
ATOM     13  C   UNL     1      60.779  26.782  50.494  1.00  0.00     0.053 C 
BRANCH  13  14
ATOM     14  C   UNL     1      61.448  26.748  51.835  1.00  0.00     0.041 C 
ATOM     15  O   UNL     1      61.404  27.754  52.593  1.00  0.00    -0.550 OA
ATOM     16  O   UNL     1      62.142  25.614  52.237  1.00  0.00    -0.550 OA
ENDBRANCH  13  14
ENDBRANCH  12  13
ENDBRANCH  11  12
ENDBRANCH  10  11
ENDBRANCH   9  10
ENDBRANCH   8   9
ENDBRANCH   7   8
ENDBRANCH   6   7
ENDBRANCH   5   6
ENDBRANCH   4   5
ENDBRANCH   3   4
ENDBRANCH   2   3
ENDBRANCH   1   2
BRANCH   1  17
ATOM     17  C   UNL     1      54.809  29.150  50.737  1.00  0.00     0.000 C 
BRANCH  17  18
ATOM     18  C   UNL     1      54.206  30.123  51.768  1.00  0.00     0.000 C 
BRANCH  18  19
ATOM     19  C   UNL     1      53.948  29.457  53.128  1.00  0.00     0.000 C 
BRANCH  19  20
ATOM     20  C   UNL     1      54.535  30.258  54.300  1.00  0.00     0.000 C 
BRANCH  20  21
ATOM     21  C   UNL     1      55.155  31.573  53.805  1.00  0.00     0.000 C 
BRANCH  21  22
ATOM     22  C   UNL     1      54.951  32.736  54.789  1.00  0.00    -0.000 C 
BRANCH  22  23
ATOM     23  C   UNL     1      55.960  33.877  54.570  1.00  0.00    -0.000 C 
BRANCH  23  24
ATOM     24  C   UNL     1      56.952  33.575  53.435  1.00  0.00    -0.000 C 
BRANCH  24  25
ATOM     25  C   UNL     1      58.412  33.532  53.920  1.00  0.00    -0.000 C 
BRANCH  25  26
ATOM     26  C   UNL     1      58.638  32.499  55.037  1.00  0.00    -0.000 C 
BRANCH  26  27
ATOM     27  C   UNL     1      59.282  33.061  56.321  1.00  0.00    -0.000 C 
BRANCH  27  28
ATOM     28  C   UNL     1      58.290  33.603  57.369  1.00  0.00    -0.000 C 
BRANCH  28  29
ATOM     29  C   UNL     1      58.257  32.818  58.693  1.00  0.00    -0.003 C 
ATOM     30  C   UNL     1      58.935  31.452  58.591  1.00  0.00     0.004 C 
ENDBRANCH  28  29
ENDBRANCH  27  28
ENDBRANCH  26  27
ENDBRANCH  25  26
ENDBRANCH  24  25
ENDBRANCH  23  24
ENDBRANCH  22  23
ENDBRANCH  21  22
ENDBRANCH  20  21
ENDBRANCH  19  20
ENDBRANCH  18  19
ENDBRANCH  17  18
ENDBRANCH   1  17
TORSDOF 26
ENDMDL
MODEL 8
REMARK VINA RESULT:    -2.582      1.992      4.160
REMARK INTER + INTRA:         -12.344
REMARK INTER:                  -8.457
REMARK INTRA:                  -3.888
REMARK UNBOUND:                -5.838
REMARK SMILES CCCCCCCCCCCCCCCCCCCCCCCCCCCC(=O)[O-]
REMARK SMILES IDX 15 1 16 2 17 3 18 4 19 5 20 6 21 7 22 8 23 9 24 10 25 11
REMARK SMILES IDX 26 12 27 13 28 14 29 15 30 16 14 17 13 18 12 19 11 20 10 21
REMARK SMILES IDX 9 22 8 23 7 24 6 25 5 26 4 27 3 28 2 29 1 30
REMARK H PARENT
REMARK Flexibility Score: inf
ROOT
ATOM      1  C   UNL     1      60.123  26.930  49.960  1.00  0.00     0.000 C 
ENDROOT
BRANCH   1   2
ATOM      2  C   UNL     1      60.008  26.306  51.364  1.00  0.00     0.000 C 
BRANCH   2   3
ATOM      3  C   UNL     1      61.362  25.928  52.006  1.00  0.00     0.000 C 
BRANCH   3   4
ATOM      4  C   UNL     1      62.453  25.453  51.025  1.00  0.00     0.000 C 
BRANCH   4   5
ATOM      5  C   UNL     1      63.761  26.266  51.035  1.00  0.00     0.000 C 
BRANCH   5   6
ATOM      6  C   UNL     1      63.791  27.371  49.966  1.00  0.00     0.000 C 
BRANCH   6   7
ATOM      7  C   UNL     1      65.206  27.651  49.433  1.00  0.00     0.000 C 
BRANCH   7   8
ATOM      8  C   UNL     1      65.273  28.163  47.979  1.00  0.00     0.000 C 
BRANCH   8   9
ATOM      9  C   UNL     1      64.783  29.615  47.805  1.00  0.00     0.000 C 
BRANCH   9  10
ATOM     10  C   UNL     1      65.944  30.616  47.717  1.00  0.00     0.000 C 
BRANCH  10  11
ATOM     11  C   UNL     1      65.974  31.538  48.941  1.00  0.00     0.000 C 
BRANCH  11  12
ATOM     12  C   UNL     1      64.613  31.549  49.652  1.00  0.00     0.006 C 
BRANCH  12  13
ATOM     13  C   UNL     1      63.989  32.950  49.699  1.00  0.00     0.053 C 
BRANCH  13  14
ATOM     14  C   UNL     1      62.506  32.912  49.484  1.00  0.00     0.041 C 
ATOM     15  O   UNL     1      61.923  33.871  48.910  1.00  0.00    -0.550 OA
ATOM     16  O   UNL     1      61.765  31.830  49.941  1.00  0.00    -0.550 OA
ENDBRANCH  13  14
ENDBRANCH  12  13
ENDBRANCH  11  12
ENDBRANCH  10  11
ENDBRANCH   9  10
ENDBRANCH   8   9
ENDBRANCH   7   8
ENDBRANCH   6   7
ENDBRANCH   5   6
ENDBRANCH   4   5
ENDBRANCH   3   4
ENDBRANCH   2   3
ENDBRANCH   1   2
BRANCH   1  17
ATOM     17  C   UNL     1      60.265  28.465  49.969  1.00  0.00     0.000 C 
BRANCH  17  18
ATOM     18  C   UNL     1      59.069  29.160  49.293  1.00  0.00     0.000 C 
BRANCH  18  19
ATOM     19  C   UNL     1      58.055  29.713  50.306  1.00  0.00     0.000 C 
BRANCH  19  20
ATOM     20  C   UNL     1      58.618  29.774  51.733  1.00  0.00     0.000 C 
BRANCH  20  21
ATOM     21  C   UNL     1      57.609  30.428  52.691  1.00  0.00     0.000 C 
BRANCH  21  22
ATOM     22  C   UNL     1      56.830  29.402  53.528  1.00  0.00    -0.000 C 
BRANCH  22  23
ATOM     23  C   UNL     1      57.385  27.974  53.378  1.00  0.00    -0.000 C 
BRANCH  23  24
ATOM     24  C   UNL     1      56.273  26.914  53.334  1.00  0.00    -0.000 C 
BRANCH  24  25
ATOM     25  C   UNL     1      56.340  26.037  52.071  1.00  0.00    -0.000 C 
BRANCH  25  26
ATOM     26  C   UNL     1      56.048  26.827  50.783  1.00  0.00    -0.000 C 
BRANCH  26  27
ATOM     27  C   UNL     1      54.670  27.520  50.744  1.00  0.00    -0.000 C 
BRANCH  27  28
ATOM     28  C   UNL     1      54.702  29.022  50.397  1.00  0.00    -0.000 C 
BRANCH  28  29
ATOM     29  C   UNL     1      53.457  29.813  50.839  1.00  0.00    -0.003 C 
ATOM     30  C   UNL     1      53.728  30.731  52.029  1.00  0.00     0.004 C 
ENDBRANCH  28  29
ENDBRANCH  27  28
ENDBRANCH  26  27
ENDBRANCH  25  26
ENDBRANCH  24  25
ENDBRANCH  23  24
ENDBRANCH  22  23
ENDBRANCH  21  22
ENDBRANCH  20  21
ENDBRANCH  19  20
ENDBRANCH  18  19
ENDBRANCH  17  18
ENDBRANCH   1  17
TORSDOF 26
ENDMDL
MODEL 9
REMARK VINA RESULT:    -2.568      2.641      4.284
REMARK INTER + INTRA:         -12.310
REMARK INTER:                  -6.584
REMARK INTRA:                  -5.726
REMARK UNBOUND:                -5.838
REMARK SMILES CCCCCCCCCCCCCCCCCCCCCCCCCCCC(=O)[O-]
REMARK SMILES IDX 15 1 16 2 17 3 18 4 19 5 20 6 21 7 22 8 23 9 24 10 25 11
REMARK SMILES IDX 26 12 27 13 28 14 29 15 30 16 14 17 13 18 12 19 11 20 10 21
REMARK SMILES IDX 9 22 8 23 7 24 6 25 5 26 4 27 3 28 2 29 1 30
REMARK H PARENT
REMARK Flexibility Score: inf
ROOT
ATOM      1  C   UNL     1      58.383  25.759  51.244  1.00  0.00     0.000 C 
ENDROOT
BRANCH   1   2
ATOM      2  C   UNL     1      58.093  26.674  50.039  1.00  0.00     0.000 C 
BRANCH   2   3
ATOM      3  C   UNL     1      59.261  27.610  49.654  1.00  0.00     0.000 C 
BRANCH   3   4
ATOM      4  C   UNL     1      58.918  29.114  49.600  1.00  0.00     0.000 C 
BRANCH   4   5
ATOM      5  C   UNL     1      57.931  29.613  50.671  1.00  0.00     0.000 C 
BRANCH   5   6
ATOM      6  C   UNL     1      58.626  30.309  51.853  1.00  0.00     0.000 C 
BRANCH   6   7
ATOM      7  C   UNL     1      60.161  30.258  51.760  1.00  0.00     0.000 C 
BRANCH   7   8
ATOM      8  C   UNL     1      60.873  29.615  52.968  1.00  0.00     0.000 C 
BRANCH   8   9
ATOM      9  C   UNL     1      61.470  28.223  52.673  1.00  0.00     0.000 C 
BRANCH   9  10
ATOM     10  C   UNL     1      62.451  28.248  51.491  1.00  0.00     0.000 C 
BRANCH  10  11
ATOM     11  C   UNL     1      63.099  26.875  51.282  1.00  0.00     0.000 C 
BRANCH  11  12
ATOM     12  C   UNL     1      62.098  25.883  50.674  1.00  0.00     0.006 C 
BRANCH  12  13
ATOM     13  C   UNL     1      62.300  24.454  51.195  1.00  0.00     0.053 C 
BRANCH  13  14
ATOM     14  C   UNL     1      62.397  24.410  52.690  1.00  0.00     0.041 C 
ATOM     15  O   UNL     1      63.474  24.065  53.246  1.00  0.00    -0.550 OA
ATOM     16  O   UNL     1      61.290  24.725  53.468  1.00  0.00    -0.550 OA
ENDBRANCH  13  14
ENDBRANCH  12  13
ENDBRANCH  11  12
ENDBRANCH  10  11
ENDBRANCH   9  10
ENDBRANCH   8   9
ENDBRANCH   7   8
ENDBRANCH   6   7
ENDBRANCH   5   6
ENDBRANCH   4   5
ENDBRANCH   3   4
ENDBRANCH   2   3
ENDBRANCH   1   2
BRANCH   1  17
ATOM     17  C   UNL     1      58.364  26.489  52.602  1.00  0.00     0.000 C 
BRANCH  17  18
ATOM     18  C   UNL     1      56.938  26.891  53.021  1.00  0.00     0.000 C 
BRANCH  18  19
ATOM     19  C   UNL     1      55.951  25.715  52.966  1.00  0.00     0.000 C 
BRANCH  19  20
ATOM     20  C   UNL     1      54.564  26.131  52.454  1.00  0.00     0.000 C 
BRANCH  20  21
ATOM     21  C   UNL     1      54.444  25.885  50.942  1.00  0.00     0.000 C 
BRANCH  21  22
ATOM     22  C   UNL     1      53.906  27.107  50.181  1.00  0.00    -0.000 C 
BRANCH  22  23
ATOM     23  C   UNL     1      54.739  28.375  50.437  1.00  0.00    -0.000 C 
BRANCH  23  24
ATOM     24  C   UNL     1      53.862  29.619  50.654  1.00  0.00    -0.000 C 
BRANCH  24  25
ATOM     25  C   UNL     1      53.549  29.871  52.139  1.00  0.00    -0.000 C 
BRANCH  25  26
ATOM     26  C   UNL     1      54.810  29.873  53.021  1.00  0.00    -0.000 C 
BRANCH  26  27
ATOM     27  C   UNL     1      54.603  29.327  54.450  1.00  0.00    -0.000 C 
BRANCH  27  28
ATOM     28  C   UNL     1      55.504  29.960  55.530  1.00  0.00    -0.000 C 
BRANCH  28  29
ATOM     29  C   UNL     1      56.890  30.407  55.032  1.00  0.00    -0.003 C 
ATOM     30  C   UNL     1      58.008  29.453  55.451  1.00  0.00     0.004 C 
ENDBRANCH  28  29
ENDBRANCH  27  28
ENDBRANCH  26  27
ENDBRANCH  25  26
ENDBRANCH  24  25
ENDBRANCH  23  24
ENDBRANCH  22  23
ENDBRANCH  21  22
ENDBRANCH  20  21
ENDBRANCH  19  20
ENDBRANCH  18  19
ENDBRANCH  17  18
ENDBRANCH   1  17
TORSDOF 26
ENDMDL
