MODEL 1
REMARK VINA RESULT:    -4.697      0.000      0.000
REMARK INTER + INTRA:          -8.673
REMARK INTER:                  -7.444
REMARK INTRA:                  -1.230
REMARK UNBOUND:                -1.230
REMARK SMILES CCCCCCCCCCCC(=O)[O-]
REMARK SMILES IDX 7 1 8 2 9 3 10 4 11 5 12 6 13 7 14 8 6 9 5 10 4 11 3 12 2 13
REMARK SMILES IDX 1 14
REMARK H PARENT
REMARK Flexibility Score: inf
ROOT
ATOM      1  C   UNL     1      57.798  37.743  37.510  1.00  0.00     0.000 C 
ENDROOT
BRANCH   1   2
ATOM      2  C   UNL     1      58.686  38.509  38.502  1.00  0.00     0.000 C 
BRANCH   2   3
ATOM      3  C   UNL     1      60.169  38.502  38.097  1.00  0.00     0.000 C 
BRANCH   3   4
ATOM      4  C   UNL     1      60.571  39.750  37.297  1.00  0.00     0.006 C 
BRANCH   4   5
ATOM      5  C   UNL     1      62.032  39.666  36.849  1.00  0.00     0.053 C 
BRANCH   5   6
ATOM      6  C   UNL     1      62.118  39.243  35.416  1.00  0.00     0.041 C 
ATOM      7  O   UNL     1      61.771  38.081  35.076  1.00  0.00    -0.550 OA
ATOM      8  O   UNL     1      62.535  40.148  34.447  1.00  0.00    -0.550 OA
ENDBRANCH   5   6
ENDBRANCH   4   5
ENDBRANCH   3   4
ENDBRANCH   2   3
ENDBRANCH   1   2
BRANCH   1   9
ATOM      9  C   UNL     1      58.650  37.038  36.443  1.00  0.00     0.000 C 
BRANCH   9  10
ATOM     10  C   UNL     1      58.177  37.338  35.012  1.00  0.00    -0.000 C 
BRANCH  10  11
ATOM     11  C   UNL     1      56.795  38.008  34.972  1.00  0.00    -0.000 C 
BRANCH  11  12
ATOM     12  C   UNL     1      56.859  39.349  34.225  1.00  0.00    -0.000 C 
BRANCH  12  13
ATOM     13  C   UNL     1      57.789  40.363  34.910  1.00  0.00    -0.003 C 
ATOM     14  C   UNL     1      59.010  40.713  34.061  1.00  0.00     0.004 C 
ENDBRANCH  12  13
ENDBRANCH  11  12
ENDBRANCH  10  11
ENDBRANCH   9  10
ENDBRANCH   1   9
TORSDOF 10
ENDMDL
MODEL 2
REMARK VINA RESULT:    -4.665      2.933      5.108
REMARK INTER + INTRA:          -8.622
REMARK INTER:                  -7.078
REMARK INTRA:                  -1.544
REMARK UNBOUND:                -1.230
REMARK SMILES CCCCCCCCCCCC(=O)[O-]
REMARK SMILES IDX 7 1 8 2 9 3 10 4 11 5 12 6 13 7 14 8 6 9 5 10 4 11 3 12 2 13
REMARK SMILES IDX 1 14
REMARK H PARENT
REMARK Flexibility Score: inf
ROOT
ATOM      1  C   UNL     1      58.012  39.934  34.589  1.00  0.00     0.000 C 
ENDROOT
BRANCH   1   2
ATOM      2  C   UNL     1      57.818  38.555  33.940  1.00  0.00     0.000 C 
BRANCH   2   3
ATOM      3  C   UNL     1      57.633  37.433  34.974  1.00  0.00     0.000 C 
BRANCH   3   4
ATOM      4  C   UNL     1      56.863  37.897  36.220  1.00  0.00     0.006 C 
BRANCH   4   5
ATOM      5  C   UNL     1      57.729  37.773  37.477  1.00  0.00     0.053 C 
BRANCH   5   6
ATOM      6  C   UNL     1      56.875  37.788  38.706  1.00  0.00     0.041 C 
ATOM      7  O   UNL     1      55.848  37.063  38.773  1.00  0.00    -0.550 OA
ATOM      8  O   UNL     1      57.242  38.566  39.798  1.00  0.00    -0.550 OA
ENDBRANCH   5   6
ENDBRANCH   4   5
ENDBRANCH   3   4
ENDBRANCH   2   3
ENDBRANCH   1   2
BRANCH   1   9
ATOM      9  C   UNL     1      59.499  40.317  34.625  1.00  0.00     0.000 C 
BRANCH   9  10
ATOM     10  C   UNL     1      60.083  40.300  36.046  1.00  0.00    -0.000 C 
BRANCH  10  11
ATOM     11  C   UNL     1      61.203  39.262  36.215  1.00  0.00    -0.000 C 
BRANCH  11  12
ATOM     12  C   UNL     1      61.572  38.631  34.863  1.00  0.00    -0.000 C 
BRANCH  12  13
ATOM     13  C   UNL     1      61.353  37.110  34.842  1.00  0.00    -0.003 C 
ATOM     14  C   UNL     1      60.929  36.555  36.202  1.00  0.00     0.004 C 
ENDBRANCH  12  13
ENDBRANCH  11  12
ENDBRANCH  10  11
ENDBRANCH   9  10
ENDBRANCH   1   9
TORSDOF 10
ENDMDL
MODEL 3
REMARK VINA RESULT:    -4.661      3.882      5.184
REMARK INTER + INTRA:          -8.615
REMARK INTER:                  -7.541
REMARK INTRA:                  -1.074
REMARK UNBOUND:                -1.230
REMARK SMILES CCCCCCCCCCCC(=O)[O-]
REMARK SMILES IDX 7 1 8 2 9 3 10 4 11 5 12 6 13 7 14 8 6 9 5 10 4 11 3 12 2 13
REMARK SMILES IDX 1 14
REMARK H PARENT
REMARK Flexibility Score: inf
ROOT
ATOM      1  C   UNL     1      60.484  37.904  37.405  1.00  0.00     0.000 C 
ENDROOT
BRANCH   1   2
ATOM      2  C   UNL     1      59.617  38.256  38.624  1.00  0.00     0.000 C 
BRANCH   2   3
ATOM      3  C   UNL     1      58.130  38.409  38.269  1.00  0.00     0.000 C 
BRANCH   3   4
ATOM      4  C   UNL     1      57.235  38.537  39.511  1.00  0.00     0.006 C 
BRANCH   4   5
ATOM      5  C   UNL     1      56.099  37.512  39.476  1.00  0.00     0.053 C 
BRANCH   5   6
ATOM      6  C   UNL     1      55.477  37.372  40.830  1.00  0.00     0.041 C 
ATOM      7  O   UNL     1      54.295  37.757  41.027  1.00  0.00    -0.550 OA
ATOM      8  O   UNL     1      56.186  36.769  41.862  1.00  0.00    -0.550 OA
ENDBRANCH   5   6
ENDBRANCH   4   5
ENDBRANCH   3   4
ENDBRANCH   2   3
ENDBRANCH   1   2
BRANCH   1   9
ATOM      9  C   UNL     1      59.807  36.826  36.545  1.00  0.00     0.000 C 
BRANCH   9  10
ATOM     10  C   UNL     1      60.339  36.794  35.104  1.00  0.00    -0.000 C 
BRANCH  10  11
ATOM     11  C   UNL     1      59.281  37.213  34.072  1.00  0.00    -0.000 C 
BRANCH  11  12
ATOM     12  C   UNL     1      57.898  37.340  34.728  1.00  0.00    -0.000 C 
BRANCH  12  13
ATOM     13  C   UNL     1      57.256  38.716  34.490  1.00  0.00    -0.003 C 
ATOM     14  C   UNL     1      58.187  39.873  34.851  1.00  0.00     0.004 C 
ENDBRANCH  12  13
ENDBRANCH  11  12
ENDBRANCH  10  11
ENDBRANCH   9  10
ENDBRANCH   1   9
TORSDOF 10
ENDMDL
MODEL 4
REMARK VINA RESULT:    -4.635     11.406     12.829
REMARK INTER + INTRA:          -8.574
REMARK INTER:                  -7.804
REMARK INTRA:                  -0.770
REMARK UNBOUND:                -1.230
REMARK SMILES CCCCCCCCCCCC(=O)[O-]
REMARK SMILES IDX 7 1 8 2 9 3 10 4 11 5 12 6 13 7 14 8 6 9 5 10 4 11 3 12 2 13
REMARK SMILES IDX 1 14
REMARK H PARENT
REMARK Flexibility Score: inf
ROOT
ATOM      1  C   UNL     1      55.224  32.736  43.119  1.00  0.00     0.000 C 
ENDROOT
BRANCH   1   2
ATOM      2  C   UNL     1      53.822  33.348  43.257  1.00  0.00     0.000 C 
BRANCH   2   3
ATOM      3  C   UNL     1      53.727  34.359  44.410  1.00  0.00     0.000 C 
BRANCH   3   4
ATOM      4  C   UNL     1      52.773  35.523  44.102  1.00  0.00     0.006 C 
BRANCH   4   5
ATOM      5  C   UNL     1      51.839  35.793  45.284  1.00  0.00     0.053 C 
BRANCH   5   6
ATOM      6  C   UNL     1      50.452  35.323  44.974  1.00  0.00     0.041 C 
ATOM      7  O   UNL     1      50.253  34.136  44.605  1.00  0.00    -0.550 OA
ATOM      8  O   UNL     1      49.373  36.183  45.142  1.00  0.00    -0.550 OA
ENDBRANCH   5   6
ENDBRANCH   4   5
ENDBRANCH   3   4
ENDBRANCH   2   3
ENDBRANCH   1   2
BRANCH   1   9
ATOM      9  C   UNL     1      55.276  31.337  43.751  1.00  0.00     0.000 C 
BRANCH   9  10
ATOM     10  C   UNL     1      54.771  30.238  42.803  1.00  0.00    -0.000 C 
BRANCH  10  11
ATOM     11  C   UNL     1      53.407  29.670  43.226  1.00  0.00    -0.000 C 
BRANCH  11  12
ATOM     12  C   UNL     1      52.401  29.745  42.068  1.00  0.00    -0.000 C 
BRANCH  12  13
ATOM     13  C   UNL     1      50.998  30.168  42.532  1.00  0.00    -0.003 C 
ATOM     14  C   UNL     1      50.689  31.633  42.222  1.00  0.00     0.004 C 
ENDBRANCH  12  13
ENDBRANCH  11  12
ENDBRANCH  10  11
ENDBRANCH   9  10
ENDBRANCH   1   9
TORSDOF 10
ENDMDL
MODEL 5
REMARK VINA RESULT:    -4.632      3.889      5.350
REMARK INTER + INTRA:          -8.570
REMARK INTER:                  -7.455
REMARK INTRA:                  -1.114
REMARK UNBOUND:                -1.230
REMARK SMILES CCCCCCCCCCCC(=O)[O-]
REMARK SMILES IDX 7 1 8 2 9 3 10 4 11 5 12 6 13 7 14 8 6 9 5 10 4 11 3 12 2 13
REMARK SMILES IDX 1 14
REMARK H PARENT
REMARK Flexibility Score: inf
ROOT
ATOM      1  C   UNL     1      58.628  37.138  35.945  1.00  0.00     0.000 C 
ENDROOT
BRANCH   1   2
ATOM      2  C   UNL     1      57.619  37.736  36.938  1.00  0.00     0.000 C 
BRANCH   2   3
ATOM      3  C   UNL     1      58.299  38.509  38.079  1.00  0.00     0.000 C 
BRANCH   3   4
ATOM      4  C   UNL     1      57.609  38.291  39.435  1.00  0.00     0.006 C 
BRANCH   4   5
ATOM      5  C   UNL     1      56.243  37.626  39.254  1.00  0.00     0.053 C 
BRANCH   5   6
ATOM      6  C   UNL     1      55.566  37.450  40.577  1.00  0.00     0.041 C 
ATOM      7  O   UNL     1      55.870  36.481  41.321  1.00  0.00    -0.550 OA
ATOM      8  O   UNL     1      54.633  38.385  41.011  1.00  0.00    -0.550 OA
ENDBRANCH   5   6
ENDBRANCH   4   5
ENDBRANCH   3   4
ENDBRANCH   2   3
ENDBRANCH   1   2
BRANCH   1   9
ATOM      9  C   UNL     1      59.971  36.854  36.634  1.00  0.00     0.000 C 
BRANCH   9  10
ATOM     10  C   UNL     1      61.146  36.800  35.644  1.00  0.00    -0.000 C 
BRANCH  10  11
ATOM     11  C   UNL     1      61.318  38.108  34.857  1.00  0.00    -0.000 C 
BRANCH  11  12
ATOM     12  C   UNL     1      61.932  39.203  35.743  1.00  0.00    -0.000 C 
BRANCH  12  13
ATOM     13  C   UNL     1      60.915  40.290  36.127  1.00  0.00    -0.003 C 
ATOM     14  C   UNL     1      59.877  40.542  35.034  1.00  0.00     0.004 C 
ENDBRANCH  12  13
ENDBRANCH  11  12
ENDBRANCH  10  11
ENDBRANCH   9  10
ENDBRANCH   1   9
TORSDOF 10
ENDMDL
MODEL 6
REMARK VINA RESULT:    -4.591     10.476     12.136
REMARK INTER + INTRA:          -8.505
REMARK INTER:                  -7.546
REMARK INTRA:                  -0.959
REMARK UNBOUND:                -1.230
REMARK SMILES CCCCCCCCCCCC(=O)[O-]
REMARK SMILES IDX 7 1 8 2 9 3 10 4 11 5 12 6 13 7 14 8 6 9 5 10 4 11 3 12 2 13
REMARK SMILES IDX 1 14
REMARK H PARENT
REMARK Flexibility Score: inf
ROOT
ATOM      1  C   UNL     1      55.440  31.543  43.254  1.00  0.00     0.000 C 
ENDROOT
BRANCH   1   2
ATOM      2  C   UNL     1      54.555  32.728  43.669  1.00  0.00     0.000 C 
BRANCH   2   3
ATOM      3  C   UNL     1      54.750  33.958  42.769  1.00  0.00     0.000 C 
BRANCH   3   4
ATOM      4  C   UNL     1      54.426  35.276  43.487  1.00  0.00     0.006 C 
BRANCH   4   5
ATOM      5  C   UNL     1      53.021  35.765  43.125  1.00  0.00     0.053 C 
BRANCH   5   6
ATOM      6  C   UNL     1      52.203  35.971  44.362  1.00  0.00     0.041 C 
ATOM      7  O   UNL     1      51.820  37.127  44.683  1.00  0.00    -0.550 OA
ATOM      8  O   UNL     1      51.822  34.880  45.134  1.00  0.00    -0.550 OA
ENDBRANCH   5   6
ENDBRANCH   4   5
ENDBRANCH   3   4
ENDBRANCH   2   3
ENDBRANCH   1   2
BRANCH   1   9
ATOM      9  C   UNL     1      54.703  30.211  43.461  1.00  0.00     0.000 C 
BRANCH   9  10
ATOM     10  C   UNL     1      53.710  29.900  42.329  1.00  0.00    -0.000 C 
BRANCH  10  11
ATOM     11  C   UNL     1      52.309  29.546  42.851  1.00  0.00    -0.000 C 
BRANCH  11  12
ATOM     12  C   UNL     1      51.221  30.127  41.935  1.00  0.00    -0.000 C 
BRANCH  12  13
ATOM     13  C   UNL     1      50.420  31.252  42.611  1.00  0.00    -0.003 C 
ATOM     14  C   UNL     1      51.098  32.616  42.489  1.00  0.00     0.004 C 
ENDBRANCH  12  13
ENDBRANCH  11  12
ENDBRANCH  10  11
ENDBRANCH   9  10
ENDBRANCH   1   9
TORSDOF 10
ENDMDL
MODEL 7
REMARK VINA RESULT:    -4.567      3.766      5.641
REMARK INTER + INTRA:          -8.466
REMARK INTER:                  -7.331
REMARK INTRA:                  -1.135
REMARK UNBOUND:                -1.230
REMARK SMILES CCCCCCCCCCCC(=O)[O-]
REMARK SMILES IDX 7 1 8 2 9 3 10 4 11 5 12 6 13 7 14 8 6 9 5 10 4 11 3 12 2 13
REMARK SMILES IDX 1 14
REMARK H PARENT
REMARK Flexibility Score: inf
ROOT
ATOM      1  C   UNL     1      57.921  38.689  35.555  1.00  0.00     0.000 C 
ENDROOT
BRANCH   1   2
ATOM      2  C   UNL     1      57.677  37.760  36.755  1.00  0.00     0.000 C 
BRANCH   2   3
ATOM      3  C   UNL     1      58.420  38.217  38.019  1.00  0.00     0.000 C 
BRANCH   3   4
ATOM      4  C   UNL     1      57.477  38.458  39.207  1.00  0.00     0.006 C 
BRANCH   4   5
ATOM      5  C   UNL     1      56.228  37.579  39.102  1.00  0.00     0.053 C 
BRANCH   5   6
ATOM      6  C   UNL     1      55.544  37.477  40.429  1.00  0.00     0.041 C 
ATOM      7  O   UNL     1      54.493  38.132  40.652  1.00  0.00    -0.550 OA
ATOM      8  O   UNL     1      56.041  36.619  41.403  1.00  0.00    -0.550 OA
ENDBRANCH   5   6
ENDBRANCH   4   5
ENDBRANCH   3   4
ENDBRANCH   2   3
ENDBRANCH   1   2
BRANCH   1   9
ATOM      9  C   UNL     1      58.521  40.027  36.013  1.00  0.00     0.000 C 
BRANCH   9  10
ATOM     10  C   UNL     1      59.878  40.325  35.355  1.00  0.00    -0.000 C 
BRANCH  10  11
ATOM     11  C   UNL     1      61.061  40.098  36.309  1.00  0.00    -0.000 C 
BRANCH  11  12
ATOM     12  C   UNL     1      62.128  39.207  35.655  1.00  0.00    -0.000 C 
BRANCH  12  13
ATOM     13  C   UNL     1      61.517  38.103  34.777  1.00  0.00    -0.003 C 
ATOM     14  C   UNL     1      61.207  36.828  35.561  1.00  0.00     0.004 C 
ENDBRANCH  12  13
ENDBRANCH  11  12
ENDBRANCH  10  11
ENDBRANCH   9  10
ENDBRANCH   1   9
TORSDOF 10
ENDMDL
MODEL 8
REMARK VINA RESULT:    -4.533     10.581     12.087
REMARK INTER + INTRA:          -8.412
REMARK INTER:                  -7.427
REMARK INTRA:                  -0.985
REMARK UNBOUND:                -1.230
REMARK SMILES CCCCCCCCCCCC(=O)[O-]
REMARK SMILES IDX 7 1 8 2 9 3 10 4 11 5 12 6 13 7 14 8 6 9 5 10 4 11 3 12 2 13
REMARK SMILES IDX 1 14
REMARK H PARENT
REMARK Flexibility Score: inf
ROOT
ATOM      1  C   UNL     1      54.171  33.645  43.666  1.00  0.00     0.000 C 
ENDROOT
BRANCH   1   2
ATOM      2  C   UNL     1      52.880  33.749  42.840  1.00  0.00     0.000 C 
BRANCH   2   3
ATOM      3  C   UNL     1      51.672  34.191  43.681  1.00  0.00     0.000 C 
BRANCH   3   4
ATOM      4  C   UNL     1      52.030  35.278  44.706  1.00  0.00     0.006 C 
BRANCH   4   5
ATOM      5  C   UNL     1      51.378  36.614  44.339  1.00  0.00     0.053 C 
BRANCH   5   6
ATOM      6  C   UNL     1      52.423  37.641  44.037  1.00  0.00     0.041 C 
ATOM      7  O   UNL     1      52.216  38.854  44.305  1.00  0.00    -0.550 OA
ATOM      8  O   UNL     1      53.648  37.253  43.505  1.00  0.00    -0.550 OA
ENDBRANCH   5   6
ENDBRANCH   4   5
ENDBRANCH   3   4
ENDBRANCH   2   3
ENDBRANCH   1   2
BRANCH   1   9
ATOM      9  C   UNL     1      55.171  32.688  43.000  1.00  0.00     0.000 C 
BRANCH   9  10
ATOM     10  C   UNL     1      55.312  31.356  43.753  1.00  0.00    -0.000 C 
BRANCH  10  11
ATOM     11  C   UNL     1      54.788  30.160  42.944  1.00  0.00    -0.000 C 
BRANCH  11  12
ATOM     12  C   UNL     1      53.325  29.857  43.301  1.00  0.00    -0.000 C 
BRANCH  12  13
ATOM     13  C   UNL     1      52.441  29.669  42.057  1.00  0.00    -0.003 C 
ATOM     14  C   UNL     1      51.117  30.428  42.153  1.00  0.00     0.004 C 
ENDBRANCH  12  13
ENDBRANCH  11  12
ENDBRANCH  10  11
ENDBRANCH   9  10
ENDBRANCH   1   9
TORSDOF 10
ENDMDL
MODEL 9
REMARK VINA RESULT:    -4.472      8.676     10.371
REMARK INTER + INTRA:          -8.315
REMARK INTER:                  -6.762
REMARK INTRA:                  -1.553
REMARK UNBOUND:                -1.230
REMARK SMILES CCCCCCCCCCCC(=O)[O-]
REMARK SMILES IDX 7 1 8 2 9 3 10 4 11 5 12 6 13 7 14 8 6 9 5 10 4 11 3 12 2 13
REMARK SMILES IDX 1 14
REMARK H PARENT
REMARK Flexibility Score: inf
ROOT
ATOM      1  C   UNL     1      55.524  35.310  42.197  1.00  0.00     0.000 C 
ENDROOT
BRANCH   1   2
ATOM      2  C   UNL     1      56.102  36.199  43.308  1.00  0.00     0.000 C 
BRANCH   2   3
ATOM      3  C   UNL     1      55.131  37.307  43.746  1.00  0.00     0.000 C 
BRANCH   3   4
ATOM      4  C   UNL     1      54.120  37.677  42.650  1.00  0.00     0.006 C 
BRANCH   4   5
ATOM      5  C   UNL     1      52.969  38.507  43.224  1.00  0.00     0.053 C 
BRANCH   5   6
ATOM      6  C   UNL     1      52.994  39.895  42.664  1.00  0.00     0.041 C 
ATOM      7  O   UNL     1      52.335  40.814  43.219  1.00  0.00    -0.550 OA
ATOM      8  O   UNL     1      53.784  40.185  41.558  1.00  0.00    -0.550 OA
ENDBRANCH   5   6
ENDBRANCH   4   5
ENDBRANCH   3   4
ENDBRANCH   2   3
ENDBRANCH   1   2
BRANCH   1   9
ATOM      9  C   UNL     1      55.487  33.839  42.637  1.00  0.00     0.000 C 
BRANCH   9  10
ATOM     10  C   UNL     1      54.219  33.488  43.432  1.00  0.00    -0.000 C 
BRANCH  10  11
ATOM     11  C   UNL     1      52.934  33.963  42.737  1.00  0.00    -0.000 C 
BRANCH  11  12
ATOM     12  C   UNL     1      52.027  34.718  43.721  1.00  0.00    -0.000 C 
BRANCH  12  13
ATOM     13  C   UNL     1      52.733  35.036  45.048  1.00  0.00    -0.003 C 
ATOM     14  C   UNL     1      51.981  36.072  45.885  1.00  0.00     0.004 C 
ENDBRANCH  12  13
ENDBRANCH  11  12
ENDBRANCH  10  11
ENDBRANCH   9  10
ENDBRANCH   1   9
TORSDOF 10
ENDMDL
