MODEL 1
REMARK VINA RESULT:    -4.673      0.000      0.000
REMARK INTER + INTRA:          -9.502
REMARK INTER:                  -7.951
REMARK INTRA:                  -1.551
REMARK UNBOUND:                -1.551
REMARK SMILES CCCCCCCCCCCCCC(=O)[O-]
REMARK SMILES IDX 8 1 9 2 10 3 11 4 12 5 13 6 14 7 15 8 16 9 7 10 6 11 5 12
REMARK SMILES IDX 4 13 3 14 2 15 1 16
REMARK H PARENT
REMARK Flexibility Score: inf
ROOT
ATOM      1  C   UNL     1      -4.249  35.503  21.198  1.00  0.00     0.000 C 
ENDROOT
BRANCH   1   2
ATOM      2  C   UNL     1      -5.399  36.134  20.403  1.00  0.00     0.000 C 
BRANCH   2   3
ATOM      3  C   UNL     1      -4.879  37.203  19.435  1.00  0.00     0.000 C 
BRANCH   3   4
ATOM      4  C   UNL     1      -3.345  37.290  19.485  1.00  0.00     0.000 C 
BRANCH   4   5
ATOM      5  C   UNL     1      -2.717  37.459  18.093  1.00  0.00     0.006 C 
BRANCH   5   6
ATOM      6  C   UNL     1      -3.217  36.414  17.088  1.00  0.00     0.053 C 
BRANCH   6   7
ATOM      7  C   UNL     1      -2.945  36.864  15.688  1.00  0.00     0.041 C 
ATOM      8  O   UNL     1      -2.051  36.301  15.003  1.00  0.00    -0.550 OA
ATOM      9  O   UNL     1      -3.645  37.940  15.155  1.00  0.00    -0.550 OA
ENDBRANCH   6   7
ENDBRANCH   5   6
ENDBRANCH   4   5
ENDBRANCH   3   4
ENDBRANCH   2   3
ENDBRANCH   1   2
BRANCH   1  10
ATOM     10  C   UNL     1      -4.747  34.939  22.534  1.00  0.00     0.000 C 
BRANCH  10  11
ATOM     11  C   UNL     1      -6.105  35.545  22.915  1.00  0.00    -0.000 C 
BRANCH  11  12
ATOM     12  C   UNL     1      -6.123  36.125  24.340  1.00  0.00    -0.000 C 
BRANCH  12  13
ATOM     13  C   UNL     1      -4.948  37.065  24.675  1.00  0.00    -0.000 C 
BRANCH  13  14
ATOM     14  C   UNL     1      -5.130  38.528  24.224  1.00  0.00    -0.000 C 
BRANCH  14  15
ATOM     15  C   UNL     1      -4.555  38.851  22.834  1.00  0.00    -0.003 C 
ATOM     16  C   UNL     1      -5.461  39.770  22.015  1.00  0.00     0.004 C 
ENDBRANCH  14  15
ENDBRANCH  13  14
ENDBRANCH  12  13
ENDBRANCH  11  12
ENDBRANCH  10  11
ENDBRANCH   1  10
TORSDOF 12
ENDMDL
MODEL 2
REMARK VINA RESULT:    -4.536      2.621      6.248
REMARK INTER + INTRA:          -9.268
REMARK INTER:                  -8.281
REMARK INTRA:                  -0.987
REMARK UNBOUND:                -1.551
REMARK SMILES CCCCCCCCCCCCCC(=O)[O-]
REMARK SMILES IDX 8 1 9 2 10 3 11 4 12 5 13 6 14 7 15 8 16 9 7 10 6 11 5 12
REMARK SMILES IDX 4 13 3 14 2 15 1 16
REMARK H PARENT
REMARK Flexibility Score: inf
ROOT
ATOM      1  C   UNL     1      -6.125  35.413  20.933  1.00  0.00     0.000 C 
ENDROOT
BRANCH   1   2
ATOM      2  C   UNL     1      -5.042  35.293  22.013  1.00  0.00     0.000 C 
BRANCH   2   3
ATOM      3  C   UNL     1      -5.665  35.213  23.411  1.00  0.00     0.000 C 
BRANCH   3   4
ATOM      4  C   UNL     1      -6.043  36.610  23.926  1.00  0.00     0.000 C 
BRANCH   4   5
ATOM      5  C   UNL     1      -4.816  37.456  24.298  1.00  0.00     0.006 C 
BRANCH   5   6
ATOM      6  C   UNL     1      -5.002  38.944  23.970  1.00  0.00     0.053 C 
BRANCH   6   7
ATOM      7  C   UNL     1      -4.957  39.161  22.491  1.00  0.00     0.041 C 
ATOM      8  O   UNL     1      -5.893  39.773  21.911  1.00  0.00    -0.550 OA
ATOM      9  O   UNL     1      -3.906  38.644  21.743  1.00  0.00    -0.550 OA
ENDBRANCH   6   7
ENDBRANCH   5   6
ENDBRANCH   4   5
ENDBRANCH   3   4
ENDBRANCH   2   3
ENDBRANCH   1   2
BRANCH   1  10
ATOM     10  C   UNL     1      -5.503  35.462  19.532  1.00  0.00     0.000 C 
BRANCH  10  11
ATOM     11  C   UNL     1      -4.049  35.948  19.592  1.00  0.00    -0.000 C 
BRANCH  11  12
ATOM     12  C   UNL     1      -3.774  37.130  18.645  1.00  0.00    -0.000 C 
BRANCH  12  13
ATOM     13  C   UNL     1      -2.291  37.343  18.281  1.00  0.00    -0.000 C 
BRANCH  13  14
ATOM     14  C   UNL     1      -1.870  36.801  16.902  1.00  0.00    -0.000 C 
BRANCH  14  15
ATOM     15  C   UNL     1      -3.005  36.155  16.088  1.00  0.00    -0.003 C 
ATOM     16  C   UNL     1      -3.505  37.049  14.953  1.00  0.00     0.004 C 
ENDBRANCH  14  15
ENDBRANCH  13  14
ENDBRANCH  12  13
ENDBRANCH  11  12
ENDBRANCH  10  11
ENDBRANCH   1  10
TORSDOF 12
ENDMDL
MODEL 3
REMARK VINA RESULT:    -4.464      3.443      7.249
REMARK INTER + INTRA:          -9.147
REMARK INTER:                  -8.252
REMARK INTRA:                  -0.895
REMARK UNBOUND:                -1.551
REMARK SMILES CCCCCCCCCCCCCC(=O)[O-]
REMARK SMILES IDX 8 1 9 2 10 3 11 4 12 5 13 6 14 7 15 8 16 9 7 10 6 11 5 12
REMARK SMILES IDX 4 13 3 14 2 15 1 16
REMARK H PARENT
REMARK Flexibility Score: inf
ROOT
ATOM      1  C   UNL     1      -3.876  36.175  19.628  1.00  0.00     0.000 C 
ENDROOT
BRANCH   1   2
ATOM      2  C   UNL     1      -5.205  36.770  20.108  1.00  0.00     0.000 C 
BRANCH   2   3
ATOM      3  C   UNL     1      -5.983  35.762  20.961  1.00  0.00     0.000 C 
BRANCH   3   4
ATOM      4  C   UNL     1      -5.062  35.080  21.985  1.00  0.00     0.000 C 
BRANCH   4   5
ATOM      5  C   UNL     1      -5.493  35.343  23.436  1.00  0.00     0.006 C 
BRANCH   5   6
ATOM      6  C   UNL     1      -6.125  36.729  23.624  1.00  0.00     0.053 C 
BRANCH   6   7
ATOM      7  C   UNL     1      -5.084  37.727  24.020  1.00  0.00     0.041 C 
ATOM      8  O   UNL     1      -4.651  38.560  23.179  1.00  0.00    -0.550 OA
ATOM      9  O   UNL     1      -4.553  37.707  25.304  1.00  0.00    -0.550 OA
ENDBRANCH   6   7
ENDBRANCH   5   6
ENDBRANCH   4   5
ENDBRANCH   3   4
ENDBRANCH   2   3
ENDBRANCH   1   2
BRANCH   1  10
ATOM     10  C   UNL     1      -2.917  37.275  19.157  1.00  0.00     0.000 C 
BRANCH  10  11
ATOM     11  C   UNL     1      -2.999  37.462  17.635  1.00  0.00    -0.000 C 
BRANCH  11  12
ATOM     12  C   UNL     1      -3.292  36.150  16.887  1.00  0.00    -0.000 C 
BRANCH  12  13
ATOM     13  C   UNL     1      -2.300  35.809  15.756  1.00  0.00    -0.000 C 
BRANCH  13  14
ATOM     14  C   UNL     1      -2.402  36.701  14.504  1.00  0.00    -0.000 C 
BRANCH  14  15
ATOM     15  C   UNL     1      -3.833  36.914  13.978  1.00  0.00    -0.003 C 
ATOM     16  C   UNL     1      -4.273  38.377  14.028  1.00  0.00     0.004 C 
ENDBRANCH  14  15
ENDBRANCH  13  14
ENDBRANCH  12  13
ENDBRANCH  11  12
ENDBRANCH  10  11
ENDBRANCH   1  10
TORSDOF 12
ENDMDL
MODEL 4
REMARK VINA RESULT:    -4.267      3.683      6.944
REMARK INTER + INTRA:          -8.810
REMARK INTER:                  -7.728
REMARK INTRA:                  -1.083
REMARK UNBOUND:                -1.551
REMARK SMILES CCCCCCCCCCCCCC(=O)[O-]
REMARK SMILES IDX 8 1 9 2 10 3 11 4 12 5 13 6 14 7 15 8 16 9 7 10 6 11 5 12
REMARK SMILES IDX 4 13 3 14 2 15 1 16
REMARK H PARENT
REMARK Flexibility Score: inf
ROOT
ATOM      1  C   UNL     1      -4.448  35.479  19.967  1.00  0.00     0.000 C 
ENDROOT
BRANCH   1   2
ATOM      2  C   UNL     1      -5.674  36.162  20.586  1.00  0.00     0.000 C 
BRANCH   2   3
ATOM      3  C   UNL     1      -5.488  37.682  20.641  1.00  0.00     0.000 C 
BRANCH   3   4
ATOM      4  C   UNL     1      -4.113  38.048  21.220  1.00  0.00     0.000 C 
BRANCH   4   5
ATOM      5  C   UNL     1      -4.215  38.810  22.550  1.00  0.00     0.006 C 
BRANCH   5   6
ATOM      6  C   UNL     1      -5.427  38.381  23.386  1.00  0.00     0.053 C 
BRANCH   6   7
ATOM      7  C   UNL     1      -5.041  37.308  24.354  1.00  0.00     0.041 C 
ATOM      8  O   UNL     1      -4.573  37.610  25.483  1.00  0.00    -0.550 OA
ATOM      9  O   UNL     1      -5.151  35.971  23.990  1.00  0.00    -0.550 OA
ENDBRANCH   6   7
ENDBRANCH   5   6
ENDBRANCH   4   5
ENDBRANCH   3   4
ENDBRANCH   2   3
ENDBRANCH   1   2
BRANCH   1  10
ATOM     10  C   UNL     1      -4.827  34.713  18.694  1.00  0.00     0.000 C 
BRANCH  10  11
ATOM     11  C   UNL     1      -4.095  35.283  17.471  1.00  0.00    -0.000 C 
BRANCH  11  12
ATOM     12  C   UNL     1      -3.411  36.631  17.759  1.00  0.00    -0.000 C 
BRANCH  12  13
ATOM     13  C   UNL     1      -2.675  37.258  16.557  1.00  0.00    -0.000 C 
BRANCH  13  14
ATOM     14  C   UNL     1      -2.462  36.317  15.355  1.00  0.00    -0.000 C 
BRANCH  14  15
ATOM     15  C   UNL     1      -3.216  36.722  14.077  1.00  0.00    -0.003 C 
ATOM     16  C   UNL     1      -4.089  37.962  14.268  1.00  0.00     0.004 C 
ENDBRANCH  14  15
ENDBRANCH  13  14
ENDBRANCH  12  13
ENDBRANCH  11  12
ENDBRANCH  10  11
ENDBRANCH   1  10
TORSDOF 12
ENDMDL
MODEL 5
REMARK VINA RESULT:    -4.183      2.660      6.095
REMARK INTER + INTRA:          -8.669
REMARK INTER:                  -7.718
REMARK INTRA:                  -0.950
REMARK UNBOUND:                -1.551
REMARK SMILES CCCCCCCCCCCCCC(=O)[O-]
REMARK SMILES IDX 8 1 9 2 10 3 11 4 12 5 13 6 14 7 15 8 16 9 7 10 6 11 5 12
REMARK SMILES IDX 4 13 3 14 2 15 1 16
REMARK H PARENT
REMARK Flexibility Score: inf
ROOT
ATOM      1  C   UNL     1      -4.878  35.116  22.056  1.00  0.00     0.000 C 
ENDROOT
BRANCH   1   2
ATOM      2  C   UNL     1      -5.327  34.601  23.429  1.00  0.00     0.000 C 
BRANCH   2   3
ATOM      3  C   UNL     1      -6.123  35.670  24.185  1.00  0.00     0.000 C 
BRANCH   3   4
ATOM      4  C   UNL     1      -5.213  36.465  25.134  1.00  0.00     0.000 C 
BRANCH   4   5
ATOM      5  C   UNL     1      -4.830  37.842  24.571  1.00  0.00     0.006 C 
BRANCH   5   6
ATOM      6  C   UNL     1      -5.755  38.294  23.433  1.00  0.00     0.053 C 
BRANCH   6   7
ATOM      7  C   UNL     1      -4.995  39.109  22.436  1.00  0.00     0.041 C 
ATOM      8  O   UNL     1      -5.384  40.269  22.136  1.00  0.00    -0.550 OA
ATOM      9  O   UNL     1      -3.885  38.569  21.797  1.00  0.00    -0.550 OA
ENDBRANCH   6   7
ENDBRANCH   5   6
ENDBRANCH   4   5
ENDBRANCH   3   4
ENDBRANCH   2   3
ENDBRANCH   1   2
BRANCH   1  10
ATOM     10  C   UNL     1      -6.075  35.608  21.233  1.00  0.00     0.000 C 
BRANCH  10  11
ATOM     11  C   UNL     1      -5.747  35.608  19.733  1.00  0.00    -0.000 C 
BRANCH  11  12
ATOM     12  C   UNL     1      -4.245  35.782  19.449  1.00  0.00    -0.000 C 
BRANCH  12  13
ATOM     13  C   UNL     1      -3.863  37.102  18.748  1.00  0.00    -0.000 C 
BRANCH  13  14
ATOM     14  C   UNL     1      -2.756  36.982  17.682  1.00  0.00    -0.000 C 
BRANCH  14  15
ATOM     15  C   UNL     1      -3.090  36.046  16.507  1.00  0.00    -0.003 C 
ATOM     16  C   UNL     1      -2.471  36.504  15.187  1.00  0.00     0.004 C 
ENDBRANCH  14  15
ENDBRANCH  13  14
ENDBRANCH  12  13
ENDBRANCH  11  12
ENDBRANCH  10  11
ENDBRANCH   1  10
TORSDOF 12
ENDMDL
MODEL 6
REMARK VINA RESULT:    -3.846      3.647      6.512
REMARK INTER + INTRA:          -8.095
REMARK INTER:                  -6.764
REMARK INTRA:                  -1.331
REMARK UNBOUND:                -1.551
REMARK SMILES CCCCCCCCCCCCCC(=O)[O-]
REMARK SMILES IDX 8 1 9 2 10 3 11 4 12 5 13 6 14 7 15 8 16 9 7 10 6 11 5 12
REMARK SMILES IDX 4 13 3 14 2 15 1 16
REMARK H PARENT
REMARK Flexibility Score: inf
ROOT
ATOM      1  C   UNL     1      -4.338  35.396  20.547  1.00  0.00     0.000 C 
ENDROOT
BRANCH   1   2
ATOM      2  C   UNL     1      -4.029  36.894  20.659  1.00  0.00     0.000 C 
BRANCH   2   3
ATOM      3  C   UNL     1      -5.249  37.738  20.274  1.00  0.00     0.000 C 
BRANCH   3   4
ATOM      4  C   UNL     1      -5.510  38.836  21.317  1.00  0.00     0.000 C 
BRANCH   4   5
ATOM      5  C   UNL     1      -4.469  38.838  22.447  1.00  0.00     0.006 C 
BRANCH   5   6
ATOM      6  C   UNL     1      -5.110  38.832  23.841  1.00  0.00     0.053 C 
BRANCH   6   7
ATOM      7  C   UNL     1      -5.013  37.471  24.454  1.00  0.00     0.041 C 
ATOM      8  O   UNL     1      -4.411  37.310  25.550  1.00  0.00    -0.550 OA
ATOM      9  O   UNL     1      -5.542  36.370  23.792  1.00  0.00    -0.550 OA
ENDBRANCH   6   7
ENDBRANCH   5   6
ENDBRANCH   4   5
ENDBRANCH   3   4
ENDBRANCH   2   3
ENDBRANCH   1   2
BRANCH   1  10
ATOM     10  C   UNL     1      -5.330  35.120  19.411  1.00  0.00     0.000 C 
BRANCH  10  11
ATOM     11  C   UNL     1      -4.600  34.650  18.145  1.00  0.00    -0.000 C 
BRANCH  11  12
ATOM     12  C   UNL     1      -4.214  35.811  17.212  1.00  0.00    -0.000 C 
BRANCH  12  13
ATOM     13  C   UNL     1      -2.885  35.623  16.453  1.00  0.00    -0.000 C 
BRANCH  13  14
ATOM     14  C   UNL     1      -1.859  36.758  16.634  1.00  0.00    -0.000 C 
BRANCH  14  15
ATOM     15  C   UNL     1      -2.028  37.580  17.924  1.00  0.00    -0.003 C 
ATOM     16  C   UNL     1      -0.776  37.575  18.801  1.00  0.00     0.004 C 
ENDBRANCH  14  15
ENDBRANCH  13  14
ENDBRANCH  12  13
ENDBRANCH  11  12
ENDBRANCH  10  11
ENDBRANCH   1  10
TORSDOF 12
ENDMDL
MODEL 7
REMARK VINA RESULT:    -3.819      3.682      6.807
REMARK INTER + INTRA:          -8.049
REMARK INTER:                  -7.329
REMARK INTRA:                  -0.720
REMARK UNBOUND:                -1.551
REMARK SMILES CCCCCCCCCCCCCC(=O)[O-]
REMARK SMILES IDX 8 1 9 2 10 3 11 4 12 5 13 6 14 7 15 8 16 9 7 10 6 11 5 12
REMARK SMILES IDX 4 13 3 14 2 15 1 16
REMARK H PARENT
REMARK Flexibility Score: inf
ROOT
ATOM      1  C   UNL     1      -3.869  37.582  20.330  1.00  0.00     0.000 C 
ENDROOT
BRANCH   1   2
ATOM      2  C   UNL     1      -5.308  38.089  20.178  1.00  0.00     0.000 C 
BRANCH   2   3
ATOM      3  C   UNL     1      -5.723  38.940  21.383  1.00  0.00     0.000 C 
BRANCH   3   4
ATOM      4  C   UNL     1      -4.922  38.549  22.635  1.00  0.00     0.000 C 
BRANCH   4   5
ATOM      5  C   UNL     1      -5.714  37.634  23.581  1.00  0.00     0.006 C 
BRANCH   5   6
ATOM      6  C   UNL     1      -6.119  36.309  22.921  1.00  0.00     0.053 C 
BRANCH   6   7
ATOM      7  C   UNL     1      -5.800  35.158  23.821  1.00  0.00     0.041 C 
ATOM      8  O   UNL     1      -5.279  34.112  23.351  1.00  0.00    -0.550 OA
ATOM      9  O   UNL     1      -6.124  35.220  25.171  1.00  0.00    -0.550 OA
ENDBRANCH   6   7
ENDBRANCH   5   6
ENDBRANCH   4   5
ENDBRANCH   3   4
ENDBRANCH   2   3
ENDBRANCH   1   2
BRANCH   1  10
ATOM     10  C   UNL     1      -3.785  36.073  20.068  1.00  0.00     0.000 C 
BRANCH  10  11
ATOM     11  C   UNL     1      -4.809  35.641  19.009  1.00  0.00    -0.000 C 
BRANCH  11  12
ATOM     12  C   UNL     1      -4.186  35.465  17.613  1.00  0.00    -0.000 C 
BRANCH  12  13
ATOM     13  C   UNL     1      -3.218  36.586  17.185  1.00  0.00    -0.000 C 
BRANCH  13  14
ATOM     14  C   UNL     1      -2.217  36.201  16.078  1.00  0.00    -0.000 C 
BRANCH  14  15
ATOM     15  C   UNL     1      -2.696  36.495  14.645  1.00  0.00    -0.003 C 
ATOM     16  C   UNL     1      -3.824  37.524  14.594  1.00  0.00     0.004 C 
ENDBRANCH  14  15
ENDBRANCH  13  14
ENDBRANCH  12  13
ENDBRANCH  11  12
ENDBRANCH  10  11
ENDBRANCH   1  10
TORSDOF 12
ENDMDL
MODEL 8
REMARK VINA RESULT:    -3.788      1.178      2.341
REMARK INTER + INTRA:          -7.996
REMARK INTER:                  -7.149
REMARK INTRA:                  -0.847
REMARK UNBOUND:                -1.551
REMARK SMILES CCCCCCCCCCCCCC(=O)[O-]
REMARK SMILES IDX 8 1 9 2 10 3 11 4 12 5 13 6 14 7 15 8 16 9 7 10 6 11 5 12
REMARK SMILES IDX 4 13 3 14 2 15 1 16
REMARK H PARENT
REMARK Flexibility Score: inf
ROOT
ATOM      1  C   UNL     1      -4.323  37.141  19.659  1.00  0.00     0.000 C 
ENDROOT
BRANCH   1   2
ATOM      2  C   UNL     1      -2.986  37.833  19.368  1.00  0.00     0.000 C 
BRANCH   2   3
ATOM      3  C   UNL     1      -2.205  37.086  18.280  1.00  0.00     0.000 C 
BRANCH   3   4
ATOM      4  C   UNL     1      -2.852  37.288  16.901  1.00  0.00     0.000 C 
BRANCH   4   5
ATOM      5  C   UNL     1      -2.476  36.181  15.904  1.00  0.00     0.006 C 
BRANCH   5   6
ATOM      6  C   UNL     1      -2.592  36.638  14.443  1.00  0.00     0.053 C 
BRANCH   6   7
ATOM      7  C   UNL     1      -3.891  37.345  14.219  1.00  0.00     0.041 C 
ATOM      8  O   UNL     1      -4.915  36.697  13.875  1.00  0.00    -0.550 OA
ATOM      9  O   UNL     1      -3.959  38.728  14.339  1.00  0.00    -0.550 OA
ENDBRANCH   6   7
ENDBRANCH   5   6
ENDBRANCH   4   5
ENDBRANCH   3   4
ENDBRANCH   2   3
ENDBRANCH   1   2
BRANCH   1  10
ATOM     10  C   UNL     1      -4.118  35.654  19.972  1.00  0.00     0.000 C 
BRANCH  10  11
ATOM     11  C   UNL     1      -4.402  35.359  21.452  1.00  0.00    -0.000 C 
BRANCH  11  12
ATOM     12  C   UNL     1      -5.875  35.584  21.834  1.00  0.00    -0.000 C 
BRANCH  12  13
ATOM     13  C   UNL     1      -6.112  35.997  23.301  1.00  0.00    -0.000 C 
BRANCH  13  14
ATOM     14  C   UNL     1      -5.099  37.010  23.868  1.00  0.00    -0.000 C 
BRANCH  14  15
ATOM     15  C   UNL     1      -5.412  38.483  23.550  1.00  0.00    -0.003 C 
ATOM     16  C   UNL     1      -4.417  39.104  22.570  1.00  0.00     0.004 C 
ENDBRANCH  14  15
ENDBRANCH  13  14
ENDBRANCH  12  13
ENDBRANCH  11  12
ENDBRANCH  10  11
ENDBRANCH   1  10
TORSDOF 12
ENDMDL
