MODEL 1
REMARK VINA RESULT:    -1.209      0.000      0.000
REMARK INTER + INTRA:          -3.949
REMARK INTER:                  -1.668
REMARK INTRA:                  -2.281
REMARK UNBOUND:                -2.281
REMARK SMILES CC[C@H](CC[C@H](C)[C@H]1CC[C@@H]2[C@@H]3CC=C4C[C@H](O)CC[C@@]4(C)[C@H]3CC[C@@]21C)C(C)C
REMARK SMILES IDX 5 1 4 2 3 3 2 4 1 5 28 6 29 7 30 8 6 9 7 10 8 11 9 12 26 13
REMARK SMILES IDX 10 14 11 15 25 16 27 17 12 18 24 19 23 20 13 21 21 22 14 23
REMARK SMILES IDX 15 24 20 25 22 26 16 27 19 28 17 29 18 30
REMARK H PARENT 18 31
REMARK Flexibility Score: inf
ROOT
ATOM      1  C   UNL     1     -14.066 -25.242  82.592  1.00  0.00     0.004 C 
ENDROOT
BRANCH   1   2
ATOM      2  C   UNL     1     -13.405 -24.224  83.548  1.00  0.00     0.004 C 
BRANCH   2   3
ATOM      3  C   UNL     1     -14.355 -23.782  84.702  1.00  0.00    -0.009 C 
BRANCH   3   4
ATOM      4  C   UNL     1     -14.149 -22.265  84.998  1.00  0.00     0.000 C 
ATOM      5  C   UNL     1     -13.069 -21.595  84.148  1.00  0.00     0.004 C 
ENDBRANCH   3   4
BRANCH   3   6
ATOM      6  C   UNL     1     -15.834 -24.197  84.381  1.00  0.00    -0.014 C 
ATOM      7  C   UNL     1     -16.390 -25.275  85.327  1.00  0.00     0.007 C 
ATOM      8  C   UNL     1     -16.801 -23.007  84.283  1.00  0.00     0.007 C 
ENDBRANCH   3   6
ENDBRANCH   2   3
ENDBRANCH   1   2
BRANCH   1   9
ATOM      9  C   UNL     1     -14.093 -24.757  81.112  1.00  0.00    -0.011 C 
ATOM     10  C   UNL     1     -12.975 -25.456  80.305  1.00  0.00     0.008 C 
BRANCH   9  11
ATOM     11  C   UNL     1     -14.055 -23.181  81.052  1.00  0.00    -0.002 C 
ATOM     12  C   UNL     1     -12.876 -22.644  80.219  1.00  0.00     0.005 C 
ATOM     13  C   UNL     1     -15.311 -22.421  80.506  1.00  0.00    -0.026 C 
ATOM     14  C   UNL     1     -13.462 -22.003  78.959  1.00  0.00     0.005 C 
ATOM     15  C   UNL     1     -14.987 -22.208  79.013  1.00  0.00    -0.001 C 
ATOM     16  C   UNL     1     -15.394 -21.037  81.232  1.00  0.00     0.007 C 
ATOM     17  C   UNL     1     -16.644 -23.185  80.714  1.00  0.00     0.012 C 
ATOM     18  C   UNL     1     -15.842 -21.109  78.302  1.00  0.00     0.000 C 
ATOM     19  C   UNL     1     -16.327 -20.037  80.546  1.00  0.00     0.005 C 
ATOM     20  C   UNL     1     -15.910 -19.776  79.079  1.00  0.00     0.003 C 
ATOM     21  C   UNL     1     -15.317 -20.848  76.884  1.00  0.00     0.031 C 
ATOM     22  C   UNL     1     -16.809 -18.687  78.347  1.00  0.00    -0.008 C 
ATOM     23  C   UNL     1     -16.146 -19.828  76.175  1.00  0.00    -0.027 C 
ATOM     24  C   UNL     1     -16.758 -18.808  76.811  1.00  0.00    -0.065 C 
ATOM     25  C   UNL     1     -18.314 -18.805  78.757  1.00  0.00     0.014 C 
ATOM     26  C   UNL     1     -16.269 -17.289  78.751  1.00  0.00     0.016 C 
ATOM     27  C   UNL     1     -17.649 -17.891  76.000  1.00  0.00     0.063 C 
ATOM     28  C   UNL     1     -19.266 -17.896  77.952  1.00  0.00     0.033 C 
ATOM     29  C   UNL     1     -19.107 -18.096  76.434  1.00  0.00     0.118 C 
BRANCH  29  30
ATOM     30  O   UNL     1     -19.960 -17.231  75.725  1.00  0.00    -0.393 OA
ATOM     31  H   UNL     1     -19.517 -16.344  75.676  1.00  0.00     0.210 HD
ENDBRANCH  29  30
ENDBRANCH   9  11
ENDBRANCH   1   9
TORSDOF 7
ENDMDL
MODEL 2
REMARK VINA RESULT:    -1.181      6.683      9.251
REMARK INTER + INTRA:          -3.910
REMARK INTER:                  -1.734
REMARK INTRA:                  -2.177
REMARK UNBOUND:                -2.281
REMARK SMILES CC[C@H](CC[C@H](C)[C@H]1CC[C@@H]2[C@@H]3CC=C4C[C@H](O)CC[C@@]4(C)[C@H]3CC[C@@]21C)C(C)C
REMARK SMILES IDX 5 1 4 2 3 3 2 4 1 5 28 6 29 7 30 8 6 9 7 10 8 11 9 12 26 13
REMARK SMILES IDX 10 14 11 15 25 16 27 17 12 18 24 19 23 20 13 21 21 22 14 23
REMARK SMILES IDX 15 24 20 25 22 26 16 27 19 28 17 29 18 30
REMARK H PARENT 18 31
REMARK Flexibility Score: inf
ROOT
ATOM      1  C   UNL     1     -22.350 -17.661  83.352  1.00  0.00     0.004 C 
ENDROOT
BRANCH   1   2
ATOM      2  C   UNL     1     -21.739 -18.224  84.655  1.00  0.00     0.004 C 
BRANCH   2   3
ATOM      3  C   UNL     1     -21.735 -19.782  84.691  1.00  0.00    -0.009 C 
BRANCH   3   4
ATOM      4  C   UNL     1     -22.419 -20.338  83.406  1.00  0.00     0.000 C 
ATOM      5  C   UNL     1     -23.226 -21.619  83.621  1.00  0.00     0.004 C 
ENDBRANCH   3   4
BRANCH   3   6
ATOM      6  C   UNL     1     -20.282 -20.317  84.950  1.00  0.00    -0.014 C 
ATOM      7  C   UNL     1     -19.524 -20.688  83.665  1.00  0.00     0.007 C 
ATOM      8  C   UNL     1     -19.433 -19.390  85.834  1.00  0.00     0.007 C 
ENDBRANCH   3   6
ENDBRANCH   2   3
ENDBRANCH   1   2
BRANCH   1   9
ATOM      9  C   UNL     1     -21.330 -16.842  82.507  1.00  0.00    -0.011 C 
ATOM     10  C   UNL     1     -21.386 -17.290  81.028  1.00  0.00     0.008 C 
BRANCH   9  11
ATOM     11  C   UNL     1     -19.895 -16.916  83.158  1.00  0.00    -0.002 C 
ATOM     12  C   UNL     1     -18.826 -17.452  82.188  1.00  0.00     0.005 C 
ATOM     13  C   UNL     1     -19.274 -15.608  83.756  1.00  0.00    -0.026 C 
ATOM     14  C   UNL     1     -17.879 -16.293  81.867  1.00  0.00     0.005 C 
ATOM     15  C   UNL     1     -18.416 -15.051  82.601  1.00  0.00    -0.001 C 
ATOM     16  C   UNL     1     -18.352 -16.013  84.954  1.00  0.00     0.007 C 
ATOM     17  C   UNL     1     -20.328 -14.584  84.250  1.00  0.00     0.012 C 
ATOM     18  C   UNL     1     -17.340 -14.000  83.026  1.00  0.00     0.000 C 
ATOM     19  C   UNL     1     -17.391 -14.905  85.392  1.00  0.00     0.005 C 
ATOM     20  C   UNL     1     -16.479 -14.443  84.229  1.00  0.00     0.003 C 
ATOM     21  C   UNL     1     -16.425 -13.654  81.844  1.00  0.00     0.031 C 
ATOM     22  C   UNL     1     -15.413 -13.342  84.657  1.00  0.00    -0.008 C 
ATOM     23  C   UNL     1     -15.415 -12.621  82.220  1.00  0.00    -0.027 C 
ATOM     24  C   UNL     1     -14.895 -12.520  83.461  1.00  0.00    -0.065 C 
ATOM     25  C   UNL     1     -16.012 -12.321  85.679  1.00  0.00     0.014 C 
ATOM     26  C   UNL     1     -14.214 -14.083  85.306  1.00  0.00     0.016 C 
ATOM     27  C   UNL     1     -13.949 -11.373  83.749  1.00  0.00     0.063 C 
ATOM     28  C   UNL     1     -15.088 -11.126  86.000  1.00  0.00     0.033 C 
ATOM     29  C   UNL     1     -14.623 -10.400  84.725  1.00  0.00     0.118 C 
BRANCH  29  30
ATOM     30  O   UNL     1     -13.757  -9.339  85.044  1.00  0.00    -0.393 OA
ATOM     31  H   UNL     1     -12.946  -9.729  85.463  1.00  0.00     0.210 HD
ENDBRANCH  29  30
ENDBRANCH   9  11
ENDBRANCH   1   9
TORSDOF 7
ENDMDL
MODEL 3
REMARK VINA RESULT:    -1.171      3.329      4.289
REMARK INTER + INTRA:          -3.896
REMARK INTER:                  -1.720
REMARK INTRA:                  -2.176
REMARK UNBOUND:                -2.281
REMARK SMILES CC[C@H](CC[C@H](C)[C@H]1CC[C@@H]2[C@@H]3CC=C4C[C@H](O)CC[C@@]4(C)[C@H]3CC[C@@]21C)C(C)C
REMARK SMILES IDX 5 1 4 2 3 3 2 4 1 5 28 6 29 7 30 8 6 9 7 10 8 11 9 12 26 13
REMARK SMILES IDX 10 14 11 15 25 16 27 17 12 18 24 19 23 20 13 21 21 22 14 23
REMARK SMILES IDX 15 24 20 25 22 26 16 27 19 28 17 29 18 30
REMARK H PARENT 18 31
REMARK Flexibility Score: inf
ROOT
ATOM      1  C   UNL     1     -13.879 -24.253  81.705  1.00  0.00     0.004 C 
ENDROOT
BRANCH   1   2
ATOM      2  C   UNL     1     -12.875 -23.521  82.624  1.00  0.00     0.004 C 
BRANCH   2   3
ATOM      3  C   UNL     1     -13.300 -23.552  84.123  1.00  0.00    -0.009 C 
BRANCH   3   4
ATOM      4  C   UNL     1     -13.599 -22.104  84.614  1.00  0.00     0.000 C 
ATOM      5  C   UNL     1     -12.899 -21.006  83.811  1.00  0.00     0.004 C 
ENDBRANCH   3   4
BRANCH   3   6
ATOM      6  C   UNL     1     -14.471 -24.577  84.336  1.00  0.00    -0.014 C 
ATOM      7  C   UNL     1     -14.031 -25.879  85.024  1.00  0.00     0.007 C 
ATOM      8  C   UNL     1     -15.696 -23.975  85.042  1.00  0.00     0.007 C 
ENDBRANCH   3   6
ENDBRANCH   2   3
ENDBRANCH   1   2
BRANCH   1   9
ATOM      9  C   UNL     1     -14.604 -23.296  80.713  1.00  0.00    -0.011 C 
ATOM     10  C   UNL     1     -13.567 -22.572  79.822  1.00  0.00     0.008 C 
BRANCH   9  11
ATOM     11  C   UNL     1     -15.579 -22.333  81.494  1.00  0.00    -0.002 C 
ATOM     12  C   UNL     1     -15.410 -20.856  81.091  1.00  0.00     0.005 C 
ATOM     13  C   UNL     1     -17.121 -22.598  81.410  1.00  0.00    -0.026 C 
ATOM     14  C   UNL     1     -16.682 -20.438  80.349  1.00  0.00     0.005 C 
ATOM     15  C   UNL     1     -17.585 -21.681  80.260  1.00  0.00    -0.001 C 
ATOM     16  C   UNL     1     -17.768 -22.129  82.756  1.00  0.00     0.007 C 
ATOM     17  C   UNL     1     -17.488 -24.084  81.161  1.00  0.00     0.012 C 
ATOM     18  C   UNL     1     -19.122 -21.398  80.222  1.00  0.00     0.000 C 
ATOM     19  C   UNL     1     -19.288 -21.969  82.685  1.00  0.00     0.005 C 
ATOM     20  C   UNL     1     -19.708 -20.966  81.584  1.00  0.00     0.003 C 
ATOM     21  C   UNL     1     -19.451 -20.335  79.165  1.00  0.00     0.031 C 
ATOM     22  C   UNL     1     -21.278 -20.712  81.522  1.00  0.00    -0.008 C 
ATOM     23  C   UNL     1     -20.920 -20.080  79.087  1.00  0.00    -0.027 C 
ATOM     24  C   UNL     1     -21.739 -20.170  80.154  1.00  0.00    -0.065 C 
ATOM     25  C   UNL     1     -22.089 -22.024  81.781  1.00  0.00     0.014 C 
ATOM     26  C   UNL     1     -21.624 -19.663  82.613  1.00  0.00     0.016 C 
ATOM     27  C   UNL     1     -23.226 -19.981  79.935  1.00  0.00     0.063 C 
ATOM     28  C   UNL     1     -23.610 -21.886  81.562  1.00  0.00     0.033 C 
ATOM     29  C   UNL     1     -23.941 -21.318  80.170  1.00  0.00     0.118 C 
BRANCH  29  30
ATOM     30  O   UNL     1     -25.330 -21.170  80.010  1.00  0.00    -0.393 OA
ATOM     31  H   UNL     1     -25.772 -21.638  80.765  1.00  0.00     0.210 HD
ENDBRANCH  29  30
ENDBRANCH   9  11
ENDBRANCH   1   9
TORSDOF 7
ENDMDL
MODEL 4
REMARK VINA RESULT:    -1.126      5.821      8.936
REMARK INTER + INTRA:          -3.835
REMARK INTER:                  -1.697
REMARK INTRA:                  -2.138
REMARK UNBOUND:                -2.281
REMARK SMILES CC[C@H](CC[C@H](C)[C@H]1CC[C@@H]2[C@@H]3CC=C4C[C@H](O)CC[C@@]4(C)[C@H]3CC[C@@]21C)C(C)C
REMARK SMILES IDX 5 1 4 2 3 3 2 4 1 5 28 6 29 7 30 8 6 9 7 10 8 11 9 12 26 13
REMARK SMILES IDX 10 14 11 15 25 16 27 17 12 18 24 19 23 20 13 21 21 22 14 23
REMARK SMILES IDX 15 24 20 25 22 26 16 27 19 28 17 29 18 30
REMARK H PARENT 18 31
REMARK Flexibility Score: inf
ROOT
ATOM      1  C   UNL     1     -16.005 -11.448  84.390  1.00  0.00     0.004 C 
ENDROOT
BRANCH   1   2
ATOM      2  C   UNL     1     -14.804 -12.108  83.677  1.00  0.00     0.004 C 
BRANCH   2   3
ATOM      3  C   UNL     1     -13.536 -12.182  84.580  1.00  0.00    -0.009 C 
BRANCH   3   4
ATOM      4  C   UNL     1     -13.735 -11.283  85.838  1.00  0.00     0.000 C 
ATOM      5  C   UNL     1     -12.937  -9.980  85.817  1.00  0.00     0.004 C 
ENDBRANCH   3   4
BRANCH   3   6
ATOM      6  C   UNL     1     -13.174 -13.678  84.888  1.00  0.00    -0.014 C 
ATOM      7  C   UNL     1     -13.893 -14.244  86.124  1.00  0.00     0.007 C 
ATOM      8  C   UNL     1     -13.346 -14.615  83.682  1.00  0.00     0.007 C 
ENDBRANCH   3   6
ENDBRANCH   2   3
ENDBRANCH   1   2
BRANCH   1   9
ATOM      9  C   UNL     1     -17.219 -12.411  84.553  1.00  0.00    -0.011 C 
ATOM     10  C   UNL     1     -17.601 -12.535  86.047  1.00  0.00     0.008 C 
BRANCH   9  11
ATOM     11  C   UNL     1     -16.926 -13.786  83.837  1.00  0.00    -0.002 C 
ATOM     12  C   UNL     1     -17.229 -15.002  84.733  1.00  0.00     0.005 C 
ATOM     13  C   UNL     1     -17.651 -14.096  82.483  1.00  0.00    -0.026 C 
ATOM     14  C   UNL     1     -18.440 -15.721  84.133  1.00  0.00     0.005 C 
ATOM     15  C   UNL     1     -18.894 -14.901  82.912  1.00  0.00    -0.001 C 
ATOM     16  C   UNL     1     -16.706 -14.998  81.623  1.00  0.00     0.007 C 
ATOM     17  C   UNL     1     -18.024 -12.830  81.670  1.00  0.00     0.012 C 
ATOM     18  C   UNL     1     -19.578 -15.718  81.767  1.00  0.00     0.000 C 
ATOM     19  C   UNL     1     -17.411 -15.691  80.455  1.00  0.00     0.005 C 
ATOM     20  C   UNL     1     -18.592 -16.568  80.936  1.00  0.00     0.003 C 
ATOM     21  C   UNL     1     -20.681 -16.623  82.333  1.00  0.00     0.031 C 
ATOM     22  C   UNL     1     -19.311 -17.365  79.762  1.00  0.00    -0.008 C 
ATOM     23  C   UNL     1     -21.372 -17.382  81.249  1.00  0.00    -0.027 C 
ATOM     24  C   UNL     1     -20.749 -17.788  80.124  1.00  0.00    -0.065 C 
ATOM     25  C   UNL     1     -19.410 -16.510  78.456  1.00  0.00     0.014 C 
ATOM     26  C   UNL     1     -18.473 -18.642  79.485  1.00  0.00     0.016 C 
ATOM     27  C   UNL     1     -21.575 -18.469  79.052  1.00  0.00     0.063 C 
ATOM     28  C   UNL     1     -20.251 -17.156  77.335  1.00  0.00     0.033 C 
ATOM     29  C   UNL     1     -21.656 -17.552  77.825  1.00  0.00     0.118 C 
BRANCH  29  30
ATOM     30  O   UNL     1     -22.388 -18.169  76.794  1.00  0.00    -0.393 OA
ATOM     31  H   UNL     1     -21.861 -18.082  75.957  1.00  0.00     0.210 HD
ENDBRANCH  29  30
ENDBRANCH   9  11
ENDBRANCH   1   9
TORSDOF 7
ENDMDL
MODEL 5
REMARK VINA RESULT:    -1.095      7.032      8.913
REMARK INTER + INTRA:          -3.793
REMARK INTER:                  -1.620
REMARK INTRA:                  -2.173
REMARK UNBOUND:                -2.281
REMARK SMILES CC[C@H](CC[C@H](C)[C@H]1CC[C@@H]2[C@@H]3CC=C4C[C@H](O)CC[C@@]4(C)[C@H]3CC[C@@]21C)C(C)C
REMARK SMILES IDX 5 1 4 2 3 3 2 4 1 5 28 6 29 7 30 8 6 9 7 10 8 11 9 12 26 13
REMARK SMILES IDX 10 14 11 15 25 16 27 17 12 18 24 19 23 20 13 21 21 22 14 23
REMARK SMILES IDX 15 24 20 25 22 26 16 27 19 28 17 29 18 30
REMARK H PARENT 18 31
REMARK Flexibility Score: inf
ROOT
ATOM      1  C   UNL     1     -16.113 -13.486  86.055  1.00  0.00     0.004 C 
ENDROOT
BRANCH   1   2
ATOM      2  C   UNL     1     -14.826 -14.022  85.390  1.00  0.00     0.004 C 
BRANCH   2   3
ATOM      3  C   UNL     1     -13.893 -12.882  84.881  1.00  0.00    -0.009 C 
BRANCH   3   4
ATOM      4  C   UNL     1     -13.244 -12.155  86.097  1.00  0.00     0.000 C 
ATOM      5  C   UNL     1     -13.460 -10.641  86.118  1.00  0.00     0.004 C 
ENDBRANCH   3   4
BRANCH   3   6
ATOM      6  C   UNL     1     -12.875 -13.441  83.825  1.00  0.00    -0.014 C 
ATOM      7  C   UNL     1     -12.986 -14.959  83.607  1.00  0.00     0.007 C 
ATOM      8  C   UNL     1     -12.909 -12.694  82.482  1.00  0.00     0.007 C 
ENDBRANCH   3   6
ENDBRANCH   2   3
ENDBRANCH   1   2
BRANCH   1   9
ATOM      9  C   UNL     1     -17.356 -13.555  85.118  1.00  0.00    -0.011 C 
ATOM     10  C   UNL     1     -18.603 -13.987  85.924  1.00  0.00     0.008 C 
BRANCH   9  11
ATOM     11  C   UNL     1     -17.044 -14.458  83.863  1.00  0.00    -0.002 C 
ATOM     12  C   UNL     1     -18.023 -15.638  83.718  1.00  0.00     0.005 C 
ATOM     13  C   UNL     1     -17.013 -13.788  82.447  1.00  0.00    -0.026 C 
ATOM     14  C   UNL     1     -18.873 -15.377  82.473  1.00  0.00     0.005 C 
ATOM     15  C   UNL     1     -18.440 -14.012  81.906  1.00  0.00    -0.001 C 
ATOM     16  C   UNL     1     -15.984 -14.568  81.564  1.00  0.00     0.007 C 
ATOM     17  C   UNL     1     -16.625 -12.287  82.474  1.00  0.00     0.012 C 
ATOM     18  C   UNL     1     -18.594 -13.843  80.360  1.00  0.00     0.000 C 
ATOM     19  C   UNL     1     -16.116 -14.283  80.066  1.00  0.00     0.005 C 
ATOM     20  C   UNL     1     -17.534 -14.614  79.542  1.00  0.00     0.003 C 
ATOM     21  C   UNL     1     -19.997 -14.268  79.906  1.00  0.00     0.031 C 
ATOM     22  C   UNL     1     -17.698 -14.401  77.974  1.00  0.00    -0.008 C 
ATOM     23  C   UNL     1     -20.176 -14.077  78.436  1.00  0.00    -0.027 C 
ATOM     24  C   UNL     1     -19.167 -14.210  77.550  1.00  0.00    -0.065 C 
ATOM     25  C   UNL     1     -16.919 -13.140  77.475  1.00  0.00     0.014 C 
ATOM     26  C   UNL     1     -17.140 -15.668  77.272  1.00  0.00     0.016 C 
ATOM     27  C   UNL     1     -19.448 -13.899  76.094  1.00  0.00     0.063 C 
ATOM     28  C   UNL     1     -17.177 -12.775  75.998  1.00  0.00     0.033 C 
ATOM     29  C   UNL     1     -18.681 -12.632  75.696  1.00  0.00     0.118 C 
BRANCH  29  30
ATOM     30  O   UNL     1     -18.889 -12.334  74.337  1.00  0.00    -0.393 OA
ATOM     31  H   UNL     1     -19.785 -11.914  74.255  1.00  0.00     0.210 HD
ENDBRANCH  29  30
ENDBRANCH   9  11
ENDBRANCH   1   9
TORSDOF 7
ENDMDL
MODEL 6
REMARK VINA RESULT:    -1.093      5.807      9.366
REMARK INTER + INTRA:          -3.789
REMARK INTER:                  -1.628
REMARK INTRA:                  -2.160
REMARK UNBOUND:                -2.281
REMARK SMILES CC[C@H](CC[C@H](C)[C@H]1CC[C@@H]2[C@@H]3CC=C4C[C@H](O)CC[C@@]4(C)[C@H]3CC[C@@]21C)C(C)C
REMARK SMILES IDX 5 1 4 2 3 3 2 4 1 5 28 6 29 7 30 8 6 9 7 10 8 11 9 12 26 13
REMARK SMILES IDX 10 14 11 15 25 16 27 17 12 18 24 19 23 20 13 21 21 22 14 23
REMARK SMILES IDX 15 24 20 25 22 26 16 27 19 28 17 29 18 30
REMARK H PARENT 18 31
REMARK Flexibility Score: inf
ROOT
ATOM      1  C   UNL     1     -21.089 -19.128  78.955  1.00  0.00     0.004 C 
ENDROOT
BRANCH   1   2
ATOM      2  C   UNL     1     -20.644 -18.001  77.996  1.00  0.00     0.004 C 
BRANCH   2   3
ATOM      3  C   UNL     1     -19.222 -18.244  77.404  1.00  0.00    -0.009 C 
BRANCH   3   4
ATOM      4  C   UNL     1     -19.262 -19.457  76.426  1.00  0.00     0.000 C 
ATOM      5  C   UNL     1     -18.040 -20.373  76.504  1.00  0.00     0.004 C 
ENDBRANCH   3   4
BRANCH   3   6
ATOM      6  C   UNL     1     -18.655 -16.916  76.787  1.00  0.00    -0.014 C 
ATOM      7  C   UNL     1     -19.578 -15.703  76.985  1.00  0.00     0.007 C 
ATOM      8  C   UNL     1     -17.223 -16.590  77.239  1.00  0.00     0.007 C 
ENDBRANCH   3   6
ENDBRANCH   2   3
ENDBRANCH   1   2
BRANCH   1   9
ATOM      9  C   UNL     1     -20.879 -18.768  80.455  1.00  0.00    -0.011 C 
ATOM     10  C   UNL     1     -22.137 -19.147  81.272  1.00  0.00     0.008 C 
BRANCH   9  11
ATOM     11  C   UNL     1     -20.436 -17.261  80.599  1.00  0.00    -0.002 C 
ATOM     12  C   UNL     1     -21.394 -16.438  81.481  1.00  0.00     0.005 C 
ATOM     13  C   UNL     1     -19.007 -16.950  81.162  1.00  0.00    -0.026 C 
ATOM     14  C   UNL     1     -20.639 -16.077  82.762  1.00  0.00     0.005 C 
ATOM     15  C   UNL     1     -19.249 -16.733  82.669  1.00  0.00    -0.001 C 
ATOM     16  C   UNL     1     -18.508 -15.618  80.508  1.00  0.00     0.007 C 
ATOM     17  C   UNL     1     -17.970 -18.069  80.889  1.00  0.00     0.012 C 
ATOM     18  C   UNL     1     -18.099 -15.987  83.421  1.00  0.00     0.000 C 
ATOM     19  C   UNL     1     -17.314 -14.989  81.228  1.00  0.00     0.005 C 
ATOM     20  C   UNL     1     -17.630 -14.696  82.715  1.00  0.00     0.003 C 
ATOM     21  C   UNL     1     -18.517 -15.658  84.861  1.00  0.00     0.031 C 
ATOM     22  C   UNL     1     -16.441 -13.974  83.487  1.00  0.00    -0.008 C 
ATOM     23  C   UNL     1     -17.417 -14.979  85.607  1.00  0.00    -0.027 C 
ATOM     24  C   UNL     1     -16.524 -14.160  85.015  1.00  0.00    -0.065 C 
ATOM     25  C   UNL     1     -15.044 -14.521  83.044  1.00  0.00     0.014 C 
ATOM     26  C   UNL     1     -16.530 -12.458  83.167  1.00  0.00     0.016 C 
ATOM     27  C   UNL     1     -15.394 -13.603  85.857  1.00  0.00     0.063 C 
ATOM     28  C   UNL     1     -13.859 -13.990  83.878  1.00  0.00     0.033 C 
ATOM     29  C   UNL     1     -14.070 -14.217  85.386  1.00  0.00     0.118 C 
BRANCH  29  30
ATOM     30  O   UNL     1     -12.993 -13.693  86.123  1.00  0.00    -0.393 OA
ATOM     31  H   UNL     1     -13.273 -12.811  86.481  1.00  0.00     0.210 HD
ENDBRANCH  29  30
ENDBRANCH   9  11
ENDBRANCH   1   9
TORSDOF 7
ENDMDL
MODEL 7
REMARK VINA RESULT:    -1.080      5.682      9.063
REMARK INTER + INTRA:          -3.772
REMARK INTER:                  -1.446
REMARK INTRA:                  -2.326
REMARK UNBOUND:                -2.281
REMARK SMILES CC[C@H](CC[C@H](C)[C@H]1CC[C@@H]2[C@@H]3CC=C4C[C@H](O)CC[C@@]4(C)[C@H]3CC[C@@]21C)C(C)C
REMARK SMILES IDX 5 1 4 2 3 3 2 4 1 5 28 6 29 7 30 8 6 9 7 10 8 11 9 12 26 13
REMARK SMILES IDX 10 14 11 15 25 16 27 17 12 18 24 19 23 20 13 21 21 22 14 23
REMARK SMILES IDX 15 24 20 25 22 26 16 27 19 28 17 29 18 30
REMARK H PARENT 18 31
REMARK Flexibility Score: inf
ROOT
ATOM      1  C   UNL     1     -16.468 -11.311  85.093  1.00  0.00     0.004 C 
ENDROOT
BRANCH   1   2
ATOM      2  C   UNL     1     -15.248 -11.991  85.753  1.00  0.00     0.004 C 
BRANCH   2   3
ATOM      3  C   UNL     1     -13.914 -11.681  85.009  1.00  0.00    -0.009 C 
BRANCH   3   4
ATOM      4  C   UNL     1     -13.189 -13.015  84.654  1.00  0.00     0.000 C 
ATOM      5  C   UNL     1     -13.622 -14.214  85.498  1.00  0.00     0.004 C 
ENDBRANCH   3   4
BRANCH   3   6
ATOM      6  C   UNL     1     -14.178 -10.728  83.789  1.00  0.00    -0.014 C 
ATOM      7  C   UNL     1     -13.630  -9.305  83.991  1.00  0.00     0.007 C 
ATOM      8  C   UNL     1     -13.712 -11.306  82.444  1.00  0.00     0.007 C 
ENDBRANCH   3   6
ENDBRANCH   2   3
ENDBRANCH   1   2
BRANCH   1   9
ATOM      9  C   UNL     1     -17.523 -12.331  84.571  1.00  0.00    -0.011 C 
ATOM     10  C   UNL     1     -18.524 -12.681  85.697  1.00  0.00     0.008 C 
BRANCH   9  11
ATOM     11  C   UNL     1     -16.806 -13.577  83.923  1.00  0.00    -0.002 C 
ATOM     12  C   UNL     1     -17.280 -14.916  84.518  1.00  0.00     0.005 C 
ATOM     13  C   UNL     1     -16.899 -13.774  82.371  1.00  0.00    -0.026 C 
ATOM     14  C   UNL     1     -18.061 -15.650  83.426  1.00  0.00     0.005 C 
ATOM     15  C   UNL     1     -18.100 -14.725  82.196  1.00  0.00    -0.001 C 
ATOM     16  C   UNL     1     -15.588 -14.482  81.893  1.00  0.00     0.007 C 
ATOM     17  C   UNL     1     -17.078 -12.450  81.583  1.00  0.00     0.012 C 
ATOM     18  C   UNL     1     -18.175 -15.445  80.811  1.00  0.00     0.000 C 
ATOM     19  C   UNL     1     -15.689 -15.078  80.487  1.00  0.00     0.005 C 
ATOM     20  C   UNL     1     -16.845 -16.101  80.379  1.00  0.00     0.003 C 
ATOM     21  C   UNL     1     -19.289 -16.500  80.809  1.00  0.00     0.031 C 
ATOM     22  C   UNL     1     -16.943 -16.801  78.954  1.00  0.00    -0.008 C 
ATOM     23  C   UNL     1     -19.401 -17.172  79.480  1.00  0.00    -0.027 C 
ATOM     24  C   UNL     1     -18.343 -17.382  78.672  1.00  0.00    -0.065 C 
ATOM     25  C   UNL     1     -16.629 -15.801  77.793  1.00  0.00     0.014 C 
ATOM     26  C   UNL     1     -15.912 -17.961  78.933  1.00  0.00     0.016 C 
ATOM     27  C   UNL     1     -18.593 -17.989  77.306  1.00  0.00     0.063 C 
ATOM     28  C   UNL     1     -16.878 -16.369  76.379  1.00  0.00     0.033 C 
ATOM     29  C   UNL     1     -18.302 -16.936  76.229  1.00  0.00     0.118 C 
BRANCH  29  30
ATOM     30  O   UNL     1     -18.489 -17.477  74.945  1.00  0.00    -0.393 OA
ATOM     31  H   UNL     1     -18.921 -18.364  75.052  1.00  0.00     0.210 HD
ENDBRANCH  29  30
ENDBRANCH   9  11
ENDBRANCH   1   9
TORSDOF 7
ENDMDL
MODEL 8
REMARK VINA RESULT:    -1.024      6.111      9.328
REMARK INTER + INTRA:          -3.694
REMARK INTER:                  -1.457
REMARK INTRA:                  -2.237
REMARK UNBOUND:                -2.281
REMARK SMILES CC[C@H](CC[C@H](C)[C@H]1CC[C@@H]2[C@@H]3CC=C4C[C@H](O)CC[C@@]4(C)[C@H]3CC[C@@]21C)C(C)C
REMARK SMILES IDX 5 1 4 2 3 3 2 4 1 5 28 6 29 7 30 8 6 9 7 10 8 11 9 12 26 13
REMARK SMILES IDX 10 14 11 15 25 16 27 17 12 18 24 19 23 20 13 21 21 22 14 23
REMARK SMILES IDX 15 24 20 25 22 26 16 27 19 28 17 29 18 30
REMARK H PARENT 18 31
REMARK Flexibility Score: inf
ROOT
ATOM      1  C   UNL     1     -22.377 -20.645  80.577  1.00  0.00     0.004 C 
ENDROOT
BRANCH   1   2
ATOM      2  C   UNL     1     -23.160 -19.469  79.952  1.00  0.00     0.004 C 
BRANCH   2   3
ATOM      3  C   UNL     1     -22.621 -19.071  78.545  1.00  0.00    -0.009 C 
BRANCH   3   4
ATOM      4  C   UNL     1     -22.608 -17.518  78.408  1.00  0.00     0.000 C 
ATOM      5  C   UNL     1     -23.398 -16.781  79.490  1.00  0.00     0.004 C 
ENDBRANCH   3   4
BRANCH   3   6
ATOM      6  C   UNL     1     -21.241 -19.770  78.271  1.00  0.00    -0.014 C 
ATOM      7  C   UNL     1     -21.274 -20.754  77.091  1.00  0.00     0.007 C 
ATOM      8  C   UNL     1     -20.070 -18.786  78.128  1.00  0.00     0.007 C 
ENDBRANCH   3   6
ENDBRANCH   2   3
ENDBRANCH   1   2
BRANCH   1   9
ATOM      9  C   UNL     1     -21.640 -20.254  81.892  1.00  0.00    -0.011 C 
ATOM     10  C   UNL     1     -22.284 -20.979  83.097  1.00  0.00     0.008 C 
BRANCH   9  11
ATOM     11  C   UNL     1     -21.570 -18.685  82.034  1.00  0.00    -0.002 C 
ATOM     12  C   UNL     1     -22.389 -18.156  83.227  1.00  0.00     0.005 C 
ATOM     13  C   UNL     1     -20.165 -18.007  82.180  1.00  0.00    -0.026 C 
ATOM     14  C   UNL     1     -21.395 -17.616  84.258  1.00  0.00     0.005 C 
ATOM     15  C   UNL     1     -19.982 -17.875  83.706  1.00  0.00    -0.001 C 
ATOM     16  C   UNL     1     -20.243 -16.585  81.531  1.00  0.00     0.007 C 
ATOM     17  C   UNL     1     -19.013 -18.805  81.518  1.00  0.00     0.012 C 
ATOM     18  C   UNL     1     -18.885 -16.854  84.152  1.00  0.00     0.000 C 
ATOM     19  C   UNL     1     -19.086 -15.664  81.924  1.00  0.00     0.005 C 
ATOM     20  C   UNL     1     -18.996 -15.479  83.459  1.00  0.00     0.003 C 
ATOM     21  C   UNL     1     -18.913 -16.661  85.675  1.00  0.00     0.031 C 
ATOM     22  C   UNL     1     -17.852 -14.471  83.911  1.00  0.00    -0.008 C 
ATOM     23  C   UNL     1     -17.846 -15.718  86.125  1.00  0.00    -0.027 C 
ATOM     24  C   UNL     1     -17.415 -14.685  85.374  1.00  0.00    -0.065 C 
ATOM     25  C   UNL     1     -16.566 -14.620  83.032  1.00  0.00     0.014 C 
ATOM     26  C   UNL     1     -18.415 -13.032  83.767  1.00  0.00     0.016 C 
ATOM     27  C   UNL     1     -16.261 -13.853  85.895  1.00  0.00     0.063 C 
ATOM     28  C   UNL     1     -15.358 -13.798  83.527  1.00  0.00     0.033 C 
ATOM     29  C   UNL     1     -15.034 -14.085  85.005  1.00  0.00     0.118 C 
BRANCH  29  30
ATOM     30  O   UNL     1     -13.952 -13.298  85.440  1.00  0.00    -0.393 OA
ATOM     31  H   UNL     1     -13.702 -12.692  84.694  1.00  0.00     0.210 HD
ENDBRANCH  29  30
ENDBRANCH   9  11
ENDBRANCH   1   9
TORSDOF 7
ENDMDL
MODEL 9
REMARK VINA RESULT:    -0.994      7.010     10.607
REMARK INTER + INTRA:          -3.652
REMARK INTER:                  -1.501
REMARK INTRA:                  -2.151
REMARK UNBOUND:                -2.281
REMARK SMILES CC[C@H](CC[C@H](C)[C@H]1CC[C@@H]2[C@@H]3CC=C4C[C@H](O)CC[C@@]4(C)[C@H]3CC[C@@]21C)C(C)C
REMARK SMILES IDX 5 1 4 2 3 3 2 4 1 5 28 6 29 7 30 8 6 9 7 10 8 11 9 12 26 13
REMARK SMILES IDX 10 14 11 15 25 16 27 17 12 18 24 19 23 20 13 21 21 22 14 23
REMARK SMILES IDX 15 24 20 25 22 26 16 27 19 28 17 29 18 30
REMARK H PARENT 18 31
REMARK Flexibility Score: inf
ROOT
ATOM      1  C   UNL     1     -22.335 -18.073  79.562  1.00  0.00     0.004 C 
ENDROOT
BRANCH   1   2
ATOM      2  C   UNL     1     -22.276 -16.725  78.810  1.00  0.00     0.004 C 
BRANCH   2   3
ATOM      3  C   UNL     1     -23.688 -16.189  78.426  1.00  0.00    -0.009 C 
BRANCH   3   4
ATOM      4  C   UNL     1     -24.778 -16.966  79.225  1.00  0.00     0.000 C 
ATOM      5  C   UNL     1     -25.438 -16.159  80.344  1.00  0.00     0.004 C 
ENDBRANCH   3   4
BRANCH   3   6
ATOM      6  C   UNL     1     -23.740 -14.628  78.583  1.00  0.00    -0.014 C 
ATOM      7  C   UNL     1     -22.392 -14.005  78.983  1.00  0.00     0.007 C 
ATOM      8  C   UNL     1     -24.334 -13.905  77.364  1.00  0.00     0.007 C 
ENDBRANCH   3   6
ENDBRANCH   2   3
ENDBRANCH   1   2
BRANCH   1   9
ATOM      9  C   UNL     1     -21.830 -17.972  81.032  1.00  0.00    -0.011 C 
ATOM     10  C   UNL     1     -22.926 -18.470  82.004  1.00  0.00     0.008 C 
BRANCH   9  11
ATOM     11  C   UNL     1     -21.304 -16.515  81.330  1.00  0.00    -0.002 C 
ATOM     12  C   UNL     1     -22.060 -15.832  82.486  1.00  0.00     0.005 C 
ATOM     13  C   UNL     1     -19.788 -16.321  81.674  1.00  0.00    -0.026 C 
ATOM     14  C   UNL     1     -21.081 -15.696  83.654  1.00  0.00     0.005 C 
ATOM     15  C   UNL     1     -19.758 -16.348  83.216  1.00  0.00    -0.001 C 
ATOM     16  C   UNL     1     -19.351 -14.909  81.160  1.00  0.00     0.007 C 
ATOM     17  C   UNL     1     -18.863 -17.397  81.050  1.00  0.00     0.012 C 
ATOM     18  C   UNL     1     -18.464 -15.752  83.860  1.00  0.00     0.000 C 
ATOM     19  C   UNL     1     -18.025 -14.423  81.748  1.00  0.00     0.005 C 
ATOM     20  C   UNL     1     -18.068 -14.370  83.295  1.00  0.00     0.003 C 
ATOM     21  C   UNL     1     -18.615 -15.655  85.385  1.00  0.00     0.031 C 
ATOM     22  C   UNL     1     -16.735 -13.802  83.949  1.00  0.00    -0.008 C 
ATOM     23  C   UNL     1     -17.374 -15.124  86.023  1.00  0.00    -0.027 C 
ATOM     24  C   UNL     1     -16.562 -14.232  85.419  1.00  0.00    -0.065 C 
ATOM     25  C   UNL     1     -15.460 -14.290  83.185  1.00  0.00     0.014 C 
ATOM     26  C   UNL     1     -16.812 -12.252  83.892  1.00  0.00     0.016 C 
ATOM     27  C   UNL     1     -15.282 -13.837  86.125  1.00  0.00     0.063 C 
ATOM     28  C   UNL     1     -14.127 -13.920  83.870  1.00  0.00     0.033 C 
ATOM     29  C   UNL     1     -14.085 -14.385  85.337  1.00  0.00     0.118 C 
BRANCH  29  30
ATOM     30  O   UNL     1     -12.876 -14.005  85.946  1.00  0.00    -0.393 OA
ATOM     31  H   UNL     1     -13.062 -13.213  86.516  1.00  0.00     0.210 HD
ENDBRANCH  29  30
ENDBRANCH   9  11
ENDBRANCH   1   9
TORSDOF 7
ENDMDL
