MODEL 1
REMARK VINA RESULT:    -2.540      0.000      0.000
REMARK INTER + INTRA:          -5.524
REMARK INTER:                  -4.025
REMARK INTRA:                  -1.499
REMARK UNBOUND:                -1.499
REMARK SMILES CCCCCCCCCCCC(=O)[O-]
REMARK SMILES IDX 7 1 8 2 9 3 10 4 11 5 12 6 13 7 14 8 6 9 5 10 4 11 3 12 2 13
REMARK SMILES IDX 1 14
REMARK H PARENT
REMARK Flexibility Score: inf
ROOT
ATOM      1  C   UNL     1       7.740 -20.006  20.659  1.00  0.00     0.000 C 
ENDROOT
BRANCH   1   2
ATOM      2  C   UNL     1       8.843 -19.918  21.725  1.00  0.00     0.000 C 
BRANCH   2   3
ATOM      3  C   UNL     1       9.755 -18.696  21.533  1.00  0.00     0.000 C 
BRANCH   3   4
ATOM      4  C   UNL     1      11.206 -19.085  21.203  1.00  0.00     0.006 C 
BRANCH   4   5
ATOM      5  C   UNL     1      11.751 -18.314  19.993  1.00  0.00     0.053 C 
BRANCH   5   6
ATOM      6  C   UNL     1      12.429 -17.043  20.405  1.00  0.00     0.041 C 
ATOM      7  O   UNL     1      12.524 -16.085  19.593  1.00  0.00    -0.550 OA
ATOM      8  O   UNL     1      12.984 -16.929  21.673  1.00  0.00    -0.550 OA
ENDBRANCH   5   6
ENDBRANCH   4   5
ENDBRANCH   3   4
ENDBRANCH   2   3
ENDBRANCH   1   2
BRANCH   1   9
ATOM      9  C   UNL     1       8.330 -20.371  19.288  1.00  0.00     0.000 C 
BRANCH   9  10
ATOM     10  C   UNL     1       8.042 -19.306  18.219  1.00  0.00    -0.000 C 
BRANCH  10  11
ATOM     11  C   UNL     1       6.857 -18.398  18.592  1.00  0.00    -0.000 C 
BRANCH  11  12
ATOM     12  C   UNL     1       7.202 -16.900  18.502  1.00  0.00    -0.000 C 
BRANCH  12  13
ATOM     13  C   UNL     1       8.701 -16.576  18.623  1.00  0.00    -0.003 C 
ATOM     14  C   UNL     1       9.001 -15.533  19.700  1.00  0.00     0.004 C 
ENDBRANCH  12  13
ENDBRANCH  11  12
ENDBRANCH  10  11
ENDBRANCH   9  10
ENDBRANCH   1   9
TORSDOF 10
ENDMDL
MODEL 2
REMARK VINA RESULT:    -2.537      1.270      3.112
REMARK INTER + INTRA:          -5.519
REMARK INTER:                  -4.102
REMARK INTRA:                  -1.416
REMARK UNBOUND:                -1.499
REMARK SMILES CCCCCCCCCCCC(=O)[O-]
REMARK SMILES IDX 7 1 8 2 9 3 10 4 11 5 12 6 13 7 14 8 6 9 5 10 4 11 3 12 2 13
REMARK SMILES IDX 1 14
REMARK H PARENT
REMARK Flexibility Score: inf
ROOT
ATOM      1  C   UNL     1       8.857 -16.003  19.648  1.00  0.00     0.000 C 
ENDROOT
BRANCH   1   2
ATOM      2  C   UNL     1      10.197 -16.700  19.927  1.00  0.00     0.000 C 
BRANCH   2   3
ATOM      3  C   UNL     1      10.254 -17.335  21.325  1.00  0.00     0.000 C 
BRANCH   3   4
ATOM      4  C   UNL     1      10.793 -18.775  21.302  1.00  0.00     0.006 C 
BRANCH   4   5
ATOM      5  C   UNL     1      12.120 -18.885  20.540  1.00  0.00     0.053 C 
BRANCH   5   6
ATOM      6  C   UNL     1      13.289 -18.528  21.408  1.00  0.00     0.041 C 
ATOM      7  O   UNL     1      13.634 -19.290  22.349  1.00  0.00    -0.550 OA
ATOM      8  O   UNL     1      13.974 -17.338  21.198  1.00  0.00    -0.550 OA
ENDBRANCH   5   6
ENDBRANCH   4   5
ENDBRANCH   3   4
ENDBRANCH   2   3
ENDBRANCH   1   2
BRANCH   1   9
ATOM      9  C   UNL     1       8.188 -16.583  18.393  1.00  0.00     0.000 C 
BRANCH   9  10
ATOM     10  C   UNL     1       8.896 -17.844  17.875  1.00  0.00    -0.000 C 
BRANCH  10  11
ATOM     11  C   UNL     1       7.996 -19.091  17.924  1.00  0.00    -0.000 C 
BRANCH  11  12
ATOM     12  C   UNL     1       8.200 -19.925  19.202  1.00  0.00    -0.000 C 
BRANCH  12  13
ATOM     13  C   UNL     1       7.181 -19.648  20.322  1.00  0.00    -0.003 C 
ATOM     14  C   UNL     1       7.562 -20.301  21.651  1.00  0.00     0.004 C 
ENDBRANCH  12  13
ENDBRANCH  11  12
ENDBRANCH  10  11
ENDBRANCH   9  10
ENDBRANCH   1   9
TORSDOF 10
ENDMDL
MODEL 3
REMARK VINA RESULT:    -2.526      3.326      4.989
REMARK INTER + INTRA:          -5.502
REMARK INTER:                  -4.073
REMARK INTRA:                  -1.429
REMARK UNBOUND:                -1.499
REMARK SMILES CCCCCCCCCCCC(=O)[O-]
REMARK SMILES IDX 7 1 8 2 9 3 10 4 11 5 12 6 13 7 14 8 6 9 5 10 4 11 3 12 2 13
REMARK SMILES IDX 1 14
REMARK H PARENT
REMARK Flexibility Score: inf
ROOT
ATOM      1  C   UNL     1      10.403 -19.225  18.252  1.00  0.00     0.000 C 
ENDROOT
BRANCH   1   2
ATOM      2  C   UNL     1       9.155 -19.623  19.054  1.00  0.00     0.000 C 
BRANCH   2   3
ATOM      3  C   UNL     1       7.854 -19.429  18.259  1.00  0.00     0.000 C 
BRANCH   3   4
ATOM      4  C   UNL     1       6.962 -18.320  18.843  1.00  0.00     0.006 C 
BRANCH   4   5
ATOM      5  C   UNL     1       6.924 -18.355  20.376  1.00  0.00     0.053 C 
BRANCH   5   6
ATOM      6  C   UNL     1       5.790 -19.193  20.884  1.00  0.00     0.041 C 
ATOM      7  O   UNL     1       5.958 -19.950  21.876  1.00  0.00    -0.550 OA
ATOM      8  O   UNL     1       4.560 -19.163  20.241  1.00  0.00    -0.550 OA
ENDBRANCH   5   6
ENDBRANCH   4   5
ENDBRANCH   3   4
ENDBRANCH   2   3
ENDBRANCH   1   2
BRANCH   1   9
ATOM      9  C   UNL     1      11.634 -19.125  19.165  1.00  0.00     0.000 C 
BRANCH   9  10
ATOM     10  C   UNL     1      11.263 -18.817  20.624  1.00  0.00    -0.000 C 
BRANCH  10  11
ATOM     11  C   UNL     1      11.452 -17.333  20.982  1.00  0.00    -0.000 C 
BRANCH  11  12
ATOM     12  C   UNL     1      10.127 -16.548  20.991  1.00  0.00    -0.000 C 
BRANCH  12  13
ATOM     13  C   UNL     1       9.777 -15.862  19.658  1.00  0.00    -0.003 C 
ATOM     14  C   UNL     1       8.533 -14.978  19.750  1.00  0.00     0.004 C 
ENDBRANCH  12  13
ENDBRANCH  11  12
ENDBRANCH  10  11
ENDBRANCH   9  10
ENDBRANCH   1   9
TORSDOF 10
ENDMDL
MODEL 4
REMARK VINA RESULT:    -2.522      3.123      5.312
REMARK INTER + INTRA:          -5.496
REMARK INTER:                  -4.752
REMARK INTRA:                  -0.744
REMARK UNBOUND:                -1.499
REMARK SMILES CCCCCCCCCCCC(=O)[O-]
REMARK SMILES IDX 7 1 8 2 9 3 10 4 11 5 12 6 13 7 14 8 6 9 5 10 4 11 3 12 2 13
REMARK SMILES IDX 1 14
REMARK H PARENT
REMARK Flexibility Score: inf
ROOT
ATOM      1  C   UNL     1      12.505 -19.166  21.599  1.00  0.00     0.000 C 
ENDROOT
BRANCH   1   2
ATOM      2  C   UNL     1      11.323 -18.879  20.662  1.00  0.00     0.000 C 
BRANCH   2   3
ATOM      3  C   UNL     1      11.715 -18.944  19.177  1.00  0.00     0.000 C 
BRANCH   3   4
ATOM      4  C   UNL     1      10.554 -19.398  18.276  1.00  0.00     0.006 C 
BRANCH   4   5
ATOM      5  C   UNL     1       9.282 -18.572  18.511  1.00  0.00     0.053 C 
BRANCH   5   6
ATOM      6  C   UNL     1       8.083 -19.447  18.715  1.00  0.00     0.041 C 
ATOM      7  O   UNL     1       8.229 -20.677  18.944  1.00  0.00    -0.550 OA
ATOM      8  O   UNL     1       6.806 -18.911  18.618  1.00  0.00    -0.550 OA
ENDBRANCH   5   6
ENDBRANCH   4   5
ENDBRANCH   3   4
ENDBRANCH   2   3
ENDBRANCH   1   2
BRANCH   1   9
ATOM      9  C   UNL     1      13.547 -18.040  21.529  1.00  0.00     0.000 C 
BRANCH   9  10
ATOM     10  C   UNL     1      12.912 -16.642  21.605  1.00  0.00    -0.000 C 
BRANCH  10  11
ATOM     11  C   UNL     1      13.491 -15.672  20.561  1.00  0.00    -0.000 C 
BRANCH  11  12
ATOM     12  C   UNL     1      12.415 -15.094  19.622  1.00  0.00    -0.000 C 
BRANCH  12  13
ATOM     13  C   UNL     1      12.386 -13.557  19.545  1.00  0.00    -0.003 C 
ATOM     14  C   UNL     1      13.269 -12.890  20.600  1.00  0.00     0.004 C 
ENDBRANCH  12  13
ENDBRANCH  11  12
ENDBRANCH  10  11
ENDBRANCH   9  10
ENDBRANCH   1   9
TORSDOF 10
ENDMDL
MODEL 5
REMARK VINA RESULT:    -2.517      2.875      5.320
REMARK INTER + INTRA:          -5.488
REMARK INTER:                  -4.387
REMARK INTRA:                  -1.101
REMARK UNBOUND:                -1.499
REMARK SMILES CCCCCCCCCCCC(=O)[O-]
REMARK SMILES IDX 7 1 8 2 9 3 10 4 11 5 12 6 13 7 14 8 6 9 5 10 4 11 3 12 2 13
REMARK SMILES IDX 1 14
REMARK H PARENT
REMARK Flexibility Score: inf
ROOT
ATOM      1  C   UNL     1       9.203 -17.199  18.718  1.00  0.00     0.000 C 
ENDROOT
BRANCH   1   2
ATOM      2  C   UNL     1       8.986 -18.493  17.919  1.00  0.00     0.000 C 
BRANCH   2   3
ATOM      3  C   UNL     1       7.736 -19.265  18.372  1.00  0.00     0.000 C 
BRANCH   3   4
ATOM      4  C   UNL     1       8.080 -20.536  19.167  1.00  0.00     0.006 C 
BRANCH   4   5
ATOM      5  C   UNL     1       8.247 -20.254  20.665  1.00  0.00     0.053 C 
BRANCH   5   6
ATOM      6  C   UNL     1       7.130 -19.411  21.200  1.00  0.00     0.041 C 
ATOM      7  O   UNL     1       5.957 -19.867  21.241  1.00  0.00    -0.550 OA
ATOM      8  O   UNL     1       7.378 -18.110  21.618  1.00  0.00    -0.550 OA
ENDBRANCH   5   6
ENDBRANCH   4   5
ENDBRANCH   3   4
ENDBRANCH   2   3
ENDBRANCH   1   2
BRANCH   1   9
ATOM      9  C   UNL     1      10.356 -17.359  19.721  1.00  0.00     0.000 C 
BRANCH   9  10
ATOM     10  C   UNL     1      11.292 -18.524  19.362  1.00  0.00    -0.000 C 
BRANCH  10  11
ATOM     11  C   UNL     1      12.327 -18.812  20.463  1.00  0.00    -0.000 C 
BRANCH  11  12
ATOM     12  C   UNL     1      11.682 -19.290  21.778  1.00  0.00    -0.000 C 
BRANCH  12  13
ATOM     13  C   UNL     1      12.584 -20.179  22.652  1.00  0.00    -0.003 C 
ATOM     14  C   UNL     1      14.019 -19.662  22.748  1.00  0.00     0.004 C 
ENDBRANCH  12  13
ENDBRANCH  11  12
ENDBRANCH  10  11
ENDBRANCH   9  10
ENDBRANCH   1   9
TORSDOF 10
ENDMDL
MODEL 6
REMARK VINA RESULT:    -2.510      4.224      5.362
REMARK INTER + INTRA:          -5.477
REMARK INTER:                  -3.958
REMARK INTRA:                  -1.519
REMARK UNBOUND:                -1.499
REMARK SMILES CCCCCCCCCCCC(=O)[O-]
REMARK SMILES IDX 7 1 8 2 9 3 10 4 11 5 12 6 13 7 14 8 6 9 5 10 4 11 3 12 2 13
REMARK SMILES IDX 1 14
REMARK H PARENT
REMARK Flexibility Score: inf
ROOT
ATOM      1  C   UNL     1       8.338 -19.859  20.288  1.00  0.00     0.000 C 
ENDROOT
BRANCH   1   2
ATOM      2  C   UNL     1       6.907 -19.779  20.839  1.00  0.00     0.000 C 
BRANCH   2   3
ATOM      3  C   UNL     1       6.546 -18.374  21.348  1.00  0.00     0.000 C 
BRANCH   3   4
ATOM      4  C   UNL     1       5.441 -17.706  20.512  1.00  0.00     0.006 C 
BRANCH   4   5
ATOM      5  C   UNL     1       4.930 -18.621  19.391  1.00  0.00     0.053 C 
BRANCH   5   6
ATOM      6  C   UNL     1       3.504 -19.026  19.612  1.00  0.00     0.041 C 
ATOM      7  O   UNL     1       2.636 -18.792  18.731  1.00  0.00    -0.550 OA
ATOM      8  O   UNL     1       3.130 -19.631  20.805  1.00  0.00    -0.550 OA
ENDBRANCH   5   6
ENDBRANCH   4   5
ENDBRANCH   3   4
ENDBRANCH   2   3
ENDBRANCH   1   2
BRANCH   1   9
ATOM      9  C   UNL     1       8.333 -20.240  18.800  1.00  0.00     0.000 C 
BRANCH   9  10
ATOM     10  C   UNL     1       8.251 -19.014  17.876  1.00  0.00    -0.000 C 
BRANCH  10  11
ATOM     11  C   UNL     1       8.979 -17.788  18.454  1.00  0.00    -0.000 C 
BRANCH  11  12
ATOM     12  C   UNL     1       8.149 -16.495  18.344  1.00  0.00    -0.000 C 
BRANCH  12  13
ATOM     13  C   UNL     1       8.375 -15.487  19.485  1.00  0.00    -0.003 C 
ATOM     14  C   UNL     1       9.792 -15.537  20.055  1.00  0.00     0.004 C 
ENDBRANCH  12  13
ENDBRANCH  11  12
ENDBRANCH  10  11
ENDBRANCH   9  10
ENDBRANCH   1   9
TORSDOF 10
ENDMDL
MODEL 7
REMARK VINA RESULT:    -2.508      1.464      3.333
REMARK INTER + INTRA:          -5.474
REMARK INTER:                  -3.872
REMARK INTRA:                  -1.602
REMARK UNBOUND:                -1.499
REMARK SMILES CCCCCCCCCCCC(=O)[O-]
REMARK SMILES IDX 7 1 8 2 9 3 10 4 11 5 12 6 13 7 14 8 6 9 5 10 4 11 3 12 2 13
REMARK SMILES IDX 1 14
REMARK H PARENT
REMARK Flexibility Score: inf
ROOT
ATOM      1  C   UNL     1       7.052 -16.882  18.983  1.00  0.00     0.000 C 
ENDROOT
BRANCH   1   2
ATOM      2  C   UNL     1       8.403 -16.169  19.149  1.00  0.00     0.000 C 
BRANCH   2   3
ATOM      3  C   UNL     1       8.792 -15.977  20.624  1.00  0.00     0.000 C 
BRANCH   3   4
ATOM      4  C   UNL     1       9.993 -16.845  21.038  1.00  0.00     0.006 C 
BRANCH   4   5
ATOM      5  C   UNL     1      10.942 -17.119  19.864  1.00  0.00     0.053 C 
BRANCH   5   6
ATOM      6  C   UNL     1      11.625 -18.446  20.001  1.00  0.00     0.041 C 
ATOM      7  O   UNL     1      12.083 -18.810  21.116  1.00  0.00    -0.550 OA
ATOM      8  O   UNL     1      11.786 -19.264  18.890  1.00  0.00    -0.550 OA
ENDBRANCH   5   6
ENDBRANCH   4   5
ENDBRANCH   3   4
ENDBRANCH   2   3
ENDBRANCH   1   2
BRANCH   1   9
ATOM      9  C   UNL     1       7.129 -17.954  17.886  1.00  0.00     0.000 C 
BRANCH   9  10
ATOM     10  C   UNL     1       8.327 -18.899  18.067  1.00  0.00    -0.000 C 
BRANCH  10  11
ATOM     11  C   UNL     1       7.967 -20.165  18.864  1.00  0.00    -0.000 C 
BRANCH  11  12
ATOM     12  C   UNL     1       8.363 -20.068  20.349  1.00  0.00    -0.000 C 
BRANCH  12  13
ATOM     13  C   UNL     1       7.228 -20.381  21.340  1.00  0.00    -0.003 C 
ATOM     14  C   UNL     1       6.543 -19.125  21.879  1.00  0.00     0.004 C 
ENDBRANCH  12  13
ENDBRANCH  11  12
ENDBRANCH  10  11
ENDBRANCH   9  10
ENDBRANCH   1   9
TORSDOF 10
ENDMDL
MODEL 8
REMARK VINA RESULT:    -2.507      1.478      3.549
REMARK INTER + INTRA:          -5.472
REMARK INTER:                  -4.194
REMARK INTRA:                  -1.279
REMARK UNBOUND:                -1.499
REMARK SMILES CCCCCCCCCCCC(=O)[O-]
REMARK SMILES IDX 7 1 8 2 9 3 10 4 11 5 12 6 13 7 14 8 6 9 5 10 4 11 3 12 2 13
REMARK SMILES IDX 1 14
REMARK H PARENT
REMARK Flexibility Score: inf
ROOT
ATOM      1  C   UNL     1       7.997 -19.260  18.257  1.00  0.00     0.000 C 
ENDROOT
BRANCH   1   2
ATOM      2  C   UNL     1       9.324 -18.500  18.113  1.00  0.00     0.000 C 
BRANCH   2   3
ATOM      3  C   UNL     1      10.550 -19.411  18.286  1.00  0.00     0.000 C 
BRANCH   3   4
ATOM      4  C   UNL     1      11.545 -18.875  19.329  1.00  0.00     0.006 C 
BRANCH   4   5
ATOM      5  C   UNL     1      11.022 -17.618  20.037  1.00  0.00     0.053 C 
BRANCH   5   6
ATOM      6  C   UNL     1      12.096 -16.587  20.203  1.00  0.00     0.041 C 
ATOM      7  O   UNL     1      11.991 -15.466  19.639  1.00  0.00    -0.550 OA
ATOM      8  O   UNL     1      13.229 -16.877  20.953  1.00  0.00    -0.550 OA
ENDBRANCH   5   6
ENDBRANCH   4   5
ENDBRANCH   3   4
ENDBRANCH   2   3
ENDBRANCH   1   2
BRANCH   1   9
ATOM      9  C   UNL     1       8.107 -20.359  19.326  1.00  0.00     0.000 C 
BRANCH   9  10
ATOM     10  C   UNL     1       7.774 -19.847  20.736  1.00  0.00    -0.000 C 
BRANCH  10  11
ATOM     11  C   UNL     1       8.469 -20.661  21.840  1.00  0.00    -0.000 C 
BRANCH  11  12
ATOM     12  C   UNL     1       9.539 -19.851  22.595  1.00  0.00    -0.000 C 
BRANCH  12  13
ATOM     13  C   UNL     1      10.722 -20.681  23.123  1.00  0.00    -0.003 C 
ATOM     14  C   UNL     1      12.081 -20.105  22.724  1.00  0.00     0.004 C 
ENDBRANCH  12  13
ENDBRANCH  11  12
ENDBRANCH  10  11
ENDBRANCH   9  10
ENDBRANCH   1   9
TORSDOF 10
ENDMDL
MODEL 9
REMARK VINA RESULT:    -2.452      3.202      5.179
REMARK INTER + INTRA:          -5.384
REMARK INTER:                  -4.015
REMARK INTRA:                  -1.370
REMARK UNBOUND:                -1.499
REMARK SMILES CCCCCCCCCCCC(=O)[O-]
REMARK SMILES IDX 7 1 8 2 9 3 10 4 11 5 12 6 13 7 14 8 6 9 5 10 4 11 3 12 2 13
REMARK SMILES IDX 1 14
REMARK H PARENT
REMARK Flexibility Score: inf
ROOT
ATOM      1  C   UNL     1       8.678 -17.907  17.875  1.00  0.00     0.000 C 
ENDROOT
BRANCH   1   2
ATOM      2  C   UNL     1       7.731 -19.069  18.214  1.00  0.00     0.000 C 
BRANCH   2   3
ATOM      3  C   UNL     1       8.434 -20.201  18.980  1.00  0.00     0.000 C 
BRANCH   3   4
ATOM      4  C   UNL     1       8.037 -20.247  20.466  1.00  0.00     0.006 C 
BRANCH   4   5
ATOM      5  C   UNL     1       6.778 -19.419  20.755  1.00  0.00     0.053 C 
BRANCH   5   6
ATOM      6  C   UNL     1       6.131 -19.824  22.045  1.00  0.00     0.041 C 
ATOM      7  O   UNL     1       6.596 -20.788  22.710  1.00  0.00    -0.550 OA
ATOM      8  O   UNL     1       4.997 -19.160  22.494  1.00  0.00    -0.550 OA
ENDBRANCH   5   6
ENDBRANCH   4   5
ENDBRANCH   3   4
ENDBRANCH   2   3
ENDBRANCH   1   2
BRANCH   1   9
ATOM      9  C   UNL     1       8.190 -16.598  18.513  1.00  0.00     0.000 C 
BRANCH   9  10
ATOM     10  C   UNL     1       9.063 -16.157  19.698  1.00  0.00    -0.000 C 
BRANCH  10  11
ATOM     11  C   UNL     1      10.443 -16.835  19.701  1.00  0.00    -0.000 C 
BRANCH  11  12
ATOM     12  C   UNL     1      10.695 -17.671  20.970  1.00  0.00    -0.000 C 
BRANCH  12  13
ATOM     13  C   UNL     1      11.584 -18.910  20.758  1.00  0.00    -0.003 C 
ATOM     14  C   UNL     1      11.973 -19.596  22.068  1.00  0.00     0.004 C 
ENDBRANCH  12  13
ENDBRANCH  11  12
ENDBRANCH  10  11
ENDBRANCH   9  10
ENDBRANCH   1   9
TORSDOF 10
ENDMDL
