MODEL 1
REMARK VINA RESULT:    -6.446      0.000      0.000
REMARK INTER + INTRA:          -7.885
REMARK INTER:                  -7.765
REMARK INTRA:                  -0.120
REMARK UNBOUND:                -0.120
REMARK SMILES O=c1c(O)c(-c2ccc(O)c(O)c2)oc2cc(O)cc(O)c12
REMARK SMILES IDX 5 1 3 2 2 3 1 4 22 5 20 6 19 7 17 8 16 9 15 10 14 11 6 12
REMARK SMILES IDX 7 13 8 14 9 15 13 16 11 17 10 18 12 20 4 22 21 24 18 26
REMARK H PARENT 10 19 12 21 4 23 21 25 18 27
REMARK Flexibility Score: inf
ROOT
ATOM      1  C   UNL     1      69.356  48.144   7.795  1.00  0.00     0.180 A 
ATOM      2  C   UNL     1      69.730  48.519   6.492  1.00  0.00     0.208 A 
ATOM      3  C   UNL     1      71.082  48.433   6.121  1.00  0.00     0.238 A 
ATOM      4  O   UNL     1      71.418  48.822   4.973  1.00  0.00    -0.285 OA
ATOM      5  C   UNL     1      72.039  47.958   7.049  1.00  0.00     0.111 A 
ATOM      6  C   UNL     1      73.428  47.791   6.768  1.00  0.00     0.134 A 
ATOM      7  C   UNL     1      74.305  47.439   7.801  1.00  0.00     0.093 A 
ATOM      8  C   UNL     1      73.832  47.183   9.090  1.00  0.00     0.123 A 
ATOM      9  C   UNL     1      72.470  47.284   9.361  1.00  0.00     0.094 A 
ATOM     10  C   UNL     1      71.576  47.670   8.360  1.00  0.00     0.146 A 
ATOM     11  O   UNL     1      70.286  47.766   8.663  1.00  0.00    -0.452 OA
ENDROOT
BRANCH   1  12
ATOM     12  C   UNL     1      67.948  48.184   8.252  1.00  0.00     0.025 A 
ATOM     13  C   UNL     1      67.616  48.917   9.402  1.00  0.00     0.016 A 
ATOM     14  C   UNL     1      66.297  48.951   9.863  1.00  0.00     0.051 A 
ATOM     15  C   UNL     1      65.294  48.240   9.191  1.00  0.00     0.157 A 
ATOM     16  C   UNL     1      66.943  47.455   7.592  1.00  0.00     0.062 A 
ATOM     17  C   UNL     1      65.622  47.484   8.053  1.00  0.00     0.158 A 
BRANCH  15  18
ATOM     18  O   UNL     1      63.979  48.277   9.652  1.00  0.00    -0.504 OA
ATOM     19  H   UNL     1      63.720  48.810  10.475  1.00  0.00     0.293 HD
ENDBRANCH  15  18
BRANCH  17  20
ATOM     20  O   UNL     1      64.649  46.754   7.370  1.00  0.00    -0.504 OA
ATOM     21  H   UNL     1      64.194  47.110   6.538  1.00  0.00     0.293 HD
ENDBRANCH  17  20
ENDBRANCH   1  12
BRANCH   2  22
ATOM     22  O   UNL     1      68.773  49.007   5.599  1.00  0.00    -0.502 OA
ATOM     23  H   UNL     1      67.892  48.535   5.435  1.00  0.00     0.293 HD
ENDBRANCH   2  22
BRANCH   6  24
ATOM     24  O   UNL     1      73.988  47.933   5.495  1.00  0.00    -0.507 OA
ATOM     25  H   UNL     1      73.682  47.433   4.674  1.00  0.00     0.293 HD
ENDBRANCH   6  24
BRANCH   8  26
ATOM     26  O   UNL     1      74.710  46.816  10.109  1.00  0.00    -0.508 OA
ATOM     27  H   UNL     1      75.700  47.021  10.054  1.00  0.00     0.293 HD
ENDBRANCH   8  26
TORSDOF 6
ENDMDL
MODEL 2
REMARK VINA RESULT:    -6.406      4.007      7.413
REMARK INTER + INTRA:          -7.837
REMARK INTER:                  -7.569
REMARK INTRA:                  -0.268
REMARK UNBOUND:                -0.120
REMARK SMILES O=c1c(O)c(-c2ccc(O)c(O)c2)oc2cc(O)cc(O)c12
REMARK SMILES IDX 5 1 3 2 2 3 1 4 22 5 20 6 19 7 17 8 16 9 15 10 14 11 6 12
REMARK SMILES IDX 7 13 8 14 9 15 13 16 11 17 10 18 12 20 4 22 21 24 18 26
REMARK H PARENT 10 19 12 21 4 23 21 25 18 27
REMARK Flexibility Score: inf
ROOT
ATOM      1  C   UNL     1      72.326  46.391   5.267  1.00  0.00     0.180 A 
ATOM      2  C   UNL     1      71.979  47.143   6.403  1.00  0.00     0.208 A 
ATOM      3  C   UNL     1      71.286  48.352   6.232  1.00  0.00     0.238 A 
ATOM      4  O   UNL     1      71.026  49.047   7.248  1.00  0.00    -0.285 OA
ATOM      5  C   UNL     1      70.934  48.786   4.932  1.00  0.00     0.111 A 
ATOM      6  C   UNL     1      70.197  49.973   4.645  1.00  0.00     0.134 A 
ATOM      7  C   UNL     1      70.019  50.372   3.314  1.00  0.00     0.093 A 
ATOM      8  C   UNL     1      70.496  49.591   2.259  1.00  0.00     0.123 A 
ATOM      9  C   UNL     1      71.164  48.399   2.527  1.00  0.00     0.094 A 
ATOM     10  C   UNL     1      71.389  47.994   3.844  1.00  0.00     0.146 A 
ATOM     11  O   UNL     1      72.041  46.856   4.057  1.00  0.00    -0.452 OA
ENDROOT
BRANCH   1  12
ATOM     12  C   UNL     1      73.035  45.094   5.366  1.00  0.00     0.025 A 
ATOM     13  C   UNL     1      74.417  45.079   5.608  1.00  0.00     0.016 A 
ATOM     14  C   UNL     1      75.109  43.868   5.686  1.00  0.00     0.051 A 
ATOM     15  C   UNL     1      74.433  42.654   5.508  1.00  0.00     0.157 A 
ATOM     16  C   UNL     1      72.362  43.875   5.168  1.00  0.00     0.062 A 
ATOM     17  C   UNL     1      73.053  42.660   5.242  1.00  0.00     0.158 A 
BRANCH  15  18
ATOM     18  O   UNL     1      75.125  41.447   5.588  1.00  0.00    -0.504 OA
ATOM     19  H   UNL     1      74.639  40.558   5.616  1.00  0.00     0.293 HD
ENDBRANCH  15  18
BRANCH  17  20
ATOM     20  O   UNL     1      72.353  41.469   5.046  1.00  0.00    -0.504 OA
ATOM     21  H   UNL     1      72.243  41.054   4.128  1.00  0.00     0.293 HD
ENDBRANCH  17  20
ENDBRANCH   1  12
BRANCH   2  22
ATOM     22  O   UNL     1      72.355  46.708   7.676  1.00  0.00    -0.502 OA
ATOM     23  H   UNL     1      72.313  47.308   8.490  1.00  0.00     0.293 HD
ENDBRANCH   2  22
BRANCH   6  24
ATOM     24  O   UNL     1      69.600  50.776   5.622  1.00  0.00    -0.507 OA
ATOM     25  H   UNL     1      69.509  51.779   5.564  1.00  0.00     0.293 HD
ENDBRANCH   6  24
BRANCH   8  26
ATOM     26  O   UNL     1      70.300  49.987   0.937  1.00  0.00    -0.508 OA
ATOM     27  H   UNL     1      69.409  50.349   0.619  1.00  0.00     0.293 HD
ENDBRANCH   8  26
TORSDOF 6
ENDMDL
MODEL 3
REMARK VINA RESULT:    -6.073      1.780      7.144
REMARK INTER + INTRA:          -7.436
REMARK INTER:                  -7.150
REMARK INTRA:                  -0.286
REMARK UNBOUND:                -0.120
REMARK SMILES O=c1c(O)c(-c2ccc(O)c(O)c2)oc2cc(O)cc(O)c12
REMARK SMILES IDX 5 1 3 2 2 3 1 4 22 5 20 6 19 7 17 8 16 9 15 10 14 11 6 12
REMARK SMILES IDX 7 13 8 14 9 15 13 16 11 17 10 18 12 20 4 22 21 24 18 26
REMARK H PARENT 10 19 12 21 4 23 21 25 18 27
REMARK Flexibility Score: inf
ROOT
ATOM      1  C   UNL     1      69.096  48.079   8.743  1.00  0.00     0.180 A 
ATOM      2  C   UNL     1      68.398  49.119   9.382  1.00  0.00     0.208 A 
ATOM      3  C   UNL     1      67.001  49.029   9.500  1.00  0.00     0.238 A 
ATOM      4  O   UNL     1      66.377  49.988  10.023  1.00  0.00    -0.285 OA
ATOM      5  C   UNL     1      66.323  47.895   8.993  1.00  0.00     0.111 A 
ATOM      6  C   UNL     1      64.915  47.681   9.093  1.00  0.00     0.134 A 
ATOM      7  C   UNL     1      64.335  46.586   8.440  1.00  0.00     0.093 A 
ATOM      8  C   UNL     1      65.120  45.663   7.746  1.00  0.00     0.123 A 
ATOM      9  C   UNL     1      66.502  45.830   7.694  1.00  0.00     0.094 A 
ATOM     10  C   UNL     1      67.105  46.932   8.303  1.00  0.00     0.146 A 
ATOM     11  O   UNL     1      68.424  47.061   8.219  1.00  0.00    -0.452 OA
ENDROOT
BRANCH   1  12
ATOM     12  C   UNL     1      70.570  48.090   8.602  1.00  0.00     0.025 A 
ATOM     13  C   UNL     1      71.161  48.852   7.583  1.00  0.00     0.016 A 
ATOM     14  C   UNL     1      72.549  48.860   7.420  1.00  0.00     0.051 A 
ATOM     15  C   UNL     1      73.365  48.095   8.262  1.00  0.00     0.157 A 
ATOM     16  C   UNL     1      71.390  47.307   9.434  1.00  0.00     0.062 A 
ATOM     17  C   UNL     1      72.781  47.310   9.271  1.00  0.00     0.158 A 
BRANCH  15  18
ATOM     18  O   UNL     1      74.749  48.106   8.099  1.00  0.00    -0.504 OA
ATOM     19  H   UNL     1      75.228  48.901   7.691  1.00  0.00     0.293 HD
ENDBRANCH  15  18
BRANCH  17  20
ATOM     20  O   UNL     1      73.564  46.526  10.118  1.00  0.00    -0.504 OA
ATOM     21  H   UNL     1      73.157  45.873  10.777  1.00  0.00     0.293 HD
ENDBRANCH  17  20
ENDBRANCH   1  12
BRANCH   2  22
ATOM     22  O   UNL     1      69.085  50.240   9.855  1.00  0.00    -0.502 OA
ATOM     23  H   UNL     1      69.800  50.708   9.312  1.00  0.00     0.293 HD
ENDBRANCH   2  22
BRANCH   6  24
ATOM     24  O   UNL     1      64.054  48.492   9.837  1.00  0.00    -0.507 OA
ATOM     25  H   UNL     1      63.047  48.427   9.823  1.00  0.00     0.293 HD
ENDBRANCH   6  24
BRANCH   8  26
ATOM     26  O   UNL     1      64.536  44.567   7.114  1.00  0.00    -0.508 OA
ATOM     27  H   UNL     1      65.093  43.795   6.768  1.00  0.00     0.293 HD
ENDBRANCH   8  26
TORSDOF 6
ENDMDL
MODEL 4
REMARK VINA RESULT:    -6.012      2.041      7.206
REMARK INTER + INTRA:          -7.363
REMARK INTER:                  -7.276
REMARK INTRA:                  -0.087
REMARK UNBOUND:                -0.120
REMARK SMILES O=c1c(O)c(-c2ccc(O)c(O)c2)oc2cc(O)cc(O)c12
REMARK SMILES IDX 5 1 3 2 2 3 1 4 22 5 20 6 19 7 17 8 16 9 15 10 14 11 6 12
REMARK SMILES IDX 7 13 8 14 9 15 13 16 11 17 10 18 12 20 4 22 21 24 18 26
REMARK H PARENT 10 19 12 21 4 23 21 25 18 27
REMARK Flexibility Score: inf
ROOT
ATOM      1  C   UNL     1      68.072  47.948   8.997  1.00  0.00     0.180 A 
ATOM      2  C   UNL     1      67.150  48.840   9.570  1.00  0.00     0.208 A 
ATOM      3  C   UNL     1      65.793  48.480   9.617  1.00  0.00     0.238 A 
ATOM      4  O   UNL     1      64.965  49.306  10.081  1.00  0.00    -0.285 OA
ATOM      5  C   UNL     1      65.379  47.226   9.107  1.00  0.00     0.111 A 
ATOM      6  C   UNL     1      64.038  46.741   9.139  1.00  0.00     0.134 A 
ATOM      7  C   UNL     1      63.720  45.542   8.487  1.00  0.00     0.093 A 
ATOM      8  C   UNL     1      64.709  44.780   7.861  1.00  0.00     0.123 A 
ATOM      9  C   UNL     1      66.032  45.215   7.877  1.00  0.00     0.094 A 
ATOM     10  C   UNL     1      66.373  46.424   8.486  1.00  0.00     0.146 A 
ATOM     11  O   UNL     1      67.644  46.808   8.468  1.00  0.00    -0.452 OA
ENDROOT
BRANCH   1  12
ATOM     12  C   UNL     1      69.522  48.246   8.934  1.00  0.00     0.025 A 
ATOM     13  C   UNL     1      70.224  48.514  10.118  1.00  0.00     0.016 A 
ATOM     14  C   UNL     1      71.587  48.818  10.080  1.00  0.00     0.051 A 
ATOM     15  C   UNL     1      72.266  48.872   8.855  1.00  0.00     0.157 A 
ATOM     16  C   UNL     1      70.201  48.321   7.704  1.00  0.00     0.062 A 
ATOM     17  C   UNL     1      71.566  48.627   7.662  1.00  0.00     0.158 A 
BRANCH  15  18
ATOM     18  O   UNL     1      73.626  49.173   8.820  1.00  0.00    -0.504 OA
ATOM     19  H   UNL     1      74.304  48.520   8.445  1.00  0.00     0.293 HD
ENDBRANCH  15  18
BRANCH  17  20
ATOM     20  O   UNL     1      72.209  48.688   6.425  1.00  0.00    -0.504 OA
ATOM     21  H   UNL     1      71.791  49.145   5.623  1.00  0.00     0.293 HD
ENDBRANCH  17  20
ENDBRANCH   1  12
BRANCH   2  22
ATOM     22  O   UNL     1      67.577  50.082  10.047  1.00  0.00    -0.502 OA
ATOM     23  H   UNL     1      67.032  50.629  10.702  1.00  0.00     0.293 HD
ENDBRANCH   2  22
BRANCH   6  24
ATOM     24  O   UNL     1      62.993  47.380   9.815  1.00  0.00    -0.507 OA
ATOM     25  H   UNL     1      63.085  48.242  10.330  1.00  0.00     0.293 HD
ENDBRANCH   6  24
BRANCH   8  26
ATOM     26  O   UNL     1      64.387  43.580   7.230  1.00  0.00    -0.508 OA
ATOM     27  H   UNL     1      64.225  43.534   6.231  1.00  0.00     0.293 HD
ENDBRANCH   8  26
TORSDOF 6
ENDMDL
MODEL 5
REMARK VINA RESULT:    -5.806      1.409      2.943
REMARK INTER + INTRA:          -7.115
REMARK INTER:                  -6.880
REMARK INTRA:                  -0.234
REMARK UNBOUND:                -0.120
REMARK SMILES O=c1c(O)c(-c2ccc(O)c(O)c2)oc2cc(O)cc(O)c12
REMARK SMILES IDX 5 1 3 2 2 3 1 4 22 5 20 6 19 7 17 8 16 9 15 10 14 11 6 12
REMARK SMILES IDX 7 13 8 14 9 15 13 16 11 17 10 18 12 20 4 22 21 24 18 26
REMARK H PARENT 10 19 12 21 4 23 21 25 18 27
REMARK Flexibility Score: inf
ROOT
ATOM      1  C   UNL     1      69.286  47.580   8.110  1.00  0.00     0.180 A 
ATOM      2  C   UNL     1      70.129  46.792   8.912  1.00  0.00     0.208 A 
ATOM      3  C   UNL     1      71.437  46.529   8.471  1.00  0.00     0.238 A 
ATOM      4  O   UNL     1      72.168  45.778   9.167  1.00  0.00    -0.285 OA
ATOM      5  C   UNL     1      71.889  47.070   7.245  1.00  0.00     0.111 A 
ATOM      6  C   UNL     1      73.205  46.902   6.720  1.00  0.00     0.134 A 
ATOM      7  C   UNL     1      73.503  47.372   5.435  1.00  0.00     0.093 A 
ATOM      8  C   UNL     1      72.550  48.061   4.682  1.00  0.00     0.123 A 
ATOM      9  C   UNL     1      71.280  48.284   5.210  1.00  0.00     0.094 A 
ATOM     10  C   UNL     1      70.942  47.794   6.473  1.00  0.00     0.146 A 
ATOM     11  O   UNL     1      69.717  48.018   6.934  1.00  0.00    -0.452 OA
ENDROOT
BRANCH   1  12
ATOM     12  C   UNL     1      67.903  47.922   8.519  1.00  0.00     0.025 A 
ATOM     13  C   UNL     1      67.698  48.820   9.577  1.00  0.00     0.016 A 
ATOM     14  C   UNL     1      66.403  49.141   9.992  1.00  0.00     0.051 A 
ATOM     15  C   UNL     1      65.295  48.556   9.366  1.00  0.00     0.157 A 
ATOM     16  C   UNL     1      66.789  47.321   7.906  1.00  0.00     0.062 A 
ATOM     17  C   UNL     1      65.491  47.638   8.321  1.00  0.00     0.158 A 
BRANCH  15  18
ATOM     18  O   UNL     1      64.004  48.879   9.781  1.00  0.00    -0.504 OA
ATOM     19  H   UNL     1      63.470  49.615   9.331  1.00  0.00     0.293 HD
ENDBRANCH  15  18
BRANCH  17  20
ATOM     20  O   UNL     1      64.408  47.027   7.687  1.00  0.00    -0.504 OA
ATOM     21  H   UNL     1      64.408  46.831   6.693  1.00  0.00     0.293 HD
ENDBRANCH  17  20
ENDBRANCH   1  12
BRANCH   2  22
ATOM     22  O   UNL     1      69.656  46.249  10.109  1.00  0.00    -0.502 OA
ATOM     23  H   UNL     1      68.684  46.310  10.387  1.00  0.00     0.293 HD
ENDBRANCH   2  22
BRANCH   6  24
ATOM     24  O   UNL     1      74.256  46.309   7.427  1.00  0.00    -0.507 OA
ATOM     25  H   UNL     1      74.150  45.554   8.087  1.00  0.00     0.293 HD
ENDBRANCH   6  24
BRANCH   8  26
ATOM     26  O   UNL     1      72.860  48.540   3.410  1.00  0.00    -0.508 OA
ATOM     27  H   UNL     1      73.819  48.641   3.102  1.00  0.00     0.293 HD
ENDBRANCH   8  26
TORSDOF 6
ENDMDL
MODEL 6
REMARK VINA RESULT:    -5.676      1.984      2.441
REMARK INTER + INTRA:          -6.958
REMARK INTER:                  -6.682
REMARK INTRA:                  -0.275
REMARK UNBOUND:                -0.120
REMARK SMILES O=c1c(O)c(-c2ccc(O)c(O)c2)oc2cc(O)cc(O)c12
REMARK SMILES IDX 5 1 3 2 2 3 1 4 22 5 20 6 19 7 17 8 16 9 15 10 14 11 6 12
REMARK SMILES IDX 7 13 8 14 9 15 13 16 11 17 10 18 12 20 4 22 21 24 18 26
REMARK H PARENT 10 19 12 21 4 23 21 25 18 27
REMARK Flexibility Score: inf
ROOT
ATOM      1  C   UNL     1      69.627  47.330   8.679  1.00  0.00     0.180 A 
ATOM      2  C   UNL     1      70.419  48.411   9.106  1.00  0.00     0.208 A 
ATOM      3  C   UNL     1      71.815  48.326   8.970  1.00  0.00     0.238 A 
ATOM      4  O   UNL     1      72.521  49.273   9.404  1.00  0.00    -0.285 OA
ATOM      5  C   UNL     1      72.398  47.172   8.396  1.00  0.00     0.111 A 
ATOM      6  C   UNL     1      73.797  46.996   8.174  1.00  0.00     0.134 A 
ATOM      7  C   UNL     1      74.274  45.760   7.720  1.00  0.00     0.093 A 
ATOM      8  C   UNL     1      73.396  44.716   7.418  1.00  0.00     0.123 A 
ATOM      9  C   UNL     1      72.025  44.898   7.575  1.00  0.00     0.094 A 
ATOM     10  C   UNL     1      71.522  46.106   8.061  1.00  0.00     0.146 A 
ATOM     11  O   UNL     1      70.208  46.235   8.206  1.00  0.00    -0.452 OA
ENDROOT
BRANCH   1  12
ATOM     12  C   UNL     1      68.148  47.355   8.766  1.00  0.00     0.025 A 
ATOM     13  C   UNL     1      67.525  47.109   9.999  1.00  0.00     0.016 A 
ATOM     14  C   UNL     1      66.131  47.108  10.099  1.00  0.00     0.051 A 
ATOM     15  C   UNL     1      65.340  47.336   8.966  1.00  0.00     0.157 A 
ATOM     16  C   UNL     1      67.351  47.564   7.626  1.00  0.00     0.062 A 
ATOM     17  C   UNL     1      65.955  47.560   7.723  1.00  0.00     0.158 A 
BRANCH  15  18
ATOM     18  O   UNL     1      63.950  47.336   9.069  1.00  0.00    -0.504 OA
ATOM     19  H   UNL     1      63.474  47.812   9.827  1.00  0.00     0.293 HD
ENDBRANCH  15  18
BRANCH  17  20
ATOM     20  O   UNL     1      65.196  47.777   6.572  1.00  0.00    -0.504 OA
ATOM     21  H   UNL     1      65.620  47.874   5.658  1.00  0.00     0.293 HD
ENDBRANCH  17  20
ENDBRANCH   1  12
BRANCH   2  22
ATOM     22  O   UNL     1      69.824  49.531   9.690  1.00  0.00    -0.502 OA
ATOM     23  H   UNL     1      69.834  50.444   9.251  1.00  0.00     0.293 HD
ENDBRANCH   2  22
BRANCH   6  24
ATOM     24  O   UNL     1      74.749  48.004   8.356  1.00  0.00    -0.507 OA
ATOM     25  H   UNL     1      74.989  48.413   9.246  1.00  0.00     0.293 HD
ENDBRANCH   6  24
BRANCH   8  26
ATOM     26  O   UNL     1      73.879  43.495   6.951  1.00  0.00    -0.508 OA
ATOM     27  H   UNL     1      73.287  42.675   6.901  1.00  0.00     0.293 HD
ENDBRANCH   8  26
TORSDOF 6
ENDMDL
MODEL 7
REMARK VINA RESULT:    -5.563      5.070      6.133
REMARK INTER + INTRA:          -6.821
REMARK INTER:                  -6.506
REMARK INTRA:                  -0.315
REMARK UNBOUND:                -0.120
REMARK SMILES O=c1c(O)c(-c2ccc(O)c(O)c2)oc2cc(O)cc(O)c12
REMARK SMILES IDX 5 1 3 2 2 3 1 4 22 5 20 6 19 7 17 8 16 9 15 10 14 11 6 12
REMARK SMILES IDX 7 13 8 14 9 15 13 16 11 17 10 18 12 20 4 22 21 24 18 26
REMARK H PARENT 10 19 12 21 4 23 21 25 18 27
REMARK Flexibility Score: inf
ROOT
ATOM      1  C   UNL     1      71.678  43.896   5.750  1.00  0.00     0.180 A 
ATOM      2  C   UNL     1      71.786  44.710   4.609  1.00  0.00     0.208 A 
ATOM      3  C   UNL     1      72.437  45.950   4.717  1.00  0.00     0.238 A 
ATOM      4  O   UNL     1      72.482  46.697   3.706  1.00  0.00    -0.285 OA
ATOM      5  C   UNL     1      72.986  46.352   5.957  1.00  0.00     0.111 A 
ATOM      6  C   UNL     1      73.701  47.568   6.172  1.00  0.00     0.134 A 
ATOM      7  C   UNL     1      74.085  47.925   7.471  1.00  0.00     0.093 A 
ATOM      8  C   UNL     1      73.837  47.076   8.552  1.00  0.00     0.123 A 
ATOM      9  C   UNL     1      73.193  45.859   8.345  1.00  0.00     0.094 A 
ATOM     10  C   UNL     1      72.765  45.494   7.067  1.00  0.00     0.146 A 
ATOM     11  O   UNL     1      72.144  44.330   6.914  1.00  0.00    -0.452 OA
ENDROOT
BRANCH   1  12
ATOM     12  C   UNL     1      71.028  42.565   5.710  1.00  0.00     0.025 A 
ATOM     13  C   UNL     1      69.720  42.420   6.196  1.00  0.00     0.016 A 
ATOM     14  C   UNL     1      69.096  41.170   6.187  1.00  0.00     0.051 A 
ATOM     15  C   UNL     1      69.775  40.044   5.706  1.00  0.00     0.157 A 
ATOM     16  C   UNL     1      71.715  41.429   5.246  1.00  0.00     0.062 A 
ATOM     17  C   UNL     1      71.094  40.175   5.238  1.00  0.00     0.158 A 
BRANCH  15  18
ATOM     18  O   UNL     1      69.150  38.798   5.695  1.00  0.00    -0.504 OA
ATOM     19  H   UNL     1      68.345  38.604   6.280  1.00  0.00     0.293 HD
ENDBRANCH  15  18
BRANCH  17  20
ATOM     20  O   UNL     1      71.803  39.070   4.766  1.00  0.00    -0.504 OA
ATOM     21  H   UNL     1      72.785  39.125   4.522  1.00  0.00     0.293 HD
ENDBRANCH  17  20
ENDBRANCH   1  12
BRANCH   2  22
ATOM     22  O   UNL     1      71.217  44.303   3.399  1.00  0.00    -0.502 OA
ATOM     23  H   UNL     1      70.970  43.340   3.211  1.00  0.00     0.293 HD
ENDBRANCH   2  22
BRANCH   6  24
ATOM     24  O   UNL     1      74.079  48.441   5.147  1.00  0.00    -0.507 OA
ATOM     25  H   UNL     1      74.590  48.170   4.321  1.00  0.00     0.293 HD
ENDBRANCH   6  24
BRANCH   8  26
ATOM     26  O   UNL     1      74.238  47.432   9.839  1.00  0.00    -0.508 OA
ATOM     27  H   UNL     1      74.035  48.346  10.224  1.00  0.00     0.293 HD
ENDBRANCH   8  26
TORSDOF 6
ENDMDL
MODEL 8
REMARK VINA RESULT:    -5.525      2.219      6.836
REMARK INTER + INTRA:          -6.776
REMARK INTER:                  -6.498
REMARK INTRA:                  -0.278
REMARK UNBOUND:                -0.120
REMARK SMILES O=c1c(O)c(-c2ccc(O)c(O)c2)oc2cc(O)cc(O)c12
REMARK SMILES IDX 5 1 3 2 2 3 1 4 22 5 20 6 19 7 17 8 16 9 15 10 14 11 6 12
REMARK SMILES IDX 7 13 8 14 9 15 13 16 11 17 10 18 12 20 4 22 21 24 18 26
REMARK H PARENT 10 19 12 21 4 23 21 25 18 27
REMARK Flexibility Score: inf
ROOT
ATOM      1  C   UNL     1      70.991  47.218   7.443  1.00  0.00     0.180 A 
ATOM      2  C   UNL     1      71.236  48.504   7.955  1.00  0.00     0.208 A 
ATOM      3  C   UNL     1      70.192  49.192   8.594  1.00  0.00     0.238 A 
ATOM      4  O   UNL     1      70.402  50.364   9.001  1.00  0.00    -0.285 OA
ATOM      5  C   UNL     1      68.923  48.580   8.728  1.00  0.00     0.111 A 
ATOM      6  C   UNL     1      67.805  49.168   9.393  1.00  0.00     0.134 A 
ATOM      7  C   UNL     1      66.560  48.528   9.351  1.00  0.00     0.093 A 
ATOM      8  C   UNL     1      66.410  47.289   8.724  1.00  0.00     0.123 A 
ATOM      9  C   UNL     1      67.508  46.678   8.125  1.00  0.00     0.094 A 
ATOM     10  C   UNL     1      68.753  47.309   8.118  1.00  0.00     0.146 A 
ATOM     11  O   UNL     1      69.773  46.698   7.526  1.00  0.00    -0.452 OA
ENDROOT
BRANCH   1  12
ATOM     12  C   UNL     1      72.047  46.420   6.779  1.00  0.00     0.025 A 
ATOM     13  C   UNL     1      73.037  45.800   7.557  1.00  0.00     0.016 A 
ATOM     14  C   UNL     1      74.054  45.060   6.949  1.00  0.00     0.051 A 
ATOM     15  C   UNL     1      74.106  44.940   5.555  1.00  0.00     0.157 A 
ATOM     16  C   UNL     1      72.114  46.315   5.378  1.00  0.00     0.062 A 
ATOM     17  C   UNL     1      73.133  45.576   4.766  1.00  0.00     0.158 A 
BRANCH  15  18
ATOM     18  O   UNL     1      75.121  44.199   4.952  1.00  0.00    -0.504 OA
ATOM     19  H   UNL     1      76.005  44.033   5.418  1.00  0.00     0.293 HD
ENDBRANCH  15  18
BRANCH  17  20
ATOM     20  O   UNL     1      73.165  45.489   3.374  1.00  0.00    -0.504 OA
ATOM     21  H   UNL     1      74.018  45.626   2.845  1.00  0.00     0.293 HD
ENDBRANCH  17  20
ENDBRANCH   1  12
BRANCH   2  22
ATOM     22  O   UNL     1      72.490  49.098   7.792  1.00  0.00    -0.502 OA
ATOM     23  H   UNL     1      72.675  49.788   7.074  1.00  0.00     0.293 HD
ENDBRANCH   2  22
BRANCH   6  24
ATOM     24  O   UNL     1      67.871  50.358  10.125  1.00  0.00    -0.507 OA
ATOM     25  H   UNL     1      67.944  51.279   9.720  1.00  0.00     0.293 HD
ENDBRANCH   6  24
BRANCH   8  26
ATOM     26  O   UNL     1      65.171  46.650   8.702  1.00  0.00    -0.508 OA
ATOM     27  H   UNL     1      64.534  46.701   9.488  1.00  0.00     0.293 HD
ENDBRANCH   8  26
TORSDOF 6
ENDMDL
