MODEL 1
REMARK VINA RESULT:    -3.612      0.000      0.000
REMARK INTER + INTRA:          -7.399
REMARK INTER:                  -6.147
REMARK INTRA:                  -1.253
REMARK UNBOUND:                -1.253
REMARK SMILES CCCCCCCCCCCCCC(=O)[O-]
REMARK SMILES IDX 8 1 9 2 10 3 11 4 12 5 13 6 14 7 15 8 16 9 7 10 6 11 5 12
REMARK SMILES IDX 4 13 3 14 2 15 1 16
REMARK H PARENT
REMARK Flexibility Score: inf
ROOT
ATOM      1  C   UNL     1      11.582  -9.548  17.126  1.00  0.00     0.000 C 
ENDROOT
BRANCH   1   2
ATOM      2  C   UNL     1      12.424 -10.466  16.223  1.00  0.00     0.000 C 
BRANCH   2   3
ATOM      3  C   UNL     1      11.587 -11.190  15.160  1.00  0.00     0.000 C 
BRANCH   3   4
ATOM      4  C   UNL     1      11.714 -10.499  13.793  1.00  0.00     0.000 C 
BRANCH   4   5
ATOM      5  C   UNL     1      10.349 -10.183  13.160  1.00  0.00     0.006 C 
BRANCH   5   6
ATOM      6  C   UNL     1      10.426  -9.054  12.124  1.00  0.00     0.053 C 
BRANCH   6   7
ATOM      7  C   UNL     1       9.346  -9.214  11.100  1.00  0.00     0.041 C 
ATOM      8  O   UNL     1       9.426  -8.615   9.995  1.00  0.00    -0.550 OA
ATOM      9  O   UNL     1       8.274 -10.063  11.346  1.00  0.00    -0.550 OA
ENDBRANCH   6   7
ENDBRANCH   5   6
ENDBRANCH   4   5
ENDBRANCH   3   4
ENDBRANCH   2   3
ENDBRANCH   1   2
BRANCH   1  10
ATOM     10  C   UNL     1      11.432 -10.069  18.570  1.00  0.00     0.000 C 
BRANCH  10  11
ATOM     11  C   UNL     1      10.147 -10.892  18.760  1.00  0.00    -0.000 C 
BRANCH  11  12
ATOM     12  C   UNL     1      10.470 -12.367  19.025  1.00  0.00    -0.000 C 
BRANCH  12  13
ATOM     13  C   UNL     1      11.983 -12.575  19.198  1.00  0.00    -0.000 C 
BRANCH  13  14
ATOM     14  C   UNL     1      12.555 -13.601  18.207  1.00  0.00    -0.000 C 
BRANCH  14  15
ATOM     15  C   UNL     1      14.059 -13.411  17.962  1.00  0.00    -0.003 C 
ATOM     16  C   UNL     1      14.396 -13.553  16.480  1.00  0.00     0.004 C 
ENDBRANCH  14  15
ENDBRANCH  13  14
ENDBRANCH  12  13
ENDBRANCH  11  12
ENDBRANCH  10  11
ENDBRANCH   1  10
TORSDOF 12
ENDMDL
MODEL 2
REMARK VINA RESULT:    -3.580      2.564      3.975
REMARK INTER + INTRA:          -7.343
REMARK INTER:                  -6.789
REMARK INTRA:                  -0.554
REMARK UNBOUND:                -1.253
REMARK SMILES CCCCCCCCCCCCCC(=O)[O-]
REMARK SMILES IDX 8 1 9 2 10 3 11 4 12 5 13 6 14 7 15 8 16 9 7 10 6 11 5 12
REMARK SMILES IDX 4 13 3 14 2 15 1 16
REMARK H PARENT
REMARK Flexibility Score: inf
ROOT
ATOM      1  C   UNL     1      13.010 -10.532  17.178  1.00  0.00     0.000 C 
ENDROOT
BRANCH   1   2
ATOM      2  C   UNL     1      12.580 -11.479  16.044  1.00  0.00     0.000 C 
BRANCH   2   3
ATOM      3  C   UNL     1      11.289 -11.028  15.346  1.00  0.00     0.000 C 
BRANCH   3   4
ATOM      4  C   UNL     1      11.593 -10.386  13.984  1.00  0.00     0.000 C 
BRANCH   4   5
ATOM      5  C   UNL     1      10.349 -10.283  13.088  1.00  0.00     0.006 C 
BRANCH   5   6
ATOM      6  C   UNL     1      10.498  -9.222  11.989  1.00  0.00     0.053 C 
BRANCH   6   7
ATOM      7  C   UNL     1       9.337  -9.283  11.046  1.00  0.00     0.041 C 
ATOM      8  O   UNL     1       8.335  -9.996  11.319  1.00  0.00    -0.550 OA
ATOM      9  O   UNL     1       9.340  -8.515   9.888  1.00  0.00    -0.550 OA
ENDBRANCH   6   7
ENDBRANCH   5   6
ENDBRANCH   4   5
ENDBRANCH   3   4
ENDBRANCH   2   3
ENDBRANCH   1   2
BRANCH   1  10
ATOM     10  C   UNL     1      11.932  -9.498  17.562  1.00  0.00     0.000 C 
BRANCH  10  11
ATOM     11  C   UNL     1      12.016  -9.092  19.042  1.00  0.00    -0.000 C 
BRANCH  11  12
ATOM     12  C   UNL     1      13.461  -8.776  19.446  1.00  0.00    -0.000 C 
BRANCH  12  13
ATOM     13  C   UNL     1      13.599  -8.700  20.974  1.00  0.00    -0.000 C 
BRANCH  13  14
ATOM     14  C   UNL     1      13.780  -7.260  21.481  1.00  0.00    -0.000 C 
BRANCH  14  15
ATOM     15  C   UNL     1      13.802  -6.231  20.341  1.00  0.00    -0.003 C 
ATOM     16  C   UNL     1      15.196  -5.633  20.169  1.00  0.00     0.004 C 
ENDBRANCH  14  15
ENDBRANCH  13  14
ENDBRANCH  12  13
ENDBRANCH  11  12
ENDBRANCH  10  11
ENDBRANCH   1  10
TORSDOF 12
ENDMDL
MODEL 3
REMARK VINA RESULT:    -3.480      4.024      5.766
REMARK INTER + INTRA:          -7.173
REMARK INTER:                  -5.005
REMARK INTRA:                  -2.168
REMARK UNBOUND:                -1.253
REMARK SMILES CCCCCCCCCCCCCC(=O)[O-]
REMARK SMILES IDX 8 1 9 2 10 3 11 4 12 5 13 6 14 7 15 8 16 9 7 10 6 11 5 12
REMARK SMILES IDX 4 13 3 14 2 15 1 16
REMARK H PARENT
REMARK Flexibility Score: inf
ROOT
ATOM      1  C   UNL     1      13.736  -9.908  19.446  1.00  0.00     0.000 C 
ENDROOT
BRANCH   1   2
ATOM      2  C   UNL     1      14.143 -11.082  20.353  1.00  0.00     0.000 C 
BRANCH   2   3
ATOM      3  C   UNL     1      12.940 -11.785  20.996  1.00  0.00     0.000 C 
BRANCH   3   4
ATOM      4  C   UNL     1      11.619 -11.146  20.541  1.00  0.00     0.000 C 
BRANCH   4   5
ATOM      5  C   UNL     1      10.648 -12.167  19.929  1.00  0.00     0.006 C 
BRANCH   5   6
ATOM      6  C   UNL     1       9.631 -11.519  18.979  1.00  0.00     0.053 C 
BRANCH   6   7
ATOM      7  C   UNL     1       8.361 -11.209  19.709  1.00  0.00     0.041 C 
ATOM      8  O   UNL     1       7.512 -10.430  19.201  1.00  0.00    -0.550 OA
ATOM      9  O   UNL     1       8.093 -11.819  20.928  1.00  0.00    -0.550 OA
ENDBRANCH   6   7
ENDBRANCH   5   6
ENDBRANCH   4   5
ENDBRANCH   3   4
ENDBRANCH   2   3
ENDBRANCH   1   2
BRANCH   1  10
ATOM     10  C   UNL     1      14.029 -10.150  17.951  1.00  0.00     0.000 C 
BRANCH  10  11
ATOM     11  C   UNL     1      12.745 -10.199  17.107  1.00  0.00    -0.000 C 
BRANCH  11  12
ATOM     12  C   UNL     1      12.852 -11.253  15.999  1.00  0.00    -0.000 C 
BRANCH  12  13
ATOM     13  C   UNL     1      13.470 -12.553  16.535  1.00  0.00    -0.000 C 
BRANCH  13  14
ATOM     14  C   UNL     1      12.419 -13.513  17.114  1.00  0.00    -0.000 C 
BRANCH  14  15
ATOM     15  C   UNL     1      12.996 -14.441  18.194  1.00  0.00    -0.003 C 
ATOM     16  C   UNL     1      14.485 -14.175  18.406  1.00  0.00     0.004 C 
ENDBRANCH  14  15
ENDBRANCH  13  14
ENDBRANCH  12  13
ENDBRANCH  11  12
ENDBRANCH  10  11
ENDBRANCH   1  10
TORSDOF 12
ENDMDL
MODEL 4
REMARK VINA RESULT:    -3.474      3.974      6.158
REMARK INTER + INTRA:          -7.164
REMARK INTER:                  -5.217
REMARK INTRA:                  -1.948
REMARK UNBOUND:                -1.253
REMARK SMILES CCCCCCCCCCCCCC(=O)[O-]
REMARK SMILES IDX 8 1 9 2 10 3 11 4 12 5 13 6 14 7 15 8 16 9 7 10 6 11 5 12
REMARK SMILES IDX 4 13 3 14 2 15 1 16
REMARK H PARENT
REMARK Flexibility Score: inf
ROOT
ATOM      1  C   UNL     1      10.526 -12.081  18.743  1.00  0.00     0.000 C 
ENDROOT
BRANCH   1   2
ATOM      2  C   UNL     1      10.946 -13.138  19.778  1.00  0.00     0.000 C 
BRANCH   2   3
ATOM      3  C   UNL     1      12.425 -13.035  20.172  1.00  0.00     0.000 C 
BRANCH   3   4
ATOM      4  C   UNL     1      13.209 -14.270  19.705  1.00  0.00     0.000 C 
BRANCH   4   5
ATOM      5  C   UNL     1      14.502 -13.904  18.958  1.00  0.00     0.006 C 
BRANCH   5   6
ATOM      6  C   UNL     1      14.836 -14.894  17.834  1.00  0.00     0.053 C 
BRANCH   6   7
ATOM      7  C   UNL     1      14.194 -14.461  16.553  1.00  0.00     0.041 C 
ATOM      8  O   UNL     1      14.754 -13.600  15.823  1.00  0.00    -0.550 OA
ATOM      9  O   UNL     1      13.003 -15.044  16.140  1.00  0.00    -0.550 OA
ENDBRANCH   6   7
ENDBRANCH   5   6
ENDBRANCH   4   5
ENDBRANCH   3   4
ENDBRANCH   2   3
ENDBRANCH   1   2
BRANCH   1  10
ATOM     10  C   UNL     1      11.247 -12.223  17.386  1.00  0.00     0.000 C 
BRANCH  10  11
ATOM     11  C   UNL     1      11.146 -10.946  16.538  1.00  0.00    -0.000 C 
BRANCH  11  12
ATOM     12  C   UNL     1      12.187  -9.908  16.976  1.00  0.00    -0.000 C 
BRANCH  12  13
ATOM     13  C   UNL     1      13.560 -10.563  17.186  1.00  0.00    -0.000 C 
BRANCH  13  14
ATOM     14  C   UNL     1      14.203 -10.171  18.526  1.00  0.00    -0.000 C 
BRANCH  14  15
ATOM     15  C   UNL     1      13.242  -9.391  19.436  1.00  0.00    -0.003 C 
ATOM     16  C   UNL     1      13.566  -9.631  20.909  1.00  0.00     0.004 C 
ENDBRANCH  14  15
ENDBRANCH  13  14
ENDBRANCH  12  13
ENDBRANCH  11  12
ENDBRANCH  10  11
ENDBRANCH   1  10
TORSDOF 12
ENDMDL
MODEL 5
REMARK VINA RESULT:    -3.460      5.552      7.678
REMARK INTER + INTRA:          -7.140
REMARK INTER:                  -5.012
REMARK INTRA:                  -2.128
REMARK UNBOUND:                -1.253
REMARK SMILES CCCCCCCCCCCCCC(=O)[O-]
REMARK SMILES IDX 8 1 9 2 10 3 11 4 12 5 13 6 14 7 15 8 16 9 7 10 6 11 5 12
REMARK SMILES IDX 4 13 3 14 2 15 1 16
REMARK H PARENT
REMARK Flexibility Score: inf
ROOT
ATOM      1  C   UNL     1      11.047 -11.289  16.699  1.00  0.00     0.000 C 
ENDROOT
BRANCH   1   2
ATOM      2  C   UNL     1      10.994 -12.085  18.015  1.00  0.00     0.000 C 
BRANCH   2   3
ATOM      3  C   UNL     1       9.765 -11.746  18.869  1.00  0.00     0.000 C 
BRANCH   3   4
ATOM      4  C   UNL     1       9.971 -12.178  20.329  1.00  0.00     0.000 C 
BRANCH   4   5
ATOM      5  C   UNL     1      11.421 -12.593  20.624  1.00  0.00     0.006 C 
BRANCH   5   6
ATOM      6  C   UNL     1      11.841 -12.285  22.068  1.00  0.00     0.053 C 
BRANCH   6   7
ATOM      7  C   UNL     1      11.336 -13.347  22.994  1.00  0.00     0.041 C 
ATOM      8  O   UNL     1      11.939 -14.450  23.082  1.00  0.00    -0.550 OA
ATOM      9  O   UNL     1      10.229 -13.102  23.797  1.00  0.00    -0.550 OA
ENDBRANCH   6   7
ENDBRANCH   5   6
ENDBRANCH   4   5
ENDBRANCH   3   4
ENDBRANCH   2   3
ENDBRANCH   1   2
BRANCH   1  10
ATOM     10  C   UNL     1      12.439 -10.703  16.386  1.00  0.00     0.000 C 
BRANCH  10  11
ATOM     11  C   UNL     1      13.535 -11.295  17.286  1.00  0.00    -0.000 C 
BRANCH  11  12
ATOM     12  C   UNL     1      14.336 -10.188  17.982  1.00  0.00    -0.000 C 
BRANCH  12  13
ATOM     13  C   UNL     1      14.094 -10.205  19.499  1.00  0.00    -0.000 C 
BRANCH  13  14
ATOM     14  C   UNL     1      13.413  -8.923  20.003  1.00  0.00    -0.000 C 
BRANCH  14  15
ATOM     15  C   UNL     1      11.886  -8.966  19.852  1.00  0.00    -0.003 C 
ATOM     16  C   UNL     1      11.415  -8.003  18.764  1.00  0.00     0.004 C 
ENDBRANCH  14  15
ENDBRANCH  13  14
ENDBRANCH  12  13
ENDBRANCH  11  12
ENDBRANCH  10  11
ENDBRANCH   1  10
TORSDOF 12
ENDMDL
MODEL 6
REMARK VINA RESULT:    -3.445      5.137      7.003
REMARK INTER + INTRA:          -7.114
REMARK INTER:                  -5.371
REMARK INTRA:                  -1.743
REMARK UNBOUND:                -1.253
REMARK SMILES CCCCCCCCCCCCCC(=O)[O-]
REMARK SMILES IDX 8 1 9 2 10 3 11 4 12 5 13 6 14 7 15 8 16 9 7 10 6 11 5 12
REMARK SMILES IDX 4 13 3 14 2 15 1 16
REMARK H PARENT
REMARK Flexibility Score: inf
ROOT
ATOM      1  C   UNL     1      12.254 -10.371  16.562  1.00  0.00     0.000 C 
ENDROOT
BRANCH   1   2
ATOM      2  C   UNL     1      11.073 -11.358  16.541  1.00  0.00     0.000 C 
BRANCH   2   3
ATOM      3  C   UNL     1      10.794 -11.983  17.915  1.00  0.00     0.000 C 
BRANCH   3   4
ATOM      4  C   UNL     1       9.539 -11.370  18.555  1.00  0.00     0.000 C 
BRANCH   4   5
ATOM      5  C   UNL     1       9.543 -11.480  20.088  1.00  0.00     0.006 C 
BRANCH   5   6
ATOM      6  C   UNL     1       8.140 -11.346  20.694  1.00  0.00     0.053 C 
BRANCH   6   7
ATOM      7  C   UNL     1       8.083 -12.018  22.030  1.00  0.00     0.041 C 
ATOM      8  O   UNL     1       9.137 -12.450  22.567  1.00  0.00    -0.550 OA
ATOM      9  O   UNL     1       6.873 -12.126  22.704  1.00  0.00    -0.550 OA
ENDBRANCH   6   7
ENDBRANCH   5   6
ENDBRANCH   4   5
ENDBRANCH   3   4
ENDBRANCH   2   3
ENDBRANCH   1   2
BRANCH   1  10
ATOM     10  C   UNL     1      13.578 -11.001  17.039  1.00  0.00     0.000 C 
BRANCH  10  11
ATOM     11  C   UNL     1      14.259 -10.163  18.133  1.00  0.00    -0.000 C 
BRANCH  11  12
ATOM     12  C   UNL     1      13.867 -10.655  19.531  1.00  0.00    -0.000 C 
BRANCH  12  13
ATOM     13  C   UNL     1      13.465  -9.479  20.434  1.00  0.00    -0.000 C 
BRANCH  13  14
ATOM     14  C   UNL     1      12.932  -8.278  19.638  1.00  0.00    -0.000 C 
BRANCH  14  15
ATOM     15  C   UNL     1      11.399  -8.264  19.546  1.00  0.00    -0.003 C 
ATOM     16  C   UNL     1      10.931  -7.506  18.306  1.00  0.00     0.004 C 
ENDBRANCH  14  15
ENDBRANCH  13  14
ENDBRANCH  12  13
ENDBRANCH  11  12
ENDBRANCH  10  11
ENDBRANCH   1  10
TORSDOF 12
ENDMDL
MODEL 7
REMARK VINA RESULT:    -3.443      5.132      6.686
REMARK INTER + INTRA:          -7.110
REMARK INTER:                  -4.944
REMARK INTRA:                  -2.167
REMARK UNBOUND:                -1.253
REMARK SMILES CCCCCCCCCCCCCC(=O)[O-]
REMARK SMILES IDX 8 1 9 2 10 3 11 4 12 5 13 6 14 7 15 8 16 9 7 10 6 11 5 12
REMARK SMILES IDX 4 13 3 14 2 15 1 16
REMARK H PARENT
REMARK Flexibility Score: inf
ROOT
ATOM      1  C   UNL     1      12.978 -10.133  17.577  1.00  0.00     0.000 C 
ENDROOT
BRANCH   1   2
ATOM      2  C   UNL     1      11.786 -10.624  16.736  1.00  0.00     0.000 C 
BRANCH   2   3
ATOM      3  C   UNL     1      11.205 -11.951  17.242  1.00  0.00     0.000 C 
BRANCH   3   4
ATOM      4  C   UNL     1      10.243 -11.720  18.417  1.00  0.00     0.000 C 
BRANCH   4   5
ATOM      5  C   UNL     1      10.437 -12.740  19.551  1.00  0.00     0.006 C 
BRANCH   5   6
ATOM      6  C   UNL     1      10.647 -12.073  20.916  1.00  0.00     0.053 C 
BRANCH   6   7
ATOM      7  C   UNL     1      11.082 -13.086  21.929  1.00  0.00     0.041 C 
ATOM      8  O   UNL     1      10.442 -14.162  22.063  1.00  0.00    -0.550 OA
ATOM      9  O   UNL     1      12.222 -12.864  22.691  1.00  0.00    -0.550 OA
ENDBRANCH   6   7
ENDBRANCH   5   6
ENDBRANCH   4   5
ENDBRANCH   3   4
ENDBRANCH   2   3
ENDBRANCH   1   2
BRANCH   1  10
ATOM     10  C   UNL     1      13.977 -11.248  17.944  1.00  0.00     0.000 C 
BRANCH  10  11
ATOM     11  C   UNL     1      14.002 -11.533  19.454  1.00  0.00    -0.000 C 
BRANCH  11  12
ATOM     12  C   UNL     1      14.177 -13.031  19.731  1.00  0.00    -0.000 C 
BRANCH  12  13
ATOM     13  C   UNL     1      14.237 -13.829  18.419  1.00  0.00    -0.000 C 
BRANCH  13  14
ATOM     14  C   UNL     1      13.163 -14.926  18.344  1.00  0.00    -0.000 C 
BRANCH  14  15
ATOM     15  C   UNL     1      12.906 -15.594  19.703  1.00  0.00    -0.003 C 
ATOM     16  C   UNL     1      11.632 -16.435  19.669  1.00  0.00     0.004 C 
ENDBRANCH  14  15
ENDBRANCH  13  14
ENDBRANCH  12  13
ENDBRANCH  11  12
ENDBRANCH  10  11
ENDBRANCH   1  10
TORSDOF 12
ENDMDL
MODEL 8
REMARK VINA RESULT:    -3.427      4.906      6.332
REMARK INTER + INTRA:          -7.084
REMARK INTER:                  -4.825
REMARK INTRA:                  -2.258
REMARK UNBOUND:                -1.253
REMARK SMILES CCCCCCCCCCCCCC(=O)[O-]
REMARK SMILES IDX 8 1 9 2 10 3 11 4 12 5 13 6 14 7 15 8 16 9 7 10 6 11 5 12
REMARK SMILES IDX 4 13 3 14 2 15 1 16
REMARK H PARENT
REMARK Flexibility Score: inf
ROOT
ATOM      1  C   UNL     1      14.043 -10.289  18.244  1.00  0.00     0.000 C 
ENDROOT
BRANCH   1   2
ATOM      2  C   UNL     1      13.006 -10.240  17.108  1.00  0.00     0.000 C 
BRANCH   2   3
ATOM      3  C   UNL     1      12.975 -11.526  16.271  1.00  0.00     0.000 C 
BRANCH   3   4
ATOM      4  C   UNL     1      13.852 -12.618  16.904  1.00  0.00     0.000 C 
BRANCH   4   5
ATOM      5  C   UNL     1      13.292 -14.031  16.679  1.00  0.00     0.006 C 
BRANCH   5   6
ATOM      6  C   UNL     1      13.373 -14.906  17.937  1.00  0.00     0.053 C 
BRANCH   6   7
ATOM      7  C   UNL     1      14.801 -15.209  18.269  1.00  0.00     0.041 C 
ATOM      8  O   UNL     1      15.564 -15.703  17.396  1.00  0.00    -0.550 OA
ATOM      9  O   UNL     1      15.303 -14.900  19.526  1.00  0.00    -0.550 OA
ENDBRANCH   6   7
ENDBRANCH   5   6
ENDBRANCH   4   5
ENDBRANCH   3   4
ENDBRANCH   2   3
ENDBRANCH   1   2
BRANCH   1  10
ATOM     10  C   UNL     1      13.490  -9.826  19.607  1.00  0.00     0.000 C 
BRANCH  10  11
ATOM     11  C   UNL     1      13.767 -10.845  20.723  1.00  0.00    -0.000 C 
BRANCH  11  12
ATOM     12  C   UNL     1      13.093 -12.189  20.425  1.00  0.00    -0.000 C 
BRANCH  12  13
ATOM     13  C   UNL     1      11.567 -12.080  20.562  1.00  0.00    -0.000 C 
BRANCH  13  14
ATOM     14  C   UNL     1      10.820 -12.708  19.374  1.00  0.00    -0.000 C 
BRANCH  14  15
ATOM     15  C   UNL     1      10.000 -11.678  18.582  1.00  0.00    -0.003 C 
ATOM     16  C   UNL     1       9.768 -10.412  19.403  1.00  0.00     0.004 C 
ENDBRANCH  14  15
ENDBRANCH  13  14
ENDBRANCH  12  13
ENDBRANCH  11  12
ENDBRANCH  10  11
ENDBRANCH   1  10
TORSDOF 12
ENDMDL
MODEL 9
REMARK VINA RESULT:    -3.408      5.386      7.498
REMARK INTER + INTRA:          -7.052
REMARK INTER:                  -5.309
REMARK INTRA:                  -1.742
REMARK UNBOUND:                -1.253
REMARK SMILES CCCCCCCCCCCCCC(=O)[O-]
REMARK SMILES IDX 8 1 9 2 10 3 11 4 12 5 13 6 14 7 15 8 16 9 7 10 6 11 5 12
REMARK SMILES IDX 4 13 3 14 2 15 1 16
REMARK H PARENT
REMARK Flexibility Score: inf
ROOT
ATOM      1  C   UNL     1      12.103 -13.180  18.135  1.00  0.00     0.000 C 
ENDROOT
BRANCH   1   2
ATOM      2  C   UNL     1      11.053 -13.115  19.258  1.00  0.00     0.000 C 
BRANCH   2   3
ATOM      3  C   UNL     1      10.029 -11.990  19.054  1.00  0.00     0.000 C 
BRANCH   3   4
ATOM      4  C   UNL     1       9.669 -11.323  20.390  1.00  0.00     0.000 C 
BRANCH   4   5
ATOM      5  C   UNL     1       8.771 -12.208  21.270  1.00  0.00     0.006 C 
BRANCH   5   6
ATOM      6  C   UNL     1       9.172 -12.167  22.751  1.00  0.00     0.053 C 
BRANCH   6   7
ATOM      7  C   UNL     1      10.576 -12.655  22.924  1.00  0.00     0.041 C 
ATOM      8  O   UNL     1      11.473 -11.872  23.334  1.00  0.00    -0.550 OA
ATOM      9  O   UNL     1      10.885 -13.987  22.678  1.00  0.00    -0.550 OA
ENDBRANCH   6   7
ENDBRANCH   5   6
ENDBRANCH   4   5
ENDBRANCH   3   4
ENDBRANCH   2   3
ENDBRANCH   1   2
BRANCH   1  10
ATOM     10  C   UNL     1      11.658 -12.486  16.832  1.00  0.00     0.000 C 
BRANCH  10  11
ATOM     11  C   UNL     1      12.731 -11.528  16.289  1.00  0.00    -0.000 C 
BRANCH  11  12
ATOM     12  C   UNL     1      12.777 -10.231  17.105  1.00  0.00    -0.000 C 
BRANCH  12  13
ATOM     13  C   UNL     1      14.088 -10.129  17.900  1.00  0.00    -0.000 C 
BRANCH  13  14
ATOM     14  C   UNL     1      13.905  -9.422  19.252  1.00  0.00    -0.000 C 
BRANCH  14  15
ATOM     15  C   UNL     1      13.244 -10.323  20.306  1.00  0.00    -0.003 C 
ATOM     16  C   UNL     1      14.214 -11.395  20.798  1.00  0.00     0.004 C 
ENDBRANCH  14  15
ENDBRANCH  13  14
ENDBRANCH  12  13
ENDBRANCH  11  12
ENDBRANCH  10  11
ENDBRANCH   1  10
TORSDOF 12
ENDMDL
