MODEL 1
REMARK VINA RESULT:    -4.667      0.000      0.000
REMARK INTER + INTRA:          -9.233
REMARK INTER:                  -7.941
REMARK INTRA:                  -1.293
REMARK UNBOUND:                -1.293
REMARK SMILES CCCCCCCCCCCCCC(=O)[O-]
REMARK SMILES IDX 8 1 9 2 10 3 11 4 12 5 13 6 14 7 15 8 16 9 7 10 6 11 5 12
REMARK SMILES IDX 4 13 3 14 2 15 1 16
REMARK H PARENT
REMARK Flexibility Score: inf
ROOT
ATOM      1  C   UNL     1      58.211  -3.630  29.819  1.00  0.00     0.000 C 
ENDROOT
BRANCH   1   2
ATOM      2  C   UNL     1      57.470  -4.224  31.030  1.00  0.00     0.000 C 
BRANCH   2   3
ATOM      3  C   UNL     1      55.994  -4.527  30.726  1.00  0.00     0.000 C 
BRANCH   3   4
ATOM      4  C   UNL     1      55.077  -4.263  31.933  1.00  0.00     0.000 C 
BRANCH   4   5
ATOM      5  C   UNL     1      54.324  -2.923  31.833  1.00  0.00     0.006 C 
BRANCH   5   6
ATOM      6  C   UNL     1      55.033  -1.869  30.964  1.00  0.00     0.053 C 
BRANCH   6   7
ATOM      7  C   UNL     1      54.249  -1.507  29.739  1.00  0.00     0.041 C 
ATOM      8  O   UNL     1      53.059  -1.108  29.839  1.00  0.00    -0.550 OA
ATOM      9  O   UNL     1      54.846  -1.578  28.486  1.00  0.00    -0.550 OA
ENDBRANCH   6   7
ENDBRANCH   5   6
ENDBRANCH   4   5
ENDBRANCH   3   4
ENDBRANCH   2   3
ENDBRANCH   1   2
BRANCH   1  10
ATOM     10  C   UNL     1      59.740  -3.686  29.974  1.00  0.00     0.000 C 
BRANCH  10  11
ATOM     11  C   UNL     1      60.267  -2.677  31.011  1.00  0.00    -0.000 C 
BRANCH  11  12
ATOM     12  C   UNL     1      59.883  -1.228  30.672  1.00  0.00    -0.000 C 
BRANCH  12  13
ATOM     13  C   UNL     1      58.969  -0.592  31.730  1.00  0.00    -0.000 C 
BRANCH  13  14
ATOM     14  C   UNL     1      57.971   0.376  31.083  1.00  0.00    -0.000 C 
BRANCH  14  15
ATOM     15  C   UNL     1      57.913   0.173  29.565  1.00  0.00    -0.003 C 
ATOM     16  C   UNL     1      57.154   1.309  28.886  1.00  0.00     0.004 C 
ENDBRANCH  14  15
ENDBRANCH  13  14
ENDBRANCH  12  13
ENDBRANCH  11  12
ENDBRANCH  10  11
ENDBRANCH   1  10
TORSDOF 12
ENDMDL
MODEL 2
REMARK VINA RESULT:    -4.477      2.868      5.158
REMARK INTER + INTRA:          -8.911
REMARK INTER:                  -7.284
REMARK INTRA:                  -1.627
REMARK UNBOUND:                -1.293
REMARK SMILES CCCCCCCCCCCCCC(=O)[O-]
REMARK SMILES IDX 8 1 9 2 10 3 11 4 12 5 13 6 14 7 15 8 16 9 7 10 6 11 5 12
REMARK SMILES IDX 4 13 3 14 2 15 1 16
REMARK H PARENT
REMARK Flexibility Score: inf
ROOT
ATOM      1  C   UNL     1      55.770  -4.623  30.944  1.00  0.00     0.000 C 
ENDROOT
BRANCH   1   2
ATOM      2  C   UNL     1      57.190  -4.354  30.417  1.00  0.00     0.000 C 
BRANCH   2   3
ATOM      3  C   UNL     1      58.077  -3.643  31.452  1.00  0.00     0.000 C 
BRANCH   3   4
ATOM      4  C   UNL     1      59.453  -3.256  30.882  1.00  0.00     0.000 C 
BRANCH   4   5
ATOM      5  C   UNL     1      59.631  -3.669  29.410  1.00  0.00     0.006 C 
BRANCH   5   6
ATOM      6  C   UNL     1      61.096  -3.895  28.995  1.00  0.00     0.053 C 
BRANCH   6   7
ATOM      7  C   UNL     1      61.547  -2.951  27.922  1.00  0.00     0.041 C 
ATOM      8  O   UNL     1      61.211  -1.737  27.959  1.00  0.00    -0.550 OA
ATOM      9  O   UNL     1      62.365  -3.406  26.895  1.00  0.00    -0.550 OA
ENDBRANCH   6   7
ENDBRANCH   5   6
ENDBRANCH   4   5
ENDBRANCH   3   4
ENDBRANCH   2   3
ENDBRANCH   1   2
BRANCH   1  10
ATOM     10  C   UNL     1      55.393  -3.711  32.124  1.00  0.00     0.000 C 
BRANCH  10  11
ATOM     11  C   UNL     1      54.050  -2.990  31.909  1.00  0.00    -0.000 C 
BRANCH  11  12
ATOM     12  C   UNL     1      54.171  -1.785  30.962  1.00  0.00    -0.000 C 
BRANCH  12  13
ATOM     13  C   UNL     1      55.347  -0.864  31.321  1.00  0.00    -0.000 C 
BRANCH  13  14
ATOM     14  C   UNL     1      56.303  -0.706  30.133  1.00  0.00    -0.000 C 
BRANCH  14  15
ATOM     15  C   UNL     1      57.504   0.171  30.505  1.00  0.00    -0.003 C 
ATOM     16  C   UNL     1      58.609   0.065  29.459  1.00  0.00     0.004 C 
ENDBRANCH  14  15
ENDBRANCH  13  14
ENDBRANCH  12  13
ENDBRANCH  11  12
ENDBRANCH  10  11
ENDBRANCH   1  10
TORSDOF 12
ENDMDL
MODEL 3
REMARK VINA RESULT:    -4.465      1.230      3.804
REMARK INTER + INTRA:          -8.889
REMARK INTER:                  -7.231
REMARK INTRA:                  -1.659
REMARK UNBOUND:                -1.293
REMARK SMILES CCCCCCCCCCCCCC(=O)[O-]
REMARK SMILES IDX 8 1 9 2 10 3 11 4 12 5 13 6 14 7 15 8 16 9 7 10 6 11 5 12
REMARK SMILES IDX 4 13 3 14 2 15 1 16
REMARK H PARENT
REMARK Flexibility Score: inf
ROOT
ATOM      1  C   UNL     1      60.498  -1.224  28.859  1.00  0.00     0.000 C 
ENDROOT
BRANCH   1   2
ATOM      2  C   UNL     1      59.276  -0.308  29.053  1.00  0.00     0.000 C 
BRANCH   2   3
ATOM      3  C   UNL     1      58.811  -0.251  30.517  1.00  0.00     0.000 C 
BRANCH   3   4
ATOM      4  C   UNL     1      57.479   0.501  30.682  1.00  0.00     0.000 C 
BRANCH   4   5
ATOM      5  C   UNL     1      56.314  -0.420  31.089  1.00  0.00     0.006 C 
BRANCH   5   6
ATOM      6  C   UNL     1      55.589  -1.075  29.899  1.00  0.00     0.053 C 
BRANCH   6   7
ATOM      7  C   UNL     1      54.169  -1.438  30.216  1.00  0.00     0.041 C 
ATOM      8  O   UNL     1      53.281  -1.370  29.325  1.00  0.00    -0.550 OA
ATOM      9  O   UNL     1      53.833  -1.882  31.488  1.00  0.00    -0.550 OA
ENDBRANCH   6   7
ENDBRANCH   5   6
ENDBRANCH   4   5
ENDBRANCH   3   4
ENDBRANCH   2   3
ENDBRANCH   1   2
BRANCH   1  10
ATOM     10  C   UNL     1      60.932  -1.917  30.161  1.00  0.00     0.000 C 
BRANCH  10  11
ATOM     11  C   UNL     1      60.484  -3.388  30.226  1.00  0.00    -0.000 C 
BRANCH  11  12
ATOM     12  C   UNL     1      59.354  -3.706  29.234  1.00  0.00    -0.000 C 
BRANCH  12  13
ATOM     13  C   UNL     1      58.080  -4.215  29.925  1.00  0.00    -0.000 C 
BRANCH  13  14
ATOM     14  C   UNL     1      58.031  -3.760  31.389  1.00  0.00    -0.000 C 
BRANCH  14  15
ATOM     15  C   UNL     1      56.642  -3.995  31.993  1.00  0.00    -0.003 C 
ATOM     16  C   UNL     1      55.750  -4.779  31.035  1.00  0.00     0.004 C 
ENDBRANCH  14  15
ENDBRANCH  13  14
ENDBRANCH  12  13
ENDBRANCH  11  12
ENDBRANCH  10  11
ENDBRANCH   1  10
TORSDOF 12
ENDMDL
MODEL 4
REMARK VINA RESULT:    -4.410      3.273      4.969
REMARK INTER + INTRA:          -8.797
REMARK INTER:                  -7.192
REMARK INTRA:                  -1.605
REMARK UNBOUND:                -1.293
REMARK SMILES CCCCCCCCCCCCCC(=O)[O-]
REMARK SMILES IDX 8 1 9 2 10 3 11 4 12 5 13 6 14 7 15 8 16 9 7 10 6 11 5 12
REMARK SMILES IDX 4 13 3 14 2 15 1 16
REMARK H PARENT
REMARK Flexibility Score: inf
ROOT
ATOM      1  C   UNL     1      55.992  -3.064  29.062  1.00  0.00     0.000 C 
ENDROOT
BRANCH   1   2
ATOM      2  C   UNL     1      56.218  -4.082  30.194  1.00  0.00     0.000 C 
BRANCH   2   3
ATOM      3  C   UNL     1      57.658  -4.052  30.732  1.00  0.00     0.000 C 
BRANCH   3   4
ATOM      4  C   UNL     1      58.707  -4.062  29.607  1.00  0.00     0.000 C 
BRANCH   4   5
ATOM      5  C   UNL     1      59.998  -3.312  29.983  1.00  0.00     0.006 C 
BRANCH   5   6
ATOM      6  C   UNL     1      60.688  -2.617  28.795  1.00  0.00     0.053 C 
BRANCH   6   7
ATOM      7  C   UNL     1      61.697  -3.494  28.117  1.00  0.00     0.041 C 
ATOM      8  O   UNL     1      62.169  -4.499  28.712  1.00  0.00    -0.550 OA
ATOM      9  O   UNL     1      62.093  -3.218  26.814  1.00  0.00    -0.550 OA
ENDBRANCH   6   7
ENDBRANCH   5   6
ENDBRANCH   4   5
ENDBRANCH   3   4
ENDBRANCH   2   3
ENDBRANCH   1   2
BRANCH   1  10
ATOM     10  C   UNL     1      55.014  -1.945  29.457  1.00  0.00     0.000 C 
BRANCH  10  11
ATOM     11  C   UNL     1      54.956  -1.721  30.979  1.00  0.00    -0.000 C 
BRANCH  11  12
ATOM     12  C   UNL     1      55.715  -0.458  31.419  1.00  0.00    -0.000 C 
BRANCH  12  13
ATOM     13  C   UNL     1      57.222  -0.702  31.595  1.00  0.00    -0.000 C 
BRANCH  13  14
ATOM     14  C   UNL     1      58.039   0.393  30.900  1.00  0.00    -0.000 C 
BRANCH  14  15
ATOM     15  C   UNL     1      57.962   0.254  29.375  1.00  0.00    -0.003 C 
ATOM     16  C   UNL     1      57.170   1.401  28.756  1.00  0.00     0.004 C 
ENDBRANCH  14  15
ENDBRANCH  13  14
ENDBRANCH  12  13
ENDBRANCH  11  12
ENDBRANCH  10  11
ENDBRANCH   1  10
TORSDOF 12
ENDMDL
MODEL 5
REMARK VINA RESULT:    -4.377      2.468      5.634
REMARK INTER + INTRA:          -8.740
REMARK INTER:                  -6.925
REMARK INTRA:                  -1.816
REMARK UNBOUND:                -1.293
REMARK SMILES CCCCCCCCCCCCCC(=O)[O-]
REMARK SMILES IDX 8 1 9 2 10 3 11 4 12 5 13 6 14 7 15 8 16 9 7 10 6 11 5 12
REMARK SMILES IDX 4 13 3 14 2 15 1 16
REMARK H PARENT
REMARK Flexibility Score: inf
ROOT
ATOM      1  C   UNL     1      55.735   0.069  28.276  1.00  0.00     0.000 C 
ENDROOT
BRANCH   1   2
ATOM      2  C   UNL     1      57.140   0.507  28.726  1.00  0.00     0.000 C 
BRANCH   2   3
ATOM      3  C   UNL     1      57.154   1.052  30.164  1.00  0.00     0.000 C 
BRANCH   3   4
ATOM      4  C   UNL     1      57.807   0.075  31.157  1.00  0.00     0.000 C 
BRANCH   4   5
ATOM      5  C   UNL     1      58.707  -0.968  30.471  1.00  0.00     0.006 C 
BRANCH   5   6
ATOM      6  C   UNL     1      58.942  -2.240  31.306  1.00  0.00     0.053 C 
BRANCH   6   7
ATOM      7  C   UNL     1      59.989  -3.135  30.715  1.00  0.00     0.041 C 
ATOM      8  O   UNL     1      61.187  -3.050  31.095  1.00  0.00    -0.550 OA
ATOM      9  O   UNL     1      59.635  -4.087  29.767  1.00  0.00    -0.550 OA
ENDBRANCH   6   7
ENDBRANCH   5   6
ENDBRANCH   4   5
ENDBRANCH   3   4
ENDBRANCH   2   3
ENDBRANCH   1   2
BRANCH   1  10
ATOM     10  C   UNL     1      55.433  -1.399  28.619  1.00  0.00     0.000 C 
BRANCH  10  11
ATOM     11  C   UNL     1      54.089  -1.573  29.348  1.00  0.00    -0.000 C 
BRANCH  11  12
ATOM     12  C   UNL     1      54.156  -1.139  30.821  1.00  0.00    -0.000 C 
BRANCH  12  13
ATOM     13  C   UNL     1      55.021  -2.077  31.678  1.00  0.00    -0.000 C 
BRANCH  13  14
ATOM     14  C   UNL     1      54.358  -3.452  31.827  1.00  0.00    -0.000 C 
BRANCH  14  15
ATOM     15  C   UNL     1      55.404  -4.572  31.811  1.00  0.00    -0.003 C 
ATOM     16  C   UNL     1      56.167  -4.596  30.491  1.00  0.00     0.004 C 
ENDBRANCH  14  15
ENDBRANCH  13  14
ENDBRANCH  12  13
ENDBRANCH  11  12
ENDBRANCH  10  11
ENDBRANCH   1  10
TORSDOF 12
ENDMDL
MODEL 6
REMARK VINA RESULT:    -4.371      1.016      1.924
REMARK INTER + INTRA:          -8.730
REMARK INTER:                  -7.320
REMARK INTRA:                  -1.410
REMARK UNBOUND:                -1.293
REMARK SMILES CCCCCCCCCCCCCC(=O)[O-]
REMARK SMILES IDX 8 1 9 2 10 3 11 4 12 5 13 6 14 7 15 8 16 9 7 10 6 11 5 12
REMARK SMILES IDX 4 13 3 14 2 15 1 16
REMARK H PARENT
REMARK Flexibility Score: inf
ROOT
ATOM      1  C   UNL     1      60.029  -2.747  28.975  1.00  0.00     0.000 C 
ENDROOT
BRANCH   1   2
ATOM      2  C   UNL     1      59.602  -3.847  29.963  1.00  0.00     0.000 C 
BRANCH   2   3
ATOM      3  C   UNL     1      58.110  -4.196  29.845  1.00  0.00     0.000 C 
BRANCH   3   4
ATOM      4  C   UNL     1      57.384  -4.141  31.201  1.00  0.00     0.000 C 
BRANCH   4   5
ATOM      5  C   UNL     1      55.890  -4.496  31.098  1.00  0.00     0.006 C 
BRANCH   5   6
ATOM      6  C   UNL     1      54.961  -3.520  31.843  1.00  0.00     0.053 C 
BRANCH   6   7
ATOM      7  C   UNL     1      54.695  -2.266  31.067  1.00  0.00     0.041 C 
ATOM      8  O   UNL     1      54.481  -1.179  31.666  1.00  0.00    -0.550 OA
ATOM      9  O   UNL     1      54.717  -2.291  29.677  1.00  0.00    -0.550 OA
ENDBRANCH   6   7
ENDBRANCH   5   6
ENDBRANCH   4   5
ENDBRANCH   3   4
ENDBRANCH   2   3
ENDBRANCH   1   2
BRANCH   1  10
ATOM     10  C   UNL     1      60.302  -1.401  29.667  1.00  0.00     0.000 C 
BRANCH  10  11
ATOM     11  C   UNL     1      60.004  -1.441  31.177  1.00  0.00    -0.000 C 
BRANCH  11  12
ATOM     12  C   UNL     1      58.942  -0.412  31.596  1.00  0.00    -0.000 C 
BRANCH  12  13
ATOM     13  C   UNL     1      57.773  -0.327  30.603  1.00  0.00    -0.000 C 
BRANCH  13  14
ATOM     14  C   UNL     1      57.325   1.126  30.406  1.00  0.00    -0.000 C 
BRANCH  14  15
ATOM     15  C   UNL     1      57.139   1.448  28.919  1.00  0.00    -0.003 C 
ATOM     16  C   UNL     1      56.373   0.339  28.206  1.00  0.00     0.004 C 
ENDBRANCH  14  15
ENDBRANCH  13  14
ENDBRANCH  12  13
ENDBRANCH  11  12
ENDBRANCH  10  11
ENDBRANCH   1  10
TORSDOF 12
ENDMDL
MODEL 7
REMARK VINA RESULT:    -4.335      1.444      3.577
REMARK INTER + INTRA:          -8.668
REMARK INTER:                  -7.112
REMARK INTRA:                  -1.556
REMARK UNBOUND:                -1.293
REMARK SMILES CCCCCCCCCCCCCC(=O)[O-]
REMARK SMILES IDX 8 1 9 2 10 3 11 4 12 5 13 6 14 7 15 8 16 9 7 10 6 11 5 12
REMARK SMILES IDX 4 13 3 14 2 15 1 16
REMARK H PARENT
REMARK Flexibility Score: inf
ROOT
ATOM      1  C   UNL     1      58.530  -0.444  29.341  1.00  0.00     0.000 C 
ENDROOT
BRANCH   1   2
ATOM      2  C   UNL     1      57.933   0.457  30.437  1.00  0.00     0.000 C 
BRANCH   2   3
ATOM      3  C   UNL     1      57.180  -0.344  31.511  1.00  0.00     0.000 C 
BRANCH   3   4
ATOM      4  C   UNL     1      55.655  -0.153  31.426  1.00  0.00     0.000 C 
BRANCH   4   5
ATOM      5  C   UNL     1      54.888  -1.482  31.310  1.00  0.00     0.006 C 
BRANCH   5   6
ATOM      6  C   UNL     1      54.089  -1.633  30.003  1.00  0.00     0.053 C 
BRANCH   6   7
ATOM      7  C   UNL     1      54.967  -1.662  28.788  1.00  0.00     0.041 C 
ATOM      8  O   UNL     1      55.418  -2.755  28.354  1.00  0.00    -0.550 OA
ATOM      9  O   UNL     1      55.260  -0.482  28.115  1.00  0.00    -0.550 OA
ENDBRANCH   6   7
ENDBRANCH   5   6
ENDBRANCH   4   5
ENDBRANCH   3   4
ENDBRANCH   2   3
ENDBRANCH   1   2
BRANCH   1  10
ATOM     10  C   UNL     1      59.820  -1.149  29.790  1.00  0.00     0.000 C 
BRANCH  10  11
ATOM     11  C   UNL     1      60.543  -1.857  28.630  1.00  0.00    -0.000 C 
BRANCH  11  12
ATOM     12  C   UNL     1      60.437  -3.388  28.716  1.00  0.00    -0.000 C 
BRANCH  12  13
ATOM     13  C   UNL     1      59.679  -3.862  29.966  1.00  0.00    -0.000 C 
BRANCH  13  14
ATOM     14  C   UNL     1      58.209  -4.149  29.640  1.00  0.00    -0.000 C 
BRANCH  14  15
ATOM     15  C   UNL     1      57.369  -4.238  30.919  1.00  0.00    -0.003 C 
ATOM     16  C   UNL     1      58.141  -3.709  32.124  1.00  0.00     0.004 C 
ENDBRANCH  14  15
ENDBRANCH  13  14
ENDBRANCH  12  13
ENDBRANCH  11  12
ENDBRANCH  10  11
ENDBRANCH   1  10
TORSDOF 12
ENDMDL
MODEL 8
REMARK VINA RESULT:    -4.292      2.430      4.630
REMARK INTER + INTRA:          -8.595
REMARK INTER:                  -7.102
REMARK INTRA:                  -1.493
REMARK UNBOUND:                -1.293
REMARK SMILES CCCCCCCCCCCCCC(=O)[O-]
REMARK SMILES IDX 8 1 9 2 10 3 11 4 12 5 13 6 14 7 15 8 16 9 7 10 6 11 5 12
REMARK SMILES IDX 4 13 3 14 2 15 1 16
REMARK H PARENT
REMARK Flexibility Score: inf
ROOT
ATOM      1  C   UNL     1      55.259  -4.181  32.059  1.00  0.00     0.000 C 
ENDROOT
BRANCH   1   2
ATOM      2  C   UNL     1      56.717  -3.791  31.756  1.00  0.00     0.000 C 
BRANCH   2   3
ATOM      3  C   UNL     1      57.239  -4.432  30.459  1.00  0.00     0.000 C 
BRANCH   3   4
ATOM      4  C   UNL     1      58.592  -3.847  30.018  1.00  0.00     0.000 C 
BRANCH   4   5
ATOM      5  C   UNL     1      59.004  -2.606  30.830  1.00  0.00     0.006 C 
BRANCH   5   6
ATOM      6  C   UNL     1      60.434  -2.115  30.542  1.00  0.00     0.053 C 
BRANCH   6   7
ATOM      7  C   UNL     1      60.635  -1.726  29.108  1.00  0.00     0.041 C 
ATOM      8  O   UNL     1      60.170  -0.639  28.672  1.00  0.00    -0.550 OA
ATOM      9  O   UNL     1      61.365  -2.550  28.260  1.00  0.00    -0.550 OA
ENDBRANCH   6   7
ENDBRANCH   5   6
ENDBRANCH   4   5
ENDBRANCH   3   4
ENDBRANCH   2   3
ENDBRANCH   1   2
BRANCH   1  10
ATOM     10  C   UNL     1      54.262  -3.064  31.706  1.00  0.00     0.000 C 
BRANCH  10  11
ATOM     11  C   UNL     1      54.959  -1.739  31.349  1.00  0.00    -0.000 C 
BRANCH  11  12
ATOM     12  C   UNL     1      54.758  -1.344  29.877  1.00  0.00    -0.000 C 
BRANCH  12  13
ATOM     13  C   UNL     1      56.085  -1.114  29.138  1.00  0.00    -0.000 C 
BRANCH  13  14
ATOM     14  C   UNL     1      56.049   0.194  28.338  1.00  0.00    -0.000 C 
BRANCH  14  15
ATOM     15  C   UNL     1      57.077   1.196  28.874  1.00  0.00    -0.003 C 
ATOM     16  C   UNL     1      57.485   0.857  30.304  1.00  0.00     0.004 C 
ENDBRANCH  14  15
ENDBRANCH  13  14
ENDBRANCH  12  13
ENDBRANCH  11  12
ENDBRANCH  10  11
ENDBRANCH   1  10
TORSDOF 12
ENDMDL
MODEL 9
REMARK VINA RESULT:    -4.129      1.624      4.089
REMARK INTER + INTRA:          -8.318
REMARK INTER:                  -6.362
REMARK INTRA:                  -1.956
REMARK UNBOUND:                -1.293
REMARK SMILES CCCCCCCCCCCCCC(=O)[O-]
REMARK SMILES IDX 8 1 9 2 10 3 11 4 12 5 13 6 14 7 15 8 16 9 7 10 6 11 5 12
REMARK SMILES IDX 4 13 3 14 2 15 1 16
REMARK H PARENT
REMARK Flexibility Score: inf
ROOT
ATOM      1  C   UNL     1      58.649  -2.987  31.920  1.00  0.00     0.000 C 
ENDROOT
BRANCH   1   2
ATOM      2  C   UNL     1      58.099  -1.563  32.114  1.00  0.00     0.000 C 
BRANCH   2   3
ATOM      3  C   UNL     1      59.005  -0.492  31.484  1.00  0.00     0.000 C 
BRANCH   3   4
ATOM      4  C   UNL     1      58.612  -0.168  30.032  1.00  0.00     0.000 C 
BRANCH   4   5
ATOM      5  C   UNL     1      57.237   0.515  29.921  1.00  0.00     0.006 C 
BRANCH   5   6
ATOM      6  C   UNL     1      56.309  -0.112  28.865  1.00  0.00     0.053 C 
BRANCH   6   7
ATOM      7  C   UNL     1      55.501  -1.252  29.407  1.00  0.00     0.041 C 
ATOM      8  O   UNL     1      55.409  -2.331  28.763  1.00  0.00    -0.550 OA
ATOM      9  O   UNL     1      54.873  -1.133  30.641  1.00  0.00    -0.550 OA
ENDBRANCH   6   7
ENDBRANCH   5   6
ENDBRANCH   4   5
ENDBRANCH   3   4
ENDBRANCH   2   3
ENDBRANCH   1   2
BRANCH   1  10
ATOM     10  C   UNL     1      57.779  -3.834  30.975  1.00  0.00     0.000 C 
BRANCH  10  11
ATOM     11  C   UNL     1      58.477  -4.131  29.635  1.00  0.00    -0.000 C 
BRANCH  11  12
ATOM     12  C   UNL     1      59.994  -3.893  29.694  1.00  0.00    -0.000 C 
BRANCH  12  13
ATOM     13  C   UNL     1      60.510  -3.052  28.516  1.00  0.00    -0.000 C 
BRANCH  13  14
ATOM     14  C   UNL     1      61.596  -2.072  28.976  1.00  0.00    -0.000 C 
BRANCH  14  15
ATOM     15  C   UNL     1      62.048  -2.382  30.407  1.00  0.00    -0.003 C 
ATOM     16  C   UNL     1      63.445  -2.993  30.424  1.00  0.00     0.004 C 
ENDBRANCH  14  15
ENDBRANCH  13  14
ENDBRANCH  12  13
ENDBRANCH  11  12
ENDBRANCH  10  11
ENDBRANCH   1  10
TORSDOF 12
ENDMDL
