MODEL 1
REMARK VINA RESULT:    -3.075      0.000      0.000
REMARK INTER + INTRA:          -7.045
REMARK INTER:                  -5.951
REMARK INTRA:                  -1.094
REMARK UNBOUND:                -1.094
REMARK SMILES CCCCCCCCCCCCCCCCCC(=O)[O-]
REMARK SMILES IDX 10 1 11 2 12 3 13 4 14 5 15 6 16 7 17 8 18 9 19 10 20 11
REMARK SMILES IDX 9 12 8 13 7 14 6 15 5 16 4 17 3 18 2 19 1 20
REMARK H PARENT
REMARK Flexibility Score: inf
ROOT
ATOM      1  C   UNL     1     -16.937 -12.749   2.992  1.00  0.00     0.000 C 
ENDROOT
BRANCH   1   2
ATOM      2  C   UNL     1     -17.484 -12.336   1.614  1.00  0.00     0.000 C 
BRANCH   2   3
ATOM      3  C   UNL     1     -18.916 -12.841   1.365  1.00  0.00     0.000 C 
BRANCH   3   4
ATOM      4  C   UNL     1     -19.587 -12.297   0.088  1.00  0.00     0.000 C 
BRANCH   4   5
ATOM      5  C   UNL     1     -21.079 -11.939   0.233  1.00  0.00     0.000 C 
BRANCH   5   6
ATOM      6  C   UNL     1     -21.734 -12.402   1.547  1.00  0.00     0.000 C 
BRANCH   6   7
ATOM      7  C   UNL     1     -23.176 -11.895   1.706  1.00  0.00     0.006 C 
BRANCH   7   8
ATOM      8  C   UNL     1     -23.411 -11.349   3.117  1.00  0.00     0.053 C 
BRANCH   8   9
ATOM      9  C   UNL     1     -24.875 -11.299   3.422  1.00  0.00     0.041 C 
ATOM     10  O   UNL     1     -25.381 -12.116   4.236  1.00  0.00    -0.550 OA
ATOM     11  O   UNL     1     -25.690 -10.381   2.772  1.00  0.00    -0.550 OA
ENDBRANCH   8   9
ENDBRANCH   7   8
ENDBRANCH   6   7
ENDBRANCH   5   6
ENDBRANCH   4   5
ENDBRANCH   3   4
ENDBRANCH   2   3
ENDBRANCH   1   2
BRANCH   1  12
ATOM     12  C   UNL     1     -16.010 -11.681   3.599  1.00  0.00     0.000 C 
BRANCH  12  13
ATOM     13  C   UNL     1     -15.713 -10.536   2.614  1.00  0.00    -0.000 C 
BRANCH  13  14
ATOM     14  C   UNL     1     -14.207 -10.316   2.396  1.00  0.00    -0.000 C 
BRANCH  14  15
ATOM     15  C   UNL     1     -13.434 -11.635   2.223  1.00  0.00    -0.000 C 
BRANCH  15  16
ATOM     16  C   UNL     1     -12.026 -11.592   2.847  1.00  0.00    -0.000 C 
BRANCH  16  17
ATOM     17  C   UNL     1     -11.637 -12.837   3.666  1.00  0.00    -0.000 C 
BRANCH  17  18
ATOM     18  C   UNL     1     -11.886 -12.663   5.174  1.00  0.00    -0.000 C 
BRANCH  18  19
ATOM     19  C   UNL     1     -13.327 -13.011   5.577  1.00  0.00    -0.003 C 
ATOM     20  C   UNL     1     -13.509 -13.104   7.092  1.00  0.00     0.004 C 
ENDBRANCH  18  19
ENDBRANCH  17  18
ENDBRANCH  16  17
ENDBRANCH  15  16
ENDBRANCH  14  15
ENDBRANCH  13  14
ENDBRANCH  12  13
ENDBRANCH   1  12
TORSDOF 16
ENDMDL
MODEL 2
REMARK VINA RESULT:    -2.827     15.179     17.334
REMARK INTER + INTRA:          -6.565
REMARK INTER:                  -4.863
REMARK INTRA:                  -1.702
REMARK UNBOUND:                -1.094
REMARK SMILES CCCCCCCCCCCCCCCCCC(=O)[O-]
REMARK SMILES IDX 10 1 11 2 12 3 13 4 14 5 15 6 16 7 17 8 18 9 19 10 20 11
REMARK SMILES IDX 9 12 8 13 7 14 6 15 5 16 4 17 3 18 2 19 1 20
REMARK H PARENT
REMARK Flexibility Score: inf
ROOT
ATOM      1  C   UNL     1     -23.609   4.216   3.447  1.00  0.00     0.000 C 
ENDROOT
BRANCH   1   2
ATOM      2  C   UNL     1     -25.050   3.842   3.834  1.00  0.00     0.000 C 
BRANCH   2   3
ATOM      3  C   UNL     1     -25.948   3.585   2.612  1.00  0.00     0.000 C 
BRANCH   3   4
ATOM      4  C   UNL     1     -26.125   2.100   2.234  1.00  0.00     0.000 C 
BRANCH   4   5
ATOM      5  C   UNL     1     -25.655   1.725   0.814  1.00  0.00     0.000 C 
BRANCH   5   6
ATOM      6  C   UNL     1     -24.131   1.760   0.602  1.00  0.00     0.000 C 
BRANCH   6   7
ATOM      7  C   UNL     1     -23.369   0.883   1.607  1.00  0.00     0.006 C 
BRANCH   7   8
ATOM      8  C   UNL     1     -21.995   1.481   1.924  1.00  0.00     0.053 C 
BRANCH   8   9
ATOM      9  C   UNL     1     -20.910   0.507   1.588  1.00  0.00     0.041 C 
ATOM     10  O   UNL     1     -19.782   0.919   1.213  1.00  0.00    -0.550 OA
ATOM     11  O   UNL     1     -21.160  -0.859   1.645  1.00  0.00    -0.550 OA
ENDBRANCH   8   9
ENDBRANCH   7   8
ENDBRANCH   6   7
ENDBRANCH   5   6
ENDBRANCH   4   5
ENDBRANCH   3   4
ENDBRANCH   2   3
ENDBRANCH   1   2
BRANCH   1  12
ATOM     12  C   UNL     1     -23.289   5.694   3.735  1.00  0.00     0.000 C 
BRANCH  12  13
ATOM     13  C   UNL     1     -24.310   6.649   3.091  1.00  0.00    -0.000 C 
BRANCH  13  14
ATOM     14  C   UNL     1     -23.942   7.026   1.647  1.00  0.00    -0.000 C 
BRANCH  14  15
ATOM     15  C   UNL     1     -22.505   6.621   1.275  1.00  0.00    -0.000 C 
BRANCH  15  16
ATOM     16  C   UNL     1     -22.447   5.356   0.399  1.00  0.00    -0.000 C 
BRANCH  16  17
ATOM     17  C   UNL     1     -21.036   4.780   0.176  1.00  0.00    -0.000 C 
BRANCH  17  18
ATOM     18  C   UNL     1     -19.988   5.865  -0.124  1.00  0.00    -0.000 C 
BRANCH  18  19
ATOM     19  C   UNL     1     -18.603   5.520   0.445  1.00  0.00    -0.003 C 
ATOM     20  C   UNL     1     -18.184   4.081   0.142  1.00  0.00     0.004 C 
ENDBRANCH  18  19
ENDBRANCH  17  18
ENDBRANCH  16  17
ENDBRANCH  15  16
ENDBRANCH  14  15
ENDBRANCH  13  14
ENDBRANCH  12  13
ENDBRANCH   1  12
TORSDOF 16
ENDMDL
MODEL 3
REMARK VINA RESULT:    -2.752     15.375     17.774
REMARK INTER + INTRA:          -6.420
REMARK INTER:                  -4.395
REMARK INTRA:                  -2.025
REMARK UNBOUND:                -1.094
REMARK SMILES CCCCCCCCCCCCCCCCCC(=O)[O-]
REMARK SMILES IDX 10 1 11 2 12 3 13 4 14 5 15 6 16 7 17 8 18 9 19 10 20 11
REMARK SMILES IDX 9 12 8 13 7 14 6 15 5 16 4 17 3 18 2 19 1 20
REMARK H PARENT
REMARK Flexibility Score: inf
ROOT
ATOM      1  C   UNL     1     -24.273   3.569   2.874  1.00  0.00     0.000 C 
ENDROOT
BRANCH   1   2
ATOM      2  C   UNL     1     -24.593   4.633   3.938  1.00  0.00     0.000 C 
BRANCH   2   3
ATOM      3  C   UNL     1     -23.667   5.858   3.853  1.00  0.00     0.000 C 
BRANCH   3   4
ATOM      4  C   UNL     1     -24.114   6.946   2.855  1.00  0.00     0.000 C 
BRANCH   4   5
ATOM      5  C   UNL     1     -25.361   6.596   2.019  1.00  0.00     0.000 C 
BRANCH   5   6
ATOM      6  C   UNL     1     -25.149   6.617   0.495  1.00  0.00     0.000 C 
BRANCH   6   7
ATOM      7  C   UNL     1     -23.677   6.807   0.100  1.00  0.00     0.006 C 
BRANCH   7   8
ATOM      8  C   UNL     1     -22.992   5.455  -0.125  1.00  0.00     0.053 C 
BRANCH   8   9
ATOM      9  C   UNL     1     -21.564   5.512   0.317  1.00  0.00     0.041 C 
ATOM     10  O   UNL     1     -20.796   4.537   0.106  1.00  0.00    -0.550 OA
ATOM     11  O   UNL     1     -21.092   6.623   1.006  1.00  0.00    -0.550 OA
ENDBRANCH   8   9
ENDBRANCH   7   8
ENDBRANCH   6   7
ENDBRANCH   5   6
ENDBRANCH   4   5
ENDBRANCH   3   4
ENDBRANCH   2   3
ENDBRANCH   1   2
BRANCH   1  12
ATOM     12  C   UNL     1     -25.149   2.312   3.019  1.00  0.00     0.000 C 
BRANCH  12  13
ATOM     13  C   UNL     1     -25.887   1.959   1.715  1.00  0.00    -0.000 C 
BRANCH  13  14
ATOM     14  C   UNL     1     -25.313   2.693   0.491  1.00  0.00    -0.000 C 
BRANCH  14  15
ATOM     15  C   UNL     1     -24.093   1.976  -0.112  1.00  0.00    -0.000 C 
BRANCH  15  16
ATOM     16  C   UNL     1     -24.182   0.442   0.002  1.00  0.00    -0.000 C 
BRANCH  16  17
ATOM     17  C   UNL     1     -22.827  -0.289   0.033  1.00  0.00    -0.000 C 
BRANCH  17  18
ATOM     18  C   UNL     1     -21.639   0.662   0.254  1.00  0.00    -0.000 C 
BRANCH  18  19
ATOM     19  C   UNL     1     -21.176   0.697   1.719  1.00  0.00    -0.003 C 
ATOM     20  C   UNL     1     -22.086  -0.113   2.643  1.00  0.00     0.004 C 
ENDBRANCH  18  19
ENDBRANCH  17  18
ENDBRANCH  16  17
ENDBRANCH  15  16
ENDBRANCH  14  15
ENDBRANCH  13  14
ENDBRANCH  12  13
ENDBRANCH   1  12
TORSDOF 16
ENDMDL
MODEL 4
REMARK VINA RESULT:    -2.559      1.330      2.130
REMARK INTER + INTRA:          -6.047
REMARK INTER:                  -5.136
REMARK INTRA:                  -0.911
REMARK UNBOUND:                -1.094
REMARK SMILES CCCCCCCCCCCCCCCCCC(=O)[O-]
REMARK SMILES IDX 10 1 11 2 12 3 13 4 14 5 15 6 16 7 17 8 18 9 19 10 20 11
REMARK SMILES IDX 9 12 8 13 7 14 6 15 5 16 4 17 3 18 2 19 1 20
REMARK H PARENT
REMARK Flexibility Score: inf
ROOT
ATOM      1  C   UNL     1     -15.760 -10.275   2.863  1.00  0.00     0.000 C 
ENDROOT
BRANCH   1   2
ATOM      2  C   UNL     1     -16.270 -11.595   2.260  1.00  0.00     0.000 C 
BRANCH   2   3
ATOM      3  C   UNL     1     -16.809 -11.427   0.829  1.00  0.00     0.000 C 
BRANCH   3   4
ATOM      4  C   UNL     1     -17.312 -12.725   0.165  1.00  0.00     0.000 C 
BRANCH   4   5
ATOM      5  C   UNL     1     -18.758 -13.124   0.520  1.00  0.00     0.000 C 
BRANCH   5   6
ATOM      6  C   UNL     1     -19.468 -12.184   1.510  1.00  0.00     0.000 C 
BRANCH   6   7
ATOM      7  C   UNL     1     -20.742 -12.800   2.109  1.00  0.00     0.006 C 
BRANCH   7   8
ATOM      8  C   UNL     1     -21.993 -12.246   1.421  1.00  0.00     0.053 C 
BRANCH   8   9
ATOM      9  C   UNL     1     -23.049 -11.926   2.432  1.00  0.00     0.041 C 
ATOM     10  O   UNL     1     -22.850 -12.162   3.652  1.00  0.00    -0.550 OA
ATOM     11  O   UNL     1     -24.272 -11.411   2.020  1.00  0.00    -0.550 OA
ENDBRANCH   8   9
ENDBRANCH   7   8
ENDBRANCH   6   7
ENDBRANCH   5   6
ENDBRANCH   4   5
ENDBRANCH   3   4
ENDBRANCH   2   3
ENDBRANCH   1   2
BRANCH   1  12
ATOM     12  C   UNL     1     -14.493  -9.759   2.158  1.00  0.00     0.000 C 
BRANCH  12  13
ATOM     13  C   UNL     1     -13.245 -10.584   2.520  1.00  0.00    -0.000 C 
BRANCH  13  14
ATOM     14  C   UNL     1     -12.992 -11.739   1.537  1.00  0.00    -0.000 C 
BRANCH  14  15
ATOM     15  C   UNL     1     -12.602 -13.047   2.248  1.00  0.00    -0.000 C 
BRANCH  15  16
ATOM     16  C   UNL     1     -12.591 -12.916   3.782  1.00  0.00    -0.000 C 
BRANCH  16  17
ATOM     17  C   UNL     1     -11.192 -12.807   4.417  1.00  0.00    -0.000 C 
BRANCH  17  18
ATOM     18  C   UNL     1     -11.233 -12.786   5.955  1.00  0.00    -0.000 C 
BRANCH  18  19
ATOM     19  C   UNL     1     -12.662 -12.908   6.507  1.00  0.00    -0.003 C 
ATOM     20  C   UNL     1     -12.765 -12.480   7.972  1.00  0.00     0.004 C 
ENDBRANCH  18  19
ENDBRANCH  17  18
ENDBRANCH  16  17
ENDBRANCH  15  16
ENDBRANCH  14  15
ENDBRANCH  13  14
ENDBRANCH  12  13
ENDBRANCH   1  12
TORSDOF 16
ENDMDL
MODEL 5
REMARK VINA RESULT:    -2.544      1.300      2.651
REMARK INTER + INTRA:          -6.017
REMARK INTER:                  -5.230
REMARK INTRA:                  -0.787
REMARK UNBOUND:                -1.094
REMARK SMILES CCCCCCCCCCCCCCCCCC(=O)[O-]
REMARK SMILES IDX 10 1 11 2 12 3 13 4 14 5 15 6 16 7 17 8 18 9 19 10 20 11
REMARK SMILES IDX 9 12 8 13 7 14 6 15 5 16 4 17 3 18 2 19 1 20
REMARK H PARENT
REMARK Flexibility Score: inf
ROOT
ATOM      1  C   UNL     1     -19.684 -13.002   1.620  1.00  0.00     0.000 C 
ENDROOT
BRANCH   1   2
ATOM      2  C   UNL     1     -21.089 -12.373   1.593  1.00  0.00     0.000 C 
BRANCH   2   3
ATOM      3  C   UNL     1     -21.435 -11.747   0.231  1.00  0.00     0.000 C 
BRANCH   3   4
ATOM      4  C   UNL     1     -22.936 -11.744  -0.122  1.00  0.00     0.000 C 
BRANCH   4   5
ATOM      5  C   UNL     1     -23.750 -10.583   0.485  1.00  0.00     0.000 C 
BRANCH   5   6
ATOM      6  C   UNL     1     -25.276 -10.780   0.467  1.00  0.00     0.000 C 
BRANCH   6   7
ATOM      7  C   UNL     1     -25.882 -10.878   1.875  1.00  0.00     0.006 C 
BRANCH   7   8
ATOM      8  C   UNL     1     -25.237 -12.017   2.670  1.00  0.00     0.053 C 
BRANCH   8   9
ATOM      9  C   UNL     1     -24.773 -11.528   4.005  1.00  0.00     0.041 C 
ATOM     10  O   UNL     1     -23.578 -11.701   4.364  1.00  0.00    -0.550 OA
ATOM     11  O   UNL     1     -25.671 -10.921   4.874  1.00  0.00    -0.550 OA
ENDBRANCH   8   9
ENDBRANCH   7   8
ENDBRANCH   6   7
ENDBRANCH   5   6
ENDBRANCH   4   5
ENDBRANCH   3   4
ENDBRANCH   2   3
ENDBRANCH   1   2
BRANCH   1  12
ATOM     12  C   UNL     1     -18.942 -12.723   2.939  1.00  0.00     0.000 C 
BRANCH  12  13
ATOM     13  C   UNL     1     -17.413 -12.789   2.775  1.00  0.00    -0.000 C 
BRANCH  13  14
ATOM     14  C   UNL     1     -16.744 -11.410   2.891  1.00  0.00    -0.000 C 
BRANCH  14  15
ATOM     15  C   UNL     1     -15.316 -11.490   3.460  1.00  0.00    -0.000 C 
BRANCH  15  16
ATOM     16  C   UNL     1     -14.246 -11.008   2.463  1.00  0.00    -0.000 C 
BRANCH  16  17
ATOM     17  C   UNL     1     -12.790 -11.251   2.902  1.00  0.00    -0.000 C 
BRANCH  17  18
ATOM     18  C   UNL     1     -12.591 -12.613   3.589  1.00  0.00    -0.000 C 
BRANCH  18  19
ATOM     19  C   UNL     1     -11.507 -12.572   4.678  1.00  0.00    -0.003 C 
ATOM     20  C   UNL     1     -12.078 -12.751   6.085  1.00  0.00     0.004 C 
ENDBRANCH  18  19
ENDBRANCH  17  18
ENDBRANCH  16  17
ENDBRANCH  15  16
ENDBRANCH  14  15
ENDBRANCH  13  14
ENDBRANCH  12  13
ENDBRANCH   1  12
TORSDOF 16
ENDMDL
MODEL 6
REMARK VINA RESULT:    -2.518     14.788     17.280
REMARK INTER + INTRA:          -5.967
REMARK INTER:                  -4.516
REMARK INTRA:                  -1.450
REMARK UNBOUND:                -1.094
REMARK SMILES CCCCCCCCCCCCCCCCCC(=O)[O-]
REMARK SMILES IDX 10 1 11 2 12 3 13 4 14 5 15 6 16 7 17 8 18 9 19 10 20 11
REMARK SMILES IDX 9 12 8 13 7 14 6 15 5 16 4 17 3 18 2 19 1 20
REMARK H PARENT
REMARK Flexibility Score: inf
ROOT
ATOM      1  C   UNL     1     -20.079   0.750   1.424  1.00  0.00     0.000 C 
ENDROOT
BRANCH   1   2
ATOM      2  C   UNL     1     -19.749   1.819   0.367  1.00  0.00     0.000 C 
BRANCH   2   3
ATOM      3  C   UNL     1     -18.387   2.492   0.607  1.00  0.00     0.000 C 
BRANCH   3   4
ATOM      4  C   UNL     1     -18.429   4.030   0.717  1.00  0.00     0.000 C 
BRANCH   4   5
ATOM      5  C   UNL     1     -19.528   4.716  -0.118  1.00  0.00     0.000 C 
BRANCH   5   6
ATOM      6  C   UNL     1     -20.132   5.982   0.516  1.00  0.00     0.000 C 
BRANCH   6   7
ATOM      7  C   UNL     1     -21.651   5.881   0.720  1.00  0.00     0.006 C 
BRANCH   7   8
ATOM      8  C   UNL     1     -22.188   7.112   1.456  1.00  0.00     0.053 C 
BRANCH   8   9
ATOM      9  C   UNL     1     -23.239   6.716   2.444  1.00  0.00     0.041 C 
ATOM     10  O   UNL     1     -24.372   6.337   2.046  1.00  0.00    -0.550 OA
ATOM     11  O   UNL     1     -22.984   6.810   3.807  1.00  0.00    -0.550 OA
ENDBRANCH   8   9
ENDBRANCH   7   8
ENDBRANCH   6   7
ENDBRANCH   5   6
ENDBRANCH   4   5
ENDBRANCH   3   4
ENDBRANCH   2   3
ENDBRANCH   1   2
BRANCH   1  12
ATOM     12  C   UNL     1     -21.524   0.233   1.303  1.00  0.00     0.000 C 
BRANCH  12  13
ATOM     13  C   UNL     1     -22.091   0.408  -0.117  1.00  0.00    -0.000 C 
BRANCH  13  14
ATOM     14  C   UNL     1     -23.475   1.078  -0.125  1.00  0.00    -0.000 C 
BRANCH  14  15
ATOM     15  C   UNL     1     -24.628   0.059  -0.110  1.00  0.00    -0.000 C 
BRANCH  15  16
ATOM     16  C   UNL     1     -25.947   0.655   0.417  1.00  0.00    -0.000 C 
BRANCH  16  17
ATOM     17  C   UNL     1     -25.848   2.101   0.936  1.00  0.00    -0.000 C 
BRANCH  17  18
ATOM     18  C   UNL     1     -25.687   2.179   2.464  1.00  0.00    -0.000 C 
BRANCH  18  19
ATOM     19  C   UNL     1     -24.691   3.266   2.897  1.00  0.00    -0.003 C 
ATOM     20  C   UNL     1     -23.241   2.785   2.858  1.00  0.00     0.004 C 
ENDBRANCH  18  19
ENDBRANCH  17  18
ENDBRANCH  16  17
ENDBRANCH  15  16
ENDBRANCH  14  15
ENDBRANCH  13  14
ENDBRANCH  12  13
ENDBRANCH   1  12
TORSDOF 16
ENDMDL
MODEL 7
REMARK VINA RESULT:    -0.740     15.515     18.070
REMARK INTER + INTRA:          -2.526
REMARK INTER:                  -0.973
REMARK INTRA:                  -1.553
REMARK UNBOUND:                -1.094
REMARK SMILES CCCCCCCCCCCCCCCCCC(=O)[O-]
REMARK SMILES IDX 10 1 11 2 12 3 13 4 14 5 15 6 16 7 17 8 18 9 19 10 20 11
REMARK SMILES IDX 9 12 8 13 7 14 6 15 5 16 4 17 3 18 2 19 1 20
REMARK H PARENT
REMARK Flexibility Score: inf
ROOT
ATOM      1  C   UNL     1     -25.067   4.922   4.447  1.00  0.00     0.000 C 
ENDROOT
BRANCH   1   2
ATOM      2  C   UNL     1     -23.864   5.238   3.541  1.00  0.00     0.000 C 
BRANCH   2   3
ATOM      3  C   UNL     1     -24.282   5.741   2.149  1.00  0.00     0.000 C 
BRANCH   3   4
ATOM      4  C   UNL     1     -23.684   7.103   1.741  1.00  0.00     0.000 C 
BRANCH   4   5
ATOM      5  C   UNL     1     -22.981   7.125   0.369  1.00  0.00     0.000 C 
BRANCH   5   6
ATOM      6  C   UNL     1     -22.336   5.793  -0.053  1.00  0.00     0.000 C 
BRANCH   6   7
ATOM      7  C   UNL     1     -20.803   5.864  -0.110  1.00  0.00     0.006 C 
BRANCH   7   8
ATOM      8  C   UNL     1     -20.190   4.460  -0.125  1.00  0.00     0.053 C 
BRANCH   8   9
ATOM      9  C   UNL     1     -18.707   4.534   0.057  1.00  0.00     0.041 C 
ATOM     10  O   UNL     1     -18.133   5.651   0.136  1.00  0.00    -0.550 OA
ATOM     11  O   UNL     1     -17.952   3.367   0.092  1.00  0.00    -0.550 OA
ENDBRANCH   8   9
ENDBRANCH   7   8
ENDBRANCH   6   7
ENDBRANCH   5   6
ENDBRANCH   4   5
ENDBRANCH   3   4
ENDBRANCH   2   3
ENDBRANCH   1   2
BRANCH   1  12
ATOM     12  C   UNL     1     -25.680   3.542   4.150  1.00  0.00     0.000 C 
BRANCH  12  13
ATOM     13  C   UNL     1     -24.983   2.834   2.974  1.00  0.00    -0.000 C 
BRANCH  13  14
ATOM     14  C   UNL     1     -25.977   2.302   1.928  1.00  0.00    -0.000 C 
BRANCH  14  15
ATOM     15  C   UNL     1     -25.366   2.217   0.518  1.00  0.00    -0.000 C 
BRANCH  15  16
ATOM     16  C   UNL     1     -23.921   2.745   0.459  1.00  0.00    -0.000 C 
BRANCH  16  17
ATOM     17  C   UNL     1     -22.870   1.719  -0.007  1.00  0.00    -0.000 C 
BRANCH  17  18
ATOM     18  C   UNL     1     -23.145   0.300   0.520  1.00  0.00    -0.000 C 
BRANCH  18  19
ATOM     19  C   UNL     1     -22.617   0.089   1.947  1.00  0.00    -0.003 C 
ATOM     20  C   UNL     1     -21.194   0.618   2.133  1.00  0.00     0.004 C 
ENDBRANCH  18  19
ENDBRANCH  17  18
ENDBRANCH  16  17
ENDBRANCH  15  16
ENDBRANCH  14  15
ENDBRANCH  13  14
ENDBRANCH  12  13
ENDBRANCH   1  12
TORSDOF 16
ENDMDL
