MODEL 1
REMARK VINA RESULT:    -5.648      0.000      0.000
REMARK INTER + INTRA:         -13.394
REMARK INTER:                 -12.252
REMARK INTRA:                  -1.142
REMARK UNBOUND:                -1.142
REMARK SMILES CCCCCCCCCCCCCCCCCCCCCC(=O)[O-]
REMARK SMILES IDX 12 1 11 2 10 3 9 4 8 5 7 6 6 7 5 8 4 9 3 10 2 11 1 12 13 13
REMARK SMILES IDX 14 14 15 15 16 16 17 17 18 18 19 19 20 20 21 21 22 22 23 23
REMARK SMILES IDX 24 24
REMARK H PARENT
REMARK Flexibility Score: inf
ROOT
ATOM      1  C   UNL     1      21.097 -12.769  21.240  1.00  0.00     0.000 C 
ENDROOT
BRANCH   1   2
ATOM      2  C   UNL     1      21.365 -13.773  20.106  1.00  0.00     0.000 C 
BRANCH   2   3
ATOM      3  C   UNL     1      22.640 -14.600  20.334  1.00  0.00     0.000 C 
BRANCH   3   4
ATOM      4  C   UNL     1      22.907 -15.534  19.145  1.00  0.00    -0.000 C 
BRANCH   4   5
ATOM      5  C   UNL     1      23.066 -17.009  19.560  1.00  0.00    -0.000 C 
BRANCH   5   6
ATOM      6  C   UNL     1      23.622 -17.943  18.470  1.00  0.00    -0.000 C 
BRANCH   6   7
ATOM      7  C   UNL     1      23.006 -17.683  17.085  1.00  0.00    -0.000 C 
BRANCH   7   8
ATOM      8  C   UNL     1      22.221 -18.891  16.541  1.00  0.00    -0.000 C 
BRANCH   8   9
ATOM      9  C   UNL     1      21.886 -19.976  17.581  1.00  0.00    -0.000 C 
BRANCH   9  10
ATOM     10  C   UNL     1      21.370 -21.277  16.945  1.00  0.00    -0.000 C 
BRANCH  10  11
ATOM     11  C   UNL     1      19.894 -21.183  16.529  1.00  0.00    -0.003 C 
ATOM     12  C   UNL     1      18.967 -20.890  17.707  1.00  0.00     0.004 C 
ENDBRANCH  10  11
ENDBRANCH   9  10
ENDBRANCH   8   9
ENDBRANCH   7   8
ENDBRANCH   6   7
ENDBRANCH   5   6
ENDBRANCH   4   5
ENDBRANCH   3   4
ENDBRANCH   2   3
ENDBRANCH   1   2
BRANCH   1  13
ATOM     13  C   UNL     1      22.360 -12.000  21.659  1.00  0.00     0.000 C 
BRANCH  13  14
ATOM     14  C   UNL     1      22.051 -10.824  22.599  1.00  0.00     0.000 C 
BRANCH  14  15
ATOM     15  C   UNL     1      20.681 -10.953  23.284  1.00  0.00     0.000 C 
BRANCH  15  16
ATOM     16  C   UNL     1      20.669 -10.220  24.631  1.00  0.00     0.000 C 
BRANCH  16  17
ATOM     17  C   UNL     1      21.444  -8.897  24.545  1.00  0.00     0.000 C 
BRANCH  17  18
ATOM     18  C   UNL     1      20.523  -7.679  24.356  1.00  0.00     0.000 C 
BRANCH  18  19
ATOM     19  C   UNL     1      20.166  -6.997  25.687  1.00  0.00     0.000 C 
BRANCH  19  20
ATOM     20  C   UNL     1      21.124  -7.378  26.833  1.00  0.00     0.006 C 
BRANCH  20  21
ATOM     21  C   UNL     1      21.982  -6.208  27.345  1.00  0.00     0.053 C 
BRANCH  21  22
ATOM     22  C   UNL     1      22.344  -5.242  26.260  1.00  0.00     0.041 C 
ATOM     23  O   UNL     1      21.789  -4.113  26.205  1.00  0.00    -0.550 OA
ATOM     24  O   UNL     1      23.311  -5.578  25.320  1.00  0.00    -0.550 OA
ENDBRANCH  21  22
ENDBRANCH  20  21
ENDBRANCH  19  20
ENDBRANCH  18  19
ENDBRANCH  17  18
ENDBRANCH  16  17
ENDBRANCH  15  16
ENDBRANCH  14  15
ENDBRANCH  13  14
ENDBRANCH   1  13
TORSDOF 20
ENDMDL
MODEL 2
REMARK VINA RESULT:    -5.618      1.695      2.184
REMARK INTER + INTRA:         -13.328
REMARK INTER:                 -12.169
REMARK INTRA:                  -1.160
REMARK UNBOUND:                -1.142
REMARK SMILES CCCCCCCCCCCCCCCCCCCCCC(=O)[O-]
REMARK SMILES IDX 12 1 11 2 10 3 9 4 8 5 7 6 6 7 5 8 4 9 3 10 2 11 1 12 13 13
REMARK SMILES IDX 14 14 15 15 16 16 17 17 18 18 19 19 20 20 21 21 22 22 23 23
REMARK SMILES IDX 24 24
REMARK H PARENT
REMARK Flexibility Score: inf
ROOT
ATOM      1  C   UNL     1      21.090 -12.636  21.087  1.00  0.00     0.000 C 
ENDROOT
BRANCH   1   2
ATOM      2  C   UNL     1      21.442 -13.808  20.156  1.00  0.00     0.000 C 
BRANCH   2   3
ATOM      3  C   UNL     1      22.750 -14.510  20.554  1.00  0.00     0.000 C 
BRANCH   3   4
ATOM      4  C   UNL     1      22.998 -15.745  19.676  1.00  0.00    -0.000 C 
BRANCH   4   5
ATOM      5  C   UNL     1      22.559 -15.543  18.213  1.00  0.00    -0.000 C 
BRANCH   5   6
ATOM      6  C   UNL     1      23.027 -16.631  17.229  1.00  0.00    -0.000 C 
BRANCH   6   7
ATOM      7  C   UNL     1      23.419 -17.944  17.929  1.00  0.00    -0.000 C 
BRANCH   7   8
ATOM      8  C   UNL     1      22.247 -18.936  18.045  1.00  0.00    -0.000 C 
BRANCH   8   9
ATOM      9  C   UNL     1      21.927 -19.724  16.761  1.00  0.00    -0.000 C 
BRANCH   9  10
ATOM     10  C   UNL     1      21.468 -21.165  17.042  1.00  0.00    -0.000 C 
BRANCH  10  11
ATOM     11  C   UNL     1      19.984 -21.384  16.711  1.00  0.00    -0.003 C 
ATOM     12  C   UNL     1      19.054 -20.884  17.815  1.00  0.00     0.004 C 
ENDBRANCH  10  11
ENDBRANCH   9  10
ENDBRANCH   8   9
ENDBRANCH   7   8
ENDBRANCH   6   7
ENDBRANCH   5   6
ENDBRANCH   4   5
ENDBRANCH   3   4
ENDBRANCH   2   3
ENDBRANCH   1   2
BRANCH   1  13
ATOM     13  C   UNL     1      22.333 -11.990  21.721  1.00  0.00     0.000 C 
BRANCH  13  14
ATOM     14  C   UNL     1      21.979 -11.013  22.854  1.00  0.00     0.000 C 
BRANCH  14  15
ATOM     15  C   UNL     1      20.642 -11.349  23.533  1.00  0.00     0.000 C 
BRANCH  15  16
ATOM     16  C   UNL     1      20.390 -10.428  24.733  1.00  0.00     0.000 C 
BRANCH  16  17
ATOM     17  C   UNL     1      21.122  -9.088  24.563  1.00  0.00     0.000 C 
BRANCH  17  18
ATOM     18  C   UNL     1      20.405  -7.925  25.268  1.00  0.00     0.000 C 
BRANCH  18  19
ATOM     19  C   UNL     1      21.338  -6.731  25.534  1.00  0.00     0.000 C 
BRANCH  19  20
ATOM     20  C   UNL     1      20.820  -5.416  24.920  1.00  0.00     0.006 C 
BRANCH  20  21
ATOM     21  C   UNL     1      19.846  -5.616  23.747  1.00  0.00     0.053 C 
BRANCH  21  22
ATOM     22  C   UNL     1      18.522  -4.955  23.978  1.00  0.00     0.041 C 
ATOM     23  O   UNL     1      17.730  -5.410  24.846  1.00  0.00    -0.550 OA
ATOM     24  O   UNL     1      18.170  -3.824  23.252  1.00  0.00    -0.550 OA
ENDBRANCH  21  22
ENDBRANCH  20  21
ENDBRANCH  19  20
ENDBRANCH  18  19
ENDBRANCH  17  18
ENDBRANCH  16  17
ENDBRANCH  15  16
ENDBRANCH  14  15
ENDBRANCH  13  14
ENDBRANCH   1  13
TORSDOF 20
ENDMDL
MODEL 3
REMARK VINA RESULT:    -5.614      5.545     13.502
REMARK INTER + INTRA:         -13.320
REMARK INTER:                 -12.344
REMARK INTRA:                  -0.976
REMARK UNBOUND:                -1.142
REMARK SMILES CCCCCCCCCCCCCCCCCCCCCC(=O)[O-]
REMARK SMILES IDX 12 1 11 2 10 3 9 4 8 5 7 6 6 7 5 8 4 9 3 10 2 11 1 12 13 13
REMARK SMILES IDX 14 14 15 15 16 16 17 17 18 18 19 19 20 20 21 21 22 22 23 23
REMARK SMILES IDX 24 24
REMARK H PARENT
REMARK Flexibility Score: inf
ROOT
ATOM      1  C   UNL     1      21.437 -13.752  20.118  1.00  0.00     0.000 C 
ENDROOT
BRANCH   1   2
ATOM      2  C   UNL     1      21.003 -12.730  21.181  1.00  0.00     0.000 C 
BRANCH   2   3
ATOM      3  C   UNL     1      22.193 -12.111  21.931  1.00  0.00     0.000 C 
BRANCH   3   4
ATOM      4  C   UNL     1      21.814 -10.748  22.529  1.00  0.00    -0.000 C 
BRANCH   4   5
ATOM      5  C   UNL     1      20.569 -10.810  23.432  1.00  0.00    -0.000 C 
BRANCH   5   6
ATOM      6  C   UNL     1      20.690 -10.064  24.774  1.00  0.00    -0.000 C 
BRANCH   6   7
ATOM      7  C   UNL     1      21.160  -8.609  24.610  1.00  0.00    -0.000 C 
BRANCH   7   8
ATOM      8  C   UNL     1      20.513  -7.651  25.628  1.00  0.00    -0.000 C 
BRANCH   8   9
ATOM      9  C   UNL     1      21.241  -7.544  26.980  1.00  0.00    -0.000 C 
BRANCH   9  10
ATOM     10  C   UNL     1      22.061  -6.250  27.119  1.00  0.00    -0.000 C 
BRANCH  10  11
ATOM     11  C   UNL     1      22.266  -5.837  28.584  1.00  0.00    -0.003 C 
ATOM     12  C   UNL     1      22.125  -4.331  28.796  1.00  0.00     0.004 C 
ENDBRANCH  10  11
ENDBRANCH   9  10
ENDBRANCH   8   9
ENDBRANCH   7   8
ENDBRANCH   6   7
ENDBRANCH   5   6
ENDBRANCH   4   5
ENDBRANCH   3   4
ENDBRANCH   2   3
ENDBRANCH   1   2
BRANCH   1  13
ATOM     13  C   UNL     1      22.731 -14.488  20.500  1.00  0.00     0.000 C 
BRANCH  13  14
ATOM     14  C   UNL     1      22.979 -15.736  19.637  1.00  0.00     0.000 C 
BRANCH  14  15
ATOM     15  C   UNL     1      22.725 -15.485  18.143  1.00  0.00     0.000 C 
BRANCH  15  16
ATOM     16  C   UNL     1      22.932 -16.769  17.328  1.00  0.00     0.000 C 
BRANCH  16  17
ATOM     17  C   UNL     1      23.199 -17.969  18.249  1.00  0.00     0.000 C 
BRANCH  17  18
ATOM     18  C   UNL     1      22.219 -19.131  18.011  1.00  0.00     0.000 C 
BRANCH  18  19
ATOM     19  C   UNL     1      21.964 -19.390  16.517  1.00  0.00     0.000 C 
BRANCH  19  20
ATOM     20  C   UNL     1      20.862 -20.438  16.269  1.00  0.00     0.006 C 
BRANCH  20  21
ATOM     21  C   UNL     1      20.146 -20.905  17.547  1.00  0.00     0.053 C 
BRANCH  21  22
ATOM     22  C   UNL     1      18.736 -21.341  17.292  1.00  0.00     0.041 C 
ATOM     23  O   UNL     1      18.284 -21.365  16.116  1.00  0.00    -0.550 OA
ATOM     24  O   UNL     1      17.926 -21.740  18.348  1.00  0.00    -0.550 OA
ENDBRANCH  21  22
ENDBRANCH  20  21
ENDBRANCH  19  20
ENDBRANCH  18  19
ENDBRANCH  17  18
ENDBRANCH  16  17
ENDBRANCH  15  16
ENDBRANCH  14  15
ENDBRANCH  13  14
ENDBRANCH   1  13
TORSDOF 20
ENDMDL
MODEL 4
REMARK VINA RESULT:    -5.541      3.226      7.333
REMARK INTER + INTRA:         -13.161
REMARK INTER:                 -11.683
REMARK INTRA:                  -1.478
REMARK UNBOUND:                -1.142
REMARK SMILES CCCCCCCCCCCCCCCCCCCCCC(=O)[O-]
REMARK SMILES IDX 12 1 11 2 10 3 9 4 8 5 7 6 6 7 5 8 4 9 3 10 2 11 1 12 13 13
REMARK SMILES IDX 14 14 15 15 16 16 17 17 18 18 19 19 20 20 21 21 22 22 23 23
REMARK SMILES IDX 24 24
REMARK H PARENT
REMARK Flexibility Score: inf
ROOT
ATOM      1  C   UNL     1      21.821 -19.469  16.740  1.00  0.00     0.000 C 
ENDROOT
BRANCH   1   2
ATOM      2  C   UNL     1      22.146 -20.939  17.048  1.00  0.00     0.000 C 
BRANCH   2   3
ATOM      3  C   UNL     1      21.036 -21.638  17.849  1.00  0.00     0.000 C 
BRANCH   3   4
ATOM      4  C   UNL     1      19.746 -20.804  17.840  1.00  0.00    -0.000 C 
BRANCH   4   5
ATOM      5  C   UNL     1      18.530 -21.581  17.302  1.00  0.00    -0.000 C 
BRANCH   5   6
ATOM      6  C   UNL     1      18.856 -22.707  16.304  1.00  0.00    -0.000 C 
BRANCH   6   7
ATOM      7  C   UNL     1      18.888 -22.224  14.844  1.00  0.00    -0.000 C 
BRANCH   7   8
ATOM      8  C   UNL     1      17.495 -21.842  14.309  1.00  0.00    -0.000 C 
BRANCH   8   9
ATOM      9  C   UNL     1      17.475 -20.651  13.332  1.00  0.00    -0.000 C 
BRANCH   9  10
ATOM     10  C   UNL     1      18.788 -20.498  12.545  1.00  0.00    -0.000 C 
BRANCH  10  11
ATOM     11  C   UNL     1      18.586 -20.643  11.029  1.00  0.00    -0.003 C 
ATOM     12  C   UNL     1      18.377 -22.094  10.599  1.00  0.00     0.004 C 
ENDBRANCH  10  11
ENDBRANCH   9  10
ENDBRANCH   8   9
ENDBRANCH   7   8
ENDBRANCH   6   7
ENDBRANCH   5   6
ENDBRANCH   4   5
ENDBRANCH   3   4
ENDBRANCH   2   3
ENDBRANCH   1   2
BRANCH   1  13
ATOM     13  C   UNL     1      23.076 -18.639  16.426  1.00  0.00     0.000 C 
BRANCH  13  14
ATOM     14  C   UNL     1      23.307 -17.510  17.443  1.00  0.00     0.000 C 
BRANCH  14  15
ATOM     15  C   UNL     1      22.862 -17.888  18.864  1.00  0.00     0.000 C 
BRANCH  15  16
ATOM     16  C   UNL     1      23.243 -16.793  19.868  1.00  0.00     0.000 C 
BRANCH  16  17
ATOM     17  C   UNL     1      22.851 -15.403  19.344  1.00  0.00     0.000 C 
BRANCH  17  18
ATOM     18  C   UNL     1      22.547 -14.405  20.474  1.00  0.00     0.000 C 
BRANCH  18  19
ATOM     19  C   UNL     1      21.252 -13.613  20.228  1.00  0.00     0.000 C 
BRANCH  19  20
ATOM     20  C   UNL     1      20.927 -12.626  21.366  1.00  0.00     0.006 C 
BRANCH  20  21
ATOM     21  C   UNL     1      22.169 -12.001  22.025  1.00  0.00     0.053 C 
BRANCH  21  22
ATOM     22  C   UNL     1      21.882 -10.670  22.648  1.00  0.00     0.041 C 
ATOM     23  O   UNL     1      22.179  -9.608  22.038  1.00  0.00    -0.550 OA
ATOM     24  O   UNL     1      21.269 -10.599  23.892  1.00  0.00    -0.550 OA
ENDBRANCH  21  22
ENDBRANCH  20  21
ENDBRANCH  19  20
ENDBRANCH  18  19
ENDBRANCH  17  18
ENDBRANCH  16  17
ENDBRANCH  15  16
ENDBRANCH  14  15
ENDBRANCH  13  14
ENDBRANCH   1  13
TORSDOF 20
ENDMDL
MODEL 5
REMARK VINA RESULT:    -5.498      1.512      3.347
REMARK INTER + INTRA:         -13.069
REMARK INTER:                 -12.122
REMARK INTRA:                  -0.947
REMARK UNBOUND:                -1.142
REMARK SMILES CCCCCCCCCCCCCCCCCCCCCC(=O)[O-]
REMARK SMILES IDX 12 1 11 2 10 3 9 4 8 5 7 6 6 7 5 8 4 9 3 10 2 11 1 12 13 13
REMARK SMILES IDX 14 14 15 15 16 16 17 17 18 18 19 19 20 20 21 21 22 22 23 23
REMARK SMILES IDX 24 24
REMARK H PARENT
REMARK Flexibility Score: inf
ROOT
ATOM      1  C   UNL     1      22.985 -15.690  19.522  1.00  0.00     0.000 C 
ENDROOT
BRANCH   1   2
ATOM      2  C   UNL     1      22.617 -15.240  18.098  1.00  0.00     0.000 C 
BRANCH   2   3
ATOM      3  C   UNL     1      23.004 -16.274  17.029  1.00  0.00     0.000 C 
BRANCH   3   4
ATOM      4  C   UNL     1      23.013 -17.693  17.618  1.00  0.00    -0.000 C 
BRANCH   4   5
ATOM      5  C   UNL     1      22.376 -18.737  16.683  1.00  0.00    -0.000 C 
BRANCH   5   6
ATOM      6  C   UNL     1      21.649 -19.897  17.389  1.00  0.00    -0.000 C 
BRANCH   6   7
ATOM      7  C   UNL     1      20.607 -20.587  16.492  1.00  0.00    -0.000 C 
BRANCH   7   8
ATOM      8  C   UNL     1      19.474 -21.253  17.292  1.00  0.00    -0.000 C 
BRANCH   8   9
ATOM      9  C   UNL     1      18.227 -21.631  16.471  1.00  0.00    -0.000 C 
BRANCH   9  10
ATOM     10  C   UNL     1      18.569 -22.102  15.046  1.00  0.00    -0.000 C 
BRANCH  10  11
ATOM     11  C   UNL     1      18.035 -21.147  13.968  1.00  0.00    -0.003 C 
ATOM     12  C   UNL     1      18.212 -21.698  12.554  1.00  0.00     0.004 C 
ENDBRANCH  10  11
ENDBRANCH   9  10
ENDBRANCH   8   9
ENDBRANCH   7   8
ENDBRANCH   6   7
ENDBRANCH   5   6
ENDBRANCH   4   5
ENDBRANCH   3   4
ENDBRANCH   2   3
ENDBRANCH   1   2
BRANCH   1  13
ATOM     13  C   UNL     1      22.665 -14.622  20.580  1.00  0.00     0.000 C 
BRANCH  13  14
ATOM     14  C   UNL     1      21.462 -13.747  20.193  1.00  0.00     0.000 C 
BRANCH  14  15
ATOM     15  C   UNL     1      21.150 -12.668  21.240  1.00  0.00     0.000 C 
BRANCH  15  16
ATOM     16  C   UNL     1      22.432 -11.966  21.705  1.00  0.00     0.000 C 
BRANCH  16  17
ATOM     17  C   UNL     1      22.106 -10.699  22.510  1.00  0.00     0.000 C 
BRANCH  17  18
ATOM     18  C   UNL     1      20.744 -10.778  23.219  1.00  0.00     0.000 C 
BRANCH  18  19
ATOM     19  C   UNL     1      20.752 -10.085  24.591  1.00  0.00     0.000 C 
BRANCH  19  20
ATOM     20  C   UNL     1      21.247  -8.627  24.525  1.00  0.00     0.006 C 
BRANCH  20  21
ATOM     21  C   UNL     1      20.327  -7.622  25.239  1.00  0.00     0.053 C 
BRANCH  21  22
ATOM     22  C   UNL     1      21.078  -6.703  26.152  1.00  0.00     0.041 C 
ATOM     23  O   UNL     1      21.517  -7.126  27.255  1.00  0.00    -0.550 OA
ATOM     24  O   UNL     1      21.311  -5.385  25.780  1.00  0.00    -0.550 OA
ENDBRANCH  21  22
ENDBRANCH  20  21
ENDBRANCH  19  20
ENDBRANCH  18  19
ENDBRANCH  17  18
ENDBRANCH  16  17
ENDBRANCH  15  16
ENDBRANCH  14  15
ENDBRANCH  13  14
ENDBRANCH   1  13
TORSDOF 20
ENDMDL
MODEL 6
REMARK VINA RESULT:    -5.343      5.384     13.122
REMARK INTER + INTRA:         -12.733
REMARK INTER:                 -11.667
REMARK INTRA:                  -1.066
REMARK UNBOUND:                -1.142
REMARK SMILES CCCCCCCCCCCCCCCCCCCCCC(=O)[O-]
REMARK SMILES IDX 12 1 11 2 10 3 9 4 8 5 7 6 6 7 5 8 4 9 3 10 2 11 1 12 13 13
REMARK SMILES IDX 14 14 15 15 16 16 17 17 18 18 19 19 20 20 21 21 22 22 23 23
REMARK SMILES IDX 24 24
REMARK H PARENT
REMARK Flexibility Score: inf
ROOT
ATOM      1  C   UNL     1      21.469 -13.743  20.255  1.00  0.00     0.000 C 
ENDROOT
BRANCH   1   2
ATOM      2  C   UNL     1      21.111 -12.676  21.303  1.00  0.00     0.000 C 
BRANCH   2   3
ATOM      3  C   UNL     1      22.306 -11.783  21.672  1.00  0.00     0.000 C 
BRANCH   3   4
ATOM      4  C   UNL     1      21.838 -10.521  22.412  1.00  0.00    -0.000 C 
BRANCH   4   5
ATOM      5  C   UNL     1      21.555 -10.768  23.905  1.00  0.00    -0.000 C 
BRANCH   5   6
ATOM      6  C   UNL     1      20.419  -9.922  24.509  1.00  0.00    -0.000 C 
BRANCH   6   7
ATOM      7  C   UNL     1      20.932  -8.748  25.360  1.00  0.00    -0.000 C 
BRANCH   7   8
ATOM      8  C   UNL     1      20.007  -7.519  25.308  1.00  0.00    -0.000 C 
BRANCH   8   9
ATOM      9  C   UNL     1      20.203  -6.604  24.084  1.00  0.00    -0.000 C 
BRANCH   9  10
ATOM     10  C   UNL     1      20.299  -5.115  24.458  1.00  0.00    -0.000 C 
BRANCH  10  11
ATOM     11  C   UNL     1      19.203  -4.269  23.791  1.00  0.00    -0.003 C 
ATOM     12  C   UNL     1      17.808  -4.586  24.325  1.00  0.00     0.004 C 
ENDBRANCH  10  11
ENDBRANCH   9  10
ENDBRANCH   8   9
ENDBRANCH   7   8
ENDBRANCH   6   7
ENDBRANCH   5   6
ENDBRANCH   4   5
ENDBRANCH   3   4
ENDBRANCH   2   3
ENDBRANCH   1   2
BRANCH   1  13
ATOM     13  C   UNL     1      22.735 -14.533  20.624  1.00  0.00     0.000 C 
BRANCH  13  14
ATOM     14  C   UNL     1      23.010 -15.695  19.656  1.00  0.00     0.000 C 
BRANCH  14  15
ATOM     15  C   UNL     1      22.537 -15.401  18.224  1.00  0.00     0.000 C 
BRANCH  15  16
ATOM     16  C   UNL     1      23.051 -16.466  17.247  1.00  0.00     0.000 C 
BRANCH  16  17
ATOM     17  C   UNL     1      23.461 -17.745  17.992  1.00  0.00     0.000 C 
BRANCH  17  18
ATOM     18  C   UNL     1      22.414 -18.865  17.873  1.00  0.00     0.000 C 
BRANCH  18  19
ATOM     19  C   UNL     1      22.069 -19.197  16.412  1.00  0.00     0.000 C 
BRANCH  19  20
ATOM     20  C   UNL     1      21.146 -20.424  16.276  1.00  0.00     0.006 C 
BRANCH  20  21
ATOM     21  C   UNL     1      20.585 -20.934  17.614  1.00  0.00     0.053 C 
BRANCH  21  22
ATOM     22  C   UNL     1      19.092 -21.041  17.610  1.00  0.00     0.041 C 
ATOM     23  O   UNL     1      18.410 -20.432  18.476  1.00  0.00    -0.550 OA
ATOM     24  O   UNL     1      18.449 -21.797  16.636  1.00  0.00    -0.550 OA
ENDBRANCH  21  22
ENDBRANCH  20  21
ENDBRANCH  19  20
ENDBRANCH  18  19
ENDBRANCH  17  18
ENDBRANCH  16  17
ENDBRANCH  15  16
ENDBRANCH  14  15
ENDBRANCH  13  14
ENDBRANCH   1  13
TORSDOF 20
ENDMDL
MODEL 7
REMARK VINA RESULT:    -5.231      3.038      4.455
REMARK INTER + INTRA:         -12.489
REMARK INTER:                 -11.445
REMARK INTRA:                  -1.044
REMARK UNBOUND:                -1.142
REMARK SMILES CCCCCCCCCCCCCCCCCCCCCC(=O)[O-]
REMARK SMILES IDX 12 1 11 2 10 3 9 4 8 5 7 6 6 7 5 8 4 9 3 10 2 11 1 12 13 13
REMARK SMILES IDX 14 14 15 15 16 16 17 17 18 18 19 19 20 20 21 21 22 22 23 23
REMARK SMILES IDX 24 24
REMARK H PARENT
REMARK Flexibility Score: inf
ROOT
ATOM      1  C   UNL     1      21.243 -10.929  23.507  1.00  0.00     0.000 C 
ENDROOT
BRANCH   1   2
ATOM      2  C   UNL     1      20.609 -11.874  22.472  1.00  0.00     0.000 C 
BRANCH   2   3
ATOM      3  C   UNL     1      21.548 -12.181  21.295  1.00  0.00     0.000 C 
BRANCH   3   4
ATOM      4  C   UNL     1      22.896 -12.720  21.796  1.00  0.00    -0.000 C 
BRANCH   4   5
ATOM      5  C   UNL     1      23.283 -14.066  21.156  1.00  0.00    -0.000 C 
BRANCH   5   6
ATOM      6  C   UNL     1      22.271 -14.625  20.138  1.00  0.00    -0.000 C 
BRANCH   6   7
ATOM      7  C   UNL     1      22.923 -15.534  19.082  1.00  0.00    -0.000 C 
BRANCH   7   8
ATOM      8  C   UNL     1      22.997 -17.008  19.521  1.00  0.00    -0.000 C 
BRANCH   8   9
ATOM      9  C   UNL     1      23.658 -17.960  18.508  1.00  0.00    -0.000 C 
BRANCH   9  10
ATOM     10  C   UNL     1      23.148 -17.754  17.071  1.00  0.00    -0.000 C 
BRANCH  10  11
ATOM     11  C   UNL     1      22.290 -18.929  16.577  1.00  0.00    -0.003 C 
ATOM     12  C   UNL     1      22.551 -20.217  17.355  1.00  0.00     0.004 C 
ENDBRANCH  10  11
ENDBRANCH   9  10
ENDBRANCH   8   9
ENDBRANCH   7   8
ENDBRANCH   6   7
ENDBRANCH   5   6
ENDBRANCH   4   5
ENDBRANCH   3   4
ENDBRANCH   2   3
ENDBRANCH   1   2
BRANCH   1  13
ATOM     13  C   UNL     1      21.606  -9.559  22.912  1.00  0.00     0.000 C 
BRANCH  13  14
ATOM     14  C   UNL     1      21.803  -8.480  23.989  1.00  0.00     0.000 C 
BRANCH  14  15
ATOM     15  C   UNL     1      20.640  -8.421  24.992  1.00  0.00     0.000 C 
BRANCH  15  16
ATOM     16  C   UNL     1      20.688  -7.126  25.813  1.00  0.00     0.000 C 
BRANCH  16  17
ATOM     17  C   UNL     1      20.536  -5.894  24.908  1.00  0.00     0.000 C 
BRANCH  17  18
ATOM     18  C   UNL     1      19.080  -5.649  24.476  1.00  0.00     0.000 C 
BRANCH  18  19
ATOM     19  C   UNL     1      18.785  -4.164  24.210  1.00  0.00     0.000 C 
BRANCH  19  20
ATOM     20  C   UNL     1      17.278  -3.856  24.128  1.00  0.00     0.006 C 
BRANCH  20  21
ATOM     21  C   UNL     1      16.406  -4.761  25.015  1.00  0.00     0.053 C 
BRANCH  21  22
ATOM     22  C   UNL     1      14.945  -4.467  24.878  1.00  0.00     0.041 C 
ATOM     23  O   UNL     1      14.547  -3.602  24.053  1.00  0.00    -0.550 OA
ATOM     24  O   UNL     1      14.017  -5.162  25.645  1.00  0.00    -0.550 OA
ENDBRANCH  21  22
ENDBRANCH  20  21
ENDBRANCH  19  20
ENDBRANCH  18  19
ENDBRANCH  17  18
ENDBRANCH  16  17
ENDBRANCH  15  16
ENDBRANCH  14  15
ENDBRANCH  13  14
ENDBRANCH   1  13
TORSDOF 20
ENDMDL
MODEL 8
REMARK VINA RESULT:    -5.210      7.710     12.430
REMARK INTER + INTRA:         -12.443
REMARK INTER:                 -10.673
REMARK INTRA:                  -1.769
REMARK UNBOUND:                -1.142
REMARK SMILES CCCCCCCCCCCCCCCCCCCCCC(=O)[O-]
REMARK SMILES IDX 12 1 11 2 10 3 9 4 8 5 7 6 6 7 5 8 4 9 3 10 2 11 1 12 13 13
REMARK SMILES IDX 14 14 15 15 16 16 17 17 18 18 19 19 20 20 21 21 22 22 23 23
REMARK SMILES IDX 24 24
REMARK H PARENT
REMARK Flexibility Score: inf
ROOT
ATOM      1  C   UNL     1      18.274 -20.788  13.727  1.00  0.00     0.000 C 
ENDROOT
BRANCH   1   2
ATOM      2  C   UNL     1      18.347 -20.218  12.300  1.00  0.00     0.000 C 
BRANCH   2   3
ATOM      3  C   UNL     1      18.518 -21.310  11.233  1.00  0.00     0.000 C 
BRANCH   3   4
ATOM      4  C   UNL     1      17.252 -21.440  10.374  1.00  0.00    -0.000 C 
BRANCH   4   5
ATOM      5  C   UNL     1      16.085 -22.117  11.117  1.00  0.00    -0.000 C 
BRANCH   5   6
ATOM      6  C   UNL     1      14.762 -21.329  11.122  1.00  0.00    -0.000 C 
BRANCH   6   7
ATOM      7  C   UNL     1      14.551 -20.517  12.411  1.00  0.00    -0.000 C 
BRANCH   7   8
ATOM      8  C   UNL     1      14.589 -18.996  12.175  1.00  0.00    -0.000 C 
BRANCH   8   9
ATOM      9  C   UNL     1      13.214 -18.327  11.996  1.00  0.00    -0.000 C 
BRANCH   9  10
ATOM     10  C   UNL     1      13.239 -16.818  12.290  1.00  0.00    -0.000 C 
BRANCH  10  11
ATOM     11  C   UNL     1      14.081 -16.034  11.273  1.00  0.00    -0.003 C 
ATOM     12  C   UNL     1      14.797 -14.838  11.898  1.00  0.00     0.004 C 
ENDBRANCH  10  11
ENDBRANCH   9  10
ENDBRANCH   8   9
ENDBRANCH   7   8
ENDBRANCH   6   7
ENDBRANCH   5   6
ENDBRANCH   4   5
ENDBRANCH   3   4
ENDBRANCH   2   3
ENDBRANCH   1   2
BRANCH   1  13
ATOM     13  C   UNL     1      19.171 -22.022  13.917  1.00  0.00     0.000 C 
BRANCH  13  14
ATOM     14  C   UNL     1      19.421 -22.349  15.398  1.00  0.00     0.000 C 
BRANCH  14  15
ATOM     15  C   UNL     1      18.842 -21.288  16.347  1.00  0.00     0.000 C 
BRANCH  15  16
ATOM     16  C   UNL     1      19.962 -20.516  17.055  1.00  0.00     0.000 C 
BRANCH  16  17
ATOM     17  C   UNL     1      21.222 -21.383  17.202  1.00  0.00     0.000 C 
BRANCH  17  18
ATOM     18  C   UNL     1      22.521 -20.565  17.114  1.00  0.00     0.000 C 
BRANCH  18  19
ATOM     19  C   UNL     1      22.289 -19.145  16.572  1.00  0.00     0.000 C 
BRANCH  19  20
ATOM     20  C   UNL     1      23.411 -18.163  16.960  1.00  0.00     0.006 C 
BRANCH  20  21
ATOM     21  C   UNL     1      22.911 -16.755  17.326  1.00  0.00     0.053 C 
BRANCH  21  22
ATOM     22  C   UNL     1      22.974 -16.486  18.798  1.00  0.00     0.041 C 
ATOM     23  O   UNL     1      23.177 -17.431  19.606  1.00  0.00    -0.550 OA
ATOM     24  O   UNL     1      22.831 -15.190  19.277  1.00  0.00    -0.550 OA
ENDBRANCH  21  22
ENDBRANCH  20  21
ENDBRANCH  19  20
ENDBRANCH  18  19
ENDBRANCH  17  18
ENDBRANCH  16  17
ENDBRANCH  15  16
ENDBRANCH  14  15
ENDBRANCH  13  14
ENDBRANCH   1  13
TORSDOF 20
ENDMDL
MODEL 9
REMARK VINA RESULT:    -5.164      5.460      9.989
REMARK INTER + INTRA:         -12.344
REMARK INTER:                 -10.193
REMARK INTRA:                  -2.151
REMARK UNBOUND:                -1.142
REMARK SMILES CCCCCCCCCCCCCCCCCCCCCC(=O)[O-]
REMARK SMILES IDX 12 1 11 2 10 3 9 4 8 5 7 6 6 7 5 8 4 9 3 10 2 11 1 12 13 13
REMARK SMILES IDX 14 14 15 15 16 16 17 17 18 18 19 19 20 20 21 21 22 22 23 23
REMARK SMILES IDX 24 24
REMARK H PARENT
REMARK Flexibility Score: inf
ROOT
ATOM      1  C   UNL     1      19.425 -20.875  17.014  1.00  0.00     0.000 C 
ENDROOT
BRANCH   1   2
ATOM      2  C   UNL     1      19.668 -22.039  16.040  1.00  0.00     0.000 C 
BRANCH   2   3
ATOM      3  C   UNL     1      19.190 -21.728  14.613  1.00  0.00     0.000 C 
BRANCH   3   4
ATOM      4  C   UNL     1      18.499 -22.949  13.988  1.00  0.00    -0.000 C 
BRANCH   4   5
ATOM      5  C   UNL     1      18.679 -23.028  12.461  1.00  0.00    -0.000 C 
BRANCH   5   6
ATOM      6  C   UNL     1      19.255 -21.763  11.799  1.00  0.00    -0.000 C 
BRANCH   6   7
ATOM      7  C   UNL     1      18.171 -20.852  11.200  1.00  0.00    -0.000 C 
BRANCH   7   8
ATOM      8  C   UNL     1      16.975 -21.638  10.629  1.00  0.00    -0.000 C 
BRANCH   8   9
ATOM      9  C   UNL     1      15.601 -21.242  11.199  1.00  0.00    -0.000 C 
BRANCH   9  10
ATOM     10  C   UNL     1      15.702 -20.454  12.516  1.00  0.00    -0.000 C 
BRANCH  10  11
ATOM     11  C   UNL     1      15.147 -21.238  13.715  1.00  0.00    -0.003 C 
ATOM     12  C   UNL     1      14.870 -22.703  13.384  1.00  0.00     0.004 C 
ENDBRANCH  10  11
ENDBRANCH   9  10
ENDBRANCH   8   9
ENDBRANCH   7   8
ENDBRANCH   6   7
ENDBRANCH   5   6
ENDBRANCH   4   5
ENDBRANCH   3   4
ENDBRANCH   2   3
ENDBRANCH   1   2
BRANCH   1  13
ATOM     13  C   UNL     1      20.679 -20.514  17.828  1.00  0.00     0.000 C 
BRANCH  13  14
ATOM     14  C   UNL     1      21.929 -21.273  17.355  1.00  0.00     0.000 C 
BRANCH  14  15
ATOM     15  C   UNL     1      23.061 -20.336  16.907  1.00  0.00     0.000 C 
BRANCH  15  16
ATOM     16  C   UNL     1      22.503 -18.985  16.442  1.00  0.00     0.000 C 
BRANCH  16  17
ATOM     17  C   UNL     1      23.471 -17.842  16.786  1.00  0.00     0.000 C 
BRANCH  17  18
ATOM     18  C   UNL     1      22.912 -16.894  17.860  1.00  0.00     0.000 C 
BRANCH  18  19
ATOM     19  C   UNL     1      23.249 -17.356  19.288  1.00  0.00     0.000 C 
BRANCH  19  20
ATOM     20  C   UNL     1      23.007 -16.263  20.346  1.00  0.00     0.006 C 
BRANCH  20  21
ATOM     21  C   UNL     1      22.959 -14.837  19.770  1.00  0.00     0.053 C 
BRANCH  21  22
ATOM     22  C   UNL     1      22.526 -13.822  20.782  1.00  0.00     0.041 C 
ATOM     23  O   UNL     1      23.368 -13.311  21.568  1.00  0.00    -0.550 OA
ATOM     24  O   UNL     1      21.197 -13.422  20.845  1.00  0.00    -0.550 OA
ENDBRANCH  21  22
ENDBRANCH  20  21
ENDBRANCH  19  20
ENDBRANCH  18  19
ENDBRANCH  17  18
ENDBRANCH  16  17
ENDBRANCH  15  16
ENDBRANCH  14  15
ENDBRANCH  13  14
ENDBRANCH   1  13
TORSDOF 20
ENDMDL
