MODEL 1
REMARK VINA RESULT:    -3.057      0.000      0.000
REMARK INTER + INTRA:         -13.767
REMARK INTER:                  -8.060
REMARK INTRA:                  -5.707
REMARK UNBOUND:                -5.707
REMARK SMILES CCCCCCCCCCCCCCCCCCCCCCCCCCCCCC(=O)[O-]
REMARK SMILES IDX 16 1 17 2 18 3 19 4 20 5 21 6 22 7 23 8 24 9 25 10 26 11
REMARK SMILES IDX 27 12 28 13 29 14 30 15 31 16 32 17 15 18 14 19 13 20 12 21
REMARK SMILES IDX 11 22 10 23 9 24 8 25 7 26 6 27 5 28 4 29 3 30 2 31 1 32
REMARK H PARENT
REMARK Flexibility Score: inf
ROOT
ATOM      1  C   UNL     1      25.613  33.759  52.684  1.00  0.00     0.000 C 
ENDROOT
BRANCH   1   2
ATOM      2  C   UNL     1      25.996  32.273  52.656  1.00  0.00     0.000 C 
BRANCH   2   3
ATOM      3  C   UNL     1      24.952  31.349  53.321  1.00  0.00     0.000 C 
BRANCH   3   4
ATOM      4  C   UNL     1      24.956  29.906  52.761  1.00  0.00     0.000 C 
BRANCH   4   5
ATOM      5  C   UNL     1      23.558  29.285  52.535  1.00  0.00     0.000 C 
BRANCH   5   6
ATOM      6  C   UNL     1      23.306  27.963  53.307  1.00  0.00     0.000 C 
BRANCH   6   7
ATOM      7  C   UNL     1      24.298  27.609  54.435  1.00  0.00     0.000 C 
BRANCH   7   8
ATOM      8  C   UNL     1      23.694  27.009  55.730  1.00  0.00     0.000 C 
BRANCH   8   9
ATOM      9  C   UNL     1      23.641  28.043  56.875  1.00  0.00     0.000 C 
BRANCH   9  10
ATOM     10  C   UNL     1      24.319  29.369  56.494  1.00  0.00     0.000 C 
BRANCH  10  11
ATOM     11  C   UNL     1      23.305  30.520  56.290  1.00  0.00     0.000 C 
BRANCH  11  12
ATOM     12  C   UNL     1      21.863  30.119  56.657  1.00  0.00     0.000 C 
BRANCH  12  13
ATOM     13  C   UNL     1      20.908  30.246  55.462  1.00  0.00     0.006 C 
BRANCH  13  14
ATOM     14  C   UNL     1      20.227  28.920  55.127  1.00  0.00     0.053 C 
BRANCH  14  15
ATOM     15  C   UNL     1      18.866  29.122  54.528  1.00  0.00     0.041 C 
ATOM     16  O   UNL     1      18.062  28.161  54.479  1.00  0.00    -0.550 OA
ATOM     17  O   UNL     1      18.490  30.359  54.010  1.00  0.00    -0.550 OA
ENDBRANCH  14  15
ENDBRANCH  13  14
ENDBRANCH  12  13
ENDBRANCH  11  12
ENDBRANCH  10  11
ENDBRANCH   9  10
ENDBRANCH   8   9
ENDBRANCH   7   8
ENDBRANCH   6   7
ENDBRANCH   5   6
ENDBRANCH   4   5
ENDBRANCH   3   4
ENDBRANCH   2   3
ENDBRANCH   1   2
BRANCH   1  18
ATOM     18  C   UNL     1      26.767  34.654  53.193  1.00  0.00     0.000 C 
BRANCH  18  19
ATOM     19  C   UNL     1      28.161  34.009  53.015  1.00  0.00     0.000 C 
BRANCH  19  20
ATOM     20  C   UNL     1      29.270  34.631  53.895  1.00  0.00     0.000 C 
BRANCH  20  21
ATOM     21  C   UNL     1      30.716  34.277  53.499  1.00  0.00     0.000 C 
BRANCH  21  22
ATOM     22  C   UNL     1      30.927  32.834  52.989  1.00  0.00     0.000 C 
BRANCH  22  23
ATOM     23  C   UNL     1      31.830  31.971  53.897  1.00  0.00     0.000 C 
BRANCH  23  24
ATOM     24  C   UNL     1      31.601  32.248  55.397  1.00  0.00    -0.000 C 
BRANCH  24  25
ATOM     25  C   UNL     1      30.816  31.115  56.066  1.00  0.00    -0.000 C 
BRANCH  25  26
ATOM     26  C   UNL     1      29.393  31.552  56.454  1.00  0.00    -0.000 C 
BRANCH  26  27
ATOM     27  C   UNL     1      28.410  31.324  55.305  1.00  0.00    -0.000 C 
BRANCH  27  28
ATOM     28  C   UNL     1      27.738  29.937  55.348  1.00  0.00    -0.000 C 
BRANCH  28  29
ATOM     29  C   UNL     1      28.230  28.950  54.272  1.00  0.00    -0.000 C 
BRANCH  29  30
ATOM     30  C   UNL     1      29.070  29.619  53.175  1.00  0.00    -0.000 C 
BRANCH  30  31
ATOM     31  C   UNL     1      28.400  29.490  51.808  1.00  0.00    -0.003 C 
ATOM     32  C   UNL     1      28.790  30.645  50.900  1.00  0.00     0.004 C 
ENDBRANCH  30  31
ENDBRANCH  29  30
ENDBRANCH  28  29
ENDBRANCH  27  28
ENDBRANCH  26  27
ENDBRANCH  25  26
ENDBRANCH  24  25
ENDBRANCH  23  24
ENDBRANCH  22  23
ENDBRANCH  21  22
ENDBRANCH  20  21
ENDBRANCH  19  20
ENDBRANCH  18  19
ENDBRANCH   1  18
TORSDOF 28
ENDMDL
MODEL 2
REMARK VINA RESULT:    -3.052      3.369      6.245
REMARK INTER + INTRA:         -13.756
REMARK INTER:                  -7.933
REMARK INTRA:                  -5.823
REMARK UNBOUND:                -5.707
REMARK SMILES CCCCCCCCCCCCCCCCCCCCCCCCCCCCCC(=O)[O-]
REMARK SMILES IDX 16 1 17 2 18 3 19 4 20 5 21 6 22 7 23 8 24 9 25 10 26 11
REMARK SMILES IDX 27 12 28 13 29 14 30 15 31 16 32 17 15 18 14 19 13 20 12 21
REMARK SMILES IDX 11 22 10 23 9 24 8 25 7 26 6 27 5 28 4 29 3 30 2 31 1 32
REMARK H PARENT
REMARK Flexibility Score: inf
ROOT
ATOM      1  C   UNL     1      26.694  34.569  53.131  1.00  0.00     0.000 C 
ENDROOT
BRANCH   1   2
ATOM      2  C   UNL     1      25.740  33.543  52.504  1.00  0.00     0.000 C 
BRANCH   2   3
ATOM      3  C   UNL     1      25.615  32.233  53.314  1.00  0.00     0.000 C 
BRANCH   3   4
ATOM      4  C   UNL     1      24.908  31.093  52.542  1.00  0.00     0.000 C 
BRANCH   4   5
ATOM      5  C   UNL     1      25.121  31.106  51.011  1.00  0.00     0.000 C 
BRANCH   5   6
ATOM      6  C   UNL     1      26.105  30.028  50.486  1.00  0.00     0.000 C 
BRANCH   6   7
ATOM      7  C   UNL     1      26.725  29.076  51.530  1.00  0.00     0.000 C 
BRANCH   7   8
ATOM      8  C   UNL     1      28.238  29.245  51.816  1.00  0.00     0.000 C 
BRANCH   8   9
ATOM      9  C   UNL     1      28.673  30.725  51.765  1.00  0.00     0.000 C 
BRANCH   9  10
ATOM     10  C   UNL     1      29.801  30.965  50.748  1.00  0.00     0.000 C 
BRANCH  10  11
ATOM     11  C   UNL     1      29.722  32.362  50.088  1.00  0.00     0.000 C 
BRANCH  11  12
ATOM     12  C   UNL     1      28.274  32.829  49.847  1.00  0.00     0.000 C 
BRANCH  12  13
ATOM     13  C   UNL     1      28.010  33.148  48.369  1.00  0.00     0.006 C 
BRANCH  13  14
ATOM     14  C   UNL     1      26.881  32.297  47.789  1.00  0.00     0.053 C 
BRANCH  14  15
ATOM     15  C   UNL     1      26.282  32.919  46.562  1.00  0.00     0.041 C 
ATOM     16  O   UNL     1      25.230  32.438  46.075  1.00  0.00    -0.550 OA
ATOM     17  O   UNL     1      26.887  34.010  45.945  1.00  0.00    -0.550 OA
ENDBRANCH  14  15
ENDBRANCH  13  14
ENDBRANCH  12  13
ENDBRANCH  11  12
ENDBRANCH  10  11
ENDBRANCH   9  10
ENDBRANCH   8   9
ENDBRANCH   7   8
ENDBRANCH   6   7
ENDBRANCH   5   6
ENDBRANCH   4   5
ENDBRANCH   3   4
ENDBRANCH   2   3
ENDBRANCH   1   2
BRANCH   1  18
ATOM     18  C   UNL     1      28.125  34.012  53.308  1.00  0.00     0.000 C 
BRANCH  18  19
ATOM     19  C   UNL     1      29.113  35.049  53.892  1.00  0.00     0.000 C 
BRANCH  19  20
ATOM     20  C   UNL     1      30.506  34.477  54.241  1.00  0.00     0.000 C 
BRANCH  20  21
ATOM     21  C   UNL     1      30.872  33.144  53.560  1.00  0.00     0.000 C 
BRANCH  21  22
ATOM     22  C   UNL     1      30.934  31.918  54.498  1.00  0.00     0.000 C 
BRANCH  22  23
ATOM     23  C   UNL     1      30.660  32.246  55.981  1.00  0.00     0.000 C 
BRANCH  23  24
ATOM     24  C   UNL     1      29.317  31.672  56.478  1.00  0.00    -0.000 C 
BRANCH  24  25
ATOM     25  C   UNL     1      28.493  31.088  55.326  1.00  0.00    -0.000 C 
BRANCH  25  26
ATOM     26  C   UNL     1      28.306  29.568  55.466  1.00  0.00    -0.000 C 
BRANCH  26  27
ATOM     27  C   UNL     1      26.826  29.185  55.427  1.00  0.00    -0.000 C 
BRANCH  27  28
ATOM     28  C   UNL     1      25.929  30.149  56.231  1.00  0.00    -0.000 C 
BRANCH  28  29
ATOM     29  C   UNL     1      24.501  29.631  56.491  1.00  0.00    -0.000 C 
BRANCH  29  30
ATOM     30  C   UNL     1      23.415  30.497  55.838  1.00  0.00    -0.000 C 
BRANCH  30  31
ATOM     31  C   UNL     1      22.180  29.668  55.491  1.00  0.00    -0.003 C 
ATOM     32  C   UNL     1      22.285  29.096  54.087  1.00  0.00     0.004 C 
ENDBRANCH  30  31
ENDBRANCH  29  30
ENDBRANCH  28  29
ENDBRANCH  27  28
ENDBRANCH  26  27
ENDBRANCH  25  26
ENDBRANCH  24  25
ENDBRANCH  23  24
ENDBRANCH  22  23
ENDBRANCH  21  22
ENDBRANCH  20  21
ENDBRANCH  19  20
ENDBRANCH  18  19
ENDBRANCH   1  18
TORSDOF 28
ENDMDL
MODEL 3
REMARK VINA RESULT:    -3.030      2.089      4.210
REMARK INTER + INTRA:         -13.697
REMARK INTER:                  -8.059
REMARK INTRA:                  -5.638
REMARK UNBOUND:                -5.707
REMARK SMILES CCCCCCCCCCCCCCCCCCCCCCCCCCCCCC(=O)[O-]
REMARK SMILES IDX 16 1 17 2 18 3 19 4 20 5 21 6 22 7 23 8 24 9 25 10 26 11
REMARK SMILES IDX 27 12 28 13 29 14 30 15 31 16 32 17 15 18 14 19 13 20 12 21
REMARK SMILES IDX 11 22 10 23 9 24 8 25 7 26 6 27 5 28 4 29 3 30 2 31 1 32
REMARK H PARENT
REMARK Flexibility Score: inf
ROOT
ATOM      1  C   UNL     1      28.845  33.766  53.535  1.00  0.00     0.000 C 
ENDROOT
BRANCH   1   2
ATOM      2  C   UNL     1      28.411  33.641  52.068  1.00  0.00     0.000 C 
BRANCH   2   3
ATOM      3  C   UNL     1      26.911  33.323  51.887  1.00  0.00     0.000 C 
BRANCH   3   4
ATOM      4  C   UNL     1      26.241  32.752  53.161  1.00  0.00     0.000 C 
BRANCH   4   5
ATOM      5  C   UNL     1      25.303  31.545  52.925  1.00  0.00     0.000 C 
BRANCH   5   6
ATOM      6  C   UNL     1      25.899  30.431  52.025  1.00  0.00     0.000 C 
BRANCH   6   7
ATOM      7  C   UNL     1      27.362  30.020  52.293  1.00  0.00     0.000 C 
BRANCH   7   8
ATOM      8  C   UNL     1      27.641  29.259  53.614  1.00  0.00     0.000 C 
BRANCH   8   9
ATOM      9  C   UNL     1      28.413  30.130  54.629  1.00  0.00     0.000 C 
BRANCH   9  10
ATOM     10  C   UNL     1      27.546  30.520  55.838  1.00  0.00     0.000 C 
BRANCH  10  11
ATOM     11  C   UNL     1      26.421  29.497  56.119  1.00  0.00     0.000 C 
BRANCH  11  12
ATOM     12  C   UNL     1      25.051  30.162  56.350  1.00  0.00     0.000 C 
BRANCH  12  13
ATOM     13  C   UNL     1      23.893  29.282  55.858  1.00  0.00     0.006 C 
BRANCH  13  14
ATOM     14  C   UNL     1      22.855  30.084  55.074  1.00  0.00     0.053 C 
BRANCH  14  15
ATOM     15  C   UNL     1      21.560  30.211  55.823  1.00  0.00     0.041 C 
ATOM     16  O   UNL     1      20.477  30.212  55.190  1.00  0.00    -0.550 OA
ATOM     17  O   UNL     1      21.546  30.346  57.208  1.00  0.00    -0.550 OA
ENDBRANCH  14  15
ENDBRANCH  13  14
ENDBRANCH  12  13
ENDBRANCH  11  12
ENDBRANCH  10  11
ENDBRANCH   9  10
ENDBRANCH   8   9
ENDBRANCH   7   8
ENDBRANCH   6   7
ENDBRANCH   5   6
ENDBRANCH   4   5
ENDBRANCH   3   4
ENDBRANCH   2   3
ENDBRANCH   1   2
BRANCH   1  18
ATOM     18  C   UNL     1      30.154  34.573  53.695  1.00  0.00     0.000 C 
BRANCH  18  19
ATOM     19  C   UNL     1      30.858  34.327  55.051  1.00  0.00     0.000 C 
BRANCH  19  20
ATOM     20  C   UNL     1      30.630  32.916  55.642  1.00  0.00     0.000 C 
BRANCH  20  21
ATOM     21  C   UNL     1      31.892  32.049  55.809  1.00  0.00     0.000 C 
BRANCH  21  22
ATOM     22  C   UNL     1      32.039  30.892  54.796  1.00  0.00     0.000 C 
BRANCH  22  23
ATOM     23  C   UNL     1      32.322  31.354  53.350  1.00  0.00     0.000 C 
BRANCH  23  24
ATOM     24  C   UNL     1      31.119  31.133  52.410  1.00  0.00    -0.000 C 
BRANCH  24  25
ATOM     25  C   UNL     1      31.333  29.922  51.495  1.00  0.00    -0.000 C 
BRANCH  25  26
ATOM     26  C   UNL     1      30.968  30.234  50.034  1.00  0.00    -0.000 C 
BRANCH  26  27
ATOM     27  C   UNL     1      30.278  31.594  49.913  1.00  0.00    -0.000 C 
BRANCH  27  28
ATOM     28  C   UNL     1      29.336  31.690  48.696  1.00  0.00    -0.000 C 
BRANCH  28  29
ATOM     29  C   UNL     1      28.000  30.941  48.856  1.00  0.00    -0.000 C 
BRANCH  29  30
ATOM     30  C   UNL     1      26.777  31.807  48.528  1.00  0.00    -0.000 C 
BRANCH  30  31
ATOM     31  C   UNL     1      27.187  33.236  48.177  1.00  0.00    -0.003 C 
ATOM     32  C   UNL     1      26.697  33.618  46.790  1.00  0.00     0.004 C 
ENDBRANCH  30  31
ENDBRANCH  29  30
ENDBRANCH  28  29
ENDBRANCH  27  28
ENDBRANCH  26  27
ENDBRANCH  25  26
ENDBRANCH  24  25
ENDBRANCH  23  24
ENDBRANCH  22  23
ENDBRANCH  21  22
ENDBRANCH  20  21
ENDBRANCH  19  20
ENDBRANCH  18  19
ENDBRANCH   1  18
TORSDOF 28
ENDMDL
MODEL 4
REMARK VINA RESULT:    -3.021      3.267      7.577
REMARK INTER + INTRA:         -13.673
REMARK INTER:                  -7.929
REMARK INTRA:                  -5.744
REMARK UNBOUND:                -5.707
REMARK SMILES CCCCCCCCCCCCCCCCCCCCCCCCCCCCCC(=O)[O-]
REMARK SMILES IDX 16 1 17 2 18 3 19 4 20 5 21 6 22 7 23 8 24 9 25 10 26 11
REMARK SMILES IDX 27 12 28 13 29 14 30 15 31 16 32 17 15 18 14 19 13 20 12 21
REMARK SMILES IDX 11 22 10 23 9 24 8 25 7 26 6 27 5 28 4 29 3 30 2 31 1 32
REMARK H PARENT
REMARK Flexibility Score: inf
ROOT
ATOM      1  C   UNL     1      28.084  31.997  50.146  1.00  0.00     0.000 C 
ENDROOT
BRANCH   1   2
ATOM      2  C   UNL     1      29.516  32.546  50.108  1.00  0.00     0.000 C 
BRANCH   2   3
ATOM      3  C   UNL     1      29.801  33.619  51.183  1.00  0.00     0.000 C 
BRANCH   3   4
ATOM      4  C   UNL     1      30.291  33.032  52.528  1.00  0.00     0.000 C 
BRANCH   4   5
ATOM      5  C   UNL     1      29.547  33.551  53.781  1.00  0.00     0.000 C 
BRANCH   5   6
ATOM      6  C   UNL     1      28.927  32.440  54.670  1.00  0.00     0.000 C 
BRANCH   6   7
ATOM      7  C   UNL     1      29.675  32.083  55.971  1.00  0.00     0.000 C 
BRANCH   7   8
ATOM      8  C   UNL     1      31.107  32.652  56.130  1.00  0.00     0.000 C 
BRANCH   8   9
ATOM      9  C   UNL     1      32.176  31.539  56.107  1.00  0.00     0.000 C 
BRANCH   9  10
ATOM     10  C   UNL     1      31.575  30.149  56.376  1.00  0.00     0.000 C 
BRANCH  10  11
ATOM     11  C   UNL     1      31.828  29.157  55.216  1.00  0.00     0.000 C 
BRANCH  11  12
ATOM     12  C   UNL     1      31.711  29.815  53.828  1.00  0.00     0.000 C 
BRANCH  12  13
ATOM     13  C   UNL     1      30.442  29.371  53.086  1.00  0.00     0.006 C 
BRANCH  13  14
ATOM     14  C   UNL     1      30.619  29.417  51.569  1.00  0.00     0.053 C 
BRANCH  14  15
ATOM     15  C   UNL     1      29.606  28.566  50.859  1.00  0.00     0.041 C 
ATOM     16  O   UNL     1      28.975  27.691  51.498  1.00  0.00    -0.550 OA
ATOM     17  O   UNL     1      29.371  28.723  49.495  1.00  0.00    -0.550 OA
ENDBRANCH  14  15
ENDBRANCH  13  14
ENDBRANCH  12  13
ENDBRANCH  11  12
ENDBRANCH  10  11
ENDBRANCH   9  10
ENDBRANCH   8   9
ENDBRANCH   7   8
ENDBRANCH   6   7
ENDBRANCH   5   6
ENDBRANCH   4   5
ENDBRANCH   3   4
ENDBRANCH   2   3
ENDBRANCH   1   2
BRANCH   1  18
ATOM     18  C   UNL     1      27.037  33.051  49.718  1.00  0.00     0.000 C 
BRANCH  18  19
ATOM     19  C   UNL     1      25.840  33.151  50.693  1.00  0.00     0.000 C 
BRANCH  19  20
ATOM     20  C   UNL     1      26.239  33.262  52.183  1.00  0.00     0.000 C 
BRANCH  20  21
ATOM     21  C   UNL     1      25.440  32.375  53.157  1.00  0.00     0.000 C 
BRANCH  21  22
ATOM     22  C   UNL     1      25.363  30.879  52.778  1.00  0.00     0.000 C 
BRANCH  22  23
ATOM     23  C   UNL     1      26.705  30.127  52.907  1.00  0.00     0.000 C 
BRANCH  23  24
ATOM     24  C   UNL     1      26.627  28.937  53.886  1.00  0.00    -0.000 C 
BRANCH  24  25
ATOM     25  C   UNL     1      27.354  29.239  55.199  1.00  0.00    -0.000 C 
BRANCH  25  26
ATOM     26  C   UNL     1      26.419  29.873  56.243  1.00  0.00    -0.000 C 
BRANCH  26  27
ATOM     27  C   UNL     1      25.010  29.287  56.152  1.00  0.00    -0.000 C 
BRANCH  27  28
ATOM     28  C   UNL     1      23.902  30.322  56.437  1.00  0.00    -0.000 C 
BRANCH  28  29
ATOM     29  C   UNL     1      22.700  30.260  55.475  1.00  0.00    -0.000 C 
BRANCH  29  30
ATOM     30  C   UNL     1      21.368  29.988  56.187  1.00  0.00    -0.000 C 
BRANCH  30  31
ATOM     31  C   UNL     1      21.423  30.423  57.651  1.00  0.00    -0.003 C 
ATOM     32  C   UNL     1      20.698  29.428  58.541  1.00  0.00     0.004 C 
ENDBRANCH  30  31
ENDBRANCH  29  30
ENDBRANCH  28  29
ENDBRANCH  27  28
ENDBRANCH  26  27
ENDBRANCH  25  26
ENDBRANCH  24  25
ENDBRANCH  23  24
ENDBRANCH  22  23
ENDBRANCH  21  22
ENDBRANCH  20  21
ENDBRANCH  19  20
ENDBRANCH  18  19
ENDBRANCH   1  18
TORSDOF 28
ENDMDL
MODEL 5
REMARK VINA RESULT:    -3.014      3.846      8.105
REMARK INTER + INTRA:         -13.654
REMARK INTER:                  -7.409
REMARK INTRA:                  -6.245
REMARK UNBOUND:                -5.707
REMARK SMILES CCCCCCCCCCCCCCCCCCCCCCCCCCCCCC(=O)[O-]
REMARK SMILES IDX 16 1 17 2 18 3 19 4 20 5 21 6 22 7 23 8 24 9 25 10 26 11
REMARK SMILES IDX 27 12 28 13 29 14 30 15 31 16 32 17 15 18 14 19 13 20 12 21
REMARK SMILES IDX 11 22 10 23 9 24 8 25 7 26 6 27 5 28 4 29 3 30 2 31 1 32
REMARK H PARENT
REMARK Flexibility Score: inf
ROOT
ATOM      1  C   UNL     1      30.692  28.892  52.357  1.00  0.00     0.000 C 
ENDROOT
BRANCH   1   2
ATOM      2  C   UNL     1      31.777  29.970  52.242  1.00  0.00     0.000 C 
BRANCH   2   3
ATOM      3  C   UNL     1      32.383  30.393  53.599  1.00  0.00     0.000 C 
BRANCH   3   4
ATOM      4  C   UNL     1      31.904  29.525  54.787  1.00  0.00     0.000 C 
BRANCH   4   5
ATOM      5  C   UNL     1      31.298  30.311  55.973  1.00  0.00     0.000 C 
BRANCH   5   6
ATOM      6  C   UNL     1      31.705  31.807  56.031  1.00  0.00     0.000 C 
BRANCH   6   7
ATOM      7  C   UNL     1      30.622  32.844  55.671  1.00  0.00     0.000 C 
BRANCH   7   8
ATOM      8  C   UNL     1      29.359  32.311  54.948  1.00  0.00     0.000 C 
BRANCH   8   9
ATOM      9  C   UNL     1      28.982  33.179  53.729  1.00  0.00     0.000 C 
BRANCH   9  10
ATOM     10  C   UNL     1      30.151  33.340  52.744  1.00  0.00     0.000 C 
BRANCH  10  11
ATOM     11  C   UNL     1      29.681  33.689  51.312  1.00  0.00     0.000 C 
BRANCH  11  12
ATOM     12  C   UNL     1      29.921  32.546  50.308  1.00  0.00     0.000 C 
BRANCH  12  13
ATOM     13  C   UNL     1      30.436  33.065  48.958  1.00  0.00     0.006 C 
BRANCH  13  14
ATOM     14  C   UNL     1      29.816  32.314  47.780  1.00  0.00     0.053 C 
BRANCH  14  15
ATOM     15  C   UNL     1      29.101  33.239  46.838  1.00  0.00     0.041 C 
ATOM     16  O   UNL     1      27.881  33.063  46.604  1.00  0.00    -0.550 OA
ATOM     17  O   UNL     1      29.778  34.278  46.205  1.00  0.00    -0.550 OA
ENDBRANCH  14  15
ENDBRANCH  13  14
ENDBRANCH  12  13
ENDBRANCH  11  12
ENDBRANCH  10  11
ENDBRANCH   9  10
ENDBRANCH   8   9
ENDBRANCH   7   8
ENDBRANCH   6   7
ENDBRANCH   5   6
ENDBRANCH   4   5
ENDBRANCH   3   4
ENDBRANCH   2   3
ENDBRANCH   1   2
BRANCH   1  18
ATOM     18  C   UNL     1      29.579  29.061  51.297  1.00  0.00     0.000 C 
BRANCH  18  19
ATOM     19  C   UNL     1      28.231  29.522  51.899  1.00  0.00     0.000 C 
BRANCH  19  20
ATOM     20  C   UNL     1      28.128  29.361  53.433  1.00  0.00     0.000 C 
BRANCH  20  21
ATOM     21  C   UNL     1      27.441  28.074  53.926  1.00  0.00     0.000 C 
BRANCH  21  22
ATOM     22  C   UNL     1      26.960  28.102  55.394  1.00  0.00     0.000 C 
BRANCH  22  23
ATOM     23  C   UNL     1      27.490  29.302  56.208  1.00  0.00     0.000 C 
BRANCH  23  24
ATOM     24  C   UNL     1      26.371  30.282  56.616  1.00  0.00    -0.000 C 
BRANCH  24  25
ATOM     25  C   UNL     1      24.985  29.736  56.261  1.00  0.00    -0.000 C 
BRANCH  25  26
ATOM     26  C   UNL     1      24.236  30.659  55.285  1.00  0.00    -0.000 C 
BRANCH  26  27
ATOM     27  C   UNL     1      23.984  29.962  53.947  1.00  0.00    -0.000 C 
BRANCH  27  28
ATOM     28  C   UNL     1      24.699  30.645  52.763  1.00  0.00    -0.000 C 
BRANCH  28  29
ATOM     29  C   UNL     1      25.511  31.899  53.139  1.00  0.00    -0.000 C 
BRANCH  29  30
ATOM     30  C   UNL     1      25.533  32.961  52.032  1.00  0.00    -0.000 C 
BRANCH  30  31
ATOM     31  C   UNL     1      26.265  32.453  50.791  1.00  0.00    -0.003 C 
ATOM     32  C   UNL     1      26.025  33.370  49.604  1.00  0.00     0.004 C 
ENDBRANCH  30  31
ENDBRANCH  29  30
ENDBRANCH  28  29
ENDBRANCH  27  28
ENDBRANCH  26  27
ENDBRANCH  25  26
ENDBRANCH  24  25
ENDBRANCH  23  24
ENDBRANCH  22  23
ENDBRANCH  21  22
ENDBRANCH  20  21
ENDBRANCH  19  20
ENDBRANCH  18  19
ENDBRANCH   1  18
TORSDOF 28
ENDMDL
MODEL 6
REMARK VINA RESULT:    -3.012      2.992      7.008
REMARK INTER + INTRA:         -13.649
REMARK INTER:                  -7.703
REMARK INTRA:                  -5.946
REMARK UNBOUND:                -5.707
REMARK SMILES CCCCCCCCCCCCCCCCCCCCCCCCCCCCCC(=O)[O-]
REMARK SMILES IDX 16 1 17 2 18 3 19 4 20 5 21 6 22 7 23 8 24 9 25 10 26 11
REMARK SMILES IDX 27 12 28 13 29 14 30 15 31 16 32 17 15 18 14 19 13 20 12 21
REMARK SMILES IDX 11 22 10 23 9 24 8 25 7 26 6 27 5 28 4 29 3 30 2 31 1 32
REMARK H PARENT
REMARK Flexibility Score: inf
ROOT
ATOM      1  C   UNL     1      30.544  33.598  53.126  1.00  0.00     0.000 C 
ENDROOT
BRANCH   1   2
ATOM      2  C   UNL     1      30.440  33.012  54.540  1.00  0.00     0.000 C 
BRANCH   2   3
ATOM      3  C   UNL     1      31.702  32.243  54.990  1.00  0.00     0.000 C 
BRANCH   3   4
ATOM      4  C   UNL     1      31.490  30.714  55.097  1.00  0.00     0.000 C 
BRANCH   4   5
ATOM      5  C   UNL     1      32.424  29.858  54.209  1.00  0.00     0.000 C 
BRANCH   5   6
ATOM      6  C   UNL     1      32.394  30.223  52.701  1.00  0.00     0.000 C 
BRANCH   6   7
ATOM      7  C   UNL     1      31.040  30.094  51.974  1.00  0.00     0.000 C 
BRANCH   7   8
ATOM      8  C   UNL     1      31.055  30.278  50.436  1.00  0.00     0.000 C 
BRANCH   8   9
ATOM      9  C   UNL     1      29.733  30.881  49.913  1.00  0.00     0.000 C 
BRANCH   9  10
ATOM     10  C   UNL     1      29.961  32.163  49.096  1.00  0.00     0.000 C 
BRANCH  10  11
ATOM     11  C   UNL     1      28.693  32.619  48.337  1.00  0.00     0.000 C 
BRANCH  11  12
ATOM     12  C   UNL     1      27.548  33.035  49.280  1.00  0.00     0.000 C 
BRANCH  12  13
ATOM     13  C   UNL     1      26.348  33.608  48.511  1.00  0.00     0.006 C 
BRANCH  13  14
ATOM     14  C   UNL     1      25.027  32.983  48.959  1.00  0.00     0.053 C 
BRANCH  14  15
ATOM     15  C   UNL     1      24.711  31.730  48.195  1.00  0.00     0.041 C 
ATOM     16  O   UNL     1      24.476  30.668  48.819  1.00  0.00    -0.550 OA
ATOM     17  O   UNL     1      24.692  31.727  46.803  1.00  0.00    -0.550 OA
ENDBRANCH  14  15
ENDBRANCH  13  14
ENDBRANCH  12  13
ENDBRANCH  11  12
ENDBRANCH  10  11
ENDBRANCH   9  10
ENDBRANCH   8   9
ENDBRANCH   7   8
ENDBRANCH   6   7
ENDBRANCH   5   6
ENDBRANCH   4   5
ENDBRANCH   3   4
ENDBRANCH   2   3
ENDBRANCH   1   2
BRANCH   1  18
ATOM     18  C   UNL     1      29.178  33.632  52.401  1.00  0.00     0.000 C 
BRANCH  18  19
ATOM     19  C   UNL     1      27.997  33.960  53.345  1.00  0.00     0.000 C 
BRANCH  19  20
ATOM     20  C   UNL     1      26.610  33.944  52.661  1.00  0.00     0.000 C 
BRANCH  20  21
ATOM     21  C   UNL     1      25.630  32.867  53.164  1.00  0.00     0.000 C 
BRANCH  21  22
ATOM     22  C   UNL     1      25.287  31.759  52.144  1.00  0.00     0.000 C 
BRANCH  22  23
ATOM     23  C   UNL     1      26.474  30.836  51.794  1.00  0.00     0.000 C 
BRANCH  23  24
ATOM     24  C   UNL     1      26.821  29.858  52.935  1.00  0.00    -0.000 C 
BRANCH  24  25
ATOM     25  C   UNL     1      28.088  30.289  53.682  1.00  0.00    -0.000 C 
BRANCH  25  26
ATOM     26  C   UNL     1      27.844  30.428  55.194  1.00  0.00    -0.000 C 
BRANCH  26  27
ATOM     27  C   UNL     1      26.950  29.304  55.717  1.00  0.00    -0.000 C 
BRANCH  27  28
ATOM     28  C   UNL     1      25.881  29.793  56.715  1.00  0.00    -0.000 C 
BRANCH  28  29
ATOM     29  C   UNL     1      24.430  29.460  56.319  1.00  0.00    -0.000 C 
BRANCH  29  30
ATOM     30  C   UNL     1      23.843  30.436  55.291  1.00  0.00    -0.000 C 
BRANCH  30  31
ATOM     31  C   UNL     1      23.102  29.693  54.181  1.00  0.00    -0.003 C 
ATOM     32  C   UNL     1      23.630  28.276  54.027  1.00  0.00     0.004 C 
ENDBRANCH  30  31
ENDBRANCH  29  30
ENDBRANCH  28  29
ENDBRANCH  27  28
ENDBRANCH  26  27
ENDBRANCH  25  26
ENDBRANCH  24  25
ENDBRANCH  23  24
ENDBRANCH  22  23
ENDBRANCH  21  22
ENDBRANCH  20  21
ENDBRANCH  19  20
ENDBRANCH  18  19
ENDBRANCH   1  18
TORSDOF 28
ENDMDL
MODEL 7
REMARK VINA RESULT:    -2.957      4.046      7.546
REMARK INTER + INTRA:         -13.504
REMARK INTER:                  -8.141
REMARK INTRA:                  -5.364
REMARK UNBOUND:                -5.707
REMARK SMILES CCCCCCCCCCCCCCCCCCCCCCCCCCCCCC(=O)[O-]
REMARK SMILES IDX 16 1 17 2 18 3 19 4 20 5 21 6 22 7 23 8 24 9 25 10 26 11
REMARK SMILES IDX 27 12 28 13 29 14 30 15 31 16 32 17 15 18 14 19 13 20 12 21
REMARK SMILES IDX 11 22 10 23 9 24 8 25 7 26 6 27 5 28 4 29 3 30 2 31 1 32
REMARK H PARENT
REMARK Flexibility Score: inf
ROOT
ATOM      1  C   UNL     1      25.910  32.500  51.547  1.00  0.00     0.000 C 
ENDROOT
BRANCH   1   2
ATOM      2  C   UNL     1      25.412  33.403  50.411  1.00  0.00     0.000 C 
BRANCH   2   3
ATOM      3  C   UNL     1      25.648  32.817  49.001  1.00  0.00     0.000 C 
BRANCH   3   4
ATOM      4  C   UNL     1      26.661  33.625  48.155  1.00  0.00     0.000 C 
BRANCH   4   5
ATOM      5  C   UNL     1      27.063  32.973  46.812  1.00  0.00     0.000 C 
BRANCH   5   6
ATOM      6  C   UNL     1      27.401  33.981  45.681  1.00  0.00     0.000 C 
BRANCH   6   7
ATOM      7  C   UNL     1      28.760  33.810  44.972  1.00  0.00     0.000 C 
BRANCH   7   8
ATOM      8  C   UNL     1      29.930  34.684  45.489  1.00  0.00     0.000 C 
BRANCH   8   9
ATOM      9  C   UNL     1      31.026  33.837  46.170  1.00  0.00     0.000 C 
BRANCH   9  10
ATOM     10  C   UNL     1      30.977  33.946  47.703  1.00  0.00     0.000 C 
BRANCH  10  11
ATOM     11  C   UNL     1      30.535  32.627  48.380  1.00  0.00     0.000 C 
BRANCH  11  12
ATOM     12  C   UNL     1      29.828  32.855  49.730  1.00  0.00     0.000 C 
BRANCH  12  13
ATOM     13  C   UNL     1      29.146  31.579  50.245  1.00  0.00     0.006 C 
BRANCH  13  14
ATOM     14  C   UNL     1      28.753  30.639  49.106  1.00  0.00     0.053 C 
BRANCH  14  15
ATOM     15  C   UNL     1      28.203  29.338  49.616  1.00  0.00     0.041 C 
ATOM     16  O   UNL     1      27.633  29.301  50.732  1.00  0.00    -0.550 OA
ATOM     17  O   UNL     1      28.335  28.167  48.873  1.00  0.00    -0.550 OA
ENDBRANCH  14  15
ENDBRANCH  13  14
ENDBRANCH  12  13
ENDBRANCH  11  12
ENDBRANCH  10  11
ENDBRANCH   9  10
ENDBRANCH   8   9
ENDBRANCH   7   8
ENDBRANCH   6   7
ENDBRANCH   5   6
ENDBRANCH   4   5
ENDBRANCH   3   4
ENDBRANCH   2   3
ENDBRANCH   1   2
BRANCH   1  18
ATOM     18  C   UNL     1      25.789  33.176  52.932  1.00  0.00     0.000 C 
BRANCH  18  19
ATOM     19  C   UNL     1      26.779  34.350  53.124  1.00  0.00     0.000 C 
BRANCH  19  20
ATOM     20  C   UNL     1      28.269  33.958  52.981  1.00  0.00     0.000 C 
BRANCH  20  21
ATOM     21  C   UNL     1      29.257  34.758  53.851  1.00  0.00     0.000 C 
BRANCH  21  22
ATOM     22  C   UNL     1      30.724  34.277  53.798  1.00  0.00     0.000 C 
BRANCH  22  23
ATOM     23  C   UNL     1      30.921  32.940  53.052  1.00  0.00     0.000 C 
BRANCH  23  24
ATOM     24  C   UNL     1      31.922  32.006  53.762  1.00  0.00    -0.000 C 
BRANCH  24  25
ATOM     25  C   UNL     1      31.745  32.042  55.283  1.00  0.00    -0.000 C 
BRANCH  25  26
ATOM     26  C   UNL     1      30.860  30.889  55.786  1.00  0.00    -0.000 C 
BRANCH  26  27
ATOM     27  C   UNL     1      29.613  31.417  56.496  1.00  0.00    -0.000 C 
BRANCH  27  28
ATOM     28  C   UNL     1      28.383  31.513  55.570  1.00  0.00    -0.000 C 
BRANCH  28  29
ATOM     29  C   UNL     1      28.401  30.541  54.374  1.00  0.00    -0.000 C 
BRANCH  29  30
ATOM     30  C   UNL     1      27.116  29.712  54.249  1.00  0.00    -0.000 C 
BRANCH  30  31
ATOM     31  C   UNL     1      26.013  30.257  55.155  1.00  0.00    -0.003 C 
ATOM     32  C   UNL     1      25.516  29.186  56.111  1.00  0.00     0.004 C 
ENDBRANCH  30  31
ENDBRANCH  29  30
ENDBRANCH  28  29
ENDBRANCH  27  28
ENDBRANCH  26  27
ENDBRANCH  25  26
ENDBRANCH  24  25
ENDBRANCH  23  24
ENDBRANCH  22  23
ENDBRANCH  21  22
ENDBRANCH  20  21
ENDBRANCH  19  20
ENDBRANCH  18  19
ENDBRANCH   1  18
TORSDOF 28
ENDMDL
MODEL 8
REMARK VINA RESULT:    -2.955      2.007      5.492
REMARK INTER + INTRA:         -13.498
REMARK INTER:                  -7.624
REMARK INTRA:                  -5.874
REMARK UNBOUND:                -5.707
REMARK SMILES CCCCCCCCCCCCCCCCCCCCCCCCCCCCCC(=O)[O-]
REMARK SMILES IDX 16 1 17 2 18 3 19 4 20 5 21 6 22 7 23 8 24 9 25 10 26 11
REMARK SMILES IDX 27 12 28 13 29 14 30 15 31 16 32 17 15 18 14 19 13 20 12 21
REMARK SMILES IDX 11 22 10 23 9 24 8 25 7 26 6 27 5 28 4 29 3 30 2 31 1 32
REMARK H PARENT
REMARK Flexibility Score: inf
ROOT
ATOM      1  C   UNL     1      29.670  31.416  52.224  1.00  0.00     0.000 C 
ENDROOT
BRANCH   1   2
ATOM      2  C   UNL     1      30.691  30.370  52.693  1.00  0.00     0.000 C 
BRANCH   2   3
ATOM      3  C   UNL     1      32.019  30.978  53.197  1.00  0.00     0.000 C 
BRANCH   3   4
ATOM      4  C   UNL     1      32.102  31.091  54.739  1.00  0.00     0.000 C 
BRANCH   4   5
ATOM      5  C   UNL     1      31.733  32.477  55.317  1.00  0.00     0.000 C 
BRANCH   5   6
ATOM      6  C   UNL     1      30.402  32.511  56.113  1.00  0.00     0.000 C 
BRANCH   6   7
ATOM      7  C   UNL     1      29.755  31.153  56.456  1.00  0.00     0.000 C 
BRANCH   7   8
ATOM      8  C   UNL     1      28.453  30.791  55.699  1.00  0.00     0.000 C 
BRANCH   8   9
ATOM      9  C   UNL     1      28.219  29.266  55.649  1.00  0.00     0.000 C 
BRANCH   9  10
ATOM     10  C   UNL     1      26.749  28.894  55.904  1.00  0.00     0.000 C 
BRANCH  10  11
ATOM     11  C   UNL     1      25.815  30.128  55.908  1.00  0.00     0.000 C 
BRANCH  11  12
ATOM     12  C   UNL     1      24.734  30.063  54.812  1.00  0.00     0.000 C 
BRANCH  12  13
ATOM     13  C   UNL     1      23.381  30.597  55.305  1.00  0.00     0.006 C 
BRANCH  13  14
ATOM     14  C   UNL     1      23.084  30.169  56.742  1.00  0.00     0.053 C 
BRANCH  14  15
ATOM     15  C   UNL     1      21.619  30.242  57.059  1.00  0.00     0.041 C 
ATOM     16  O   UNL     1      20.781  30.200  56.126  1.00  0.00    -0.550 OA
ATOM     17  O   UNL     1      21.177  30.373  58.373  1.00  0.00    -0.550 OA
ENDBRANCH  14  15
ENDBRANCH  13  14
ENDBRANCH  12  13
ENDBRANCH  11  12
ENDBRANCH  10  11
ENDBRANCH   9  10
ENDBRANCH   8   9
ENDBRANCH   7   8
ENDBRANCH   6   7
ENDBRANCH   5   6
ENDBRANCH   4   5
ENDBRANCH   3   4
ENDBRANCH   2   3
ENDBRANCH   1   2
BRANCH   1  18
ATOM     18  C   UNL     1      30.346  32.711  51.717  1.00  0.00     0.000 C 
BRANCH  18  19
ATOM     19  C   UNL     1      29.633  33.997  52.199  1.00  0.00     0.000 C 
BRANCH  19  20
ATOM     20  C   UNL     1      28.657  33.783  53.379  1.00  0.00     0.000 C 
BRANCH  20  21
ATOM     21  C   UNL     1      27.168  34.025  53.069  1.00  0.00     0.000 C 
BRANCH  21  22
ATOM     22  C   UNL     1      26.261  32.779  53.168  1.00  0.00     0.000 C 
BRANCH  22  23
ATOM     23  C   UNL     1      25.470  32.472  51.878  1.00  0.00     0.000 C 
BRANCH  23  24
ATOM     24  C   UNL     1      25.416  33.675  50.914  1.00  0.00    -0.000 C 
BRANCH  24  25
ATOM     25  C   UNL     1      25.950  33.310  49.525  1.00  0.00    -0.000 C 
BRANCH  25  26
ATOM     26  C   UNL     1      27.311  32.597  49.601  1.00  0.00    -0.000 C 
BRANCH  26  27
ATOM     27  C   UNL     1      27.512  31.658  48.411  1.00  0.00    -0.000 C 
BRANCH  27  28
ATOM     28  C   UNL     1      27.274  30.175  48.763  1.00  0.00    -0.000 C 
BRANCH  28  29
ATOM     29  C   UNL     1      25.872  29.862  49.320  1.00  0.00    -0.000 C 
BRANCH  29  30
ATOM     30  C   UNL     1      25.891  28.854  50.476  1.00  0.00    -0.000 C 
BRANCH  30  31
ATOM     31  C   UNL     1      26.953  29.219  51.512  1.00  0.00    -0.003 C 
ATOM     32  C   UNL     1      27.364  28.001  52.322  1.00  0.00     0.004 C 
ENDBRANCH  30  31
ENDBRANCH  29  30
ENDBRANCH  28  29
ENDBRANCH  27  28
ENDBRANCH  26  27
ENDBRANCH  25  26
ENDBRANCH  24  25
ENDBRANCH  23  24
ENDBRANCH  22  23
ENDBRANCH  21  22
ENDBRANCH  20  21
ENDBRANCH  19  20
ENDBRANCH  18  19
ENDBRANCH   1  18
TORSDOF 28
ENDMDL
MODEL 9
REMARK VINA RESULT:    -2.954      2.054      4.400
REMARK INTER + INTRA:         -13.495
REMARK INTER:                  -7.781
REMARK INTRA:                  -5.714
REMARK UNBOUND:                -5.707
REMARK SMILES CCCCCCCCCCCCCCCCCCCCCCCCCCCCCC(=O)[O-]
REMARK SMILES IDX 16 1 17 2 18 3 19 4 20 5 21 6 22 7 23 8 24 9 25 10 26 11
REMARK SMILES IDX 27 12 28 13 29 14 30 15 31 16 32 17 15 18 14 19 13 20 12 21
REMARK SMILES IDX 11 22 10 23 9 24 8 25 7 26 6 27 5 28 4 29 3 30 2 31 1 32
REMARK H PARENT
REMARK Flexibility Score: inf
ROOT
ATOM      1  C   UNL     1      28.525  30.729  57.409  1.00  0.00     0.000 C 
ENDROOT
BRANCH   1   2
ATOM      2  C   UNL     1      29.004  29.290  57.177  1.00  0.00     0.000 C 
BRANCH   2   3
ATOM      3  C   UNL     1      27.864  28.298  56.856  1.00  0.00     0.000 C 
BRANCH   3   4
ATOM      4  C   UNL     1      27.850  27.826  55.382  1.00  0.00     0.000 C 
BRANCH   4   5
ATOM      5  C   UNL     1      28.761  28.630  54.426  1.00  0.00     0.000 C 
BRANCH   5   6
ATOM      6  C   UNL     1      28.027  29.715  53.594  1.00  0.00     0.000 C 
BRANCH   6   7
ATOM      7  C   UNL     1      26.489  29.763  53.705  1.00  0.00     0.000 C 
BRANCH   7   8
ATOM      8  C   UNL     1      25.898  30.718  54.771  1.00  0.00     0.000 C 
BRANCH   8   9
ATOM      9  C   UNL     1      24.386  30.954  54.561  1.00  0.00     0.000 C 
BRANCH   9  10
ATOM     10  C   UNL     1      23.559  30.561  55.796  1.00  0.00     0.000 C 
BRANCH  10  11
ATOM     11  C   UNL     1      24.095  29.288  56.492  1.00  0.00     0.000 C 
BRANCH  11  12
ATOM     12  C   UNL     1      23.473  27.994  55.935  1.00  0.00     0.000 C 
BRANCH  12  13
ATOM     13  C   UNL     1      22.219  27.575  56.717  1.00  0.00     0.006 C 
BRANCH  13  14
ATOM     14  C   UNL     1      22.262  28.050  58.168  1.00  0.00     0.053 C 
BRANCH  14  15
ATOM     15  C   UNL     1      21.074  28.896  58.519  1.00  0.00     0.041 C 
ATOM     16  O   UNL     1      19.984  28.345  58.806  1.00  0.00    -0.550 OA
ATOM     17  O   UNL     1      21.159  30.286  58.511  1.00  0.00    -0.550 OA
ENDBRANCH  14  15
ENDBRANCH  13  14
ENDBRANCH  12  13
ENDBRANCH  11  12
ENDBRANCH  10  11
ENDBRANCH   9  10
ENDBRANCH   8   9
ENDBRANCH   7   8
ENDBRANCH   6   7
ENDBRANCH   5   6
ENDBRANCH   4   5
ENDBRANCH   3   4
ENDBRANCH   2   3
ENDBRANCH   1   2
BRANCH   1  18
ATOM     18  C   UNL     1      29.268  31.748  56.514  1.00  0.00     0.000 C 
BRANCH  18  19
ATOM     19  C   UNL     1      30.683  31.278  56.103  1.00  0.00     0.000 C 
BRANCH  19  20
ATOM     20  C   UNL     1      31.132  31.753  54.701  1.00  0.00     0.000 C 
BRANCH  20  21
ATOM     21  C   UNL     1      30.652  33.157  54.286  1.00  0.00     0.000 C 
BRANCH  21  22
ATOM     22  C   UNL     1      30.573  33.405  52.763  1.00  0.00     0.000 C 
BRANCH  22  23
ATOM     23  C   UNL     1      29.148  33.694  52.246  1.00  0.00     0.000 C 
BRANCH  23  24
ATOM     24  C   UNL     1      28.066  33.447  53.317  1.00  0.00    -0.000 C 
BRANCH  24  25
ATOM     25  C   UNL     1      26.963  34.508  53.260  1.00  0.00    -0.000 C 
BRANCH  25  26
ATOM     26  C   UNL     1      25.602  33.902  52.875  1.00  0.00    -0.000 C 
BRANCH  26  27
ATOM     27  C   UNL     1      25.521  33.630  51.373  1.00  0.00    -0.000 C 
BRANCH  27  28
ATOM     28  C   UNL     1      25.366  32.133  51.034  1.00  0.00    -0.000 C 
BRANCH  28  29
ATOM     29  C   UNL     1      26.616  31.482  50.410  1.00  0.00    -0.000 C 
BRANCH  29  30
ATOM     30  C   UNL     1      27.322  32.383  49.389  1.00  0.00    -0.000 C 
BRANCH  30  31
ATOM     31  C   UNL     1      28.713  31.850  49.049  1.00  0.00    -0.003 C 
ATOM     32  C   UNL     1      29.168  30.823  50.072  1.00  0.00     0.004 C 
ENDBRANCH  30  31
ENDBRANCH  29  30
ENDBRANCH  28  29
ENDBRANCH  27  28
ENDBRANCH  26  27
ENDBRANCH  25  26
ENDBRANCH  24  25
ENDBRANCH  23  24
ENDBRANCH  22  23
ENDBRANCH  21  22
ENDBRANCH  20  21
ENDBRANCH  19  20
ENDBRANCH  18  19
ENDBRANCH   1  18
TORSDOF 28
ENDMDL
