MODEL 1
REMARK VINA RESULT:    -4.423      0.000      0.000
REMARK INTER + INTRA:          -4.423
REMARK INTER:                  -4.423
REMARK INTRA:                   0.000
REMARK UNBOUND:                 0.000
REMARK SMILES CC1(C)O[C@]2(C)CC[C@H]1CC2
REMARK SMILES IDX 1 1 2 2 9 3 10 4 11 5 5 6 4 7 7 8 8 9 6 10 3 11
REMARK H PARENT
REMARK Flexibility Score: inf
ROOT
ATOM      1  C   UNL     1     106.957 107.390 102.111  1.00  0.00     0.042 C 
ATOM      2  C   UNL     1     107.190 106.344 103.222  1.00  0.00     0.066 C 
ATOM      3  C   UNL     1     105.850 106.053 104.004  1.00  0.00     0.021 C 
ATOM      4  C   UNL     1     104.831 105.436 103.016  1.00  0.00     0.009 C 
ATOM      5  C   UNL     1     105.490 104.239 102.288  1.00  0.00     0.035 C 
ATOM      6  C   UNL     1     106.919 103.999 102.855  1.00  0.00     0.066 C 
ATOM      7  O   UNL     1     107.720 105.157 102.614  1.00  0.00    -0.369 OA
ATOM      8  C   UNL     1     106.820 103.756 104.389  1.00  0.00     0.035 C 
ATOM      9  C   UNL     1     106.130 104.964 105.067  1.00  0.00     0.009 C 
ATOM     10  C   UNL     1     107.570 102.795 102.165  1.00  0.00     0.042 C 
ATOM     11  C   UNL     1     108.264 106.915 104.174  1.00  0.00     0.042 C 
ENDROOT
TORSDOF 0
ENDMDL
MODEL 2
REMARK VINA RESULT:    -4.393      1.772      3.603
REMARK INTER + INTRA:          -4.393
REMARK INTER:                  -4.393
REMARK INTRA:                   0.000
REMARK UNBOUND:                 0.000
REMARK SMILES CC1(C)O[C@]2(C)CC[C@H]1CC2
REMARK SMILES IDX 1 1 2 2 9 3 10 4 11 5 5 6 4 7 7 8 8 9 6 10 3 11
REMARK H PARENT
REMARK Flexibility Score: inf
ROOT
ATOM      1  C   UNL     1     108.248 107.122 104.086  1.00  0.00     0.042 C 
ATOM      2  C   UNL     1     107.144 106.694 103.095  1.00  0.00     0.066 C 
ATOM      3  C   UNL     1     105.992 105.919 103.844  1.00  0.00     0.021 C 
ATOM      4  C   UNL     1     105.332 106.884 104.858  1.00  0.00     0.009 C 
ATOM      5  C   UNL     1     104.937 108.193 104.131  1.00  0.00     0.035 C 
ATOM      6  C   UNL     1     105.249 108.066 102.612  1.00  0.00     0.066 C 
ATOM      7  O   UNL     1     106.653 107.871 102.437  1.00  0.00    -0.369 OA
ATOM      8  C   UNL     1     104.487 106.837 102.039  1.00  0.00     0.035 C 
ATOM      9  C   UNL     1     104.893 105.561 102.816  1.00  0.00     0.009 C 
ATOM     10  C   UNL     1     104.832 109.344 101.875  1.00  0.00     0.042 C 
ATOM     11  C   UNL     1     107.806 105.791 102.031  1.00  0.00     0.042 C 
ENDROOT
TORSDOF 0
ENDMDL
MODEL 3
REMARK VINA RESULT:    -4.378      1.824      3.024
REMARK INTER + INTRA:          -4.378
REMARK INTER:                  -4.378
REMARK INTRA:                   0.000
REMARK UNBOUND:                 0.000
REMARK SMILES CC1(C)O[C@]2(C)CC[C@H]1CC2
REMARK SMILES IDX 1 1 2 2 9 3 10 4 11 5 5 6 4 7 7 8 8 9 6 10 3 11
REMARK H PARENT
REMARK Flexibility Score: inf
ROOT
ATOM      1  C   UNL     1     104.893 108.220 104.104  1.00  0.00     0.042 C 
ATOM      2  C   UNL     1     105.316 107.112 103.115  1.00  0.00     0.066 C 
ATOM      3  C   UNL     1     106.072 105.950 103.870  1.00  0.00     0.021 C 
ATOM      4  C   UNL     1     105.092 105.301 104.876  1.00  0.00     0.009 C 
ATOM      5  C   UNL     1     103.784 104.922 104.140  1.00  0.00     0.035 C 
ATOM      6  C   UNL     1     103.925 105.234 102.622  1.00  0.00     0.066 C 
ATOM      7  O   UNL     1     104.138 106.636 102.449  1.00  0.00    -0.369 OA
ATOM      8  C   UNL     1     105.150 104.458 102.057  1.00  0.00     0.035 C 
ATOM      9  C   UNL     1     106.425 104.848 102.843  1.00  0.00     0.009 C 
ATOM     10  C   UNL     1     102.648 104.832 101.875  1.00  0.00     0.042 C 
ATOM     11  C   UNL     1     106.234 107.764 102.059  1.00  0.00     0.042 C 
ENDROOT
TORSDOF 0
ENDMDL
MODEL 4
REMARK VINA RESULT:    -4.372      1.167      2.787
REMARK INTER + INTRA:          -4.372
REMARK INTER:                  -4.372
REMARK INTRA:                   0.000
REMARK UNBOUND:                 0.000
REMARK SMILES CC1(C)O[C@]2(C)CC[C@H]1CC2
REMARK SMILES IDX 1 1 2 2 9 3 10 4 11 5 5 6 4 7 7 8 8 9 6 10 3 11
REMARK H PARENT
REMARK Flexibility Score: inf
ROOT
ATOM      1  C   UNL     1     103.766 104.883 104.078  1.00  0.00     0.042 C 
ATOM      2  C   UNL     1     104.859 105.305 103.071  1.00  0.00     0.066 C 
ATOM      3  C   UNL     1     106.011 106.101 103.800  1.00  0.00     0.021 C 
ATOM      4  C   UNL     1     106.686 105.157 104.823  1.00  0.00     0.009 C 
ATOM      5  C   UNL     1     107.086 103.840 104.114  1.00  0.00     0.035 C 
ATOM      6  C   UNL     1     106.761 103.940 102.596  1.00  0.00     0.066 C 
ATOM      7  O   UNL     1     105.354 104.122 102.428  1.00  0.00    -0.369 OA
ATOM      8  C   UNL     1     107.509 105.166 101.997  1.00  0.00     0.035 C 
ATOM      9  C   UNL     1     107.099 106.452 102.757  1.00  0.00     0.009 C 
ATOM     10  C   UNL     1     107.183 102.655 101.875  1.00  0.00     0.042 C 
ATOM     11  C   UNL     1     104.181 106.186 101.999  1.00  0.00     0.042 C 
ENDROOT
TORSDOF 0
ENDMDL
MODEL 5
REMARK VINA RESULT:    -4.358      1.597      3.495
REMARK INTER + INTRA:          -4.358
REMARK INTER:                  -4.358
REMARK INTRA:                   0.000
REMARK UNBOUND:                 0.000
REMARK SMILES CC1(C)O[C@]2(C)CC[C@H]1CC2
REMARK SMILES IDX 1 1 2 2 9 3 10 4 11 5 5 6 4 7 7 8 8 9 6 10 3 11
REMARK H PARENT
REMARK Flexibility Score: inf
ROOT
ATOM      1  C   UNL     1     107.241 104.861 104.171  1.00  0.00     0.042 C 
ATOM      2  C   UNL     1     106.133 104.871 103.096  1.00  0.00     0.066 C 
ATOM      3  C   UNL     1     104.732 104.528 103.737  1.00  0.00     0.021 C 
ATOM      4  C   UNL     1     104.376 105.636 104.756  1.00  0.00     0.009 C 
ATOM      5  C   UNL     1     104.513 107.019 104.074  1.00  0.00     0.035 C 
ATOM      6  C   UNL     1     104.872 106.831 102.571  1.00  0.00     0.066 C 
ATOM      7  O   UNL     1     106.130 106.162 102.470  1.00  0.00    -0.369 OA
ATOM      8  C   UNL     1     103.774 105.960 101.894  1.00  0.00     0.035 C 
ATOM      9  C   UNL     1     103.654 104.603 102.629  1.00  0.00     0.009 C 
ATOM     10  C   UNL     1     104.978 108.192 101.875  1.00  0.00     0.042 C 
ATOM     11  C   UNL     1     106.516 103.822 102.030  1.00  0.00     0.042 C 
ENDROOT
TORSDOF 0
ENDMDL
MODEL 6
REMARK VINA RESULT:    -4.357      1.964      4.018
REMARK INTER + INTRA:          -4.357
REMARK INTER:                  -4.357
REMARK INTRA:                   0.000
REMARK UNBOUND:                 0.000
REMARK SMILES CC1(C)O[C@]2(C)CC[C@H]1CC2
REMARK SMILES IDX 1 1 2 2 9 3 10 4 11 5 5 6 4 7 7 8 8 9 6 10 3 11
REMARK H PARENT
REMARK Flexibility Score: inf
ROOT
ATOM      1  C   UNL     1     105.042 104.732 101.990  1.00  0.00     0.042 C 
ATOM      2  C   UNL     1     104.805 105.755 103.122  1.00  0.00     0.066 C 
ATOM      3  C   UNL     1     106.140 106.024 103.919  1.00  0.00     0.021 C 
ATOM      4  C   UNL     1     107.168 106.659 102.952  1.00  0.00     0.009 C 
ATOM      5  C   UNL     1     106.518 107.873 102.245  1.00  0.00     0.035 C 
ATOM      6  C   UNL     1     105.086 108.106 102.808  1.00  0.00     0.066 C 
ATOM      7  O   UNL     1     104.283 106.956 102.537  1.00  0.00    -0.369 OA
ATOM      8  C   UNL     1     105.175 108.315 104.347  1.00  0.00     0.035 C 
ATOM      9  C   UNL     1     105.857 107.091 105.004  1.00  0.00     0.009 C 
ATOM     10  C   UNL     1     104.444 109.327 102.140  1.00  0.00     0.042 C 
ATOM     11  C   UNL     1     103.723 105.167 104.054  1.00  0.00     0.042 C 
ENDROOT
TORSDOF 0
ENDMDL
MODEL 7
REMARK VINA RESULT:    -4.354      1.496      2.806
REMARK INTER + INTRA:          -4.354
REMARK INTER:                  -4.354
REMARK INTRA:                   0.000
REMARK UNBOUND:                 0.000
REMARK SMILES CC1(C)O[C@]2(C)CC[C@H]1CC2
REMARK SMILES IDX 1 1 2 2 9 3 10 4 11 5 5 6 4 7 7 8 8 9 6 10 3 11
REMARK H PARENT
REMARK Flexibility Score: inf
ROOT
ATOM      1  C   UNL     1     104.982 107.749 104.266  1.00  0.00     0.042 C 
ATOM      2  C   UNL     1     105.930 107.369 103.107  1.00  0.00     0.066 C 
ATOM      3  C   UNL     1     107.438 107.499 103.555  1.00  0.00     0.021 C 
ATOM      4  C   UNL     1     107.699 106.488 104.696  1.00  0.00     0.009 C 
ATOM      5  C   UNL     1     107.221 105.085 104.252  1.00  0.00     0.035 C 
ATOM      6  C   UNL     1     106.724 105.140 102.779  1.00  0.00     0.066 C 
ATOM      7  O   UNL     1     105.612 106.033 102.692  1.00  0.00    -0.369 OA
ATOM      8  C   UNL     1     107.875 105.668 101.876  1.00  0.00     0.035 C 
ATOM      9  C   UNL     1     108.338 107.057 102.376  1.00  0.00     0.009 C 
ATOM     10  C   UNL     1     106.278 103.748 102.315  1.00  0.00     0.042 C 
ATOM     11  C   UNL     1     105.625 108.322 101.931  1.00  0.00     0.042 C 
ENDROOT
TORSDOF 0
ENDMDL
MODEL 8
REMARK VINA RESULT:    -4.354      1.640      2.845
REMARK INTER + INTRA:          -4.354
REMARK INTER:                  -4.354
REMARK INTRA:                   0.000
REMARK UNBOUND:                 0.000
REMARK SMILES CC1(C)O[C@]2(C)CC[C@H]1CC2
REMARK SMILES IDX 1 1 2 2 9 3 10 4 11 5 5 6 4 7 7 8 8 9 6 10 3 11
REMARK H PARENT
REMARK Flexibility Score: inf
ROOT
ATOM      1  C   UNL     1     107.240 104.985 101.915  1.00  0.00     0.042 C 
ATOM      2  C   UNL     1     106.273 104.764 103.098  1.00  0.00     0.066 C 
ATOM      3  C   UNL     1     106.023 106.115 103.874  1.00  0.00     0.021 C 
ATOM      4  C   UNL     1     105.332 107.111 102.912  1.00  0.00     0.009 C 
ATOM      5  C   UNL     1     104.096 106.430 102.277  1.00  0.00     0.035 C 
ATOM      6  C   UNL     1     103.906 105.010 102.884  1.00  0.00     0.066 C 
ATOM      7  O   UNL     1     105.053 104.214 102.580  1.00  0.00    -0.369 OA
ATOM      8  C   UNL     1     103.766 105.135 104.428  1.00  0.00     0.035 C 
ATOM      9  C   UNL     1     105.010 105.846 105.012  1.00  0.00     0.009 C 
ATOM     10  C   UNL     1     102.665 104.338 102.288  1.00  0.00     0.042 C 
ATOM     11  C   UNL     1     106.916 103.712 104.028  1.00  0.00     0.042 C 
ENDROOT
TORSDOF 0
ENDMDL
MODEL 9
REMARK VINA RESULT:    -4.339      2.054      3.751
REMARK INTER + INTRA:          -4.339
REMARK INTER:                  -4.339
REMARK INTRA:                   0.000
REMARK UNBOUND:                 0.000
REMARK SMILES CC1(C)O[C@]2(C)CC[C@H]1CC2
REMARK SMILES IDX 1 1 2 2 9 3 10 4 11 5 5 6 4 7 7 8 8 9 6 10 3 11
REMARK H PARENT
REMARK Flexibility Score: inf
ROOT
ATOM      1  C   UNL     1     104.663 104.889 104.166  1.00  0.00     0.042 C 
ATOM      2  C   UNL     1     104.777 105.977 103.076  1.00  0.00     0.066 C 
ATOM      3  C   UNL     1     104.508 107.407 103.686  1.00  0.00     0.021 C 
ATOM      4  C   UNL     1     105.606 107.707 104.735  1.00  0.00     0.009 C 
ATOM      5  C   UNL     1     106.996 107.470 104.097  1.00  0.00     0.035 C 
ATOM      6  C   UNL     1     106.831 107.099 102.595  1.00  0.00     0.066 C 
ATOM      7  O   UNL     1     106.084 105.886 102.491  1.00  0.00    -0.369 OA
ATOM      8  C   UNL     1     106.054 108.240 101.875  1.00  0.00     0.035 C 
ATOM      9  C   UNL     1     104.686 108.459 102.566  1.00  0.00     0.009 C 
ATOM     10  C   UNL     1     108.202 106.894 101.943  1.00  0.00     0.042 C 
ATOM     11  C   UNL     1     103.738 105.645 101.984  1.00  0.00     0.042 C 
ENDROOT
TORSDOF 0
ENDMDL
