MODEL 1
REMARK VINA RESULT:    -3.776      0.000      0.000
REMARK INTER + INTRA:          -4.473
REMARK INTER:                  -4.328
REMARK INTRA:                  -0.145
REMARK UNBOUND:                -0.145
REMARK SMILES O=C([O-])C=Cc1ccc(O)cc1
REMARK SMILES IDX 6 1 7 2 12 3 8 4 11 5 9 6 5 7 4 8 2 9 1 10 3 11 10 12
REMARK H PARENT 10 13
REMARK Flexibility Score: inf
ROOT
ATOM      1  C   UNL     1      71.635  41.378  21.705  1.00  0.00    -0.025 A 
ATOM      2  C   UNL     1      71.064  40.255  22.329  1.00  0.00     0.012 A 
ATOM      3  C   UNL     1      70.852  42.125  20.802  1.00  0.00     0.012 A 
ATOM      4  C   UNL     1      69.735  39.901  22.078  1.00  0.00     0.047 A 
ATOM      5  C   UNL     1      69.524  41.766  20.553  1.00  0.00     0.047 A 
ATOM      6  C   UNL     1      68.961  40.657  21.191  1.00  0.00     0.115 A 
ENDROOT
BRANCH   1   7
ATOM      7  C   UNL     1      73.052  41.707  21.996  1.00  0.00     0.010 C 
ATOM      8  C   UNL     1      74.024  40.790  22.107  1.00  0.00     0.025 C 
BRANCH   8   9
ATOM      9  C   UNL     1      75.422  41.155  22.385  1.00  0.00     0.064 C 
ATOM     10  O   UNL     1      76.071  41.900  21.603  1.00  0.00    -0.545 OA
ATOM     11  O   UNL     1      76.038  40.672  23.533  1.00  0.00    -0.545 OA
ENDBRANCH   8   9
ENDBRANCH   1   7
BRANCH   6  12
ATOM     12  O   UNL     1      67.636  40.315  20.933  1.00  0.00    -0.508 OA
ATOM     13  H   UNL     1      66.881  40.976  21.076  1.00  0.00     0.293 HD
ENDBRANCH   6  12
TORSDOF 3
ENDMDL
MODEL 2
REMARK VINA RESULT:    -3.510      1.360      1.697
REMARK INTER + INTRA:          -4.168
REMARK INTER:                  -4.022
REMARK INTRA:                  -0.147
REMARK UNBOUND:                -0.145
REMARK SMILES O=C([O-])C=Cc1ccc(O)cc1
REMARK SMILES IDX 6 1 7 2 12 3 8 4 11 5 9 6 5 7 4 8 2 9 1 10 3 11 10 12
REMARK H PARENT 10 13
REMARK Flexibility Score: inf
ROOT
ATOM      1  C   UNL     1      72.946  41.218  22.074  1.00  0.00    -0.025 A 
ATOM      2  C   UNL     1      72.708  39.884  21.702  1.00  0.00     0.012 A 
ATOM      3  C   UNL     1      71.844  42.067  22.303  1.00  0.00     0.012 A 
ATOM      4  C   UNL     1      71.402  39.400  21.586  1.00  0.00     0.047 A 
ATOM      5  C   UNL     1      70.539  41.579  22.185  1.00  0.00     0.047 A 
ATOM      6  C   UNL     1      70.314  40.246  21.829  1.00  0.00     0.115 A 
ENDROOT
BRANCH   1   7
ATOM      7  C   UNL     1      74.350  41.688  22.174  1.00  0.00     0.010 C 
ATOM      8  C   UNL     1      75.327  41.302  21.340  1.00  0.00     0.025 C 
BRANCH   8   9
ATOM      9  C   UNL     1      76.707  41.798  21.464  1.00  0.00     0.064 C 
ATOM     10  O   UNL     1      77.377  42.125  20.448  1.00  0.00    -0.545 OA
ATOM     11  O   UNL     1      77.282  41.909  22.724  1.00  0.00    -0.545 OA
ENDBRANCH   8   9
ENDBRANCH   1   7
BRANCH   6  12
ATOM     12  O   UNL     1      69.008  39.776  21.717  1.00  0.00    -0.508 OA
ATOM     13  H   UNL     1      68.750  38.848  22.036  1.00  0.00     0.293 HD
ENDBRANCH   6  12
TORSDOF 3
ENDMDL
MODEL 3
REMARK VINA RESULT:    -3.364      2.337      3.506
REMARK INTER + INTRA:          -4.001
REMARK INTER:                  -3.863
REMARK INTRA:                  -0.137
REMARK UNBOUND:                -0.145
REMARK SMILES O=C([O-])C=Cc1ccc(O)cc1
REMARK SMILES IDX 6 1 7 2 12 3 8 4 11 5 9 6 5 7 4 8 2 9 1 10 3 11 10 12
REMARK H PARENT 10 13
REMARK Flexibility Score: inf
ROOT
ATOM      1  C   UNL     1      74.190  40.858  21.339  1.00  0.00    -0.025 A 
ATOM      2  C   UNL     1      73.524  41.967  21.887  1.00  0.00     0.012 A 
ATOM      3  C   UNL     1      73.528  39.613  21.311  1.00  0.00     0.012 A 
ATOM      4  C   UNL     1      72.219  41.845  22.373  1.00  0.00     0.047 A 
ATOM      5  C   UNL     1      72.223  39.495  21.799  1.00  0.00     0.047 A 
ATOM      6  C   UNL     1      71.565  40.608  22.329  1.00  0.00     0.115 A 
ENDROOT
BRANCH   1   7
ATOM      7  C   UNL     1      75.578  41.036  20.845  1.00  0.00     0.010 C 
ATOM      8  C   UNL     1      75.885  41.625  19.680  1.00  0.00     0.025 C 
BRANCH   8   9
ATOM      9  C   UNL     1      77.275  41.794  19.227  1.00  0.00     0.064 C 
ATOM     10  O   UNL     1      78.236  41.767  20.043  1.00  0.00    -0.545 OA
ATOM     11  O   UNL     1      77.535  41.984  17.876  1.00  0.00    -0.545 OA
ENDBRANCH   8   9
ENDBRANCH   1   7
BRANCH   6  12
ATOM     12  O   UNL     1      70.264  40.474  22.809  1.00  0.00    -0.508 OA
ATOM     13  H   UNL     1      69.972  40.914  23.675  1.00  0.00     0.293 HD
ENDBRANCH   6  12
TORSDOF 3
ENDMDL
MODEL 4
REMARK VINA RESULT:    -3.182      2.288      6.138
REMARK INTER + INTRA:          -3.792
REMARK INTER:                  -3.650
REMARK INTRA:                  -0.142
REMARK UNBOUND:                -0.145
REMARK SMILES O=C([O-])C=Cc1ccc(O)cc1
REMARK SMILES IDX 6 1 7 2 12 3 8 4 11 5 9 6 5 7 4 8 2 9 1 10 3 11 10 12
REMARK H PARENT 10 13
REMARK Flexibility Score: inf
ROOT
ATOM      1  C   UNL     1      74.605  41.277  21.234  1.00  0.00    -0.025 A 
ATOM      2  C   UNL     1      74.804  40.949  19.882  1.00  0.00     0.012 A 
ATOM      3  C   UNL     1      75.686  41.801  21.972  1.00  0.00     0.012 A 
ATOM      4  C   UNL     1      76.044  41.161  19.273  1.00  0.00     0.047 A 
ATOM      5  C   UNL     1      76.925  42.011  21.359  1.00  0.00     0.047 A 
ATOM      6  C   UNL     1      77.108  41.695  20.011  1.00  0.00     0.115 A 
ENDROOT
BRANCH   1   7
ATOM      7  C   UNL     1      73.274  41.024  21.838  1.00  0.00     0.010 C 
ATOM      8  C   UNL     1      72.128  41.529  21.357  1.00  0.00     0.025 C 
BRANCH   8   9
ATOM      9  C   UNL     1      70.824  41.247  21.977  1.00  0.00     0.064 C 
ATOM     10  O   UNL     1      70.649  40.226  22.695  1.00  0.00    -0.545 OA
ATOM     11  O   UNL     1      69.766  42.122  21.769  1.00  0.00    -0.545 OA
ENDBRANCH   8   9
ENDBRANCH   1   7
BRANCH   6  12
ATOM     12  O   UNL     1      78.348  41.912  19.415  1.00  0.00    -0.508 OA
ATOM     13  H   UNL     1      79.151  42.210  19.957  1.00  0.00     0.293 HD
ENDBRANCH   6  12
TORSDOF 3
ENDMDL
MODEL 5
REMARK VINA RESULT:    -3.143      2.152      6.031
REMARK INTER + INTRA:          -3.748
REMARK INTER:                  -3.610
REMARK INTRA:                  -0.138
REMARK UNBOUND:                -0.145
REMARK SMILES O=C([O-])C=Cc1ccc(O)cc1
REMARK SMILES IDX 6 1 7 2 12 3 8 4 11 5 9 6 5 7 4 8 2 9 1 10 3 11 10 12
REMARK H PARENT 10 13
REMARK Flexibility Score: inf
ROOT
ATOM      1  C   UNL     1      74.320  40.977  21.111  1.00  0.00    -0.025 A 
ATOM      2  C   UNL     1      75.194  41.783  21.861  1.00  0.00     0.012 A 
ATOM      3  C   UNL     1      74.751  40.488  19.860  1.00  0.00     0.012 A 
ATOM      4  C   UNL     1      76.476  42.074  21.388  1.00  0.00     0.047 A 
ATOM      5  C   UNL     1      76.035  40.783  19.390  1.00  0.00     0.047 A 
ATOM      6  C   UNL     1      76.901  41.573  20.151  1.00  0.00     0.115 A 
ENDROOT
BRANCH   1   7
ATOM      7  C   UNL     1      72.966  40.703  21.651  1.00  0.00     0.010 C 
ATOM      8  C   UNL     1      71.901  41.487  21.427  1.00  0.00     0.025 C 
BRANCH   8   9
ATOM      9  C   UNL     1      70.569  41.178  21.971  1.00  0.00     0.064 C 
ATOM     10  O   UNL     1      70.386  40.186  22.726  1.00  0.00    -0.545 OA
ATOM     11  O   UNL     1      69.494  41.996  21.649  1.00  0.00    -0.545 OA
ENDBRANCH   8   9
ENDBRANCH   1   7
BRANCH   6  12
ATOM     12  O   UNL     1      78.176  41.856  19.669  1.00  0.00    -0.508 OA
ATOM     13  H   UNL     1      78.438  41.650  18.712  1.00  0.00     0.293 HD
ENDBRANCH   6  12
TORSDOF 3
ENDMDL
MODEL 6
REMARK VINA RESULT:    -3.065      2.162      2.354
REMARK INTER + INTRA:          -3.659
REMARK INTER:                  -3.520
REMARK INTRA:                  -0.138
REMARK UNBOUND:                -0.145
REMARK SMILES O=C([O-])C=Cc1ccc(O)cc1
REMARK SMILES IDX 6 1 7 2 12 3 8 4 11 5 9 6 5 7 4 8 2 9 1 10 3 11 10 12
REMARK H PARENT 10 13
REMARK Flexibility Score: inf
ROOT
ATOM      1  C   UNL     1      71.525  41.000  20.256  1.00  0.00    -0.025 A 
ATOM      2  C   UNL     1      70.901  40.371  21.347  1.00  0.00     0.012 A 
ATOM      3  C   UNL     1      70.732  41.729  19.347  1.00  0.00     0.012 A 
ATOM      4  C   UNL     1      69.521  40.487  21.541  1.00  0.00     0.047 A 
ATOM      5  C   UNL     1      69.352  41.842  19.545  1.00  0.00     0.047 A 
ATOM      6  C   UNL     1      68.744  41.225  20.641  1.00  0.00     0.115 A 
ENDROOT
BRANCH   1   7
ATOM      7  C   UNL     1      72.990  40.840  20.088  1.00  0.00     0.010 C 
ATOM      8  C   UNL     1      73.562  39.774  19.509  1.00  0.00     0.025 C 
BRANCH   8   9
ATOM      9  C   UNL     1      75.020  39.654  19.350  1.00  0.00     0.064 C 
ATOM     10  O   UNL     1      75.801  40.533  19.804  1.00  0.00    -0.545 OA
ATOM     11  O   UNL     1      75.546  38.552  18.688  1.00  0.00    -0.545 OA
ENDBRANCH   8   9
ENDBRANCH   1   7
BRANCH   6  12
ATOM     12  O   UNL     1      67.368  41.348  20.824  1.00  0.00    -0.508 OA
ATOM     13  H   UNL     1      66.720  40.665  20.446  1.00  0.00     0.293 HD
ENDBRANCH   6  12
TORSDOF 3
ENDMDL
MODEL 7
REMARK VINA RESULT:    -2.968      1.448      2.271
REMARK INTER + INTRA:          -3.548
REMARK INTER:                  -3.409
REMARK INTRA:                  -0.138
REMARK UNBOUND:                -0.145
REMARK SMILES O=C([O-])C=Cc1ccc(O)cc1
REMARK SMILES IDX 6 1 7 2 12 3 8 4 11 5 9 6 5 7 4 8 2 9 1 10 3 11 10 12
REMARK H PARENT 10 13
REMARK Flexibility Score: inf
ROOT
ATOM      1  C   UNL     1      70.462  41.490  20.466  1.00  0.00    -0.025 A 
ATOM      2  C   UNL     1      70.081  41.956  19.197  1.00  0.00     0.012 A 
ATOM      3  C   UNL     1      69.479  40.935  21.310  1.00  0.00     0.012 A 
ATOM      4  C   UNL     1      68.754  41.849  18.768  1.00  0.00     0.047 A 
ATOM      5  C   UNL     1      68.153  40.831  20.878  1.00  0.00     0.047 A 
ATOM      6  C   UNL     1      67.787  41.284  19.608  1.00  0.00     0.115 A 
ENDROOT
BRANCH   1   7
ATOM      7  C   UNL     1      71.880  41.635  20.879  1.00  0.00     0.010 C 
ATOM      8  C   UNL     1      72.480  40.843  21.780  1.00  0.00     0.025 C 
BRANCH   8   9
ATOM      9  C   UNL     1      73.892  41.009  22.157  1.00  0.00     0.064 C 
ATOM     10  O   UNL     1      74.471  42.123  22.043  1.00  0.00    -0.545 OA
ATOM     11  O   UNL     1      74.600  39.921  22.649  1.00  0.00    -0.545 OA
ENDBRANCH   8   9
ENDBRANCH   1   7
BRANCH   6  12
ATOM     12  O   UNL     1      66.463  41.172  19.192  1.00  0.00    -0.508 OA
ATOM     13  H   UNL     1      66.123  41.658  18.370  1.00  0.00     0.293 HD
ENDBRANCH   6  12
TORSDOF 3
ENDMDL
