MODEL 1
REMARK VINA RESULT:    -3.589      0.000      0.000
REMARK INTER + INTRA:         -14.156
REMARK INTER:                  -9.464
REMARK INTRA:                  -4.692
REMARK UNBOUND:                -4.692
REMARK SMILES CCCCCCCCCCCCCCCCCCCCCCCCCCCCCC(=O)[O-]
REMARK SMILES IDX 16 1 17 2 18 3 19 4 20 5 21 6 22 7 23 8 24 9 25 10 26 11
REMARK SMILES IDX 27 12 28 13 29 14 30 15 31 16 32 17 15 18 14 19 13 20 12 21
REMARK SMILES IDX 11 22 10 23 9 24 8 25 7 26 6 27 5 28 4 29 3 30 2 31 1 32
REMARK H PARENT
REMARK Flexibility Score: inf
ROOT
ATOM      1  C   UNL     1      58.490  23.660  52.973  1.00  0.00     0.000 C 
ENDROOT
BRANCH   1   2
ATOM      2  C   UNL     1      59.041  22.221  52.960  1.00  0.00     0.000 C 
BRANCH   2   3
ATOM      3  C   UNL     1      57.931  21.155  53.003  1.00  0.00     0.000 C 
BRANCH   3   4
ATOM      4  C   UNL     1      58.394  19.741  53.402  1.00  0.00     0.000 C 
BRANCH   4   5
ATOM      5  C   UNL     1      57.366  18.653  53.046  1.00  0.00     0.000 C 
BRANCH   5   6
ATOM      6  C   UNL     1      56.361  19.108  51.971  1.00  0.00     0.000 C 
BRANCH   6   7
ATOM      7  C   UNL     1      56.652  18.607  50.542  1.00  0.00     0.000 C 
BRANCH   7   8
ATOM      8  C   UNL     1      57.812  17.598  50.419  1.00  0.00     0.000 C 
BRANCH   8   9
ATOM      9  C   UNL     1      59.073  18.134  49.716  1.00  0.00     0.000 C 
BRANCH   9  10
ATOM     10  C   UNL     1      59.064  19.664  49.555  1.00  0.00     0.000 C 
BRANCH  10  11
ATOM     11  C   UNL     1      60.344  20.321  50.096  1.00  0.00     0.000 C 
BRANCH  11  12
ATOM     12  C   UNL     1      60.697  21.625  49.362  1.00  0.00     0.000 C 
BRANCH  12  13
ATOM     13  C   UNL     1      61.772  22.452  50.089  1.00  0.00     0.006 C 
BRANCH  13  14
ATOM     14  C   UNL     1      62.285  21.803  51.388  1.00  0.00     0.053 C 
BRANCH  14  15
ATOM     15  C   UNL     1      62.902  22.798  52.324  1.00  0.00     0.041 C 
ATOM     16  O   UNL     1      62.466  22.921  53.499  1.00  0.00    -0.550 OA
ATOM     17  O   UNL     1      63.934  23.618  51.885  1.00  0.00    -0.550 OA
ENDBRANCH  14  15
ENDBRANCH  13  14
ENDBRANCH  12  13
ENDBRANCH  11  12
ENDBRANCH  10  11
ENDBRANCH   9  10
ENDBRANCH   8   9
ENDBRANCH   7   8
ENDBRANCH   6   7
ENDBRANCH   5   6
ENDBRANCH   4   5
ENDBRANCH   3   4
ENDBRANCH   2   3
ENDBRANCH   1   2
BRANCH   1  18
ATOM     18  C   UNL     1      59.423  24.649  52.251  1.00  0.00     0.000 C 
BRANCH  18  19
ATOM     19  C   UNL     1      59.139  24.788  50.742  1.00  0.00     0.000 C 
BRANCH  19  20
ATOM     20  C   UNL     1      60.047  25.830  50.063  1.00  0.00     0.000 C 
BRANCH  20  21
ATOM     21  C   UNL     1      59.241  26.892  49.283  1.00  0.00     0.000 C 
BRANCH  21  22
ATOM     22  C   UNL     1      59.611  28.345  49.629  1.00  0.00     0.000 C 
BRANCH  22  23
ATOM     23  C   UNL     1      58.383  29.219  49.931  1.00  0.00     0.000 C 
BRANCH  23  24
ATOM     24  C   UNL     1      58.436  29.870  51.325  1.00  0.00    -0.000 C 
BRANCH  24  25
ATOM     25  C   UNL     1      57.183  29.657  52.198  1.00  0.00    -0.000 C 
BRANCH  25  26
ATOM     26  C   UNL     1      56.204  28.623  51.607  1.00  0.00    -0.000 C 
BRANCH  26  27
ATOM     27  C   UNL     1      56.330  27.238  52.274  1.00  0.00    -0.000 C 
BRANCH  27  28
ATOM     28  C   UNL     1      55.906  26.059  51.373  1.00  0.00    -0.000 C 
BRANCH  28  29
ATOM     29  C   UNL     1      55.565  26.429  49.917  1.00  0.00    -0.000 C 
BRANCH  29  30
ATOM     30  C   UNL     1      54.299  25.731  49.367  1.00  0.00    -0.000 C 
BRANCH  30  31
ATOM     31  C   UNL     1      53.113  26.683  49.151  1.00  0.00    -0.003 C 
ATOM     32  C   UNL     1      52.885  27.628  50.328  1.00  0.00     0.004 C 
ENDBRANCH  30  31
ENDBRANCH  29  30
ENDBRANCH  28  29
ENDBRANCH  27  28
ENDBRANCH  26  27
ENDBRANCH  25  26
ENDBRANCH  24  25
ENDBRANCH  23  24
ENDBRANCH  22  23
ENDBRANCH  21  22
ENDBRANCH  20  21
ENDBRANCH  19  20
ENDBRANCH  18  19
ENDBRANCH   1  18
TORSDOF 28
ENDMDL
MODEL 2
REMARK VINA RESULT:    -3.342      2.301      8.148
REMARK INTER + INTRA:         -13.505
REMARK INTER:                  -8.625
REMARK INTRA:                  -4.879
REMARK UNBOUND:                -4.692
REMARK SMILES CCCCCCCCCCCCCCCCCCCCCCCCCCCCCC(=O)[O-]
REMARK SMILES IDX 16 1 17 2 18 3 19 4 20 5 21 6 22 7 23 8 24 9 25 10 26 11
REMARK SMILES IDX 27 12 28 13 29 14 30 15 31 16 32 17 15 18 14 19 13 20 12 21
REMARK SMILES IDX 11 22 10 23 9 24 8 25 7 26 6 27 5 28 4 29 3 30 2 31 1 32
REMARK H PARENT
REMARK Flexibility Score: inf
ROOT
ATOM      1  C   UNL     1      61.592  24.136  50.329  1.00  0.00     0.000 C 
ENDROOT
BRANCH   1   2
ATOM      2  C   UNL     1      60.352  24.554  51.143  1.00  0.00     0.000 C 
BRANCH   2   3
ATOM      3  C   UNL     1      59.289  25.271  50.290  1.00  0.00     0.000 C 
BRANCH   3   4
ATOM      4  C   UNL     1      58.032  25.728  51.053  1.00  0.00     0.000 C 
BRANCH   4   5
ATOM      5  C   UNL     1      57.135  26.662  50.222  1.00  0.00     0.000 C 
BRANCH   5   6
ATOM      6  C   UNL     1      56.712  27.927  50.994  1.00  0.00     0.000 C 
BRANCH   6   7
ATOM      7  C   UNL     1      57.426  29.226  50.569  1.00  0.00     0.000 C 
BRANCH   7   8
ATOM      8  C   UNL     1      58.581  29.048  49.562  1.00  0.00     0.000 C 
BRANCH   8   9
ATOM      9  C   UNL     1      59.961  29.511  50.064  1.00  0.00     0.000 C 
BRANCH   9  10
ATOM     10  C   UNL     1      60.486  28.666  51.237  1.00  0.00     0.000 C 
BRANCH  10  11
ATOM     11  C   UNL     1      61.841  28.008  50.930  1.00  0.00     0.000 C 
BRANCH  11  12
ATOM     12  C   UNL     1      62.029  27.708  49.433  1.00  0.00     0.000 C 
BRANCH  12  13
ATOM     13  C   UNL     1      63.405  28.144  48.901  1.00  0.00     0.006 C 
BRANCH  13  14
ATOM     14  C   UNL     1      64.467  28.334  49.999  1.00  0.00     0.053 C 
BRANCH  14  15
ATOM     15  C   UNL     1      65.737  27.595  49.707  1.00  0.00     0.041 C 
ATOM     16  O   UNL     1      65.702  26.472  49.138  1.00  0.00    -0.550 OA
ATOM     17  O   UNL     1      66.958  28.128  50.099  1.00  0.00    -0.550 OA
ENDBRANCH  14  15
ENDBRANCH  13  14
ENDBRANCH  12  13
ENDBRANCH  11  12
ENDBRANCH  10  11
ENDBRANCH   9  10
ENDBRANCH   8   9
ENDBRANCH   7   8
ENDBRANCH   6   7
ENDBRANCH   5   6
ENDBRANCH   4   5
ENDBRANCH   3   4
ENDBRANCH   2   3
ENDBRANCH   1   2
BRANCH   1  18
ATOM     18  C   UNL     1      61.842  22.618  50.386  1.00  0.00     0.000 C 
BRANCH  18  19
ATOM     19  C   UNL     1      60.911  21.796  49.473  1.00  0.00     0.000 C 
BRANCH  19  20
ATOM     20  C   UNL     1      60.683  20.365  49.994  1.00  0.00     0.000 C 
BRANCH  20  21
ATOM     21  C   UNL     1      59.297  19.810  49.601  1.00  0.00     0.000 C 
BRANCH  21  22
ATOM     22  C   UNL     1      59.194  18.276  49.648  1.00  0.00     0.000 C 
BRANCH  22  23
ATOM     23  C   UNL     1      57.849  17.782  50.204  1.00  0.00     0.000 C 
BRANCH  23  24
ATOM     24  C   UNL     1      56.980  18.918  50.774  1.00  0.00    -0.000 C 
BRANCH  24  25
ATOM     25  C   UNL     1      56.571  18.754  52.251  1.00  0.00    -0.000 C 
BRANCH  25  26
ATOM     26  C   UNL     1      57.640  18.036  53.098  1.00  0.00    -0.000 C 
BRANCH  26  27
ATOM     27  C   UNL     1      57.816  18.670  54.493  1.00  0.00    -0.000 C 
BRANCH  27  28
ATOM     28  C   UNL     1      59.233  19.214  54.769  1.00  0.00    -0.000 C 
BRANCH  28  29
ATOM     29  C   UNL     1      59.975  19.780  53.543  1.00  0.00    -0.000 C 
BRANCH  29  30
ATOM     30  C   UNL     1      59.904  21.319  53.415  1.00  0.00    -0.000 C 
BRANCH  30  31
ATOM     31  C   UNL     1      58.647  21.821  52.688  1.00  0.00    -0.003 C 
ATOM     32  C   UNL     1      57.805  22.770  53.537  1.00  0.00     0.004 C 
ENDBRANCH  30  31
ENDBRANCH  29  30
ENDBRANCH  28  29
ENDBRANCH  27  28
ENDBRANCH  26  27
ENDBRANCH  25  26
ENDBRANCH  24  25
ENDBRANCH  23  24
ENDBRANCH  22  23
ENDBRANCH  21  22
ENDBRANCH  20  21
ENDBRANCH  19  20
ENDBRANCH  18  19
ENDBRANCH   1  18
TORSDOF 28
ENDMDL
MODEL 3
REMARK VINA RESULT:    -3.300     10.874     13.940
REMARK INTER + INTRA:         -13.395
REMARK INTER:                  -7.830
REMARK INTRA:                  -5.565
REMARK UNBOUND:                -4.692
REMARK SMILES CCCCCCCCCCCCCCCCCCCCCCCCCCCCCC(=O)[O-]
REMARK SMILES IDX 16 1 17 2 18 3 19 4 20 5 21 6 22 7 23 8 24 9 25 10 26 11
REMARK SMILES IDX 27 12 28 13 29 14 30 15 31 16 32 17 15 18 14 19 13 20 12 21
REMARK SMILES IDX 11 22 10 23 9 24 8 25 7 26 6 27 5 28 4 29 3 30 2 31 1 32
REMARK H PARENT
REMARK Flexibility Score: inf
ROOT
ATOM      1  C   UNL     1      60.873  28.520  60.076  1.00  0.00     0.000 C 
ENDROOT
BRANCH   1   2
ATOM      2  C   UNL     1      61.524  28.290  58.699  1.00  0.00     0.000 C 
BRANCH   2   3
ATOM      3  C   UNL     1      62.922  27.652  58.797  1.00  0.00     0.000 C 
BRANCH   3   4
ATOM      4  C   UNL     1      64.002  28.296  57.908  1.00  0.00     0.000 C 
BRANCH   4   5
ATOM      5  C   UNL     1      65.415  28.180  58.504  1.00  0.00     0.000 C 
BRANCH   5   6
ATOM      6  C   UNL     1      65.407  28.043  60.039  1.00  0.00     0.000 C 
BRANCH   6   7
ATOM      7  C   UNL     1      66.377  28.980  60.788  1.00  0.00     0.000 C 
BRANCH   7   8
ATOM      8  C   UNL     1      67.584  28.289  61.454  1.00  0.00     0.000 C 
BRANCH   8   9
ATOM      9  C   UNL     1      68.805  28.084  60.540  1.00  0.00     0.000 C 
BRANCH   9  10
ATOM     10  C   UNL     1      69.738  29.306  60.502  1.00  0.00     0.000 C 
BRANCH  10  11
ATOM     11  C   UNL     1      70.107  29.722  59.069  1.00  0.00     0.000 C 
BRANCH  11  12
ATOM     12  C   UNL     1      68.874  30.060  58.214  1.00  0.00     0.000 C 
BRANCH  12  13
ATOM     13  C   UNL     1      68.833  31.534  57.774  1.00  0.00     0.006 C 
BRANCH  13  14
ATOM     14  C   UNL     1      70.218  32.132  57.470  1.00  0.00     0.053 C 
BRANCH  14  15
ATOM     15  C   UNL     1      70.536  33.317  58.330  1.00  0.00     0.041 C 
ATOM     16  O   UNL     1      70.139  34.466  58.002  1.00  0.00    -0.550 OA
ATOM     17  O   UNL     1      71.305  33.157  59.477  1.00  0.00    -0.550 OA
ENDBRANCH  14  15
ENDBRANCH  13  14
ENDBRANCH  12  13
ENDBRANCH  11  12
ENDBRANCH  10  11
ENDBRANCH   9  10
ENDBRANCH   8   9
ENDBRANCH   7   8
ENDBRANCH   6   7
ENDBRANCH   5   6
ENDBRANCH   4   5
ENDBRANCH   3   4
ENDBRANCH   2   3
ENDBRANCH   1   2
BRANCH   1  18
ATOM     18  C   UNL     1      61.917  28.724  61.189  1.00  0.00     0.000 C 
BRANCH  18  19
ATOM     19  C   UNL     1      61.827  30.096  61.886  1.00  0.00     0.000 C 
BRANCH  19  20
ATOM     20  C   UNL     1      60.764  31.013  61.254  1.00  0.00     0.000 C 
BRANCH  20  21
ATOM     21  C   UNL     1      61.386  32.250  60.570  1.00  0.00     0.000 C 
BRANCH  21  22
ATOM     22  C   UNL     1      61.312  32.226  59.034  1.00  0.00     0.000 C 
BRANCH  22  23
ATOM     23  C   UNL     1      62.626  31.774  58.377  1.00  0.00     0.000 C 
BRANCH  23  24
ATOM     24  C   UNL     1      63.764  31.565  59.392  1.00  0.00    -0.000 C 
BRANCH  24  25
ATOM     25  C   UNL     1      65.180  31.876  58.864  1.00  0.00    -0.000 C 
BRANCH  25  26
ATOM     26  C   UNL     1      65.173  32.552  57.480  1.00  0.00    -0.000 C 
BRANCH  26  27
ATOM     27  C   UNL     1      65.580  34.039  57.544  1.00  0.00    -0.000 C 
BRANCH  27  28
ATOM     28  C   UNL     1      64.398  35.013  57.734  1.00  0.00    -0.000 C 
BRANCH  28  29
ATOM     29  C   UNL     1      64.621  36.131  58.770  1.00  0.00    -0.000 C 
BRANCH  29  30
ATOM     30  C   UNL     1      65.016  35.621  60.175  1.00  0.00    -0.000 C 
BRANCH  30  31
ATOM     31  C   UNL     1      63.868  34.932  60.928  1.00  0.00    -0.003 C 
ATOM     32  C   UNL     1      62.587  35.761  60.950  1.00  0.00     0.004 C 
ENDBRANCH  30  31
ENDBRANCH  29  30
ENDBRANCH  28  29
ENDBRANCH  27  28
ENDBRANCH  26  27
ENDBRANCH  25  26
ENDBRANCH  24  25
ENDBRANCH  23  24
ENDBRANCH  22  23
ENDBRANCH  21  22
ENDBRANCH  20  21
ENDBRANCH  19  20
ENDBRANCH  18  19
ENDBRANCH   1  18
TORSDOF 28
ENDMDL
MODEL 4
REMARK VINA RESULT:    -3.275      8.937     12.200
REMARK INTER + INTRA:         -13.328
REMARK INTER:                  -7.416
REMARK INTRA:                  -5.912
REMARK UNBOUND:                -4.692
REMARK SMILES CCCCCCCCCCCCCCCCCCCCCCCCCCCCCC(=O)[O-]
REMARK SMILES IDX 16 1 17 2 18 3 19 4 20 5 21 6 22 7 23 8 24 9 25 10 26 11
REMARK SMILES IDX 27 12 28 13 29 14 30 15 31 16 32 17 15 18 14 19 13 20 12 21
REMARK SMILES IDX 11 22 10 23 9 24 8 25 7 26 6 27 5 28 4 29 3 30 2 31 1 32
REMARK H PARENT
REMARK Flexibility Score: inf
ROOT
ATOM      1  C   UNL     1      64.044  29.413  60.733  1.00  0.00     0.000 C 
ENDROOT
BRANCH   1   2
ATOM      2  C   UNL     1      63.377  30.539  61.548  1.00  0.00     0.000 C 
BRANCH   2   3
ATOM      3  C   UNL     1      61.852  30.369  61.669  1.00  0.00     0.000 C 
BRANCH   3   4
ATOM      4  C   UNL     1      61.012  31.414  60.913  1.00  0.00     0.000 C 
BRANCH   4   5
ATOM      5  C   UNL     1      60.420  30.871  59.601  1.00  0.00     0.000 C 
BRANCH   5   6
ATOM      6  C   UNL     1      59.831  31.979  58.706  1.00  0.00     0.000 C 
BRANCH   6   7
ATOM      7  C   UNL     1      58.656  31.544  57.808  1.00  0.00     0.000 C 
BRANCH   7   8
ATOM      8  C   UNL     1      59.025  30.594  56.650  1.00  0.00     0.000 C 
BRANCH   8   9
ATOM      9  C   UNL     1      58.474  29.162  56.780  1.00  0.00     0.000 C 
BRANCH   9  10
ATOM     10  C   UNL     1      59.532  28.154  57.259  1.00  0.00     0.000 C 
BRANCH  10  11
ATOM     11  C   UNL     1      59.010  27.238  58.377  1.00  0.00     0.000 C 
BRANCH  11  12
ATOM     12  C   UNL     1      58.283  28.013  59.488  1.00  0.00     0.000 C 
BRANCH  12  13
ATOM     13  C   UNL     1      58.962  27.874  60.862  1.00  0.00     0.006 C 
BRANCH  13  14
ATOM     14  C   UNL     1      58.762  26.496  61.519  1.00  0.00     0.053 C 
BRANCH  14  15
ATOM     15  C   UNL     1      60.055  25.866  61.939  1.00  0.00     0.041 C 
ATOM     16  O   UNL     1      60.318  25.707  63.161  1.00  0.00    -0.550 OA
ATOM     17  O   UNL     1      60.989  25.489  60.981  1.00  0.00    -0.550 OA
ENDBRANCH  14  15
ENDBRANCH  13  14
ENDBRANCH  12  13
ENDBRANCH  11  12
ENDBRANCH  10  11
ENDBRANCH   9  10
ENDBRANCH   8   9
ENDBRANCH   7   8
ENDBRANCH   6   7
ENDBRANCH   5   6
ENDBRANCH   4   5
ENDBRANCH   3   4
ENDBRANCH   2   3
ENDBRANCH   1   2
BRANCH   1  18
ATOM     18  C   UNL     1      63.073  28.256  60.435  1.00  0.00     0.000 C 
BRANCH  18  19
ATOM     19  C   UNL     1      62.806  28.036  58.933  1.00  0.00     0.000 C 
BRANCH  19  20
ATOM     20  C   UNL     1      63.638  28.975  58.040  1.00  0.00     0.000 C 
BRANCH  20  21
ATOM     21  C   UNL     1      62.798  29.607  56.909  1.00  0.00     0.000 C 
BRANCH  21  22
ATOM     22  C   UNL     1      62.841  31.145  56.874  1.00  0.00     0.000 C 
BRANCH  22  23
ATOM     23  C   UNL     1      63.963  31.732  57.746  1.00  0.00     0.000 C 
BRANCH  23  24
ATOM     24  C   UNL     1      63.519  32.971  58.544  1.00  0.00    -0.000 C 
BRANCH  24  25
ATOM     25  C   UNL     1      64.433  33.354  59.725  1.00  0.00    -0.000 C 
BRANCH  25  26
ATOM     26  C   UNL     1      63.740  34.267  60.755  1.00  0.00    -0.000 C 
BRANCH  26  27
ATOM     27  C   UNL     1      62.255  34.517  60.421  1.00  0.00    -0.000 C 
BRANCH  27  28
ATOM     28  C   UNL     1      61.809  35.986  60.577  1.00  0.00    -0.000 C 
BRANCH  28  29
ATOM     29  C   UNL     1      60.367  36.291  60.127  1.00  0.00    -0.000 C 
BRANCH  29  30
ATOM     30  C   UNL     1      60.202  36.447  58.597  1.00  0.00    -0.000 C 
BRANCH  30  31
ATOM     31  C   UNL     1      58.755  36.277  58.111  1.00  0.00    -0.003 C 
ATOM     32  C   UNL     1      58.575  35.084  57.176  1.00  0.00     0.004 C 
ENDBRANCH  30  31
ENDBRANCH  29  30
ENDBRANCH  28  29
ENDBRANCH  27  28
ENDBRANCH  26  27
ENDBRANCH  25  26
ENDBRANCH  24  25
ENDBRANCH  23  24
ENDBRANCH  22  23
ENDBRANCH  21  22
ENDBRANCH  20  21
ENDBRANCH  19  20
ENDBRANCH  18  19
ENDBRANCH   1  18
TORSDOF 28
ENDMDL
MODEL 5
REMARK VINA RESULT:    -3.265      3.592      6.065
REMARK INTER + INTRA:         -13.303
REMARK INTER:                  -7.089
REMARK INTRA:                  -6.214
REMARK UNBOUND:                -4.692
REMARK SMILES CCCCCCCCCCCCCCCCCCCCCCCCCCCCCC(=O)[O-]
REMARK SMILES IDX 16 1 17 2 18 3 19 4 20 5 21 6 22 7 23 8 24 9 25 10 26 11
REMARK SMILES IDX 27 12 28 13 29 14 30 15 31 16 32 17 15 18 14 19 13 20 12 21
REMARK SMILES IDX 11 22 10 23 9 24 8 25 7 26 6 27 5 28 4 29 3 30 2 31 1 32
REMARK H PARENT
REMARK Flexibility Score: inf
ROOT
ATOM      1  C   UNL     1      58.352  27.729  49.788  1.00  0.00     0.000 C 
ENDROOT
BRANCH   1   2
ATOM      2  C   UNL     1      58.782  29.196  49.602  1.00  0.00     0.000 C 
BRANCH   2   3
ATOM      3  C   UNL     1      59.906  29.618  50.567  1.00  0.00     0.000 C 
BRANCH   3   4
ATOM      4  C   UNL     1      59.612  29.386  52.060  1.00  0.00     0.000 C 
BRANCH   4   5
ATOM      5  C   UNL     1      60.827  28.842  52.832  1.00  0.00     0.000 C 
BRANCH   5   6
ATOM      6  C   UNL     1      60.510  27.556  53.619  1.00  0.00     0.000 C 
BRANCH   6   7
ATOM      7  C   UNL     1      59.167  26.884  53.267  1.00  0.00     0.000 C 
BRANCH   7   8
ATOM      8  C   UNL     1      59.080  25.376  53.578  1.00  0.00     0.000 C 
BRANCH   8   9
ATOM      9  C   UNL     1      59.009  24.458  52.344  1.00  0.00     0.000 C 
BRANCH   9  10
ATOM     10  C   UNL     1      60.381  24.233  51.685  1.00  0.00     0.000 C 
BRANCH  10  11
ATOM     11  C   UNL     1      60.424  24.728  50.231  1.00  0.00     0.000 C 
BRANCH  11  12
ATOM     12  C   UNL     1      61.248  26.016  50.066  1.00  0.00     0.000 C 
BRANCH  12  13
ATOM     13  C   UNL     1      62.568  25.989  50.856  1.00  0.00     0.006 C 
BRANCH  13  14
ATOM     14  C   UNL     1      63.379  27.295  50.761  1.00  0.00     0.053 C 
BRANCH  14  15
ATOM     15  C   UNL     1      64.168  27.391  49.491  1.00  0.00     0.041 C 
ATOM     16  O   UNL     1      63.743  28.084  48.529  1.00  0.00    -0.550 OA
ATOM     17  O   UNL     1      65.356  26.682  49.355  1.00  0.00    -0.550 OA
ENDBRANCH  14  15
ENDBRANCH  13  14
ENDBRANCH  12  13
ENDBRANCH  11  12
ENDBRANCH  10  11
ENDBRANCH   9  10
ENDBRANCH   8   9
ENDBRANCH   7   8
ENDBRANCH   6   7
ENDBRANCH   5   6
ENDBRANCH   4   5
ENDBRANCH   3   4
ENDBRANCH   2   3
ENDBRANCH   1   2
BRANCH   1  18
ATOM     18  C   UNL     1      56.889  27.604  50.253  1.00  0.00     0.000 C 
BRANCH  18  19
ATOM     19  C   UNL     1      56.436  26.153  50.509  1.00  0.00     0.000 C 
BRANCH  19  20
ATOM     20  C   UNL     1      54.936  25.943  50.231  1.00  0.00     0.000 C 
BRANCH  20  21
ATOM     21  C   UNL     1      54.278  27.185  49.591  1.00  0.00     0.000 C 
BRANCH  21  22
ATOM     22  C   UNL     1      53.146  27.803  50.430  1.00  0.00     0.000 C 
BRANCH  22  23
ATOM     23  C   UNL     1      52.927  29.295  50.134  1.00  0.00     0.000 C 
BRANCH  23  24
ATOM     24  C   UNL     1      53.998  30.199  50.771  1.00  0.00    -0.000 C 
BRANCH  24  25
ATOM     25  C   UNL     1      54.269  29.941  52.267  1.00  0.00    -0.000 C 
BRANCH  25  26
ATOM     26  C   UNL     1      55.768  29.785  52.591  1.00  0.00    -0.000 C 
BRANCH  26  27
ATOM     27  C   UNL     1      56.033  28.706  53.661  1.00  0.00    -0.000 C 
BRANCH  27  28
ATOM     28  C   UNL     1      55.038  27.527  53.633  1.00  0.00    -0.000 C 
BRANCH  28  29
ATOM     29  C   UNL     1      55.377  26.352  54.570  1.00  0.00    -0.000 C 
BRANCH  29  30
ATOM     30  C   UNL     1      55.426  24.975  53.866  1.00  0.00    -0.000 C 
BRANCH  30  31
ATOM     31  C   UNL     1      54.168  24.123  54.089  1.00  0.00    -0.003 C 
ATOM     32  C   UNL     1      53.271  24.048  52.856  1.00  0.00     0.004 C 
ENDBRANCH  30  31
ENDBRANCH  29  30
ENDBRANCH  28  29
ENDBRANCH  27  28
ENDBRANCH  26  27
ENDBRANCH  25  26
ENDBRANCH  24  25
ENDBRANCH  23  24
ENDBRANCH  22  23
ENDBRANCH  21  22
ENDBRANCH  20  21
ENDBRANCH  19  20
ENDBRANCH  18  19
ENDBRANCH   1  18
TORSDOF 28
ENDMDL
MODEL 6
REMARK VINA RESULT:    -3.241      3.531      8.533
REMARK INTER + INTRA:         -13.238
REMARK INTER:                  -8.138
REMARK INTRA:                  -5.100
REMARK UNBOUND:                -4.692
REMARK SMILES CCCCCCCCCCCCCCCCCCCCCCCCCCCCCC(=O)[O-]
REMARK SMILES IDX 16 1 17 2 18 3 19 4 20 5 21 6 22 7 23 8 24 9 25 10 26 11
REMARK SMILES IDX 27 12 28 13 29 14 30 15 31 16 32 17 15 18 14 19 13 20 12 21
REMARK SMILES IDX 11 22 10 23 9 24 8 25 7 26 6 27 5 28 4 29 3 30 2 31 1 32
REMARK H PARENT
REMARK Flexibility Score: inf
ROOT
ATOM      1  C   UNL     1      53.907  26.329  50.101  1.00  0.00     0.000 C 
ENDROOT
BRANCH   1   2
ATOM      2  C   UNL     1      53.574  27.761  49.640  1.00  0.00     0.000 C 
BRANCH   2   3
ATOM      3  C   UNL     1      52.941  28.617  50.753  1.00  0.00     0.000 C 
BRANCH   3   4
ATOM      4  C   UNL     1      53.907  29.571  51.478  1.00  0.00     0.000 C 
BRANCH   4   5
ATOM      5  C   UNL     1      54.056  29.248  52.975  1.00  0.00     0.000 C 
BRANCH   5   6
ATOM      6  C   UNL     1      54.727  30.386  53.768  1.00  0.00     0.000 C 
BRANCH   6   7
ATOM      7  C   UNL     1      56.073  30.879  53.200  1.00  0.00     0.000 C 
BRANCH   7   8
ATOM      8  C   UNL     1      56.442  32.337  53.543  1.00  0.00     0.000 C 
BRANCH   8   9
ATOM      9  C   UNL     1      57.938  32.679  53.420  1.00  0.00     0.000 C 
BRANCH   9  10
ATOM     10  C   UNL     1      58.818  31.440  53.181  1.00  0.00     0.000 C 
BRANCH  10  11
ATOM     11  C   UNL     1      60.295  31.801  52.953  1.00  0.00     0.000 C 
BRANCH  11  12
ATOM     12  C   UNL     1      60.874  31.156  51.682  1.00  0.00     0.000 C 
BRANCH  12  13
ATOM     13  C   UNL     1      62.194  31.803  51.228  1.00  0.00     0.006 C 
BRANCH  13  14
ATOM     14  C   UNL     1      62.729  31.258  49.892  1.00  0.00     0.053 C 
BRANCH  14  15
ATOM     15  C   UNL     1      64.037  30.544  50.043  1.00  0.00     0.041 C 
ATOM     16  O   UNL     1      64.295  29.904  51.097  1.00  0.00    -0.550 OA
ATOM     17  O   UNL     1      64.991  30.618  49.035  1.00  0.00    -0.550 OA
ENDBRANCH  14  15
ENDBRANCH  13  14
ENDBRANCH  12  13
ENDBRANCH  11  12
ENDBRANCH  10  11
ENDBRANCH   9  10
ENDBRANCH   8   9
ENDBRANCH   7   8
ENDBRANCH   6   7
ENDBRANCH   5   6
ENDBRANCH   4   5
ENDBRANCH   3   4
ENDBRANCH   2   3
ENDBRANCH   1   2
BRANCH   1  18
ATOM     18  C   UNL     1      55.423  26.096  50.232  1.00  0.00     0.000 C 
BRANCH  18  19
ATOM     19  C   UNL     1      55.978  26.369  51.644  1.00  0.00     0.000 C 
BRANCH  19  20
ATOM     20  C   UNL     1      57.015  27.508  51.662  1.00  0.00     0.000 C 
BRANCH  20  21
ATOM     21  C   UNL     1      57.074  28.270  50.320  1.00  0.00     0.000 C 
BRANCH  21  22
ATOM     22  C   UNL     1      58.049  29.460  50.313  1.00  0.00     0.000 C 
BRANCH  22  23
ATOM     23  C   UNL     1      59.150  29.326  49.249  1.00  0.00     0.000 C 
BRANCH  23  24
ATOM     24  C   UNL     1      59.769  27.917  49.198  1.00  0.00    -0.000 C 
BRANCH  24  25
ATOM     25  C   UNL     1      61.252  27.836  49.612  1.00  0.00    -0.000 C 
BRANCH  25  26
ATOM     26  C   UNL     1      61.453  27.803  51.139  1.00  0.00    -0.000 C 
BRANCH  26  27
ATOM     27  C   UNL     1      62.322  26.614  51.597  1.00  0.00    -0.000 C 
BRANCH  27  28
ATOM     28  C   UNL     1      62.555  25.543  50.511  1.00  0.00    -0.000 C 
BRANCH  28  29
ATOM     29  C   UNL     1      61.792  24.219  50.713  1.00  0.00    -0.000 C 
BRANCH  29  30
ATOM     30  C   UNL     1      60.424  24.162  49.993  1.00  0.00    -0.000 C 
BRANCH  30  31
ATOM     31  C   UNL     1      59.261  24.711  50.832  1.00  0.00    -0.003 C 
ATOM     32  C   UNL     1      59.141  24.039  52.198  1.00  0.00     0.004 C 
ENDBRANCH  30  31
ENDBRANCH  29  30
ENDBRANCH  28  29
ENDBRANCH  27  28
ENDBRANCH  26  27
ENDBRANCH  25  26
ENDBRANCH  24  25
ENDBRANCH  23  24
ENDBRANCH  22  23
ENDBRANCH  21  22
ENDBRANCH  20  21
ENDBRANCH  19  20
ENDBRANCH  18  19
ENDBRANCH   1  18
TORSDOF 28
ENDMDL
MODEL 7
REMARK VINA RESULT:    -3.218      4.652      8.019
REMARK INTER + INTRA:         -13.178
REMARK INTER:                  -6.812
REMARK INTRA:                  -6.366
REMARK UNBOUND:                -4.692
REMARK SMILES CCCCCCCCCCCCCCCCCCCCCCCCCCCCCC(=O)[O-]
REMARK SMILES IDX 16 1 17 2 18 3 19 4 20 5 21 6 22 7 23 8 24 9 25 10 26 11
REMARK SMILES IDX 27 12 28 13 29 14 30 15 31 16 32 17 15 18 14 19 13 20 12 21
REMARK SMILES IDX 11 22 10 23 9 24 8 25 7 26 6 27 5 28 4 29 3 30 2 31 1 32
REMARK H PARENT
REMARK Flexibility Score: inf
ROOT
ATOM      1  C   UNL     1      58.558  26.542  53.397  1.00  0.00     0.000 C 
ENDROOT
BRANCH   1   2
ATOM      2  C   UNL     1      59.362  26.022  52.189  1.00  0.00     0.000 C 
BRANCH   2   3
ATOM      3  C   UNL     1      58.467  25.612  51.005  1.00  0.00     0.000 C 
BRANCH   3   4
ATOM      4  C   UNL     1      58.822  26.265  49.656  1.00  0.00     0.000 C 
BRANCH   4   5
ATOM      5  C   UNL     1      60.181  26.986  49.681  1.00  0.00     0.000 C 
BRANCH   5   6
ATOM      6  C   UNL     1      60.048  28.516  49.556  1.00  0.00     0.000 C 
BRANCH   6   7
ATOM      7  C   UNL     1      58.604  29.055  49.577  1.00  0.00     0.000 C 
BRANCH   7   8
ATOM      8  C   UNL     1      58.136  29.642  50.925  1.00  0.00     0.000 C 
BRANCH   8   9
ATOM      9  C   UNL     1      59.246  29.836  51.973  1.00  0.00     0.000 C 
BRANCH   9  10
ATOM     10  C   UNL     1      59.149  31.184  52.707  1.00  0.00     0.000 C 
BRANCH  10  11
ATOM     11  C   UNL     1      58.875  31.017  54.211  1.00  0.00     0.000 C 
BRANCH  11  12
ATOM     12  C   UNL     1      57.571  31.702  54.655  1.00  0.00     0.000 C 
BRANCH  12  13
ATOM     13  C   UNL     1      57.149  31.320  56.085  1.00  0.00     0.006 C 
BRANCH  13  14
ATOM     14  C   UNL     1      57.845  30.057  56.624  1.00  0.00     0.053 C 
BRANCH  14  15
ATOM     15  C   UNL     1      58.533  30.293  57.934  1.00  0.00     0.041 C 
ATOM     16  O   UNL     1      59.042  31.416  58.192  1.00  0.00    -0.550 OA
ATOM     17  O   UNL     1      58.645  29.260  58.857  1.00  0.00    -0.550 OA
ENDBRANCH  14  15
ENDBRANCH  13  14
ENDBRANCH  12  13
ENDBRANCH  11  12
ENDBRANCH  10  11
ENDBRANCH   9  10
ENDBRANCH   8   9
ENDBRANCH   7   8
ENDBRANCH   6   7
ENDBRANCH   5   6
ENDBRANCH   4   5
ENDBRANCH   3   4
ENDBRANCH   2   3
ENDBRANCH   1   2
BRANCH   1  18
ATOM     18  C   UNL     1      57.112  26.912  53.019  1.00  0.00     0.000 C 
BRANCH  18  19
ATOM     19  C   UNL     1      56.491  28.001  53.916  1.00  0.00     0.000 C 
BRANCH  19  20
ATOM     20  C   UNL     1      55.093  28.435  53.438  1.00  0.00     0.000 C 
BRANCH  20  21
ATOM     21  C   UNL     1      55.058  29.911  52.985  1.00  0.00     0.000 C 
BRANCH  21  22
ATOM     22  C   UNL     1      54.322  30.145  51.654  1.00  0.00     0.000 C 
BRANCH  22  23
ATOM     23  C   UNL     1      53.368  28.997  51.287  1.00  0.00     0.000 C 
BRANCH  23  24
ATOM     24  C   UNL     1      53.746  28.300  49.968  1.00  0.00    -0.000 C 
BRANCH  24  25
ATOM     25  C   UNL     1      55.141  27.644  49.949  1.00  0.00    -0.000 C 
BRANCH  25  26
ATOM     26  C   UNL     1      55.092  26.125  49.694  1.00  0.00    -0.000 C 
BRANCH  26  27
ATOM     27  C   UNL     1      53.651  25.573  49.677  1.00  0.00    -0.000 C 
BRANCH  27  28
ATOM     28  C   UNL     1      53.287  24.714  50.906  1.00  0.00    -0.000 C 
BRANCH  28  29
ATOM     29  C   UNL     1      53.706  25.297  52.269  1.00  0.00    -0.000 C 
BRANCH  29  30
ATOM     30  C   UNL     1      54.441  24.294  53.188  1.00  0.00    -0.000 C 
BRANCH  30  31
ATOM     31  C   UNL     1      54.490  24.726  54.661  1.00  0.00    -0.003 C 
ATOM     32  C   UNL     1      55.822  24.407  55.334  1.00  0.00     0.004 C 
ENDBRANCH  30  31
ENDBRANCH  29  30
ENDBRANCH  28  29
ENDBRANCH  27  28
ENDBRANCH  26  27
ENDBRANCH  25  26
ENDBRANCH  24  25
ENDBRANCH  23  24
ENDBRANCH  22  23
ENDBRANCH  21  22
ENDBRANCH  20  21
ENDBRANCH  19  20
ENDBRANCH  18  19
ENDBRANCH   1  18
TORSDOF 28
ENDMDL
MODEL 8
REMARK VINA RESULT:    -3.193      5.141      9.293
REMARK INTER + INTRA:         -13.113
REMARK INTER:                  -7.241
REMARK INTRA:                  -5.872
REMARK UNBOUND:                -4.692
REMARK SMILES CCCCCCCCCCCCCCCCCCCCCCCCCCCCCC(=O)[O-]
REMARK SMILES IDX 16 1 17 2 18 3 19 4 20 5 21 6 22 7 23 8 24 9 25 10 26 11
REMARK SMILES IDX 27 12 28 13 29 14 30 15 31 16 32 17 15 18 14 19 13 20 12 21
REMARK SMILES IDX 11 22 10 23 9 24 8 25 7 26 6 27 5 28 4 29 3 30 2 31 1 32
REMARK H PARENT
REMARK Flexibility Score: inf
ROOT
ATOM      1  C   UNL     1      58.358  25.974  50.000  1.00  0.00     0.000 C 
ENDROOT
BRANCH   1   2
ATOM      2  C   UNL     1      59.316  27.160  50.218  1.00  0.00     0.000 C 
BRANCH   2   3
ATOM      3  C   UNL     1      58.922  28.407  49.403  1.00  0.00     0.000 C 
BRANCH   3   4
ATOM      4  C   UNL     1      58.437  29.608  50.235  1.00  0.00     0.000 C 
BRANCH   4   5
ATOM      5  C   UNL     1      58.390  29.312  51.744  1.00  0.00     0.000 C 
BRANCH   5   6
ATOM      6  C   UNL     1      57.597  30.369  52.537  1.00  0.00     0.000 C 
BRANCH   6   7
ATOM      7  C   UNL     1      58.400  31.618  52.952  1.00  0.00     0.000 C 
BRANCH   7   8
ATOM      8  C   UNL     1      58.459  31.892  54.469  1.00  0.00     0.000 C 
BRANCH   8   9
ATOM      9  C   UNL     1      57.162  31.584  55.239  1.00  0.00     0.000 C 
BRANCH   9  10
ATOM     10  C   UNL     1      56.585  32.815  55.959  1.00  0.00     0.000 C 
BRANCH  10  11
ATOM     11  C   UNL     1      55.725  32.436  57.176  1.00  0.00     0.000 C 
BRANCH  11  12
ATOM     12  C   UNL     1      56.019  31.017  57.691  1.00  0.00     0.000 C 
BRANCH  12  13
ATOM     13  C   UNL     1      54.892  30.454  58.574  1.00  0.00     0.006 C 
BRANCH  13  14
ATOM     14  C   UNL     1      54.587  28.966  58.323  1.00  0.00     0.053 C 
BRANCH  14  15
ATOM     15  C   UNL     1      55.123  28.077  59.404  1.00  0.00     0.041 C 
ATOM     16  O   UNL     1      54.403  27.168  59.895  1.00  0.00    -0.550 OA
ATOM     17  O   UNL     1      56.406  28.279  59.897  1.00  0.00    -0.550 OA
ENDBRANCH  14  15
ENDBRANCH  13  14
ENDBRANCH  12  13
ENDBRANCH  11  12
ENDBRANCH  10  11
ENDBRANCH   9  10
ENDBRANCH   8   9
ENDBRANCH   7   8
ENDBRANCH   6   7
ENDBRANCH   5   6
ENDBRANCH   4   5
ENDBRANCH   3   4
ENDBRANCH   2   3
ENDBRANCH   1   2
BRANCH   1  18
ATOM     18  C   UNL     1      57.093  26.078  50.872  1.00  0.00     0.000 C 
BRANCH  18  19
ATOM     19  C   UNL     1      55.788  26.227  50.065  1.00  0.00     0.000 C 
BRANCH  19  20
ATOM     20  C   UNL     1      55.262  27.675  50.053  1.00  0.00     0.000 C 
BRANCH  20  21
ATOM     21  C   UNL     1      53.759  27.750  49.703  1.00  0.00     0.000 C 
BRANCH  21  22
ATOM     22  C   UNL     1      53.038  28.981  50.280  1.00  0.00     0.000 C 
BRANCH  22  23
ATOM     23  C   UNL     1      54.008  30.038  50.833  1.00  0.00     0.000 C 
BRANCH  23  24
ATOM     24  C   UNL     1      53.339  31.008  51.824  1.00  0.00    -0.000 C 
BRANCH  24  25
ATOM     25  C   UNL     1      54.213  31.427  53.023  1.00  0.00    -0.000 C 
BRANCH  25  26
ATOM     26  C   UNL     1      53.547  31.145  54.384  1.00  0.00    -0.000 C 
BRANCH  26  27
ATOM     27  C   UNL     1      53.535  29.644  54.738  1.00  0.00    -0.000 C 
BRANCH  27  28
ATOM     28  C   UNL     1      54.909  28.952  54.616  1.00  0.00    -0.000 C 
BRANCH  28  29
ATOM     29  C   UNL     1      54.965  27.759  53.643  1.00  0.00    -0.000 C 
BRANCH  29  30
ATOM     30  C   UNL     1      53.588  27.118  53.349  1.00  0.00    -0.000 C 
BRANCH  30  31
ATOM     31  C   UNL     1      53.658  25.612  53.055  1.00  0.00    -0.003 C 
ATOM     32  C   UNL     1      54.908  24.949  53.628  1.00  0.00     0.004 C 
ENDBRANCH  30  31
ENDBRANCH  29  30
ENDBRANCH  28  29
ENDBRANCH  27  28
ENDBRANCH  26  27
ENDBRANCH  25  26
ENDBRANCH  24  25
ENDBRANCH  23  24
ENDBRANCH  22  23
ENDBRANCH  21  22
ENDBRANCH  20  21
ENDBRANCH  19  20
ENDBRANCH  18  19
ENDBRANCH   1  18
TORSDOF 28
ENDMDL
MODEL 9
REMARK VINA RESULT:    -3.188      4.515      8.037
REMARK INTER + INTRA:         -13.100
REMARK INTER:                  -7.095
REMARK INTRA:                  -6.004
REMARK UNBOUND:                -4.692
REMARK SMILES CCCCCCCCCCCCCCCCCCCCCCCCCCCCCC(=O)[O-]
REMARK SMILES IDX 16 1 17 2 18 3 19 4 20 5 21 6 22 7 23 8 24 9 25 10 26 11
REMARK SMILES IDX 27 12 28 13 29 14 30 15 31 16 32 17 15 18 14 19 13 20 12 21
REMARK SMILES IDX 11 22 10 23 9 24 8 25 7 26 6 27 5 28 4 29 3 30 2 31 1 32
REMARK H PARENT
REMARK Flexibility Score: inf
ROOT
ATOM      1  C   UNL     1      53.326  27.460  49.597  1.00  0.00     0.000 C 
ENDROOT
BRANCH   1   2
ATOM      2  C   UNL     1      54.170  26.210  49.278  1.00  0.00     0.000 C 
BRANCH   2   3
ATOM      3  C   UNL     1      53.614  24.930  49.928  1.00  0.00     0.000 C 
BRANCH   3   4
ATOM      4  C   UNL     1      53.073  25.101  51.359  1.00  0.00     0.000 C 
BRANCH   4   5
ATOM      5  C   UNL     1      54.183  25.082  52.424  1.00  0.00     0.000 C 
BRANCH   5   6
ATOM      6  C   UNL     1      53.890  26.021  53.610  1.00  0.00     0.000 C 
BRANCH   6   7
ATOM      7  C   UNL     1      54.980  27.072  53.903  1.00  0.00     0.000 C 
BRANCH   7   8
ATOM      8  C   UNL     1      54.472  28.515  54.100  1.00  0.00     0.000 C 
BRANCH   8   9
ATOM      9  C   UNL     1      55.528  29.515  54.606  1.00  0.00     0.000 C 
BRANCH   9  10
ATOM     10  C   UNL     1      55.056  30.317  55.830  1.00  0.00     0.000 C 
BRANCH  10  11
ATOM     11  C   UNL     1      55.653  29.790  57.145  1.00  0.00     0.000 C 
BRANCH  11  12
ATOM     12  C   UNL     1      56.905  28.924  56.924  1.00  0.00     0.000 C 
BRANCH  12  13
ATOM     13  C   UNL     1      56.741  27.487  57.446  1.00  0.00     0.006 C 
BRANCH  13  14
ATOM     14  C   UNL     1      57.835  27.055  58.439  1.00  0.00     0.053 C 
BRANCH  14  15
ATOM     15  C   UNL     1      57.736  27.769  59.752  1.00  0.00     0.041 C 
ATOM     16  O   UNL     1      56.635  27.833  60.360  1.00  0.00    -0.550 OA
ATOM     17  O   UNL     1      58.854  28.398  60.288  1.00  0.00    -0.550 OA
ENDBRANCH  14  15
ENDBRANCH  13  14
ENDBRANCH  12  13
ENDBRANCH  11  12
ENDBRANCH  10  11
ENDBRANCH   9  10
ENDBRANCH   8   9
ENDBRANCH   7   8
ENDBRANCH   6   7
ENDBRANCH   5   6
ENDBRANCH   4   5
ENDBRANCH   3   4
ENDBRANCH   2   3
ENDBRANCH   1   2
BRANCH   1  18
ATOM     18  C   UNL     1      54.137  28.537  50.339  1.00  0.00     0.000 C 
BRANCH  18  19
ATOM     19  C   UNL     1      55.616  28.163  50.563  1.00  0.00     0.000 C 
BRANCH  19  20
ATOM     20  C   UNL     1      56.550  29.386  50.514  1.00  0.00     0.000 C 
BRANCH  20  21
ATOM     21  C   UNL     1      57.608  29.363  51.639  1.00  0.00     0.000 C 
BRANCH  21  22
ATOM     22  C   UNL     1      59.053  29.567  51.150  1.00  0.00     0.000 C 
BRANCH  22  23
ATOM     23  C   UNL     1      59.195  29.424  49.626  1.00  0.00     0.000 C 
BRANCH  23  24
ATOM     24  C   UNL     1      59.824  28.083  49.205  1.00  0.00    -0.000 C 
BRANCH  24  25
ATOM     25  C   UNL     1      60.328  27.201  50.364  1.00  0.00    -0.000 C 
BRANCH  25  26
ATOM     26  C   UNL     1      59.850  25.740  50.264  1.00  0.00    -0.000 C 
BRANCH  26  27
ATOM     27  C   UNL     1      58.315  25.611  50.352  1.00  0.00    -0.000 C 
BRANCH  27  28
ATOM     28  C   UNL     1      57.755  25.665  51.788  1.00  0.00    -0.000 C 
BRANCH  28  29
ATOM     29  C   UNL     1      58.459  24.751  52.809  1.00  0.00    -0.000 C 
BRANCH  29  30
ATOM     30  C   UNL     1      59.142  25.508  53.971  1.00  0.00    -0.000 C 
BRANCH  30  31
ATOM     31  C   UNL     1      58.606  26.933  54.179  1.00  0.00    -0.003 C 
ATOM     32  C   UNL     1      59.688  27.920  54.612  1.00  0.00     0.004 C 
ENDBRANCH  30  31
ENDBRANCH  29  30
ENDBRANCH  28  29
ENDBRANCH  27  28
ENDBRANCH  26  27
ENDBRANCH  25  26
ENDBRANCH  24  25
ENDBRANCH  23  24
ENDBRANCH  22  23
ENDBRANCH  21  22
ENDBRANCH  20  21
ENDBRANCH  19  20
ENDBRANCH  18  19
ENDBRANCH   1  18
TORSDOF 28
ENDMDL
