MODEL 1
REMARK VINA RESULT:    -5.047      0.000      0.000
REMARK INTER + INTRA:          -5.194
REMARK INTER:                  -5.194
REMARK INTRA:                   0.000
REMARK UNBOUND:                 0.000
REMARK SMILES O=c1ccc2ccc(O)cc2o1
REMARK SMILES IDX 6 1 7 2 8 3 10 4 11 5 5 6 4 7 3 8 2 9 1 10 12 11 9 12
REMARK H PARENT 9 13
REMARK Flexibility Score: inf
ROOT
ATOM      1  C   UNL     1     -18.730 -14.125 -21.751  1.00  0.00     0.016 A 
ATOM      2  C   UNL     1     -17.967 -13.741 -20.645  1.00  0.00     0.047 A 
ATOM      3  C   UNL     1     -16.932 -12.808 -20.788  1.00  0.00     0.119 A 
ATOM      4  C   UNL     1     -16.658 -12.254 -22.047  1.00  0.00     0.094 A 
ATOM      5  C   UNL     1     -17.418 -12.633 -23.161  1.00  0.00     0.142 A 
ATOM      6  C   UNL     1     -18.460 -13.574 -23.012  1.00  0.00     0.018 A 
ATOM      7  C   UNL     1     -19.202 -13.933 -24.143  1.00  0.00     0.019 A 
ATOM      8  C   UNL     1     -18.893 -13.355 -25.374  1.00  0.00     0.094 A 
ATOM      9  C   UNL     1     -17.846 -12.429 -25.446  1.00  0.00     0.336 A 
ATOM     10  O   UNL     1     -17.552 -11.898 -26.549  1.00  0.00    -0.246 OA
ATOM     11  O   UNL     1     -17.156 -12.106 -24.354  1.00  0.00    -0.423 OA
ENDROOT
BRANCH   3  12
ATOM     12  O   UNL     1     -16.183 -12.438 -19.674  1.00  0.00    -0.508 OA
ATOM     13  H   UNL     1     -16.124 -11.473 -19.372  1.00  0.00     0.293 HD
ENDBRANCH   3  12
TORSDOF 1
ENDMDL
MODEL 2
REMARK VINA RESULT:    -3.641      1.525      2.286
REMARK INTER + INTRA:          -3.748
REMARK INTER:                  -3.748
REMARK INTRA:                   0.000
REMARK UNBOUND:                 0.000
REMARK SMILES O=c1ccc2ccc(O)cc2o1
REMARK SMILES IDX 6 1 7 2 8 3 10 4 11 5 5 6 4 7 3 8 2 9 1 10 12 11 9 12
REMARK H PARENT 9 13
REMARK Flexibility Score: inf
ROOT
ATOM      1  C   UNL     1     -16.139 -12.232 -21.734  1.00  0.00     0.016 A 
ATOM      2  C   UNL     1     -16.265 -12.713 -20.427  1.00  0.00     0.047 A 
ATOM      3  C   UNL     1     -17.252 -13.655 -20.112  1.00  0.00     0.119 A 
ATOM      4  C   UNL     1     -18.120 -14.120 -21.110  1.00  0.00     0.094 A 
ATOM      5  C   UNL     1     -18.002 -13.645 -22.421  1.00  0.00     0.142 A 
ATOM      6  C   UNL     1     -17.005 -12.694 -22.735  1.00  0.00     0.018 A 
ATOM      7  C   UNL     1     -16.911 -12.237 -24.054  1.00  0.00     0.019 A 
ATOM      8  C   UNL     1     -17.796 -12.729 -25.012  1.00  0.00     0.094 A 
ATOM      9  C   UNL     1     -18.759 -13.670 -24.628  1.00  0.00     0.336 A 
ATOM     10  O   UNL     1     -19.567 -14.125 -25.479  1.00  0.00    -0.246 OA
ATOM     11  O   UNL     1     -18.827 -14.087 -23.366  1.00  0.00    -0.423 OA
ENDROOT
BRANCH   3  12
ATOM     12  O   UNL     1     -17.361 -14.122 -18.804  1.00  0.00    -0.508 OA
ATOM     13  H   UNL     1     -17.092 -13.549 -18.013  1.00  0.00     0.293 HD
ENDBRANCH   3  12
TORSDOF 1
ENDMDL
MODEL 3
REMARK VINA RESULT:    -3.361     16.860     17.930
REMARK INTER + INTRA:          -3.459
REMARK INTER:                  -3.459
REMARK INTRA:                   0.000
REMARK UNBOUND:                 0.000
REMARK SMILES O=c1ccc2ccc(O)cc2o1
REMARK SMILES IDX 6 1 7 2 8 3 10 4 11 5 5 6 4 7 3 8 2 9 1 10 12 11 9 12
REMARK H PARENT 9 13
REMARK Flexibility Score: inf
ROOT
ATOM      1  C   UNL     1     -22.967   3.708 -27.323  1.00  0.00     0.016 A 
ATOM      2  C   UNL     1     -22.998   2.578 -26.500  1.00  0.00     0.047 A 
ATOM      3  C   UNL     1     -21.820   2.097 -25.913  1.00  0.00     0.119 A 
ATOM      4  C   UNL     1     -20.603   2.751 -26.150  1.00  0.00     0.094 A 
ATOM      5  C   UNL     1     -20.562   3.884 -26.972  1.00  0.00     0.142 A 
ATOM      6  C   UNL     1     -21.752   4.365 -27.563  1.00  0.00     0.018 A 
ATOM      7  C   UNL     1     -21.680   5.498 -28.379  1.00  0.00     0.019 A 
ATOM      8  C   UNL     1     -20.447   6.115 -28.585  1.00  0.00     0.094 A 
ATOM      9  C   UNL     1     -19.310   5.583 -27.968  1.00  0.00     0.336 A 
ATOM     10  O   UNL     1     -18.187   6.125 -28.142  1.00  0.00    -0.246 OA
ATOM     11  O   UNL     1     -19.406   4.502 -27.196  1.00  0.00    -0.423 OA
ENDROOT
BRANCH   3  12
ATOM     12  O   UNL     1     -21.872   0.970 -25.097  1.00  0.00    -0.508 OA
ATOM     13  H   UNL     1     -21.212   0.209 -25.202  1.00  0.00     0.293 HD
ENDBRANCH   3  12
TORSDOF 1
ENDMDL
MODEL 4
REMARK VINA RESULT:    -3.251     19.999     20.958
REMARK INTER + INTRA:          -3.346
REMARK INTER:                  -3.346
REMARK INTRA:                   0.000
REMARK UNBOUND:                 0.000
REMARK SMILES O=c1ccc2ccc(O)cc2o1
REMARK SMILES IDX 6 1 7 2 8 3 10 4 11 5 5 6 4 7 3 8 2 9 1 10 12 11 9 12
REMARK H PARENT 9 13
REMARK Flexibility Score: inf
ROOT
ATOM      1  C   UNL     1     -31.611  -0.371 -25.304  1.00  0.00     0.016 A 
ATOM      2  C   UNL     1     -31.992  -1.387 -26.186  1.00  0.00     0.047 A 
ATOM      3  C   UNL     1     -32.743  -1.086 -27.330  1.00  0.00     0.119 A 
ATOM      4  C   UNL     1     -33.115   0.239 -27.594  1.00  0.00     0.094 A 
ATOM      5  C   UNL     1     -32.738   1.263 -26.717  1.00  0.00     0.142 A 
ATOM      6  C   UNL     1     -31.981   0.956 -25.564  1.00  0.00     0.018 A 
ATOM      7  C   UNL     1     -31.619   2.000 -24.707  1.00  0.00     0.019 A 
ATOM      8  C   UNL     1     -32.011   3.302 -25.011  1.00  0.00     0.094 A 
ATOM      9  C   UNL     1     -32.760   3.532 -26.171  1.00  0.00     0.336 A 
ATOM     10  O   UNL     1     -33.125   4.701 -26.463  1.00  0.00    -0.246 OA
ATOM     11  O   UNL     1     -33.092   2.520 -26.970  1.00  0.00    -0.423 OA
ENDROOT
BRANCH   3  12
ATOM     12  O   UNL     1     -33.113  -2.112 -28.196  1.00  0.00    -0.508 OA
ATOM     13  H   UNL     1     -34.015  -2.117 -28.656  1.00  0.00     0.293 HD
ENDBRANCH   3  12
TORSDOF 1
ENDMDL
