MODEL 1
REMARK VINA RESULT:    19.550      0.000      0.000
REMARK INTER + INTRA:          36.974
REMARK INTER:                  37.836
REMARK INTRA:                  -0.862
REMARK UNBOUND:                -0.862
REMARK SMILES CCCCCCCCCCCCCCCCCC(=O)[O-]
REMARK SMILES IDX 10 1 11 2 12 3 13 4 14 5 15 6 16 7 17 8 18 9 19 10 20 11
REMARK SMILES IDX 9 12 8 13 7 14 6 15 5 16 4 17 3 18 2 19 1 20
REMARK H PARENT
REMARK Flexibility Score: inf
ROOT
ATOM      1  C   UNL     1     -39.567  25.250 -14.171  1.00  0.00     0.000 C 
ENDROOT
BRANCH   1   2
ATOM      2  C   UNL     1     -38.799  24.313 -13.224  1.00  0.00     0.000 C 
BRANCH   2   3
ATOM      3  C   UNL     1     -39.663  23.810 -12.054  1.00  0.00     0.000 C 
BRANCH   3   4
ATOM      4  C   UNL     1     -40.771  24.801 -11.651  1.00  0.00     0.000 C 
BRANCH   4   5
ATOM      5  C   UNL     1     -42.177  24.193 -11.494  1.00  0.00     0.000 C 
BRANCH   5   6
ATOM      6  C   UNL     1     -43.178  25.152 -10.832  1.00  0.00     0.000 C 
BRANCH   6   7
ATOM      7  C   UNL     1     -43.866  24.485  -9.632  1.00  0.00     0.006 C 
BRANCH   7   8
ATOM      8  C   UNL     1     -45.296  25.003  -9.424  1.00  0.00     0.053 C 
BRANCH   8   9
ATOM      9  C   UNL     1     -45.442  25.719  -8.116  1.00  0.00     0.041 C 
ATOM     10  O   UNL     1     -44.568  25.579  -7.219  1.00  0.00    -0.550 OA
ATOM     11  O   UNL     1     -46.553  26.519  -7.878  1.00  0.00    -0.550 OA
ENDBRANCH   8   9
ENDBRANCH   7   8
ENDBRANCH   6   7
ENDBRANCH   5   6
ENDBRANCH   4   5
ENDBRANCH   3   4
ENDBRANCH   2   3
ENDBRANCH   1   2
BRANCH   1  12
ATOM     12  C   UNL     1     -40.402  24.504 -15.234  1.00  0.00     0.000 C 
BRANCH  12  13
ATOM     13  C   UNL     1     -41.909  24.780 -15.090  1.00  0.00    -0.000 C 
BRANCH  13  14
ATOM     14  C   UNL     1     -42.734  23.500 -14.860  1.00  0.00    -0.000 C 
BRANCH  14  15
ATOM     15  C   UNL     1     -42.771  22.532 -16.056  1.00  0.00    -0.000 C 
BRANCH  15  16
ATOM     16  C   UNL     1     -42.157  23.133 -17.329  1.00  0.00    -0.000 C 
BRANCH  16  17
ATOM     17  C   UNL     1     -41.193  22.154 -18.032  1.00  0.00    -0.000 C 
BRANCH  17  18
ATOM     18  C   UNL     1     -39.961  22.835 -18.659  1.00  0.00    -0.000 C 
BRANCH  18  19
ATOM     19  C   UNL     1     -38.659  22.023 -18.566  1.00  0.00    -0.003 C 
ATOM     20  C   UNL     1     -37.555  22.564 -19.475  1.00  0.00     0.004 C 
ENDBRANCH  18  19
ENDBRANCH  17  18
ENDBRANCH  16  17
ENDBRANCH  15  16
ENDBRANCH  14  15
ENDBRANCH  13  14
ENDBRANCH  12  13
ENDBRANCH   1  12
TORSDOF 16
ENDMDL
MODEL 2
REMARK VINA RESULT:    19.636      6.775      9.941
REMARK INTER + INTRA:          37.142
REMARK INTER:                  37.890
REMARK INTRA:                  -0.748
REMARK UNBOUND:                -0.862
REMARK SMILES CCCCCCCCCCCCCCCCCC(=O)[O-]
REMARK SMILES IDX 10 1 11 2 12 3 13 4 14 5 15 6 16 7 17 8 18 9 19 10 20 11
REMARK SMILES IDX 9 12 8 13 7 14 6 15 5 16 4 17 3 18 2 19 1 20
REMARK H PARENT
REMARK Flexibility Score: inf
ROOT
ATOM      1  C   UNL     1     -37.465  25.257 -20.689  1.00  0.00     0.000 C 
ENDROOT
BRANCH   1   2
ATOM      2  C   UNL     1     -38.031  26.170 -21.790  1.00  0.00     0.000 C 
BRANCH   2   3
ATOM      3  C   UNL     1     -37.564  27.630 -21.650  1.00  0.00     0.000 C 
BRANCH   3   4
ATOM      4  C   UNL     1     -38.674  28.652 -21.962  1.00  0.00     0.000 C 
BRANCH   4   5
ATOM      5  C   UNL     1     -38.946  29.689 -20.858  1.00  0.00     0.000 C 
BRANCH   5   6
ATOM      6  C   UNL     1     -40.430  30.071 -20.741  1.00  0.00     0.000 C 
BRANCH   6   7
ATOM      7  C   UNL     1     -41.201  29.667 -22.005  1.00  0.00     0.006 C 
BRANCH   7   8
ATOM      8  C   UNL     1     -41.877  30.869 -22.680  1.00  0.00     0.053 C 
BRANCH   8   9
ATOM      9  C   UNL     1     -43.334  30.950 -22.339  1.00  0.00     0.041 C 
ATOM     10  O   UNL     1     -43.701  31.498 -21.266  1.00  0.00    -0.550 OA
ATOM     11  O   UNL     1     -44.282  30.400 -23.193  1.00  0.00    -0.550 OA
ENDBRANCH   8   9
ENDBRANCH   7   8
ENDBRANCH   6   7
ENDBRANCH   5   6
ENDBRANCH   4   5
ENDBRANCH   3   4
ENDBRANCH   2   3
ENDBRANCH   1   2
BRANCH   1  12
ATOM     12  C   UNL     1     -38.254  23.942 -20.513  1.00  0.00     0.000 C 
BRANCH  12  13
ATOM     13  C   UNL     1     -37.523  22.943 -19.600  1.00  0.00    -0.000 C 
BRANCH  13  14
ATOM     14  C   UNL     1     -38.478  22.169 -18.671  1.00  0.00    -0.000 C 
BRANCH  14  15
ATOM     15  C   UNL     1     -39.690  22.976 -18.174  1.00  0.00    -0.000 C 
BRANCH  15  16
ATOM     16  C   UNL     1     -40.991  22.161 -18.175  1.00  0.00    -0.000 C 
BRANCH  16  17
ATOM     17  C   UNL     1     -42.155  22.916 -17.498  1.00  0.00    -0.000 C 
BRANCH  17  18
ATOM     18  C   UNL     1     -41.766  23.604 -16.176  1.00  0.00    -0.000 C 
BRANCH  18  19
ATOM     19  C   UNL     1     -42.702  23.305 -14.994  1.00  0.00    -0.003 C 
ATOM     20  C   UNL     1     -42.167  23.837 -13.663  1.00  0.00     0.004 C 
ENDBRANCH  18  19
ENDBRANCH  17  18
ENDBRANCH  16  17
ENDBRANCH  15  16
ENDBRANCH  14  15
ENDBRANCH  13  14
ENDBRANCH  12  13
ENDBRANCH   1  12
TORSDOF 16
ENDMDL
MODEL 3
REMARK VINA RESULT:    19.910      5.071      7.569
REMARK INTER + INTRA:          37.672
REMARK INTER:                  38.313
REMARK INTRA:                  -0.641
REMARK UNBOUND:                -0.862
REMARK SMILES CCCCCCCCCCCCCCCCCC(=O)[O-]
REMARK SMILES IDX 10 1 11 2 12 3 13 4 14 5 15 6 16 7 17 8 18 9 19 10 20 11
REMARK SMILES IDX 9 12 8 13 7 14 6 15 5 16 4 17 3 18 2 19 1 20
REMARK H PARENT
REMARK Flexibility Score: inf
ROOT
ATOM      1  C   UNL     1     -37.521  23.905 -19.924  1.00  0.00     0.000 C 
ENDROOT
BRANCH   1   2
ATOM      2  C   UNL     1     -38.329  22.640 -19.588  1.00  0.00     0.000 C 
BRANCH   2   3
ATOM      3  C   UNL     1     -39.024  22.724 -18.218  1.00  0.00     0.000 C 
BRANCH   3   4
ATOM      4  C   UNL     1     -40.494  22.267 -18.257  1.00  0.00     0.000 C 
BRANCH   4   5
ATOM      5  C   UNL     1     -41.531  23.344 -17.887  1.00  0.00     0.000 C 
BRANCH   5   6
ATOM      6  C   UNL     1     -42.276  23.039 -16.579  1.00  0.00     0.000 C 
BRANCH   6   7
ATOM      7  C   UNL     1     -41.667  23.819 -15.405  1.00  0.00     0.006 C 
BRANCH   7   8
ATOM      8  C   UNL     1     -42.514  23.702 -14.131  1.00  0.00     0.053 C 
BRANCH   8   9
ATOM      9  C   UNL     1     -41.731  24.072 -12.908  1.00  0.00     0.041 C 
ATOM     10  O   UNL     1     -42.320  24.234 -11.806  1.00  0.00    -0.550 OA
ATOM     11  O   UNL     1     -40.357  24.262 -12.990  1.00  0.00    -0.550 OA
ENDBRANCH   8   9
ENDBRANCH   7   8
ENDBRANCH   6   7
ENDBRANCH   5   6
ENDBRANCH   4   5
ENDBRANCH   3   4
ENDBRANCH   2   3
ENDBRANCH   1   2
BRANCH   1  12
ATOM     12  C   UNL     1     -38.190  24.800 -20.990  1.00  0.00     0.000 C 
BRANCH  12  13
ATOM     13  C   UNL     1     -37.425  26.117 -21.207  1.00  0.00    -0.000 C 
BRANCH  13  14
ATOM     14  C   UNL     1     -38.193  27.117 -22.092  1.00  0.00    -0.000 C 
BRANCH  14  15
ATOM     15  C   UNL     1     -37.787  28.589 -21.904  1.00  0.00    -0.000 C 
BRANCH  15  16
ATOM     16  C   UNL     1     -38.824  29.398 -21.111  1.00  0.00    -0.000 C 
BRANCH  16  17
ATOM     17  C   UNL     1     -40.272  29.073 -21.538  1.00  0.00    -0.000 C 
BRANCH  17  18
ATOM     18  C   UNL     1     -41.271  30.214 -21.270  1.00  0.00    -0.000 C 
BRANCH  18  19
ATOM     19  C   UNL     1     -42.316  30.428 -22.377  1.00  0.00    -0.003 C 
ATOM     20  C   UNL     1     -43.358  31.487 -22.015  1.00  0.00     0.004 C 
ENDBRANCH  18  19
ENDBRANCH  17  18
ENDBRANCH  16  17
ENDBRANCH  15  16
ENDBRANCH  14  15
ENDBRANCH  13  14
ENDBRANCH  12  13
ENDBRANCH   1  12
TORSDOF 16
ENDMDL
MODEL 4
REMARK VINA RESULT:    20.302      4.211      6.563
REMARK INTER + INTRA:          38.430
REMARK INTER:                  39.007
REMARK INTRA:                  -0.577
REMARK UNBOUND:                -0.862
REMARK SMILES CCCCCCCCCCCCCCCCCC(=O)[O-]
REMARK SMILES IDX 10 1 11 2 12 3 13 4 14 5 15 6 16 7 17 8 18 9 19 10 20 11
REMARK SMILES IDX 9 12 8 13 7 14 6 15 5 16 4 17 3 18 2 19 1 20
REMARK H PARENT
REMARK Flexibility Score: inf
ROOT
ATOM      1  C   UNL     1     -39.372  22.824 -18.066  1.00  0.00     0.000 C 
ENDROOT
BRANCH   1   2
ATOM      2  C   UNL     1     -40.841  22.382 -18.179  1.00  0.00     0.000 C 
BRANCH   2   3
ATOM      3  C   UNL     1     -41.810  23.353 -17.484  1.00  0.00     0.000 C 
BRANCH   3   4
ATOM      4  C   UNL     1     -42.404  22.786 -16.181  1.00  0.00     0.000 C 
BRANCH   4   5
ATOM      5  C   UNL     1     -42.546  23.794 -15.025  1.00  0.00     0.000 C 
BRANCH   5   6
ATOM      6  C   UNL     1     -42.090  23.227 -13.672  1.00  0.00     0.000 C 
BRANCH   6   7
ATOM      7  C   UNL     1     -41.969  24.341 -12.623  1.00  0.00     0.006 C 
BRANCH   7   8
ATOM      8  C   UNL     1     -40.602  24.333 -11.925  1.00  0.00     0.053 C 
BRANCH   8   9
ATOM      9  C   UNL     1     -39.478  24.218 -12.909  1.00  0.00     0.041 C 
ATOM     10  O   UNL     1     -39.485  24.912 -13.960  1.00  0.00    -0.550 OA
ATOM     11  O   UNL     1     -38.436  23.328 -12.677  1.00  0.00    -0.550 OA
ENDBRANCH   8   9
ENDBRANCH   7   8
ENDBRANCH   6   7
ENDBRANCH   5   6
ENDBRANCH   4   5
ENDBRANCH   3   4
ENDBRANCH   2   3
ENDBRANCH   1   2
BRANCH   1  12
ATOM     12  C   UNL     1     -38.395  21.927 -18.856  1.00  0.00     0.000 C 
BRANCH  12  13
ATOM     13  C   UNL     1     -37.827  22.637 -20.097  1.00  0.00    -0.000 C 
BRANCH  13  14
ATOM     14  C   UNL     1     -37.722  24.164 -19.919  1.00  0.00    -0.000 C 
BRANCH  14  15
ATOM     15  C   UNL     1     -38.137  24.988 -21.149  1.00  0.00    -0.000 C 
BRANCH  15  16
ATOM     16  C   UNL     1     -37.317  26.276 -21.311  1.00  0.00    -0.000 C 
BRANCH  16  17
ATOM     17  C   UNL     1     -38.025  27.312 -22.211  1.00  0.00    -0.000 C 
BRANCH  17  18
ATOM     18  C   UNL     1     -38.220  28.687 -21.544  1.00  0.00    -0.000 C 
BRANCH  18  19
ATOM     19  C   UNL     1     -39.604  29.318 -21.763  1.00  0.00    -0.003 C 
ATOM     20  C   UNL     1     -40.281  29.735 -20.457  1.00  0.00     0.004 C 
ENDBRANCH  18  19
ENDBRANCH  17  18
ENDBRANCH  16  17
ENDBRANCH  15  16
ENDBRANCH  14  15
ENDBRANCH  13  14
ENDBRANCH  12  13
ENDBRANCH   1  12
TORSDOF 16
ENDMDL
MODEL 5
REMARK VINA RESULT:    20.387      5.523      9.366
REMARK INTER + INTRA:          38.594
REMARK INTER:                  39.429
REMARK INTRA:                  -0.835
REMARK UNBOUND:                -0.862
REMARK SMILES CCCCCCCCCCCCCCCCCC(=O)[O-]
REMARK SMILES IDX 10 1 11 2 12 3 13 4 14 5 15 6 16 7 17 8 18 9 19 10 20 11
REMARK SMILES IDX 9 12 8 13 7 14 6 15 5 16 4 17 3 18 2 19 1 20
REMARK H PARENT
REMARK Flexibility Score: inf
ROOT
ATOM      1  C   UNL     1     -39.499  22.774 -17.988  1.00  0.00     0.000 C 
ENDROOT
BRANCH   1   2
ATOM      2  C   UNL     1     -38.399  21.939 -18.665  1.00  0.00     0.000 C 
BRANCH   2   3
ATOM      3  C   UNL     1     -37.746  22.666 -19.853  1.00  0.00     0.000 C 
BRANCH   3   4
ATOM      4  C   UNL     1     -38.035  24.178 -19.870  1.00  0.00     0.000 C 
BRANCH   4   5
ATOM      5  C   UNL     1     -38.092  24.825 -21.266  1.00  0.00     0.000 C 
BRANCH   5   6
ATOM      6  C   UNL     1     -37.461  26.225 -21.309  1.00  0.00     0.000 C 
BRANCH   6   7
ATOM      7  C   UNL     1     -38.345  27.202 -22.096  1.00  0.00     0.006 C 
BRANCH   7   8
ATOM      8  C   UNL     1     -38.112  28.660 -21.677  1.00  0.00     0.053 C 
BRANCH   8   9
ATOM      9  C   UNL     1     -39.378  29.314 -21.215  1.00  0.00     0.041 C 
ATOM     10  O   UNL     1     -40.450  29.136 -21.853  1.00  0.00    -0.550 OA
ATOM     11  O   UNL     1     -39.370  30.139 -20.096  1.00  0.00    -0.550 OA
ENDBRANCH   8   9
ENDBRANCH   7   8
ENDBRANCH   6   7
ENDBRANCH   5   6
ENDBRANCH   4   5
ENDBRANCH   3   4
ENDBRANCH   2   3
ENDBRANCH   1   2
BRANCH   1  12
ATOM     12  C   UNL     1     -40.904  22.547 -18.588  1.00  0.00     0.000 C 
BRANCH  12  13
ATOM     13  C   UNL     1     -41.993  22.468 -17.506  1.00  0.00    -0.000 C 
BRANCH  13  14
ATOM     14  C   UNL     1     -41.873  23.583 -16.450  1.00  0.00    -0.000 C 
BRANCH  14  15
ATOM     15  C   UNL     1     -42.630  23.315 -15.138  1.00  0.00    -0.000 C 
BRANCH  15  16
ATOM     16  C   UNL     1     -42.308  24.341 -14.042  1.00  0.00    -0.000 C 
BRANCH  16  17
ATOM     17  C   UNL     1     -42.062  23.676 -12.671  1.00  0.00    -0.000 C 
BRANCH  17  18
ATOM     18  C   UNL     1     -40.941  24.339 -11.849  1.00  0.00    -0.000 C 
BRANCH  18  19
ATOM     19  C   UNL     1     -39.704  24.755 -12.662  1.00  0.00    -0.003 C 
ATOM     20  C   UNL     1     -38.760  23.586 -12.946  1.00  0.00     0.004 C 
ENDBRANCH  18  19
ENDBRANCH  17  18
ENDBRANCH  16  17
ENDBRANCH  15  16
ENDBRANCH  14  15
ENDBRANCH  13  14
ENDBRANCH  12  13
ENDBRANCH   1  12
TORSDOF 16
ENDMDL
MODEL 6
REMARK VINA RESULT:    20.809      5.675      8.336
REMARK INTER + INTRA:          39.412
REMARK INTER:                  39.497
REMARK INTRA:                  -0.086
REMARK UNBOUND:                -0.862
REMARK SMILES CCCCCCCCCCCCCCCCCC(=O)[O-]
REMARK SMILES IDX 10 1 11 2 12 3 13 4 14 5 15 6 16 7 17 8 18 9 19 10 20 11
REMARK SMILES IDX 9 12 8 13 7 14 6 15 5 16 4 17 3 18 2 19 1 20
REMARK H PARENT
REMARK Flexibility Score: inf
ROOT
ATOM      1  C   UNL     1     -37.468  24.999 -20.861  1.00  0.00     0.000 C 
ENDROOT
BRANCH   1   2
ATOM      2  C   UNL     1     -38.427  23.959 -20.258  1.00  0.00     0.000 C 
BRANCH   2   3
ATOM      3  C   UNL     1     -37.708  22.934 -19.363  1.00  0.00     0.000 C 
BRANCH   3   4
ATOM      4  C   UNL     1     -38.678  22.046 -18.562  1.00  0.00     0.000 C 
BRANCH   4   5
ATOM      5  C   UNL     1     -40.167  22.417 -18.682  1.00  0.00     0.000 C 
BRANCH   5   6
ATOM      6  C   UNL     1     -40.725  23.088 -17.418  1.00  0.00     0.000 C 
BRANCH   6   7
ATOM      7  C   UNL     1     -42.249  22.924 -17.336  1.00  0.00     0.006 C 
BRANCH   7   8
ATOM      8  C   UNL     1     -42.733  22.720 -15.894  1.00  0.00     0.053 C 
BRANCH   8   9
ATOM      9  C   UNL     1     -42.266  23.821 -14.991  1.00  0.00     0.041 C 
ATOM     10  O   UNL     1     -42.651  23.859 -13.792  1.00  0.00    -0.550 OA
ATOM     11  O   UNL     1     -41.428  24.816 -15.479  1.00  0.00    -0.550 OA
ENDBRANCH   8   9
ENDBRANCH   7   8
ENDBRANCH   6   7
ENDBRANCH   5   6
ENDBRANCH   4   5
ENDBRANCH   3   4
ENDBRANCH   2   3
ENDBRANCH   1   2
BRANCH   1  12
ATOM     12  C   UNL     1     -38.162  26.007 -21.802  1.00  0.00     0.000 C 
BRANCH  12  13
ATOM     13  C   UNL     1     -37.530  27.407 -21.724  1.00  0.00    -0.000 C 
BRANCH  13  14
ATOM     14  C   UNL     1     -38.524  28.534 -22.066  1.00  0.00    -0.000 C 
BRANCH  14  15
ATOM     15  C   UNL     1     -38.586  29.674 -21.036  1.00  0.00    -0.000 C 
BRANCH  15  16
ATOM     16  C   UNL     1     -40.013  29.954 -20.540  1.00  0.00    -0.000 C 
BRANCH  16  17
ATOM     17  C   UNL     1     -41.085  29.476 -21.542  1.00  0.00    -0.000 C 
BRANCH  17  18
ATOM     18  C   UNL     1     -41.535  30.561 -22.538  1.00  0.00    -0.000 C 
BRANCH  18  19
ATOM     19  C   UNL     1     -43.052  30.802 -22.586  1.00  0.00    -0.003 C 
ATOM     20  C   UNL     1     -43.590  31.462 -21.316  1.00  0.00     0.004 C 
ENDBRANCH  18  19
ENDBRANCH  17  18
ENDBRANCH  16  17
ENDBRANCH  15  16
ENDBRANCH  14  15
ENDBRANCH  13  14
ENDBRANCH  12  13
ENDBRANCH   1  12
TORSDOF 16
ENDMDL
MODEL 7
REMARK VINA RESULT:    20.832      4.620      7.074
REMARK INTER + INTRA:          39.456
REMARK INTER:                  40.027
REMARK INTRA:                  -0.571
REMARK UNBOUND:                -0.862
REMARK SMILES CCCCCCCCCCCCCCCCCC(=O)[O-]
REMARK SMILES IDX 10 1 11 2 12 3 13 4 14 5 15 6 16 7 17 8 18 9 19 10 20 11
REMARK SMILES IDX 9 12 8 13 7 14 6 15 5 16 4 17 3 18 2 19 1 20
REMARK H PARENT
REMARK Flexibility Score: inf
ROOT
ATOM      1  C   UNL     1     -38.274  22.668 -18.614  1.00  0.00     0.000 C 
ENDROOT
BRANCH   1   2
ATOM      2  C   UNL     1     -39.690  22.073 -18.532  1.00  0.00     0.000 C 
BRANCH   2   3
ATOM      3  C   UNL     1     -40.778  23.146 -18.359  1.00  0.00     0.000 C 
BRANCH   3   4
ATOM      4  C   UNL     1     -41.747  22.843 -17.201  1.00  0.00     0.000 C 
BRANCH   4   5
ATOM      5  C   UNL     1     -42.006  24.011 -16.232  1.00  0.00     0.000 C 
BRANCH   5   6
ATOM      6  C   UNL     1     -42.763  23.586 -14.964  1.00  0.00     0.000 C 
BRANCH   6   7
ATOM      7  C   UNL     1     -41.849  23.647 -13.733  1.00  0.00     0.006 C 
BRANCH   7   8
ATOM      8  C   UNL     1     -40.502  24.314 -14.044  1.00  0.00     0.053 C 
BRANCH   8   9
ATOM      9  C   UNL     1     -39.564  24.243 -12.877  1.00  0.00     0.041 C 
ATOM     10  O   UNL     1     -39.947  24.619 -11.737  1.00  0.00    -0.550 OA
ATOM     11  O   UNL     1     -38.264  23.787 -13.054  1.00  0.00    -0.550 OA
ENDBRANCH   8   9
ENDBRANCH   7   8
ENDBRANCH   6   7
ENDBRANCH   5   6
ENDBRANCH   4   5
ENDBRANCH   3   4
ENDBRANCH   2   3
ENDBRANCH   1   2
BRANCH   1  12
ATOM     12  C   UNL     1     -37.889  23.154 -20.028  1.00  0.00     0.000 C 
BRANCH  12  13
ATOM     13  C   UNL     1     -38.559  24.492 -20.386  1.00  0.00    -0.000 C 
BRANCH  13  14
ATOM     14  C   UNL     1     -37.628  25.439 -21.165  1.00  0.00    -0.000 C 
BRANCH  14  15
ATOM     15  C   UNL     1     -38.347  26.546 -21.955  1.00  0.00    -0.000 C 
BRANCH  15  16
ATOM     16  C   UNL     1     -37.611  27.893 -21.902  1.00  0.00    -0.000 C 
BRANCH  16  17
ATOM     17  C   UNL     1     -38.543  29.054 -21.496  1.00  0.00    -0.000 C 
BRANCH  17  18
ATOM     18  C   UNL     1     -40.042  28.717 -21.605  1.00  0.00    -0.000 C 
BRANCH  18  19
ATOM     19  C   UNL     1     -40.989  29.907 -21.377  1.00  0.00    -0.003 C 
ATOM     20  C   UNL     1     -41.715  30.342 -22.650  1.00  0.00     0.004 C 
ENDBRANCH  18  19
ENDBRANCH  17  18
ENDBRANCH  16  17
ENDBRANCH  15  16
ENDBRANCH  14  15
ENDBRANCH  13  14
ENDBRANCH  12  13
ENDBRANCH   1  12
TORSDOF 16
ENDMDL
MODEL 8
REMARK VINA RESULT:    20.867      6.581      9.892
REMARK INTER + INTRA:          39.523
REMARK INTER:                  40.143
REMARK INTRA:                  -0.620
REMARK UNBOUND:                -0.862
REMARK SMILES CCCCCCCCCCCCCCCCCC(=O)[O-]
REMARK SMILES IDX 10 1 11 2 12 3 13 4 14 5 15 6 16 7 17 8 18 9 19 10 20 11
REMARK SMILES IDX 9 12 8 13 7 14 6 15 5 16 4 17 3 18 2 19 1 20
REMARK H PARENT
REMARK Flexibility Score: inf
ROOT
ATOM      1  C   UNL     1     -38.090  24.176 -19.713  1.00  0.00     0.000 C 
ENDROOT
BRANCH   1   2
ATOM      2  C   UNL     1     -38.005  24.673 -21.166  1.00  0.00     0.000 C 
BRANCH   2   3
ATOM      3  C   UNL     1     -37.382  26.075 -21.280  1.00  0.00     0.000 C 
BRANCH   3   4
ATOM      4  C   UNL     1     -38.252  27.061 -22.082  1.00  0.00     0.000 C 
BRANCH   4   5
ATOM      5  C   UNL     1     -37.994  28.552 -21.800  1.00  0.00     0.000 C 
BRANCH   5   6
ATOM      6  C   UNL     1     -39.142  29.228 -21.034  1.00  0.00     0.000 C 
BRANCH   6   7
ATOM      7  C   UNL     1     -40.101  29.940 -21.998  1.00  0.00     0.006 C 
BRANCH   7   8
ATOM      8  C   UNL     1     -41.555  29.888 -21.510  1.00  0.00     0.053 C 
BRANCH   8   9
ATOM      9  C   UNL     1     -42.460  30.715 -22.372  1.00  0.00     0.041 C 
ATOM     10  O   UNL     1     -42.288  30.746 -23.620  1.00  0.00    -0.550 OA
ATOM     11  O   UNL     1     -43.476  31.469 -21.797  1.00  0.00    -0.550 OA
ENDBRANCH   8   9
ENDBRANCH   7   8
ENDBRANCH   6   7
ENDBRANCH   5   6
ENDBRANCH   4   5
ENDBRANCH   3   4
ENDBRANCH   2   3
ENDBRANCH   1   2
BRANCH   1  12
ATOM     12  C   UNL     1     -38.134  22.637 -19.589  1.00  0.00     0.000 C 
BRANCH  12  13
ATOM     13  C   UNL     1     -38.850  22.177 -18.308  1.00  0.00    -0.000 C 
BRANCH  13  14
ATOM     14  C   UNL     1     -40.383  22.128 -18.463  1.00  0.00    -0.000 C 
BRANCH  14  15
ATOM     15  C   UNL     1     -41.129  23.337 -17.874  1.00  0.00    -0.000 C 
BRANCH  15  16
ATOM     16  C   UNL     1     -42.080  22.953 -16.731  1.00  0.00    -0.000 C 
BRANCH  16  17
ATOM     17  C   UNL     1     -41.998  23.938 -15.545  1.00  0.00    -0.000 C 
BRANCH  17  18
ATOM     18  C   UNL     1     -42.621  23.400 -14.243  1.00  0.00    -0.000 C 
BRANCH  18  19
ATOM     19  C   UNL     1     -42.005  23.964 -12.952  1.00  0.00    -0.003 C 
ATOM     20  C   UNL     1     -40.494  24.179 -13.059  1.00  0.00     0.004 C 
ENDBRANCH  18  19
ENDBRANCH  17  18
ENDBRANCH  16  17
ENDBRANCH  15  16
ENDBRANCH  14  15
ENDBRANCH  13  14
ENDBRANCH  12  13
ENDBRANCH   1  12
TORSDOF 16
ENDMDL
MODEL 9
REMARK VINA RESULT:    21.314      8.930     12.689
REMARK INTER + INTRA:          40.389
REMARK INTER:                  41.060
REMARK INTRA:                  -0.671
REMARK UNBOUND:                -0.862
REMARK SMILES CCCCCCCCCCCCCCCCCC(=O)[O-]
REMARK SMILES IDX 10 1 11 2 12 3 13 4 14 5 15 6 16 7 17 8 18 9 19 10 20 11
REMARK SMILES IDX 9 12 8 13 7 14 6 15 5 16 4 17 3 18 2 19 1 20
REMARK H PARENT
REMARK Flexibility Score: inf
ROOT
ATOM      1  C   UNL     1     -37.751  25.550 -21.420  1.00  0.00     0.000 C 
ENDROOT
BRANCH   1   2
ATOM      2  C   UNL     1     -37.004  26.876 -21.201  1.00  0.00     0.000 C 
BRANCH   2   3
ATOM      3  C   UNL     1     -37.593  28.035 -22.023  1.00  0.00     0.000 C 
BRANCH   3   4
ATOM      4  C   UNL     1     -37.080  28.070 -23.474  1.00  0.00     0.000 C 
BRANCH   4   5
ATOM      5  C   UNL     1     -37.029  29.464 -24.125  1.00  0.00     0.000 C 
BRANCH   5   6
ATOM      6  C   UNL     1     -35.608  29.895 -24.519  1.00  0.00     0.000 C 
BRANCH   6   7
ATOM      7  C   UNL     1     -35.642  31.118 -25.446  1.00  0.00     0.006 C 
BRANCH   7   8
ATOM      8  C   UNL     1     -37.076  31.540 -25.795  1.00  0.00     0.053 C 
BRANCH   8   9
ATOM      9  C   UNL     1     -37.218  33.030 -25.852  1.00  0.00     0.041 C 
ATOM     10  O   UNL     1     -38.345  33.564 -25.675  1.00  0.00    -0.550 OA
ATOM     11  O   UNL     1     -36.112  33.827 -26.125  1.00  0.00    -0.550 OA
ENDBRANCH   8   9
ENDBRANCH   7   8
ENDBRANCH   6   7
ENDBRANCH   5   6
ENDBRANCH   4   5
ENDBRANCH   3   4
ENDBRANCH   2   3
ENDBRANCH   1   2
BRANCH   1  12
ATOM     12  C   UNL     1     -38.058  24.790 -20.111  1.00  0.00     0.000 C 
BRANCH  12  13
ATOM     13  C   UNL     1     -37.756  23.286 -20.227  1.00  0.00    -0.000 C 
BRANCH  13  14
ATOM     14  C   UNL     1     -38.008  22.521 -18.913  1.00  0.00    -0.000 C 
BRANCH  14  15
ATOM     15  C   UNL     1     -38.796  21.210 -19.071  1.00  0.00    -0.000 C 
BRANCH  15  16
ATOM     16  C   UNL     1     -40.249  21.324 -18.584  1.00  0.00    -0.000 C 
BRANCH  16  17
ATOM     17  C   UNL     1     -40.590  22.745 -18.088  1.00  0.00    -0.000 C 
BRANCH  17  18
ATOM     18  C   UNL     1     -42.038  22.899 -17.585  1.00  0.00    -0.000 C 
BRANCH  18  19
ATOM     19  C   UNL     1     -42.172  23.148 -16.074  1.00  0.00    -0.003 C 
ATOM     20  C   UNL     1     -41.517  24.455 -15.626  1.00  0.00     0.004 C 
ENDBRANCH  18  19
ENDBRANCH  17  18
ENDBRANCH  16  17
ENDBRANCH  15  16
ENDBRANCH  14  15
ENDBRANCH  13  14
ENDBRANCH  12  13
ENDBRANCH   1  12
TORSDOF 16
ENDMDL
