MODEL 1
REMARK VINA RESULT:    27.266      0.000      0.000
REMARK INTER + INTRA:          41.711
REMARK INTER:                  40.018
REMARK INTRA:                   1.693
REMARK UNBOUND:                 1.693
REMARK SMILES O=c1c(O[C@H]2O[C@H](CO)[C@H](O)[C@H](O)[C@@H]2O)c(-c2ccc(O)c(O)c2)oc2cc(O)cc(O)c12
REMARK SMILES IDX 4 1 3 2 16 3 25 4 2 5 26 6 1 7 33 8 27 9 31 10 28 11 30 12
REMARK SMILES IDX 17 13 18 14 19 15 20 16 24 17 22 18 21 19 23 21 32 23 29 25
REMARK SMILES IDX 5 27 14 28 6 29 12 30 7 31 10 32 15 33 13 35 8 37 9 38 11 40
REMARK H PARENT 21 20 23 22 32 24 29 26 15 34 13 36 9 39 11 41
REMARK Flexibility Score: inf
ROOT
ATOM      1  O   UNL     1     -25.698   8.278  -4.463  1.00  0.00    -0.454 OA
ENDROOT
BRANCH   1   2
ATOM      2  C   UNL     1     -26.989   8.671  -4.875  1.00  0.00     0.214 A 
ATOM      3  C   UNL     1     -27.257  10.043  -4.991  1.00  0.00     0.180 A 
ATOM      4  O   UNL     1     -28.456  10.481  -5.354  1.00  0.00    -0.452 OA
ATOM      5  C   UNL     1     -27.984   7.752  -5.259  1.00  0.00     0.239 A 
ATOM      6  C   UNL     1     -29.446   9.644  -5.684  1.00  0.00     0.146 A 
ATOM      7  O   UNL     1     -27.708   6.540  -5.345  1.00  0.00    -0.285 OA
ATOM      8  C   UNL     1     -29.230   8.233  -5.673  1.00  0.00     0.111 A 
ATOM      9  C   UNL     1     -30.665  10.169  -6.133  1.00  0.00     0.094 A 
ATOM     10  C   UNL     1     -30.252   7.378  -6.161  1.00  0.00     0.134 A 
ATOM     11  C   UNL     1     -31.660   9.316  -6.634  1.00  0.00     0.123 A 
ATOM     12  C   UNL     1     -31.454   7.935  -6.624  1.00  0.00     0.093 A 
BRANCH   3  13
ATOM     13  C   UNL     1     -26.094  10.940  -5.038  1.00  0.00     0.025 A 
ATOM     14  C   UNL     1     -25.339  11.125  -3.878  1.00  0.00     0.016 A 
ATOM     15  C   UNL     1     -23.937  10.969  -3.934  1.00  0.00     0.051 A 
ATOM     16  C   UNL     1     -23.347  10.563  -5.149  1.00  0.00     0.157 A 
ATOM     17  C   UNL     1     -25.466  10.991  -6.290  1.00  0.00     0.062 A 
ATOM     18  C   UNL     1     -24.093  10.663  -6.352  1.00  0.00     0.158 A 
BRANCH  16  19
ATOM     19  O   UNL     1     -22.115   9.885  -5.137  1.00  0.00    -0.504 OA
ATOM     20  H   UNL     1     -21.974   8.964  -5.530  1.00  0.00     0.293 HD
ENDBRANCH  16  19
BRANCH  18  21
ATOM     21  O   UNL     1     -23.537  10.226  -7.547  1.00  0.00    -0.504 OA
ATOM     22  H   UNL     1     -22.551  10.015  -7.652  1.00  0.00     0.293 HD
ENDBRANCH  18  21
ENDBRANCH   3  13
BRANCH  10  23
ATOM     23  O   UNL     1     -30.084   5.975  -6.190  1.00  0.00    -0.507 OA
ATOM     24  H   UNL     1     -29.682   5.474  -5.417  1.00  0.00     0.293 HD
ENDBRANCH  10  23
BRANCH  11  25
ATOM     25  O   UNL     1     -32.820   9.853  -7.190  1.00  0.00    -0.508 OA
ATOM     26  H   UNL     1     -33.193  10.732  -6.888  1.00  0.00     0.293 HD
ENDBRANCH  11  25
ENDBRANCH   1   2
BRANCH   1  27
ATOM     27  C   UNL     1     -25.046   7.072  -4.858  1.00  0.00     0.339 C 
ATOM     28  C   UNL     1     -23.495   7.284  -4.907  1.00  0.00     0.214 C 
ATOM     29  O   UNL     1     -25.552   6.627  -6.111  1.00  0.00    -0.332 OA
ATOM     30  C   UNL     1     -22.858   6.903  -6.272  1.00  0.00     0.180 C 
ATOM     31  C   UNL     1     -24.960   5.409  -6.499  1.00  0.00     0.179 C 
ATOM     32  C   UNL     1     -23.452   5.611  -6.879  1.00  0.00     0.177 C 
BRANCH  28  33
ATOM     33  O   UNL     1     -22.903   6.539  -3.875  1.00  0.00    -0.384 OA
ATOM     34  H   UNL     1     -23.481   5.771  -3.669  1.00  0.00     0.211 HD
ENDBRANCH  28  33
BRANCH  30  35
ATOM     35  O   UNL     1     -21.454   6.800  -6.125  1.00  0.00    -0.387 OA
ATOM     36  H   UNL     1     -21.077   7.717  -6.029  1.00  0.00     0.211 HD
ENDBRANCH  30  35
BRANCH  31  37
ATOM     37  C   UNL     1     -25.303   4.224  -5.543  1.00  0.00     0.191 C 
BRANCH  37  38
ATOM     38  O   UNL     1     -26.136   3.291  -6.169  1.00  0.00    -0.394 OA
ATOM     39  H   UNL     1     -26.942   3.798  -6.436  1.00  0.00     0.210 HD
ENDBRANCH  37  38
ENDBRANCH  31  37
BRANCH  32  40
ATOM     40  O   UNL     1     -22.661   4.475  -6.648  1.00  0.00    -0.387 OA
ATOM     41  H   UNL     1     -21.984   4.397  -7.378  1.00  0.00     0.211 HD
ENDBRANCH  32  40
ENDBRANCH   1  27
TORSDOF 12
ENDMDL
MODEL 2
REMARK VINA RESULT:    29.586      1.153      2.299
REMARK INTER + INTRA:          45.116
REMARK INTER:                  41.867
REMARK INTRA:                   3.248
REMARK UNBOUND:                 1.693
REMARK SMILES O=c1c(O[C@H]2O[C@H](CO)[C@H](O)[C@H](O)[C@@H]2O)c(-c2ccc(O)c(O)c2)oc2cc(O)cc(O)c12
REMARK SMILES IDX 4 1 3 2 16 3 25 4 2 5 26 6 1 7 33 8 27 9 31 10 28 11 30 12
REMARK SMILES IDX 17 13 18 14 19 15 20 16 24 17 22 18 21 19 23 21 32 23 29 25
REMARK SMILES IDX 5 27 14 28 6 29 12 30 7 31 10 32 15 33 13 35 8 37 9 38 11 40
REMARK H PARENT 21 20 23 22 32 24 29 26 15 34 13 36 9 39 11 41
REMARK Flexibility Score: inf
ROOT
ATOM      1  O   UNL     1     -26.992   8.364  -4.292  1.00  0.00    -0.454 OA
ENDROOT
BRANCH   1   2
ATOM      2  C   UNL     1     -28.236   8.645  -4.896  1.00  0.00     0.214 A 
ATOM      3  C   UNL     1     -28.569   9.987  -5.131  1.00  0.00     0.180 A 
ATOM      4  O   UNL     1     -29.732  10.322  -5.676  1.00  0.00    -0.452 OA
ATOM      5  C   UNL     1     -29.111   7.642  -5.354  1.00  0.00     0.239 A 
ATOM      6  C   UNL     1     -30.614   9.404  -6.085  1.00  0.00     0.146 A 
ATOM      7  O   UNL     1     -28.752   6.448  -5.328  1.00  0.00    -0.285 OA
ATOM      8  C   UNL     1     -30.316   8.013  -5.959  1.00  0.00     0.111 A 
ATOM      9  C   UNL     1     -31.789   9.819  -6.723  1.00  0.00     0.094 A 
ATOM     10  C   UNL     1     -31.206   7.066  -6.526  1.00  0.00     0.134 A 
ATOM     11  C   UNL     1     -32.652   8.875  -7.300  1.00  0.00     0.123 A 
ATOM     12  C   UNL     1     -32.365   7.514  -7.180  1.00  0.00     0.093 A 
BRANCH   3  13
ATOM     13  C   UNL     1     -27.467  10.959  -5.076  1.00  0.00     0.025 A 
ATOM     14  C   UNL     1     -26.776  11.125  -3.875  1.00  0.00     0.016 A 
ATOM     15  C   UNL     1     -25.365  11.063  -3.876  1.00  0.00     0.051 A 
ATOM     16  C   UNL     1     -24.699  10.768  -5.084  1.00  0.00     0.157 A 
ATOM     17  C   UNL     1     -26.794  11.123  -6.294  1.00  0.00     0.062 A 
ATOM     18  C   UNL     1     -25.401  10.888  -6.312  1.00  0.00     0.158 A 
BRANCH  16  19
ATOM     19  O   UNL     1     -23.427  10.171  -5.054  1.00  0.00    -0.504 OA
ATOM     20  H   UNL     1     -22.961   9.791  -5.869  1.00  0.00     0.293 HD
ENDBRANCH  16  19
BRANCH  18  21
ATOM     21  O   UNL     1     -24.768  10.558  -7.503  1.00  0.00    -0.504 OA
ATOM     22  H   UNL     1     -24.465   9.615  -7.724  1.00  0.00     0.293 HD
ENDBRANCH  18  21
ENDBRANCH   3  13
BRANCH  10  23
ATOM     23  O   UNL     1     -30.950   5.678  -6.448  1.00  0.00    -0.507 OA
ATOM     24  H   UNL     1     -30.019   5.316  -6.340  1.00  0.00     0.293 HD
ENDBRANCH  10  23
BRANCH  11  25
ATOM     25  O   UNL     1     -33.755   9.301  -8.038  1.00  0.00    -0.508 OA
ATOM     26  H   UNL     1     -33.999   8.880  -8.914  1.00  0.00     0.293 HD
ENDBRANCH  11  25
ENDBRANCH   1   2
BRANCH   1  27
ATOM     27  C   UNL     1     -25.848   7.856  -4.976  1.00  0.00     0.339 C 
ATOM     28  C   UNL     1     -26.235   6.600  -5.827  1.00  0.00     0.214 C 
ATOM     29  O   UNL     1     -24.811   7.559  -4.047  1.00  0.00    -0.332 OA
ATOM     30  C   UNL     1     -25.370   5.347  -5.517  1.00  0.00     0.180 C 
ATOM     31  C   UNL     1     -23.651   7.104  -4.704  1.00  0.00     0.179 C 
ATOM     32  C   UNL     1     -23.873   5.679  -5.319  1.00  0.00     0.177 C 
BRANCH  28  33
ATOM     33  O   UNL     1     -26.138   6.927  -7.188  1.00  0.00    -0.384 OA
ATOM     34  H   UNL     1     -26.933   7.445  -7.446  1.00  0.00     0.211 HD
ENDBRANCH  28  33
BRANCH  30  35
ATOM     35  O   UNL     1     -25.549   4.385  -6.540  1.00  0.00    -0.387 OA
ATOM     36  H   UNL     1     -26.382   4.607  -7.041  1.00  0.00     0.211 HD
ENDBRANCH  30  35
BRANCH  31  37
ATOM     37  C   UNL     1     -22.998   8.184  -5.621  1.00  0.00     0.191 C 
BRANCH  37  38
ATOM     38  O   UNL     1     -21.919   7.657  -6.339  1.00  0.00    -0.394 OA
ATOM     39  H   UNL     1     -21.112   8.046  -5.922  1.00  0.00     0.210 HD
ENDBRANCH  37  38
ENDBRANCH  31  37
BRANCH  32  40
ATOM     40  O   UNL     1     -23.095   5.437  -6.462  1.00  0.00    -0.387 OA
ATOM     41  H   UNL     1     -22.165   5.760  -6.296  1.00  0.00     0.211 HD
ENDBRANCH  32  40
ENDBRANCH   1  27
TORSDOF 12
ENDMDL
