MODEL 1
REMARK VINA RESULT:    -4.716      0.000      0.000
REMARK INTER + INTRA:         -12.857
REMARK INTER:                 -10.231
REMARK INTRA:                  -2.626
REMARK UNBOUND:                -2.626
REMARK SMILES CCCCCCCCCCCCCCCCCCCCCC(=O)[O-]
REMARK SMILES IDX 12 1 11 2 10 3 9 4 8 5 7 6 6 7 5 8 4 9 3 10 2 11 1 12 13 13
REMARK SMILES IDX 14 14 15 15 16 16 17 17 18 18 19 19 20 20 21 21 22 22 23 23
REMARK SMILES IDX 24 24
REMARK H PARENT
REMARK Flexibility Score: inf
ROOT
ATOM      1  C   UNL     1      14.834  16.708  63.154  1.00  0.00     0.000 C 
ENDROOT
BRANCH   1   2
ATOM      2  C   UNL     1      13.483  17.144  63.749  1.00  0.00     0.000 C 
BRANCH   2   3
ATOM      3  C   UNL     1      12.492  15.976  63.904  1.00  0.00     0.000 C 
BRANCH   3   4
ATOM      4  C   UNL     1      12.718  15.096  65.147  1.00  0.00    -0.000 C 
BRANCH   4   5
ATOM      5  C   UNL     1      13.807  14.017  64.992  1.00  0.00    -0.000 C 
BRANCH   5   6
ATOM      6  C   UNL     1      13.707  13.217  63.675  1.00  0.00    -0.000 C 
BRANCH   6   7
ATOM      7  C   UNL     1      14.011  11.723  63.874  1.00  0.00    -0.000 C 
BRANCH   7   8
ATOM      8  C   UNL     1      15.017  11.179  62.848  1.00  0.00    -0.000 C 
BRANCH   8   9
ATOM      9  C   UNL     1      15.303  12.179  61.713  1.00  0.00    -0.000 C 
BRANCH   9  10
ATOM     10  C   UNL     1      16.547  11.803  60.888  1.00  0.00    -0.000 C 
BRANCH  10  11
ATOM     11  C   UNL     1      16.241  11.162  59.523  1.00  0.00    -0.003 C 
ATOM     12  C   UNL     1      14.823  11.452  59.033  1.00  0.00     0.004 C 
ENDBRANCH  10  11
ENDBRANCH   9  10
ENDBRANCH   8   9
ENDBRANCH   7   8
ENDBRANCH   6   7
ENDBRANCH   5   6
ENDBRANCH   4   5
ENDBRANCH   3   4
ENDBRANCH   2   3
ENDBRANCH   1   2
BRANCH   1  13
ATOM     13  C   UNL     1      15.308  17.660  62.036  1.00  0.00     0.000 C 
BRANCH  13  14
ATOM     14  C   UNL     1      15.023  17.144  60.615  1.00  0.00     0.000 C 
BRANCH  14  15
ATOM     15  C   UNL     1      15.259  15.632  60.473  1.00  0.00     0.000 C 
BRANCH  15  16
ATOM     16  C   UNL     1      15.440  15.184  59.010  1.00  0.00     0.000 C 
BRANCH  16  17
ATOM     17  C   UNL     1      16.852  14.684  58.647  1.00  0.00     0.000 C 
BRANCH  17  18
ATOM     18  C   UNL     1      17.771  15.799  58.121  1.00  0.00     0.000 C 
BRANCH  18  19
ATOM     19  C   UNL     1      18.169  16.764  59.244  1.00  0.00     0.000 C 
BRANCH  19  20
ATOM     20  C   UNL     1      19.194  16.116  60.181  1.00  0.00     0.006 C 
BRANCH  20  21
ATOM     21  C   UNL     1      18.804  16.315  61.650  1.00  0.00     0.053 C 
BRANCH  21  22
ATOM     22  C   UNL     1      19.608  17.421  62.258  1.00  0.00     0.041 C 
ATOM     23  O   UNL     1      20.866  17.361  62.267  1.00  0.00    -0.550 OA
ATOM     24  O   UNL     1      18.964  18.490  62.868  1.00  0.00    -0.550 OA
ENDBRANCH  21  22
ENDBRANCH  20  21
ENDBRANCH  19  20
ENDBRANCH  18  19
ENDBRANCH  17  18
ENDBRANCH  16  17
ENDBRANCH  15  16
ENDBRANCH  14  15
ENDBRANCH  13  14
ENDBRANCH   1  13
TORSDOF 20
ENDMDL
MODEL 2
REMARK VINA RESULT:    -4.646      4.005      7.272
REMARK INTER + INTRA:         -12.704
REMARK INTER:                 -10.353
REMARK INTRA:                  -2.351
REMARK UNBOUND:                -2.626
REMARK SMILES CCCCCCCCCCCCCCCCCCCCCC(=O)[O-]
REMARK SMILES IDX 12 1 11 2 10 3 9 4 8 5 7 6 6 7 5 8 4 9 3 10 2 11 1 12 13 13
REMARK SMILES IDX 14 14 15 15 16 16 17 17 18 18 19 19 20 20 21 21 22 22 23 23
REMARK SMILES IDX 24 24
REMARK H PARENT
REMARK Flexibility Score: inf
ROOT
ATOM      1  C   UNL     1      10.729  17.143  63.902  1.00  0.00     0.000 C 
ENDROOT
BRANCH   1   2
ATOM      2  C   UNL     1      11.039  18.639  64.083  1.00  0.00     0.000 C 
BRANCH   2   3
ATOM      3  C   UNL     1      10.344  19.527  63.034  1.00  0.00     0.000 C 
BRANCH   3   4
ATOM      4  C   UNL     1      11.175  20.731  62.553  1.00  0.00    -0.000 C 
BRANCH   4   5
ATOM      5  C   UNL     1      12.621  20.776  63.080  1.00  0.00    -0.000 C 
BRANCH   5   6
ATOM      6  C   UNL     1      13.692  20.680  61.971  1.00  0.00    -0.000 C 
BRANCH   6   7
ATOM      7  C   UNL     1      13.418  21.652  60.811  1.00  0.00    -0.000 C 
BRANCH   7   8
ATOM      8  C   UNL     1      13.754  23.109  61.164  1.00  0.00    -0.000 C 
BRANCH   8   9
ATOM      9  C   UNL     1      13.030  24.119  60.257  1.00  0.00    -0.000 C 
BRANCH   9  10
ATOM     10  C   UNL     1      12.076  25.042  61.036  1.00  0.00    -0.000 C 
BRANCH  10  11
ATOM     11  C   UNL     1      10.918  24.316  61.745  1.00  0.00    -0.003 C 
ATOM     12  C   UNL     1       9.908  23.714  60.769  1.00  0.00     0.004 C 
ENDBRANCH  10  11
ENDBRANCH   9  10
ENDBRANCH   8   9
ENDBRANCH   7   8
ENDBRANCH   6   7
ENDBRANCH   5   6
ENDBRANCH   4   5
ENDBRANCH   3   4
ENDBRANCH   2   3
ENDBRANCH   1   2
BRANCH   1  13
ATOM     13  C   UNL     1      12.009  16.307  63.691  1.00  0.00     0.000 C 
BRANCH  13  14
ATOM     14  C   UNL     1      13.249  17.145  63.330  1.00  0.00     0.000 C 
BRANCH  14  15
ATOM     15  C   UNL     1      14.568  16.428  63.660  1.00  0.00     0.000 C 
BRANCH  15  16
ATOM     16  C   UNL     1      15.679  16.707  62.631  1.00  0.00     0.000 C 
BRANCH  16  17
ATOM     17  C   UNL     1      15.188  17.043  61.209  1.00  0.00     0.000 C 
BRANCH  17  18
ATOM     18  C   UNL     1      15.568  15.973  60.172  1.00  0.00     0.000 C 
BRANCH  18  19
ATOM     19  C   UNL     1      16.636  16.494  59.203  1.00  0.00     0.000 C 
BRANCH  19  20
ATOM     20  C   UNL     1      18.020  15.953  59.576  1.00  0.00     0.006 C 
BRANCH  20  21
ATOM     21  C   UNL     1      18.917  17.064  60.133  1.00  0.00     0.053 C 
BRANCH  21  22
ATOM     22  C   UNL     1      19.058  16.927  61.616  1.00  0.00     0.041 C 
ATOM     23  O   UNL     1      19.026  15.788  62.155  1.00  0.00    -0.550 OA
ATOM     24  O   UNL     1      19.166  18.062  62.409  1.00  0.00    -0.550 OA
ENDBRANCH  21  22
ENDBRANCH  20  21
ENDBRANCH  19  20
ENDBRANCH  18  19
ENDBRANCH  17  18
ENDBRANCH  16  17
ENDBRANCH  15  16
ENDBRANCH  14  15
ENDBRANCH  13  14
ENDBRANCH   1  13
TORSDOF 20
ENDMDL
MODEL 3
REMARK VINA RESULT:    -4.639      3.482      6.904
REMARK INTER + INTRA:         -12.688
REMARK INTER:                 -10.924
REMARK INTRA:                  -1.764
REMARK UNBOUND:                -2.626
REMARK SMILES CCCCCCCCCCCCCCCCCCCCCC(=O)[O-]
REMARK SMILES IDX 12 1 11 2 10 3 9 4 8 5 7 6 6 7 5 8 4 9 3 10 2 11 1 12 13 13
REMARK SMILES IDX 14 14 15 15 16 16 17 17 18 18 19 19 20 20 21 21 22 22 23 23
REMARK SMILES IDX 24 24
REMARK H PARENT
REMARK Flexibility Score: inf
ROOT
ATOM      1  C   UNL     1      13.114  16.816  63.599  1.00  0.00     0.000 C 
ENDROOT
BRANCH   1   2
ATOM      2  C   UNL     1      11.684  16.328  63.892  1.00  0.00     0.000 C 
BRANCH   2   3
ATOM      3  C   UNL     1      10.651  17.470  63.898  1.00  0.00     0.000 C 
BRANCH   3   4
ATOM      4  C   UNL     1      11.241  18.877  63.690  1.00  0.00    -0.000 C 
BRANCH   4   5
ATOM      5  C   UNL     1      10.374  19.828  62.844  1.00  0.00    -0.000 C 
BRANCH   5   6
ATOM      6  C   UNL     1      11.028  21.203  62.586  1.00  0.00    -0.000 C 
BRANCH   6   7
ATOM      7  C   UNL     1      12.462  21.280  63.137  1.00  0.00    -0.000 C 
BRANCH   7   8
ATOM      8  C   UNL     1      13.518  20.856  62.105  1.00  0.00    -0.000 C 
BRANCH   8   9
ATOM      9  C   UNL     1      13.358  21.587  60.760  1.00  0.00    -0.000 C 
BRANCH   9  10
ATOM     10  C   UNL     1      13.862  23.041  60.808  1.00  0.00    -0.000 C 
BRANCH  10  11
ATOM     11  C   UNL     1      12.774  24.087  61.110  1.00  0.00    -0.003 C 
ATOM     12  C   UNL     1      11.665  24.112  60.059  1.00  0.00     0.004 C 
ENDBRANCH  10  11
ENDBRANCH   9  10
ENDBRANCH   8   9
ENDBRANCH   7   8
ENDBRANCH   6   7
ENDBRANCH   5   6
ENDBRANCH   4   5
ENDBRANCH   3   4
ENDBRANCH   2   3
ENDBRANCH   1   2
BRANCH   1  13
ATOM     13  C   UNL     1      14.181  15.867  64.187  1.00  0.00     0.000 C 
BRANCH  13  14
ATOM     14  C   UNL     1      13.596  14.697  64.997  1.00  0.00     0.000 C 
BRANCH  14  15
ATOM     15  C   UNL     1      13.862  13.330  64.346  1.00  0.00     0.000 C 
BRANCH  15  16
ATOM     16  C   UNL     1      13.480  13.288  62.855  1.00  0.00     0.000 C 
BRANCH  16  17
ATOM     17  C   UNL     1      14.629  12.925  61.893  1.00  0.00     0.000 C 
BRANCH  17  18
ATOM     18  C   UNL     1      15.240  14.150  61.193  1.00  0.00     0.000 C 
BRANCH  18  19
ATOM     19  C   UNL     1      15.323  13.938  59.677  1.00  0.00     0.000 C 
BRANCH  19  20
ATOM     20  C   UNL     1      15.320  15.281  58.939  1.00  0.00     0.006 C 
BRANCH  20  21
ATOM     21  C   UNL     1      16.747  15.793  58.716  1.00  0.00     0.053 C 
BRANCH  21  22
ATOM     22  C   UNL     1      16.980  17.047  59.499  1.00  0.00     0.041 C 
ATOM     23  O   UNL     1      16.006  17.763  59.856  1.00  0.00    -0.550 OA
ATOM     24  O   UNL     1      18.277  17.455  59.783  1.00  0.00    -0.550 OA
ENDBRANCH  21  22
ENDBRANCH  20  21
ENDBRANCH  19  20
ENDBRANCH  18  19
ENDBRANCH  17  18
ENDBRANCH  16  17
ENDBRANCH  15  16
ENDBRANCH  14  15
ENDBRANCH  13  14
ENDBRANCH   1  13
TORSDOF 20
ENDMDL
MODEL 4
REMARK VINA RESULT:    -4.539      4.251      7.483
REMARK INTER + INTRA:         -12.473
REMARK INTER:                 -10.119
REMARK INTRA:                  -2.354
REMARK UNBOUND:                -2.626
REMARK SMILES CCCCCCCCCCCCCCCCCCCCCC(=O)[O-]
REMARK SMILES IDX 12 1 11 2 10 3 9 4 8 5 7 6 6 7 5 8 4 9 3 10 2 11 1 12 13 13
REMARK SMILES IDX 14 14 15 15 16 16 17 17 18 18 19 19 20 20 21 21 22 22 23 23
REMARK SMILES IDX 24 24
REMARK H PARENT
REMARK Flexibility Score: inf
ROOT
ATOM      1  C   UNL     1      11.651  18.313  63.560  1.00  0.00     0.000 C 
ENDROOT
BRANCH   1   2
ATOM      2  C   UNL     1      10.571  19.399  63.709  1.00  0.00     0.000 C 
BRANCH   2   3
ATOM      3  C   UNL     1      11.146  20.762  64.134  1.00  0.00     0.000 C 
BRANCH   3   4
ATOM      4  C   UNL     1      10.355  21.984  63.630  1.00  0.00    -0.000 C 
BRANCH   4   5
ATOM      5  C   UNL     1       9.972  21.941  62.138  1.00  0.00    -0.000 C 
BRANCH   5   6
ATOM      6  C   UNL     1      10.328  23.230  61.367  1.00  0.00    -0.000 C 
BRANCH   6   7
ATOM      7  C   UNL     1      11.501  23.989  62.008  1.00  0.00    -0.000 C 
BRANCH   7   8
ATOM      8  C   UNL     1      12.542  24.454  60.978  1.00  0.00    -0.000 C 
BRANCH   8   9
ATOM      9  C   UNL     1      13.747  23.502  60.884  1.00  0.00    -0.000 C 
BRANCH   9  10
ATOM     10  C   UNL     1      13.896  22.605  62.126  1.00  0.00    -0.000 C 
BRANCH  10  11
ATOM     11  C   UNL     1      13.748  21.098  61.851  1.00  0.00    -0.003 C 
ATOM     12  C   UNL     1      13.789  20.758  60.361  1.00  0.00     0.004 C 
ENDBRANCH  10  11
ENDBRANCH   9  10
ENDBRANCH   8   9
ENDBRANCH   7   8
ENDBRANCH   6   7
ENDBRANCH   5   6
ENDBRANCH   4   5
ENDBRANCH   3   4
ENDBRANCH   2   3
ENDBRANCH   1   2
BRANCH   1  13
ATOM     13  C   UNL     1      11.109  16.907  63.896  1.00  0.00     0.000 C 
BRANCH  13  14
ATOM     14  C   UNL     1      12.083  15.766  63.557  1.00  0.00     0.000 C 
BRANCH  14  15
ATOM     15  C   UNL     1      13.224  15.634  64.578  1.00  0.00     0.000 C 
BRANCH  15  16
ATOM     16  C   UNL     1      14.612  15.524  63.921  1.00  0.00     0.000 C 
BRANCH  16  17
ATOM     17  C   UNL     1      14.625  15.668  62.386  1.00  0.00     0.000 C 
BRANCH  17  18
ATOM     18  C   UNL     1      15.062  17.065  61.915  1.00  0.00     0.000 C 
BRANCH  18  19
ATOM     19  C   UNL     1      15.652  17.014  60.501  1.00  0.00     0.000 C 
BRANCH  19  20
ATOM     20  C   UNL     1      16.928  16.165  60.473  1.00  0.00     0.006 C 
BRANCH  20  21
ATOM     21  C   UNL     1      17.998  16.803  59.581  1.00  0.00     0.053 C 
BRANCH  21  22
ATOM     22  C   UNL     1      18.338  15.894  58.441  1.00  0.00     0.041 C 
ATOM     23  O   UNL     1      18.443  16.353  57.272  1.00  0.00    -0.550 OA
ATOM     24  O   UNL     1      18.479  14.530  58.663  1.00  0.00    -0.550 OA
ENDBRANCH  21  22
ENDBRANCH  20  21
ENDBRANCH  19  20
ENDBRANCH  18  19
ENDBRANCH  17  18
ENDBRANCH  16  17
ENDBRANCH  15  16
ENDBRANCH  14  15
ENDBRANCH  13  14
ENDBRANCH   1  13
TORSDOF 20
ENDMDL
MODEL 5
REMARK VINA RESULT:    -4.526      3.789      6.688
REMARK INTER + INTRA:         -12.444
REMARK INTER:                 -10.095
REMARK INTRA:                  -2.349
REMARK UNBOUND:                -2.626
REMARK SMILES CCCCCCCCCCCCCCCCCCCCCC(=O)[O-]
REMARK SMILES IDX 12 1 11 2 10 3 9 4 8 5 7 6 6 7 5 8 4 9 3 10 2 11 1 12 13 13
REMARK SMILES IDX 14 14 15 15 16 16 17 17 18 18 19 19 20 20 21 21 22 22 23 23
REMARK SMILES IDX 24 24
REMARK H PARENT
REMARK Flexibility Score: inf
ROOT
ATOM      1  C   UNL     1      11.599  17.106  63.780  1.00  0.00     0.000 C 
ENDROOT
BRANCH   1   2
ATOM      2  C   UNL     1      11.737  18.626  63.586  1.00  0.00     0.000 C 
BRANCH   2   3
ATOM      3  C   UNL     1      10.379  19.352  63.555  1.00  0.00     0.000 C 
BRANCH   3   4
ATOM      4  C   UNL     1      10.353  20.706  64.289  1.00  0.00    -0.000 C 
BRANCH   4   5
ATOM      5  C   UNL     1       9.255  21.679  63.820  1.00  0.00    -0.000 C 
BRANCH   5   6
ATOM      6  C   UNL     1       8.613  21.291  62.470  1.00  0.00    -0.000 C 
BRANCH   6   7
ATOM      7  C   UNL     1       8.768  22.395  61.412  1.00  0.00    -0.000 C 
BRANCH   7   8
ATOM      8  C   UNL     1      10.078  23.184  61.564  1.00  0.00    -0.000 C 
BRANCH   8   9
ATOM      9  C   UNL     1      11.288  22.443  60.969  1.00  0.00    -0.000 C 
BRANCH   9  10
ATOM     10  C   UNL     1      12.570  22.633  61.800  1.00  0.00    -0.000 C 
BRANCH  10  11
ATOM     11  C   UNL     1      13.450  21.376  61.918  1.00  0.00    -0.003 C 
ATOM     12  C   UNL     1      13.848  20.798  60.560  1.00  0.00     0.004 C 
ENDBRANCH  10  11
ENDBRANCH   9  10
ENDBRANCH   8   9
ENDBRANCH   7   8
ENDBRANCH   6   7
ENDBRANCH   5   6
ENDBRANCH   4   5
ENDBRANCH   3   4
ENDBRANCH   2   3
ENDBRANCH   1   2
BRANCH   1  13
ATOM     13  C   UNL     1      12.951  16.377  63.624  1.00  0.00     0.000 C 
BRANCH  13  14
ATOM     14  C   UNL     1      14.158  17.323  63.494  1.00  0.00     0.000 C 
BRANCH  14  15
ATOM     15  C   UNL     1      15.389  16.636  62.881  1.00  0.00     0.000 C 
BRANCH  15  16
ATOM     16  C   UNL     1      15.140  16.113  61.454  1.00  0.00     0.000 C 
BRANCH  16  17
ATOM     17  C   UNL     1      15.449  17.115  60.325  1.00  0.00     0.000 C 
BRANCH  17  18
ATOM     18  C   UNL     1      16.411  16.553  59.266  1.00  0.00     0.000 C 
BRANCH  18  19
ATOM     19  C   UNL     1      17.827  17.111  59.450  1.00  0.00     0.000 C 
BRANCH  19  20
ATOM     20  C   UNL     1      18.765  16.039  60.016  1.00  0.00     0.006 C 
BRANCH  20  21
ATOM     21  C   UNL     1      18.838  16.120  61.545  1.00  0.00     0.053 C 
BRANCH  21  22
ATOM     22  C   UNL     1      19.674  17.288  61.967  1.00  0.00     0.041 C 
ATOM     23  O   UNL     1      20.899  17.331  61.675  1.00  0.00    -0.550 OA
ATOM     24  O   UNL     1      19.111  18.300  62.734  1.00  0.00    -0.550 OA
ENDBRANCH  21  22
ENDBRANCH  20  21
ENDBRANCH  19  20
ENDBRANCH  18  19
ENDBRANCH  17  18
ENDBRANCH  16  17
ENDBRANCH  15  16
ENDBRANCH  14  15
ENDBRANCH  13  14
ENDBRANCH   1  13
TORSDOF 20
ENDMDL
MODEL 6
REMARK VINA RESULT:    -4.517      4.898      7.331
REMARK INTER + INTRA:         -12.425
REMARK INTER:                 -10.197
REMARK INTRA:                  -2.227
REMARK UNBOUND:                -2.626
REMARK SMILES CCCCCCCCCCCCCCCCCCCCCC(=O)[O-]
REMARK SMILES IDX 12 1 11 2 10 3 9 4 8 5 7 6 6 7 5 8 4 9 3 10 2 11 1 12 13 13
REMARK SMILES IDX 14 14 15 15 16 16 17 17 18 18 19 19 20 20 21 21 22 22 23 23
REMARK SMILES IDX 24 24
REMARK H PARENT
REMARK Flexibility Score: inf
ROOT
ATOM      1  C   UNL     1      11.937  16.263  63.499  1.00  0.00     0.000 C 
ENDROOT
BRANCH   1   2
ATOM      2  C   UNL     1      12.663  15.503  64.624  1.00  0.00     0.000 C 
BRANCH   2   3
ATOM      3  C   UNL     1      14.196  15.552  64.488  1.00  0.00     0.000 C 
BRANCH   3   4
ATOM      4  C   UNL     1      14.712  15.697  63.044  1.00  0.00    -0.000 C 
BRANCH   4   5
ATOM      5  C   UNL     1      15.410  17.035  62.734  1.00  0.00    -0.000 C 
BRANCH   5   6
ATOM      6  C   UNL     1      15.272  17.482  61.262  1.00  0.00    -0.000 C 
BRANCH   6   7
ATOM      7  C   UNL     1      15.268  16.292  60.288  1.00  0.00    -0.000 C 
BRANCH   7   8
ATOM      8  C   UNL     1      16.454  16.320  59.312  1.00  0.00    -0.000 C 
BRANCH   8   9
ATOM      9  C   UNL     1      17.506  15.242  59.628  1.00  0.00    -0.000 C 
BRANCH   9  10
ATOM     10  C   UNL     1      18.378  15.601  60.845  1.00  0.00    -0.000 C 
BRANCH  10  11
ATOM     11  C   UNL     1      19.059  16.979  60.762  1.00  0.00    -0.003 C 
ATOM     12  C   UNL     1      19.554  17.481  62.119  1.00  0.00     0.004 C 
ENDBRANCH  10  11
ENDBRANCH   9  10
ENDBRANCH   8   9
ENDBRANCH   7   8
ENDBRANCH   6   7
ENDBRANCH   5   6
ENDBRANCH   4   5
ENDBRANCH   3   4
ENDBRANCH   2   3
ENDBRANCH   1   2
BRANCH   1  13
ATOM     13  C   UNL     1      10.890  17.253  64.052  1.00  0.00     0.000 C 
BRANCH  13  14
ATOM     14  C   UNL     1      11.048  18.689  63.520  1.00  0.00     0.000 C 
BRANCH  14  15
ATOM     15  C   UNL     1      12.516  19.141  63.455  1.00  0.00     0.000 C 
BRANCH  15  16
ATOM     16  C   UNL     1      12.682  20.573  62.914  1.00  0.00     0.000 C 
BRANCH  16  17
ATOM     17  C   UNL     1      13.799  20.754  61.868  1.00  0.00     0.000 C 
BRANCH  17  18
ATOM     18  C   UNL     1      13.407  21.704  60.724  1.00  0.00     0.000 C 
BRANCH  18  19
ATOM     19  C   UNL     1      13.783  23.153  61.054  1.00  0.00     0.000 C 
BRANCH  19  20
ATOM     20  C   UNL     1      12.529  24.013  61.240  1.00  0.00     0.006 C 
BRANCH  20  21
ATOM     21  C   UNL     1      11.823  24.258  59.902  1.00  0.00     0.053 C 
BRANCH  21  22
ATOM     22  C   UNL     1      11.145  25.593  59.906  1.00  0.00     0.041 C 
ATOM     23  O   UNL     1      11.780  26.626  60.249  1.00  0.00    -0.550 OA
ATOM     24  O   UNL     1       9.797  25.685  59.586  1.00  0.00    -0.550 OA
ENDBRANCH  21  22
ENDBRANCH  20  21
ENDBRANCH  19  20
ENDBRANCH  18  19
ENDBRANCH  17  18
ENDBRANCH  16  17
ENDBRANCH  15  16
ENDBRANCH  14  15
ENDBRANCH  13  14
ENDBRANCH   1  13
TORSDOF 20
ENDMDL
MODEL 7
REMARK VINA RESULT:    -4.514      3.218      6.230
REMARK INTER + INTRA:         -12.417
REMARK INTER:                 -10.401
REMARK INTRA:                  -2.015
REMARK UNBOUND:                -2.626
REMARK SMILES CCCCCCCCCCCCCCCCCCCCCC(=O)[O-]
REMARK SMILES IDX 12 1 11 2 10 3 9 4 8 5 7 6 6 7 5 8 4 9 3 10 2 11 1 12 13 13
REMARK SMILES IDX 14 14 15 15 16 16 17 17 18 18 19 19 20 20 21 21 22 22 23 23
REMARK SMILES IDX 24 24
REMARK H PARENT
REMARK Flexibility Score: inf
ROOT
ATOM      1  C   UNL     1      13.290  17.438  63.431  1.00  0.00     0.000 C 
ENDROOT
BRANCH   1   2
ATOM      2  C   UNL     1      12.023  16.596  63.667  1.00  0.00     0.000 C 
BRANCH   2   3
ATOM      3  C   UNL     1      10.780  17.455  63.962  1.00  0.00     0.000 C 
BRANCH   3   4
ATOM      4  C   UNL     1      10.840  18.892  63.409  1.00  0.00    -0.000 C 
BRANCH   4   5
ATOM      5  C   UNL     1      10.712  20.003  64.468  1.00  0.00    -0.000 C 
BRANCH   5   6
ATOM      6  C   UNL     1      11.174  21.391  63.973  1.00  0.00    -0.000 C 
BRANCH   6   7
ATOM      7  C   UNL     1      12.625  21.701  64.378  1.00  0.00    -0.000 C 
BRANCH   7   8
ATOM      8  C   UNL     1      13.440  22.325  63.235  1.00  0.00    -0.000 C 
BRANCH   8   9
ATOM      9  C   UNL     1      13.794  21.306  62.137  1.00  0.00    -0.000 C 
BRANCH   9  10
ATOM     10  C   UNL     1      13.253  21.710  60.754  1.00  0.00    -0.000 C 
BRANCH  10  11
ATOM     11  C   UNL     1      12.252  22.879  60.772  1.00  0.00    -0.003 C 
ATOM     12  C   UNL     1      12.845  24.179  60.229  1.00  0.00     0.004 C 
ENDBRANCH  10  11
ENDBRANCH   9  10
ENDBRANCH   8   9
ENDBRANCH   7   8
ENDBRANCH   6   7
ENDBRANCH   5   6
ENDBRANCH   4   5
ENDBRANCH   3   4
ENDBRANCH   2   3
ENDBRANCH   1   2
BRANCH   1  13
ATOM     13  C   UNL     1      14.577  16.645  63.743  1.00  0.00     0.000 C 
BRANCH  13  14
ATOM     14  C   UNL     1      15.364  16.216  62.492  1.00  0.00     0.000 C 
BRANCH  14  15
ATOM     15  C   UNL     1      14.911  14.854  61.942  1.00  0.00     0.000 C 
BRANCH  15  16
ATOM     16  C   UNL     1      15.662  14.439  60.664  1.00  0.00     0.000 C 
BRANCH  16  17
ATOM     17  C   UNL     1      15.766  15.530  59.580  1.00  0.00     0.000 C 
BRANCH  17  18
ATOM     18  C   UNL     1      16.680  15.134  58.410  1.00  0.00     0.000 C 
BRANCH  18  19
ATOM     19  C   UNL     1      17.995  15.920  58.442  1.00  0.00     0.000 C 
BRANCH  19  20
ATOM     20  C   UNL     1      17.912  17.080  59.440  1.00  0.00     0.006 C 
BRANCH  20  21
ATOM     21  C   UNL     1      19.229  17.245  60.206  1.00  0.00     0.053 C 
BRANCH  21  22
ATOM     22  C   UNL     1      19.031  16.933  61.657  1.00  0.00     0.041 C 
ATOM     23  O   UNL     1      18.775  15.755  62.024  1.00  0.00    -0.550 OA
ATOM     24  O   UNL     1      19.073  17.955  62.597  1.00  0.00    -0.550 OA
ENDBRANCH  21  22
ENDBRANCH  20  21
ENDBRANCH  19  20
ENDBRANCH  18  19
ENDBRANCH  17  18
ENDBRANCH  16  17
ENDBRANCH  15  16
ENDBRANCH  14  15
ENDBRANCH  13  14
ENDBRANCH   1  13
TORSDOF 20
ENDMDL
MODEL 8
REMARK VINA RESULT:    -4.415      4.667      8.042
REMARK INTER + INTRA:         -12.203
REMARK INTER:                  -9.943
REMARK INTRA:                  -2.260
REMARK UNBOUND:                -2.626
REMARK SMILES CCCCCCCCCCCCCCCCCCCCCC(=O)[O-]
REMARK SMILES IDX 12 1 11 2 10 3 9 4 8 5 7 6 6 7 5 8 4 9 3 10 2 11 1 12 13 13
REMARK SMILES IDX 14 14 15 15 16 16 17 17 18 18 19 19 20 20 21 21 22 22 23 23
REMARK SMILES IDX 24 24
REMARK H PARENT
REMARK Flexibility Score: inf
ROOT
ATOM      1  C   UNL     1      10.880  19.781  64.144  1.00  0.00     0.000 C 
ENDROOT
BRANCH   1   2
ATOM      2  C   UNL     1      11.925  20.795  63.647  1.00  0.00     0.000 C 
BRANCH   2   3
ATOM      3  C   UNL     1      13.040  20.145  62.807  1.00  0.00     0.000 C 
BRANCH   3   4
ATOM      4  C   UNL     1      13.516  20.981  61.605  1.00  0.00    -0.000 C 
BRANCH   4   5
ATOM      5  C   UNL     1      13.601  22.498  61.861  1.00  0.00    -0.000 C 
BRANCH   5   6
ATOM      6  C   UNL     1      12.878  23.351  60.795  1.00  0.00    -0.000 C 
BRANCH   6   7
ATOM      7  C   UNL     1      11.910  24.369  61.421  1.00  0.00    -0.000 C 
BRANCH   7   8
ATOM      8  C   UNL     1      10.615  23.719  61.932  1.00  0.00    -0.000 C 
BRANCH   8   9
ATOM      9  C   UNL     1       9.680  23.284  60.790  1.00  0.00    -0.000 C 
BRANCH   9  10
ATOM     10  C   UNL     1       8.361  22.676  61.299  1.00  0.00    -0.000 C 
BRANCH  10  11
ATOM     11  C   UNL     1       7.960  21.354  60.620  1.00  0.00    -0.003 C 
ATOM     12  C   UNL     1       8.891  20.196  60.977  1.00  0.00     0.004 C 
ENDBRANCH  10  11
ENDBRANCH   9  10
ENDBRANCH   8   9
ENDBRANCH   7   8
ENDBRANCH   6   7
ENDBRANCH   5   6
ENDBRANCH   4   5
ENDBRANCH   3   4
ENDBRANCH   2   3
ENDBRANCH   1   2
BRANCH   1  13
ATOM     13  C   UNL     1      10.970  18.439  63.387  1.00  0.00     0.000 C 
BRANCH  13  14
ATOM     14  C   UNL     1      10.619  17.212  64.247  1.00  0.00     0.000 C 
BRANCH  14  15
ATOM     15  C   UNL     1      11.782  16.214  64.364  1.00  0.00     0.000 C 
BRANCH  15  16
ATOM     16  C   UNL     1      12.868  16.425  63.293  1.00  0.00     0.000 C 
BRANCH  16  17
ATOM     17  C   UNL     1      14.272  16.752  63.838  1.00  0.00     0.000 C 
BRANCH  17  18
ATOM     18  C   UNL     1      15.239  17.255  62.753  1.00  0.00     0.000 C 
BRANCH  18  19
ATOM     19  C   UNL     1      15.237  16.324  61.535  1.00  0.00     0.000 C 
BRANCH  19  20
ATOM     20  C   UNL     1      16.662  16.099  61.019  1.00  0.00     0.006 C 
BRANCH  20  21
ATOM     21  C   UNL     1      16.867  16.762  59.652  1.00  0.00     0.053 C 
BRANCH  21  22
ATOM     22  C   UNL     1      17.935  16.050  58.881  1.00  0.00     0.041 C 
ATOM     23  O   UNL     1      18.752  15.297  59.476  1.00  0.00    -0.550 OA
ATOM     24  O   UNL     1      18.062  16.265  57.515  1.00  0.00    -0.550 OA
ENDBRANCH  21  22
ENDBRANCH  20  21
ENDBRANCH  19  20
ENDBRANCH  18  19
ENDBRANCH  17  18
ENDBRANCH  16  17
ENDBRANCH  15  16
ENDBRANCH  14  15
ENDBRANCH  13  14
ENDBRANCH   1  13
TORSDOF 20
ENDMDL
MODEL 9
REMARK VINA RESULT:    -4.390      4.721      8.020
REMARK INTER + INTRA:         -12.148
REMARK INTER:                 -10.675
REMARK INTRA:                  -1.473
REMARK UNBOUND:                -2.626
REMARK SMILES CCCCCCCCCCCCCCCCCCCCCC(=O)[O-]
REMARK SMILES IDX 12 1 11 2 10 3 9 4 8 5 7 6 6 7 5 8 4 9 3 10 2 11 1 12 13 13
REMARK SMILES IDX 14 14 15 15 16 16 17 17 18 18 19 19 20 20 21 21 22 22 23 23
REMARK SMILES IDX 24 24
REMARK H PARENT
REMARK Flexibility Score: inf
ROOT
ATOM      1  C   UNL     1      10.901  17.395  63.871  1.00  0.00     0.000 C 
ENDROOT
BRANCH   1   2
ATOM      2  C   UNL     1      11.601  18.721  63.525  1.00  0.00     0.000 C 
BRANCH   2   3
ATOM      3  C   UNL     1      10.617  19.895  63.365  1.00  0.00     0.000 C 
BRANCH   3   4
ATOM      4  C   UNL     1      11.216  21.158  62.718  1.00  0.00    -0.000 C 
BRANCH   4   5
ATOM      5  C   UNL     1      12.648  21.503  63.170  1.00  0.00    -0.000 C 
BRANCH   5   6
ATOM      6  C   UNL     1      13.727  21.186  62.112  1.00  0.00    -0.000 C 
BRANCH   6   7
ATOM      7  C   UNL     1      13.484  21.931  60.789  1.00  0.00    -0.000 C 
BRANCH   7   8
ATOM      8  C   UNL     1      13.860  23.419  60.867  1.00  0.00    -0.000 C 
BRANCH   8   9
ATOM      9  C   UNL     1      12.630  24.334  60.997  1.00  0.00    -0.000 C 
BRANCH   9  10
ATOM     10  C   UNL     1      11.954  24.618  59.643  1.00  0.00    -0.000 C 
BRANCH  10  11
ATOM     11  C   UNL     1      10.677  25.473  59.731  1.00  0.00    -0.003 C 
ATOM     12  C   UNL     1      10.491  26.391  58.523  1.00  0.00     0.004 C 
ENDBRANCH  10  11
ENDBRANCH   9  10
ENDBRANCH   8   9
ENDBRANCH   7   8
ENDBRANCH   6   7
ENDBRANCH   5   6
ENDBRANCH   4   5
ENDBRANCH   3   4
ENDBRANCH   2   3
ENDBRANCH   1   2
BRANCH   1  13
ATOM     13  C   UNL     1      11.765  16.171  63.500  1.00  0.00     0.000 C 
BRANCH  13  14
ATOM     14  C   UNL     1      12.480  15.526  64.701  1.00  0.00     0.000 C 
BRANCH  14  15
ATOM     15  C   UNL     1      13.985  15.328  64.461  1.00  0.00     0.000 C 
BRANCH  15  16
ATOM     16  C   UNL     1      14.650  16.536  63.775  1.00  0.00     0.000 C 
BRANCH  16  17
ATOM     17  C   UNL     1      15.424  16.212  62.482  1.00  0.00     0.000 C 
BRANCH  17  18
ATOM     18  C   UNL     1      14.927  17.009  61.265  1.00  0.00     0.000 C 
BRANCH  18  19
ATOM     19  C   UNL     1      15.539  16.476  59.965  1.00  0.00     0.000 C 
BRANCH  19  20
ATOM     20  C   UNL     1      17.070  16.491  60.037  1.00  0.00     0.006 C 
BRANCH  20  21
ATOM     21  C   UNL     1      17.658  15.151  59.581  1.00  0.00     0.053 C 
BRANCH  21  22
ATOM     22  C   UNL     1      18.299  15.293  58.236  1.00  0.00     0.041 C 
ATOM     23  O   UNL     1      18.025  16.281  57.503  1.00  0.00    -0.550 OA
ATOM     24  O   UNL     1      19.154  14.303  57.768  1.00  0.00    -0.550 OA
ENDBRANCH  21  22
ENDBRANCH  20  21
ENDBRANCH  19  20
ENDBRANCH  18  19
ENDBRANCH  17  18
ENDBRANCH  16  17
ENDBRANCH  15  16
ENDBRANCH  14  15
ENDBRANCH  13  14
ENDBRANCH   1  13
TORSDOF 20
ENDMDL
