MODEL 1
REMARK VINA RESULT:    -3.183      0.000      0.000
REMARK INTER + INTRA:          -8.775
REMARK INTER:                  -6.160
REMARK INTRA:                  -2.616
REMARK UNBOUND:                -2.616
REMARK SMILES CCCCCCCCCCCCCCCCCC(=O)[O-]
REMARK SMILES IDX 10 1 11 2 12 3 13 4 14 5 15 6 16 7 17 8 18 9 19 10 20 11
REMARK SMILES IDX 9 12 8 13 7 14 6 15 5 16 4 17 3 18 2 19 1 20
REMARK H PARENT
REMARK Flexibility Score: inf
ROOT
ATOM      1  C   UNL     1      -2.910   5.460  39.219  1.00  0.00     0.000 C 
ENDROOT
BRANCH   1   2
ATOM      2  C   UNL     1      -1.983   5.003  38.076  1.00  0.00     0.000 C 
BRANCH   2   3
ATOM      3  C   UNL     1      -2.663   5.058  36.696  1.00  0.00     0.000 C 
BRANCH   3   4
ATOM      4  C   UNL     1      -1.788   5.742  35.634  1.00  0.00     0.000 C 
BRANCH   4   5
ATOM      5  C   UNL     1      -0.300   5.385  35.771  1.00  0.00     0.000 C 
BRANCH   5   6
ATOM      6  C   UNL     1       0.258   4.843  34.450  1.00  0.00     0.000 C 
BRANCH   6   7
ATOM      7  C   UNL     1      -0.275   5.646  33.254  1.00  0.00     0.006 C 
BRANCH   7   8
ATOM      8  C   UNL     1       0.634   6.829  32.896  1.00  0.00     0.053 C 
BRANCH   8   9
ATOM      9  C   UNL     1       0.619   7.120  31.427  1.00  0.00     0.041 C 
ATOM     10  O   UNL     1       0.522   6.179  30.597  1.00  0.00    -0.550 OA
ATOM     11  O   UNL     1       0.748   8.426  30.974  1.00  0.00    -0.550 OA
ENDBRANCH   8   9
ENDBRANCH   7   8
ENDBRANCH   6   7
ENDBRANCH   5   6
ENDBRANCH   4   5
ENDBRANCH   3   4
ENDBRANCH   2   3
ENDBRANCH   1   2
BRANCH   1  12
ATOM     12  C   UNL     1      -2.387   6.643  40.053  1.00  0.00     0.000 C 
BRANCH  12  13
ATOM     13  C   UNL     1      -3.116   7.963  39.745  1.00  0.00    -0.000 C 
BRANCH  13  14
ATOM     14  C   UNL     1      -2.183   9.019  39.128  1.00  0.00    -0.000 C 
BRANCH  14  15
ATOM     15  C   UNL     1      -2.171   8.962  37.591  1.00  0.00    -0.000 C 
BRANCH  15  16
ATOM     16  C   UNL     1      -0.748   8.922  37.005  1.00  0.00    -0.000 C 
BRANCH  16  17
ATOM     17  C   UNL     1       0.388   8.991  38.044  1.00  0.00    -0.000 C 
BRANCH  17  18
ATOM     18  C   UNL     1       1.196   7.692  38.219  1.00  0.00    -0.000 C 
BRANCH  18  19
ATOM     19  C   UNL     1       1.213   7.159  39.667  1.00  0.00    -0.003 C 
ATOM     20  C   UNL     1       1.237   5.632  39.737  1.00  0.00     0.004 C 
ENDBRANCH  18  19
ENDBRANCH  17  18
ENDBRANCH  16  17
ENDBRANCH  15  16
ENDBRANCH  14  15
ENDBRANCH  13  14
ENDBRANCH  12  13
ENDBRANCH   1  12
TORSDOF 16
ENDMDL
MODEL 2
REMARK VINA RESULT:    -3.096      3.737      6.465
REMARK INTER + INTRA:          -8.607
REMARK INTER:                  -5.717
REMARK INTRA:                  -2.890
REMARK UNBOUND:                -2.616
REMARK SMILES CCCCCCCCCCCCCCCCCC(=O)[O-]
REMARK SMILES IDX 10 1 11 2 12 3 13 4 14 5 15 6 16 7 17 8 18 9 19 10 20 11
REMARK SMILES IDX 9 12 8 13 7 14 6 15 5 16 4 17 3 18 2 19 1 20
REMARK H PARENT
REMARK Flexibility Score: inf
ROOT
ATOM      1  C   UNL     1       0.160   5.443  39.538  1.00  0.00     0.000 C 
ENDROOT
BRANCH   1   2
ATOM      2  C   UNL     1       1.098   6.610  39.900  1.00  0.00     0.000 C 
BRANCH   2   3
ATOM      3  C   UNL     1       0.925   7.826  38.975  1.00  0.00     0.000 C 
BRANCH   3   4
ATOM      4  C   UNL     1      -0.147   8.805  39.479  1.00  0.00     0.000 C 
BRANCH   4   5
ATOM      5  C   UNL     1      -1.230   9.092  38.427  1.00  0.00     0.000 C 
BRANCH   5   6
ATOM      6  C   UNL     1      -2.600   8.591  38.899  1.00  0.00     0.000 C 
BRANCH   6   7
ATOM      7  C   UNL     1      -2.520   8.030  40.326  1.00  0.00     0.006 C 
BRANCH   7   8
ATOM      8  C   UNL     1      -3.856   7.439  40.794  1.00  0.00     0.053 C 
BRANCH   8   9
ATOM      9  C   UNL     1      -3.858   5.942  40.731  1.00  0.00     0.041 C 
ATOM     10  O   UNL     1      -3.016   5.280  41.392  1.00  0.00    -0.550 OA
ATOM     11  O   UNL     1      -4.766   5.281  39.914  1.00  0.00    -0.550 OA
ENDBRANCH   8   9
ENDBRANCH   7   8
ENDBRANCH   6   7
ENDBRANCH   5   6
ENDBRANCH   4   5
ENDBRANCH   3   4
ENDBRANCH   2   3
ENDBRANCH   1   2
BRANCH   1  12
ATOM     12  C   UNL     1      -0.378   5.457  38.095  1.00  0.00     0.000 C 
BRANCH  12  13
ATOM     13  C   UNL     1      -1.805   4.894  37.983  1.00  0.00    -0.000 C 
BRANCH  13  14
ATOM     14  C   UNL     1      -2.424   5.140  36.596  1.00  0.00    -0.000 C 
BRANCH  14  15
ATOM     15  C   UNL     1      -1.639   6.182  35.781  1.00  0.00    -0.000 C 
BRANCH  15  16
ATOM     16  C   UNL     1      -1.070   5.609  34.469  1.00  0.00    -0.000 C 
BRANCH  16  17
ATOM     17  C   UNL     1       0.438   5.296  34.494  1.00  0.00    -0.000 C 
BRANCH  17  18
ATOM     18  C   UNL     1       0.803   3.810  34.319  1.00  0.00    -0.000 C 
BRANCH  18  19
ATOM     19  C   UNL     1       0.923   3.036  35.649  1.00  0.00    -0.003 C 
ATOM     20  C   UNL     1      -0.271   2.119  35.911  1.00  0.00     0.004 C 
ENDBRANCH  18  19
ENDBRANCH  17  18
ENDBRANCH  16  17
ENDBRANCH  15  16
ENDBRANCH  14  15
ENDBRANCH  13  14
ENDBRANCH  12  13
ENDBRANCH   1  12
TORSDOF 16
ENDMDL
MODEL 3
REMARK VINA RESULT:    -3.079      1.955      3.379
REMARK INTER + INTRA:          -8.575
REMARK INTER:                  -5.938
REMARK INTRA:                  -2.637
REMARK UNBOUND:                -2.616
REMARK SMILES CCCCCCCCCCCCCCCCCC(=O)[O-]
REMARK SMILES IDX 10 1 11 2 12 3 13 4 14 5 15 6 16 7 17 8 18 9 19 10 20 11
REMARK SMILES IDX 9 12 8 13 7 14 6 15 5 16 4 17 3 18 2 19 1 20
REMARK H PARENT
REMARK Flexibility Score: inf
ROOT
ATOM      1  C   UNL     1      -0.751   4.634  38.265  1.00  0.00     0.000 C 
ENDROOT
BRANCH   1   2
ATOM      2  C   UNL     1      -2.239   4.992  38.086  1.00  0.00     0.000 C 
BRANCH   2   3
ATOM      3  C   UNL     1      -2.787   4.600  36.703  1.00  0.00     0.000 C 
BRANCH   3   4
ATOM      4  C   UNL     1      -1.815   3.708  35.914  1.00  0.00     0.000 C 
BRANCH   4   5
ATOM      5  C   UNL     1      -1.341   4.360  34.606  1.00  0.00     0.000 C 
BRANCH   5   6
ATOM      6  C   UNL     1      -1.001   5.839  34.823  1.00  0.00     0.000 C 
BRANCH   6   7
ATOM      7  C   UNL     1       0.466   6.127  34.470  1.00  0.00     0.006 C 
BRANCH   7   8
ATOM      8  C   UNL     1       1.413   5.040  34.994  1.00  0.00     0.053 C 
BRANCH   8   9
ATOM      9  C   UNL     1       2.266   4.469  33.902  1.00  0.00     0.041 C 
ATOM     10  O   UNL     1       3.431   4.905  33.716  1.00  0.00    -0.550 OA
ATOM     11  O   UNL     1       1.759   3.479  33.070  1.00  0.00    -0.550 OA
ENDBRANCH   8   9
ENDBRANCH   7   8
ENDBRANCH   6   7
ENDBRANCH   5   6
ENDBRANCH   4   5
ENDBRANCH   3   4
ENDBRANCH   2   3
ENDBRANCH   1   2
BRANCH   1  12
ATOM     12  C   UNL     1       0.074   5.648  39.078  1.00  0.00     0.000 C 
BRANCH  12  13
ATOM     13  C   UNL     1       0.761   6.706  38.196  1.00  0.00    -0.000 C 
BRANCH  13  14
ATOM     14  C   UNL     1       0.205   8.120  38.436  1.00  0.00    -0.000 C 
BRANCH  14  15
ATOM     15  C   UNL     1      -1.088   8.384  37.645  1.00  0.00    -0.000 C 
BRANCH  15  16
ATOM     16  C   UNL     1      -2.228   8.929  38.525  1.00  0.00    -0.000 C 
BRANCH  16  17
ATOM     17  C   UNL     1      -2.311   8.318  39.937  1.00  0.00    -0.000 C 
BRANCH  17  18
ATOM     18  C   UNL     1      -3.687   7.743  40.322  1.00  0.00    -0.000 C 
BRANCH  18  19
ATOM     19  C   UNL     1      -3.655   6.831  41.568  1.00  0.00    -0.003 C 
ATOM     20  C   UNL     1      -3.859   5.355  41.227  1.00  0.00     0.004 C 
ENDBRANCH  18  19
ENDBRANCH  17  18
ENDBRANCH  16  17
ENDBRANCH  15  16
ENDBRANCH  14  15
ENDBRANCH  13  14
ENDBRANCH  12  13
ENDBRANCH   1  12
TORSDOF 16
ENDMDL
MODEL 4
REMARK VINA RESULT:    -3.045      8.871     11.419
REMARK INTER + INTRA:          -8.508
REMARK INTER:                  -5.737
REMARK INTRA:                  -2.771
REMARK UNBOUND:                -2.616
REMARK SMILES CCCCCCCCCCCCCCCCCC(=O)[O-]
REMARK SMILES IDX 10 1 11 2 12 3 13 4 14 5 15 6 16 7 17 8 18 9 19 10 20 11
REMARK SMILES IDX 9 12 8 13 7 14 6 15 5 16 4 17 3 18 2 19 1 20
REMARK H PARENT
REMARK Flexibility Score: inf
ROOT
ATOM      1  C   UNL     1       1.612   8.800  26.774  1.00  0.00     0.000 C 
ENDROOT
BRANCH   1   2
ATOM      2  C   UNL     1       1.430   8.927  25.250  1.00  0.00     0.000 C 
BRANCH   2   3
ATOM      3  C   UNL     1       0.293   8.043  24.707  1.00  0.00     0.000 C 
BRANCH   3   4
ATOM      4  C   UNL     1      -0.352   7.174  25.799  1.00  0.00     0.000 C 
BRANCH   4   5
ATOM      5  C   UNL     1      -1.035   5.920  25.231  1.00  0.00     0.000 C 
BRANCH   5   6
ATOM      6  C   UNL     1      -1.667   5.085  26.352  1.00  0.00     0.000 C 
BRANCH   6   7
ATOM      7  C   UNL     1      -2.158   3.730  25.821  1.00  0.00     0.006 C 
BRANCH   7   8
ATOM      8  C   UNL     1      -3.368   3.203  26.603  1.00  0.00     0.053 C 
BRANCH   8   9
ATOM      9  C   UNL     1      -3.046   2.986  28.050  1.00  0.00     0.041 C 
ATOM     10  O   UNL     1      -2.113   2.208  28.380  1.00  0.00    -0.550 OA
ATOM     11  O   UNL     1      -3.799   3.615  29.033  1.00  0.00    -0.550 OA
ENDBRANCH   8   9
ENDBRANCH   7   8
ENDBRANCH   6   7
ENDBRANCH   5   6
ENDBRANCH   4   5
ENDBRANCH   3   4
ENDBRANCH   2   3
ENDBRANCH   1   2
BRANCH   1  12
ATOM     12  C   UNL     1       3.038   8.448  27.237  1.00  0.00     0.000 C 
BRANCH  12  13
ATOM     13  C   UNL     1       3.851   7.706  26.161  1.00  0.00    -0.000 C 
BRANCH  13  14
ATOM     14  C   UNL     1       4.679   6.550  26.747  1.00  0.00    -0.000 C 
BRANCH  14  15
ATOM     15  C   UNL     1       4.321   5.194  26.114  1.00  0.00    -0.000 C 
BRANCH  15  16
ATOM     16  C   UNL     1       2.906   5.174  25.505  1.00  0.00    -0.000 C 
BRANCH  16  17
ATOM     17  C   UNL     1       1.979   4.069  26.046  1.00  0.00    -0.000 C 
BRANCH  17  18
ATOM     18  C   UNL     1       2.177   3.715  27.532  1.00  0.00    -0.000 C 
BRANCH  18  19
ATOM     19  C   UNL     1       1.073   4.268  28.458  1.00  0.00    -0.003 C 
ATOM     20  C   UNL     1       1.320   5.717  28.876  1.00  0.00     0.004 C 
ENDBRANCH  18  19
ENDBRANCH  17  18
ENDBRANCH  16  17
ENDBRANCH  15  16
ENDBRANCH  14  15
ENDBRANCH  13  14
ENDBRANCH  12  13
ENDBRANCH   1  12
TORSDOF 16
ENDMDL
MODEL 5
REMARK VINA RESULT:    -3.022      1.657      2.086
REMARK INTER + INTRA:          -8.465
REMARK INTER:                  -5.948
REMARK INTRA:                  -2.517
REMARK UNBOUND:                -2.616
REMARK SMILES CCCCCCCCCCCCCCCCCC(=O)[O-]
REMARK SMILES IDX 10 1 11 2 12 3 13 4 14 5 15 6 16 7 17 8 18 9 19 10 20 11
REMARK SMILES IDX 9 12 8 13 7 14 6 15 5 16 4 17 3 18 2 19 1 20
REMARK H PARENT
REMARK Flexibility Score: inf
ROOT
ATOM      1  C   UNL     1      -2.987   5.405  39.215  1.00  0.00     0.000 C 
ENDROOT
BRANCH   1   2
ATOM      2  C   UNL     1      -1.995   5.018  38.102  1.00  0.00     0.000 C 
BRANCH   2   3
ATOM      3  C   UNL     1      -2.666   4.876  36.724  1.00  0.00     0.000 C 
BRANCH   3   4
ATOM      4  C   UNL     1      -2.330   6.042  35.781  1.00  0.00     0.000 C 
BRANCH   4   5
ATOM      5  C   UNL     1      -1.191   5.707  34.806  1.00  0.00     0.000 C 
BRANCH   5   6
ATOM      6  C   UNL     1      -0.841   4.215  34.863  1.00  0.00     0.000 C 
BRANCH   6   7
ATOM      7  C   UNL     1       0.645   4.008  35.187  1.00  0.00     0.006 C 
BRANCH   7   8
ATOM      8  C   UNL     1       1.475   3.692  33.936  1.00  0.00     0.053 C 
BRANCH   8   9
ATOM      9  C   UNL     1       2.395   4.818  33.576  1.00  0.00     0.041 C 
ATOM     10  O   UNL     1       3.625   4.734  33.828  1.00  0.00    -0.550 OA
ATOM     11  O   UNL     1       1.888   5.973  32.995  1.00  0.00    -0.550 OA
ENDBRANCH   8   9
ENDBRANCH   7   8
ENDBRANCH   6   7
ENDBRANCH   5   6
ENDBRANCH   4   5
ENDBRANCH   3   4
ENDBRANCH   2   3
ENDBRANCH   1   2
BRANCH   1  12
ATOM     12  C   UNL     1      -2.509   6.522  40.160  1.00  0.00     0.000 C 
BRANCH  12  13
ATOM     13  C   UNL     1      -3.080   7.903  39.793  1.00  0.00    -0.000 C 
BRANCH  13  14
ATOM     14  C   UNL     1      -2.119   8.719  38.912  1.00  0.00    -0.000 C 
BRANCH  14  15
ATOM     15  C   UNL     1      -0.831   9.110  39.657  1.00  0.00    -0.000 C 
BRANCH  15  16
ATOM     16  C   UNL     1       0.429   8.984  38.779  1.00  0.00    -0.000 C 
BRANCH  16  17
ATOM     17  C   UNL     1       0.273   8.084  37.539  1.00  0.00    -0.000 C 
BRANCH  17  18
ATOM     18  C   UNL     1       1.138   6.810  37.540  1.00  0.00    -0.000 C 
BRANCH  18  19
ATOM     19  C   UNL     1       1.349   6.200  38.942  1.00  0.00    -0.003 C 
ATOM     20  C   UNL     1       2.825   5.998  39.284  1.00  0.00     0.004 C 
ENDBRANCH  18  19
ENDBRANCH  17  18
ENDBRANCH  16  17
ENDBRANCH  15  16
ENDBRANCH  14  15
ENDBRANCH  13  14
ENDBRANCH  12  13
ENDBRANCH   1  12
TORSDOF 16
ENDMDL
MODEL 6
REMARK VINA RESULT:    -3.015      1.514      3.307
REMARK INTER + INTRA:          -8.450
REMARK INTER:                  -6.073
REMARK INTRA:                  -2.378
REMARK UNBOUND:                -2.616
REMARK SMILES CCCCCCCCCCCCCCCCCC(=O)[O-]
REMARK SMILES IDX 10 1 11 2 12 3 13 4 14 5 15 6 16 7 17 8 18 9 19 10 20 11
REMARK SMILES IDX 9 12 8 13 7 14 6 15 5 16 4 17 3 18 2 19 1 20
REMARK H PARENT
REMARK Flexibility Score: inf
ROOT
ATOM      1  C   UNL     1      -2.630   8.176  40.287  1.00  0.00     0.000 C 
ENDROOT
BRANCH   1   2
ATOM      2  C   UNL     1      -2.553   8.872  38.914  1.00  0.00     0.000 C 
BRANCH   2   3
ATOM      3  C   UNL     1      -1.245   8.571  38.163  1.00  0.00     0.000 C 
BRANCH   3   4
ATOM      4  C   UNL     1      -1.485   7.874  36.814  1.00  0.00     0.000 C 
BRANCH   4   5
ATOM      5  C   UNL     1      -1.951   6.418  36.974  1.00  0.00     0.000 C 
BRANCH   5   6
ATOM      6  C   UNL     1      -1.942   5.688  35.626  1.00  0.00     0.000 C 
BRANCH   6   7
ATOM      7  C   UNL     1      -0.550   5.741  34.979  1.00  0.00     0.006 C 
BRANCH   7   8
ATOM      8  C   UNL     1      -0.602   5.494  33.466  1.00  0.00     0.053 C 
BRANCH   8   9
ATOM      9  C   UNL     1       0.505   6.201  32.746  1.00  0.00     0.041 C 
ATOM     10  O   UNL     1       0.696   7.431  32.932  1.00  0.00    -0.550 OA
ATOM     11  O   UNL     1       1.303   5.509  31.845  1.00  0.00    -0.550 OA
ENDBRANCH   8   9
ENDBRANCH   7   8
ENDBRANCH   6   7
ENDBRANCH   5   6
ENDBRANCH   4   5
ENDBRANCH   3   4
ENDBRANCH   2   3
ENDBRANCH   1   2
BRANCH   1  12
ATOM     12  C   UNL     1      -3.878   7.304  40.510  1.00  0.00     0.000 C 
BRANCH  12  13
ATOM     13  C   UNL     1      -3.608   5.804  40.293  1.00  0.00    -0.000 C 
BRANCH  13  14
ATOM     14  C   UNL     1      -3.474   5.034  41.618  1.00  0.00    -0.000 C 
BRANCH  14  15
ATOM     15  C   UNL     1      -2.063   4.455  41.817  1.00  0.00    -0.000 C 
BRANCH  15  16
ATOM     16  C   UNL     1      -1.064   4.930  40.745  1.00  0.00    -0.000 C 
BRANCH  16  17
ATOM     17  C   UNL     1       0.033   5.885  41.252  1.00  0.00    -0.000 C 
BRANCH  17  18
ATOM     18  C   UNL     1       0.994   6.412  40.170  1.00  0.00    -0.000 C 
BRANCH  18  19
ATOM     19  C   UNL     1       1.093   5.503  38.926  1.00  0.00    -0.003 C 
ATOM     20  C   UNL     1       1.733   6.205  37.728  1.00  0.00     0.004 C 
ENDBRANCH  18  19
ENDBRANCH  17  18
ENDBRANCH  16  17
ENDBRANCH  15  16
ENDBRANCH  14  15
ENDBRANCH  13  14
ENDBRANCH  12  13
ENDBRANCH   1  12
TORSDOF 16
ENDMDL
MODEL 7
REMARK VINA RESULT:    -2.981      2.636      4.105
REMARK INTER + INTRA:          -8.384
REMARK INTER:                  -5.184
REMARK INTRA:                  -3.200
REMARK UNBOUND:                -2.616
REMARK SMILES CCCCCCCCCCCCCCCCCC(=O)[O-]
REMARK SMILES IDX 10 1 11 2 12 3 13 4 14 5 15 6 16 7 17 8 18 9 19 10 20 11
REMARK SMILES IDX 9 12 8 13 7 14 6 15 5 16 4 17 3 18 2 19 1 20
REMARK H PARENT
REMARK Flexibility Score: inf
ROOT
ATOM      1  C   UNL     1      -1.431   4.238  36.984  1.00  0.00     0.000 C 
ENDROOT
BRANCH   1   2
ATOM      2  C   UNL     1      -1.865   5.018  38.239  1.00  0.00     0.000 C 
BRANCH   2   3
ATOM      3  C   UNL     1      -0.917   4.809  39.432  1.00  0.00     0.000 C 
BRANCH   3   4
ATOM      4  C   UNL     1       0.220   5.844  39.472  1.00  0.00     0.000 C 
BRANCH   4   5
ATOM      5  C   UNL     1       1.586   5.237  39.119  1.00  0.00     0.000 C 
BRANCH   5   6
ATOM      6  C   UNL     1       2.009   5.628  37.698  1.00  0.00     0.000 C 
BRANCH   6   7
ATOM      7  C   UNL     1       2.273   4.383  36.838  1.00  0.00     0.006 C 
BRANCH   7   8
ATOM      8  C   UNL     1       2.431   4.726  35.351  1.00  0.00     0.053 C 
BRANCH   8   9
ATOM      9  C   UNL     1       3.453   3.858  34.684  1.00  0.00     0.041 C 
ATOM     10  O   UNL     1       3.194   2.651  34.436  1.00  0.00    -0.550 OA
ATOM     11  O   UNL     1       4.704   4.372  34.367  1.00  0.00    -0.550 OA
ENDBRANCH   8   9
ENDBRANCH   7   8
ENDBRANCH   6   7
ENDBRANCH   5   6
ENDBRANCH   4   5
ENDBRANCH   3   4
ENDBRANCH   2   3
ENDBRANCH   1   2
BRANCH   1  12
ATOM     12  C   UNL     1      -1.290   5.081  35.703  1.00  0.00     0.000 C 
BRANCH  12  13
ATOM     13  C   UNL     1      -1.634   6.564  35.922  1.00  0.00    -0.000 C 
BRANCH  13  14
ATOM     14  C   UNL     1      -0.394   7.471  35.850  1.00  0.00    -0.000 C 
BRANCH  14  15
ATOM     15  C   UNL     1      -0.345   8.489  37.003  1.00  0.00    -0.000 C 
BRANCH  15  16
ATOM     16  C   UNL     1      -1.740   8.835  37.554  1.00  0.00    -0.000 C 
BRANCH  16  17
ATOM     17  C   UNL     1      -1.843   8.880  39.090  1.00  0.00    -0.000 C 
BRANCH  17  18
ATOM     18  C   UNL     1      -3.150   8.316  39.677  1.00  0.00    -0.000 C 
BRANCH  18  19
ATOM     19  C   UNL     1      -2.951   7.489  40.965  1.00  0.00    -0.003 C 
ATOM     20  C   UNL     1      -1.759   7.965  41.796  1.00  0.00     0.004 C 
ENDBRANCH  18  19
ENDBRANCH  17  18
ENDBRANCH  16  17
ENDBRANCH  15  16
ENDBRANCH  14  15
ENDBRANCH  13  14
ENDBRANCH  12  13
ENDBRANCH   1  12
TORSDOF 16
ENDMDL
MODEL 8
REMARK VINA RESULT:    -2.975      6.178     10.791
REMARK INTER + INTRA:          -8.373
REMARK INTER:                  -5.341
REMARK INTRA:                  -3.032
REMARK UNBOUND:                -2.616
REMARK SMILES CCCCCCCCCCCCCCCCCC(=O)[O-]
REMARK SMILES IDX 10 1 11 2 12 3 13 4 14 5 15 6 16 7 17 8 18 9 19 10 20 11
REMARK SMILES IDX 9 12 8 13 7 14 6 15 5 16 4 17 3 18 2 19 1 20
REMARK H PARENT
REMARK Flexibility Score: inf
ROOT
ATOM      1  C   UNL     1       0.584   5.717  24.298  1.00  0.00     0.000 C 
ENDROOT
BRANCH   1   2
ATOM      2  C   UNL     1      -0.899   5.922  24.662  1.00  0.00     0.000 C 
BRANCH   2   3
ATOM      3  C   UNL     1      -1.279   5.280  26.007  1.00  0.00     0.000 C 
BRANCH   3   4
ATOM      4  C   UNL     1      -0.067   4.688  26.743  1.00  0.00     0.000 C 
BRANCH   4   5
ATOM      5  C   UNL     1      -0.278   4.606  28.263  1.00  0.00     0.000 C 
BRANCH   5   6
ATOM      6  C   UNL     1       0.945   3.990  28.954  1.00  0.00     0.000 C 
BRANCH   6   7
ATOM      7  C   UNL     1       0.785   4.012  30.481  1.00  0.00     0.006 C 
BRANCH   7   8
ATOM      8  C   UNL     1      -0.350   4.939  30.934  1.00  0.00     0.053 C 
BRANCH   8   9
ATOM      9  C   UNL     1       0.172   6.196  31.561  1.00  0.00     0.041 C 
ATOM     10  O   UNL     1       0.655   7.108  30.841  1.00  0.00    -0.550 OA
ATOM     11  O   UNL     1       0.157   6.344  32.941  1.00  0.00    -0.550 OA
ENDBRANCH   8   9
ENDBRANCH   7   8
ENDBRANCH   6   7
ENDBRANCH   5   6
ENDBRANCH   4   5
ENDBRANCH   3   4
ENDBRANCH   2   3
ENDBRANCH   1   2
BRANCH   1  12
ATOM     12  C   UNL     1       1.376   7.008  24.022  1.00  0.00     0.000 C 
BRANCH  12  13
ATOM     13  C   UNL     1       0.657   8.272  24.526  1.00  0.00    -0.000 C 
BRANCH  13  14
ATOM     14  C   UNL     1       1.388   8.930  25.709  1.00  0.00    -0.000 C 
BRANCH  14  15
ATOM     15  C   UNL     1       1.027   8.279  27.056  1.00  0.00    -0.000 C 
BRANCH  15  16
ATOM     16  C   UNL     1       2.196   7.484  27.667  1.00  0.00    -0.000 C 
BRANCH  16  17
ATOM     17  C   UNL     1       3.578   7.779  27.054  1.00  0.00    -0.000 C 
BRANCH  17  18
ATOM     18  C   UNL     1       4.283   6.568  26.414  1.00  0.00    -0.000 C 
BRANCH  18  19
ATOM     19  C   UNL     1       3.668   5.209  26.807  1.00  0.00    -0.003 C 
ATOM     20  C   UNL     1       3.654   4.208  25.651  1.00  0.00     0.004 C 
ENDBRANCH  18  19
ENDBRANCH  17  18
ENDBRANCH  16  17
ENDBRANCH  15  16
ENDBRANCH  14  15
ENDBRANCH  13  14
ENDBRANCH  12  13
ENDBRANCH   1  12
TORSDOF 16
ENDMDL
MODEL 9
REMARK VINA RESULT:    -2.906      6.848     10.732
REMARK INTER + INTRA:          -8.239
REMARK INTER:                  -5.755
REMARK INTRA:                  -2.484
REMARK UNBOUND:                -2.616
REMARK SMILES CCCCCCCCCCCCCCCCCC(=O)[O-]
REMARK SMILES IDX 10 1 11 2 12 3 13 4 14 5 15 6 16 7 17 8 18 9 19 10 20 11
REMARK SMILES IDX 9 12 8 13 7 14 6 15 5 16 4 17 3 18 2 19 1 20
REMARK H PARENT
REMARK Flexibility Score: inf
ROOT
ATOM      1  C   UNL     1       2.334   8.648  27.105  1.00  0.00     0.000 C 
ENDROOT
BRANCH   1   2
ATOM      2  C   UNL     1       1.453   8.069  28.229  1.00  0.00     0.000 C 
BRANCH   2   3
ATOM      3  C   UNL     1       1.745   8.697  29.602  1.00  0.00     0.000 C 
BRANCH   3   4
ATOM      4  C   UNL     1       0.926   8.055  30.732  1.00  0.00     0.000 C 
BRANCH   4   5
ATOM      5  C   UNL     1       1.394   6.630  31.068  1.00  0.00     0.000 C 
BRANCH   5   6
ATOM      6  C   UNL     1       0.262   5.617  30.857  1.00  0.00     0.000 C 
BRANCH   6   7
ATOM      7  C   UNL     1       0.662   4.548  29.830  1.00  0.00     0.006 C 
BRANCH   7   8
ATOM      8  C   UNL     1      -0.096   4.701  28.505  1.00  0.00     0.053 C 
BRANCH   8   9
ATOM      9  C   UNL     1      -1.378   3.927  28.503  1.00  0.00     0.041 C 
ATOM     10  O   UNL     1      -2.265   4.175  27.645  1.00  0.00    -0.550 OA
ATOM     11  O   UNL     1      -1.607   2.956  29.469  1.00  0.00    -0.550 OA
ENDBRANCH   8   9
ENDBRANCH   7   8
ENDBRANCH   6   7
ENDBRANCH   5   6
ENDBRANCH   4   5
ENDBRANCH   3   4
ENDBRANCH   2   3
ENDBRANCH   1   2
BRANCH   1  12
ATOM     12  C   UNL     1       1.696   8.642  25.703  1.00  0.00     0.000 C 
BRANCH  12  13
ATOM     13  C   UNL     1       0.311   7.973  25.678  1.00  0.00    -0.000 C 
BRANCH  13  14
ATOM     14  C   UNL     1       0.372   6.518  25.180  1.00  0.00    -0.000 C 
BRANCH  14  15
ATOM     15  C   UNL     1       1.430   6.319  24.081  1.00  0.00    -0.000 C 
BRANCH  15  16
ATOM     16  C   UNL     1       2.507   5.289  24.469  1.00  0.00    -0.000 C 
BRANCH  16  17
ATOM     17  C   UNL     1       2.297   4.607  25.835  1.00  0.00    -0.000 C 
BRANCH  17  18
ATOM     18  C   UNL     1       3.298   5.016  26.931  1.00  0.00    -0.000 C 
BRANCH  18  19
ATOM     19  C   UNL     1       4.763   5.079  26.448  1.00  0.00    -0.003 C 
ATOM     20  C   UNL     1       5.350   6.488  26.518  1.00  0.00     0.004 C 
ENDBRANCH  18  19
ENDBRANCH  17  18
ENDBRANCH  16  17
ENDBRANCH  15  16
ENDBRANCH  14  15
ENDBRANCH  13  14
ENDBRANCH  12  13
ENDBRANCH   1  12
TORSDOF 16
ENDMDL
