MODEL 1
REMARK VINA RESULT:    -7.149      0.000      0.000
REMARK INTER + INTRA:          -8.701
REMARK INTER:                  -8.403
REMARK INTRA:                  -0.298
REMARK UNBOUND:                -0.298
REMARK SMILES O=c1c(O)c(-c2ccc(O)cc2)oc2cc(O)cc(O)c12
REMARK SMILES IDX 5 1 3 2 2 3 1 4 21 5 19 6 18 7 16 8 15 9 14 10 13 11 6 12
REMARK SMILES IDX 7 13 8 14 9 15 12 16 11 17 10 18 4 20 20 22 17 24
REMARK H PARENT 10 19 4 21 20 23 17 25
REMARK Flexibility Score: inf
ROOT
ATOM      1  C   UNL     1       8.010 -24.126 -13.527  1.00  0.00     0.180 A 
ATOM      2  C   UNL     1       7.940 -25.457 -13.971  1.00  0.00     0.208 A 
ATOM      3  C   UNL     1       8.678 -26.440 -13.293  1.00  0.00     0.238 A 
ATOM      4  O   UNL     1       8.669 -27.616 -13.740  1.00  0.00    -0.285 OA
ATOM      5  C   UNL     1       9.432 -26.090 -12.146  1.00  0.00     0.111 A 
ATOM      6  C   UNL     1      10.182 -27.012 -11.355  1.00  0.00     0.134 A 
ATOM      7  C   UNL     1      10.976 -26.535 -10.304  1.00  0.00     0.093 A 
ATOM      8  C   UNL     1      10.998 -25.180  -9.976  1.00  0.00     0.123 A 
ATOM      9  C   UNL     1      10.225 -24.278 -10.708  1.00  0.00     0.094 A 
ATOM     10  C   UNL     1       9.454 -24.717 -11.785  1.00  0.00     0.146 A 
ATOM     11  O   UNL     1       8.751 -23.821 -12.468  1.00  0.00    -0.452 OA
ENDROOT
BRANCH   1  12
ATOM     12  C   UNL     1       7.272 -23.031 -14.198  1.00  0.00     0.021 A 
ATOM     13  C   UNL     1       6.019 -22.636 -13.701  1.00  0.00     0.016 A 
ATOM     14  C   UNL     1       5.314 -21.589 -14.305  1.00  0.00     0.047 A 
ATOM     15  C   UNL     1       5.860 -20.916 -15.401  1.00  0.00     0.115 A 
ATOM     16  C   UNL     1       7.824 -22.336 -15.290  1.00  0.00     0.016 A 
ATOM     17  C   UNL     1       7.119 -21.289 -15.891  1.00  0.00     0.047 A 
BRANCH  15  18
ATOM     18  O   UNL     1       5.147 -19.875 -15.993  1.00  0.00    -0.508 OA
ATOM     19  H   UNL     1       5.609 -19.172 -16.559  1.00  0.00     0.293 HD
ENDBRANCH  15  18
ENDBRANCH   1  12
BRANCH   2  20
ATOM     20  O   UNL     1       7.129 -25.795 -15.057  1.00  0.00    -0.502 OA
ATOM     21  H   UNL     1       7.370 -26.535 -15.707  1.00  0.00     0.293 HD
ENDBRANCH   2  20
BRANCH   6  22
ATOM     22  O   UNL     1      10.164 -28.399 -11.538  1.00  0.00    -0.507 OA
ATOM     23  H   UNL     1      10.183 -28.863 -12.434  1.00  0.00     0.293 HD
ENDBRANCH   6  22
BRANCH   8  24
ATOM     24  O   UNL     1      11.786 -24.743  -8.914  1.00  0.00    -0.508 OA
ATOM     25  H   UNL     1      11.411 -24.654  -7.977  1.00  0.00     0.293 HD
ENDBRANCH   8  24
TORSDOF 5
ENDMDL
MODEL 2
REMARK VINA RESULT:    -7.092     11.863     14.014
REMARK INTER + INTRA:          -8.634
REMARK INTER:                  -8.389
REMARK INTRA:                  -0.245
REMARK UNBOUND:                -0.298
REMARK SMILES O=c1c(O)c(-c2ccc(O)cc2)oc2cc(O)cc(O)c12
REMARK SMILES IDX 5 1 3 2 2 3 1 4 21 5 19 6 18 7 16 8 15 9 14 10 13 11 6 12
REMARK SMILES IDX 7 13 8 14 9 15 12 16 11 17 10 18 4 20 20 22 17 24
REMARK H PARENT 10 19 4 21 20 23 17 25
REMARK Flexibility Score: inf
ROOT
ATOM      1  C   UNL     1      15.088 -32.495 -19.799  1.00  0.00     0.180 A 
ATOM      2  C   UNL     1      15.311 -31.109 -19.758  1.00  0.00     0.208 A 
ATOM      3  C   UNL     1      16.504 -30.595 -20.290  1.00  0.00     0.238 A 
ATOM      4  O   UNL     1      16.730 -29.362 -20.182  1.00  0.00    -0.285 OA
ATOM      5  C   UNL     1      17.434 -31.466 -20.907  1.00  0.00     0.111 A 
ATOM      6  C   UNL     1      18.655 -31.050 -21.519  1.00  0.00     0.134 A 
ATOM      7  C   UNL     1      19.548 -32.013 -22.005  1.00  0.00     0.093 A 
ATOM      8  C   UNL     1      19.238 -33.372 -21.958  1.00  0.00     0.123 A 
ATOM      9  C   UNL     1      18.022 -33.786 -21.412  1.00  0.00     0.094 A 
ATOM     10  C   UNL     1      17.128 -32.853 -20.885  1.00  0.00     0.146 A 
ATOM     11  O   UNL     1      15.993 -33.292 -20.355  1.00  0.00    -0.452 OA
ENDROOT
BRANCH   1  12
ATOM     12  C   UNL     1      13.862 -33.114 -19.246  1.00  0.00     0.021 A 
ATOM     13  C   UNL     1      12.669 -33.067 -19.988  1.00  0.00     0.016 A 
ATOM     14  C   UNL     1      11.504 -33.664 -19.496  1.00  0.00     0.047 A 
ATOM     15  C   UNL     1      11.520 -34.328 -18.266  1.00  0.00     0.115 A 
ATOM     16  C   UNL     1      13.876 -33.801 -18.018  1.00  0.00     0.016 A 
ATOM     17  C   UNL     1      12.710 -34.399 -17.529  1.00  0.00     0.047 A 
BRANCH  15  18
ATOM     18  O   UNL     1      10.352 -34.918 -17.788  1.00  0.00    -0.508 OA
ATOM     19  H   UNL     1      10.072 -34.828 -16.818  1.00  0.00     0.293 HD
ENDBRANCH  15  18
ENDBRANCH   1  12
BRANCH   2  20
ATOM     20  O   UNL     1      14.346 -30.257 -19.213  1.00  0.00    -0.502 OA
ATOM     21  H   UNL     1      14.436 -29.854 -18.288  1.00  0.00     0.293 HD
ENDBRANCH   2  20
BRANCH   6  22
ATOM     22  O   UNL     1      19.026 -29.713 -21.698  1.00  0.00    -0.507 OA
ATOM     23  H   UNL     1      19.372 -29.107 -20.970  1.00  0.00     0.293 HD
ENDBRANCH   6  22
BRANCH   8  24
ATOM     24  O   UNL     1      20.143 -34.301 -22.466  1.00  0.00    -0.508 OA
ATOM     25  H   UNL     1      20.047 -35.292 -22.277  1.00  0.00     0.293 HD
ENDBRANCH   8  24
TORSDOF 5
ENDMDL
MODEL 3
REMARK VINA RESULT:    -6.871     12.603     14.120
REMARK INTER + INTRA:          -8.374
REMARK INTER:                  -8.078
REMARK INTRA:                  -0.296
REMARK UNBOUND:                -0.298
REMARK SMILES O=c1c(O)c(-c2ccc(O)cc2)oc2cc(O)cc(O)c12
REMARK SMILES IDX 5 1 3 2 2 3 1 4 21 5 19 6 18 7 16 8 15 9 14 10 13 11 6 12
REMARK SMILES IDX 7 13 8 14 9 15 12 16 11 17 10 18 4 20 20 22 17 24
REMARK H PARENT 10 19 4 21 20 23 17 25
REMARK Flexibility Score: inf
ROOT
ATOM      1  C   UNL     1      17.681 -29.486 -21.428  1.00  0.00     0.180 A 
ATOM      2  C   UNL     1      17.816 -29.371 -20.034  1.00  0.00     0.208 A 
ATOM      3  C   UNL     1      17.112 -30.260 -19.206  1.00  0.00     0.238 A 
ATOM      4  O   UNL     1      17.179 -30.104 -17.959  1.00  0.00    -0.285 OA
ATOM      5  C   UNL     1      16.328 -31.289 -19.782  1.00  0.00     0.111 A 
ATOM      6  C   UNL     1      15.608 -32.274 -19.039  1.00  0.00     0.134 A 
ATOM      7  C   UNL     1      14.780 -33.179 -19.715  1.00  0.00     0.093 A 
ATOM      8  C   UNL     1      14.693 -33.177 -21.106  1.00  0.00     0.123 A 
ATOM      9  C   UNL     1      15.435 -32.254 -21.845  1.00  0.00     0.094 A 
ATOM     10  C   UNL     1      16.240 -31.314 -21.199  1.00  0.00     0.146 A 
ATOM     11  O   UNL     1      16.912 -30.440 -21.939  1.00  0.00    -0.452 OA
ENDROOT
BRANCH   1  12
ATOM     12  C   UNL     1      18.378 -28.577 -22.365  1.00  0.00     0.021 A 
ATOM     13  C   UNL     1      19.615 -28.962 -22.910  1.00  0.00     0.016 A 
ATOM     14  C   UNL     1      20.281 -28.130 -23.815  1.00  0.00     0.047 A 
ATOM     15  C   UNL     1      19.714 -26.912 -24.199  1.00  0.00     0.115 A 
ATOM     16  C   UNL     1      17.803 -27.359 -22.771  1.00  0.00     0.016 A 
ATOM     17  C   UNL     1      18.470 -26.529 -23.677  1.00  0.00     0.047 A 
BRANCH  15  18
ATOM     18  O   UNL     1      20.388 -26.092 -25.101  1.00  0.00    -0.508 OA
ATOM     19  H   UNL     1      20.437 -26.319 -26.088  1.00  0.00     0.293 HD
ENDBRANCH  15  18
ENDBRANCH   1  12
BRANCH   2  20
ATOM     20  O   UNL     1      18.655 -28.397 -19.487  1.00  0.00    -0.502 OA
ATOM     21  H   UNL     1      19.506 -28.631 -18.987  1.00  0.00     0.293 HD
ENDBRANCH   2  20
BRANCH   6  22
ATOM     22  O   UNL     1      15.690 -32.424 -17.651  1.00  0.00    -0.507 OA
ATOM     23  H   UNL     1      14.953 -32.198 -17.001  1.00  0.00     0.293 HD
ENDBRANCH   6  22
BRANCH   8  24
ATOM     24  O   UNL     1      13.872 -34.103 -21.745  1.00  0.00    -0.508 OA
ATOM     25  H   UNL     1      14.182 -35.050 -21.927  1.00  0.00     0.293 HD
ENDBRANCH   8  24
TORSDOF 5
ENDMDL
MODEL 4
REMARK VINA RESULT:    -6.756     10.659     13.126
REMARK INTER + INTRA:          -8.239
REMARK INTER:                  -8.416
REMARK INTRA:                   0.176
REMARK UNBOUND:                -0.298
REMARK SMILES O=c1c(O)c(-c2ccc(O)cc2)oc2cc(O)cc(O)c12
REMARK SMILES IDX 5 1 3 2 2 3 1 4 21 5 19 6 18 7 16 8 15 9 14 10 13 11 6 12
REMARK SMILES IDX 7 13 8 14 9 15 12 16 11 17 10 18 4 20 20 22 17 24
REMARK H PARENT 10 19 4 21 20 23 17 25
REMARK Flexibility Score: inf
ROOT
ATOM      1  C   UNL     1      14.329 -32.020 -20.139  1.00  0.00     0.180 A 
ATOM      2  C   UNL     1      13.413 -30.955 -20.161  1.00  0.00     0.208 A 
ATOM      3  C   UNL     1      12.074 -31.202 -19.817  1.00  0.00     0.238 A 
ATOM      4  O   UNL     1      11.244 -30.261 -19.910  1.00  0.00    -0.285 OA
ATOM      5  C   UNL     1      11.680 -32.497 -19.401  1.00  0.00     0.111 A 
ATOM      6  C   UNL     1      10.360 -32.851 -18.987  1.00  0.00     0.134 A 
ATOM      7  C   UNL     1      10.062 -34.189 -18.699  1.00  0.00     0.093 A 
ATOM      8  C   UNL     1      11.048 -35.173 -18.748  1.00  0.00     0.123 A 
ATOM      9  C   UNL     1      12.353 -34.829 -19.098  1.00  0.00     0.094 A 
ATOM     10  C   UNL     1      12.674 -33.511 -19.428  1.00  0.00     0.146 A 
ATOM     11  O   UNL     1      13.924 -33.231 -19.777  1.00  0.00    -0.452 OA
ENDROOT
BRANCH   1  12
ATOM     12  C   UNL     1      15.753 -31.841 -20.502  1.00  0.00     0.021 A 
ATOM     13  C   UNL     1      16.388 -32.804 -21.307  1.00  0.00     0.016 A 
ATOM     14  C   UNL     1      17.726 -32.644 -21.681  1.00  0.00     0.047 A 
ATOM     15  C   UNL     1      18.441 -31.516 -21.270  1.00  0.00     0.115 A 
ATOM     16  C   UNL     1      16.473 -30.698 -20.110  1.00  0.00     0.016 A 
ATOM     17  C   UNL     1      17.810 -30.540 -20.486  1.00  0.00     0.047 A 
BRANCH  15  18
ATOM     18  O   UNL     1      19.773 -31.370 -21.650  1.00  0.00    -0.508 OA
ATOM     19  H   UNL     1      20.241 -32.067 -22.218  1.00  0.00     0.293 HD
ENDBRANCH  15  18
ENDBRANCH   1  12
BRANCH   2  20
ATOM     20  O   UNL     1      13.838 -29.668 -20.499  1.00  0.00    -0.502 OA
ATOM     21  H   UNL     1      14.770 -29.477 -20.850  1.00  0.00     0.293 HD
ENDBRANCH   2  20
BRANCH   6  22
ATOM     22  O   UNL     1       9.319 -31.932 -18.818  1.00  0.00    -0.507 OA
ATOM     23  H   UNL     1       9.122 -31.162 -19.439  1.00  0.00     0.293 HD
ENDBRANCH   6  22
BRANCH   8  24
ATOM     24  O   UNL     1      10.718 -36.491 -18.438  1.00  0.00    -0.508 OA
ATOM     25  H   UNL     1      11.040 -37.265 -19.007  1.00  0.00     0.293 HD
ENDBRANCH   8  24
TORSDOF 5
ENDMDL
MODEL 5
REMARK VINA RESULT:    -6.709     11.441     13.310
REMARK INTER + INTRA:          -8.183
REMARK INTER:                  -7.897
REMARK INTRA:                  -0.286
REMARK UNBOUND:                -0.298
REMARK SMILES O=c1c(O)c(-c2ccc(O)cc2)oc2cc(O)cc(O)c12
REMARK SMILES IDX 5 1 3 2 2 3 1 4 21 5 19 6 18 7 16 8 15 9 14 10 13 11 6 12
REMARK SMILES IDX 7 13 8 14 9 15 12 16 11 17 10 18 4 20 20 22 17 24
REMARK H PARENT 10 19 4 21 20 23 17 25
REMARK Flexibility Score: inf
ROOT
ATOM      1  C   UNL     1      14.469 -32.909 -19.602  1.00  0.00     0.180 A 
ATOM      2  C   UNL     1      14.399 -33.559 -18.358  1.00  0.00     0.208 A 
ATOM      3  C   UNL     1      13.142 -33.925 -17.850  1.00  0.00     0.238 A 
ATOM      4  O   UNL     1      13.081 -34.438 -16.703  1.00  0.00    -0.285 OA
ATOM      5  C   UNL     1      11.976 -33.689 -18.618  1.00  0.00     0.111 A 
ATOM      6  C   UNL     1      10.654 -34.060 -18.223  1.00  0.00     0.134 A 
ATOM      7  C   UNL     1       9.564 -33.680 -19.017  1.00  0.00     0.093 A 
ATOM      8  C   UNL     1       9.751 -33.000 -20.220  1.00  0.00     0.123 A 
ATOM      9  C   UNL     1      11.041 -32.683 -20.642  1.00  0.00     0.094 A 
ATOM     10  C   UNL     1      12.146 -33.013 -19.855  1.00  0.00     0.146 A 
ATOM     11  O   UNL     1      13.355 -32.672 -20.285  1.00  0.00    -0.452 OA
ENDROOT
BRANCH   1  12
ATOM     12  C   UNL     1      15.755 -32.480 -20.196  1.00  0.00     0.021 A 
ATOM     13  C   UNL     1      16.240 -31.188 -19.933  1.00  0.00     0.016 A 
ATOM     14  C   UNL     1      17.464 -30.768 -20.464  1.00  0.00     0.047 A 
ATOM     15  C   UNL     1      18.224 -31.638 -21.251  1.00  0.00     0.115 A 
ATOM     16  C   UNL     1      16.535 -33.358 -20.971  1.00  0.00     0.016 A 
ATOM     17  C   UNL     1      17.758 -32.936 -21.500  1.00  0.00     0.047 A 
BRANCH  15  18
ATOM     18  O   UNL     1      19.441 -31.207 -21.774  1.00  0.00    -0.508 OA
ATOM     19  H   UNL     1      20.000 -30.504 -21.305  1.00  0.00     0.293 HD
ENDBRANCH  15  18
ENDBRANCH   1  12
BRANCH   2  20
ATOM     20  O   UNL     1      15.568 -33.851 -17.650  1.00  0.00    -0.502 OA
ATOM     21  H   UNL     1      15.582 -33.957 -16.642  1.00  0.00     0.293 HD
ENDBRANCH   2  20
BRANCH   6  22
ATOM     22  O   UNL     1      10.360 -34.816 -17.085  1.00  0.00    -0.507 OA
ATOM     23  H   UNL     1      10.157 -34.434 -16.173  1.00  0.00     0.293 HD
ENDBRANCH   6  22
BRANCH   8  24
ATOM     24  O   UNL     1       8.644 -32.654 -20.992  1.00  0.00    -0.508 OA
ATOM     25  H   UNL     1       7.810 -33.229 -21.010  1.00  0.00     0.293 HD
ENDBRANCH   8  24
TORSDOF 5
ENDMDL
MODEL 6
REMARK VINA RESULT:    -6.618     13.022     15.032
REMARK INTER + INTRA:          -8.076
REMARK INTER:                  -7.866
REMARK INTRA:                  -0.210
REMARK UNBOUND:                -0.298
REMARK SMILES O=c1c(O)c(-c2ccc(O)cc2)oc2cc(O)cc(O)c12
REMARK SMILES IDX 5 1 3 2 2 3 1 4 21 5 19 6 18 7 16 8 15 9 14 10 13 11 6 12
REMARK SMILES IDX 7 13 8 14 9 15 12 16 11 17 10 18 4 20 20 22 17 24
REMARK H PARENT 10 19 4 21 20 23 17 25
REMARK Flexibility Score: inf
ROOT
ATOM      1  C   UNL     1      17.541 -29.862 -21.693  1.00  0.00     0.180 A 
ATOM      2  C   UNL     1      18.871 -29.919 -22.142  1.00  0.00     0.208 A 
ATOM      3  C   UNL     1      19.362 -28.881 -22.950  1.00  0.00     0.238 A 
ATOM      4  O   UNL     1      20.529 -28.975 -23.410  1.00  0.00    -0.285 OA
ATOM      5  C   UNL     1      18.534 -27.772 -23.253  1.00  0.00     0.111 A 
ATOM      6  C   UNL     1      18.941 -26.642 -24.026  1.00  0.00     0.134 A 
ATOM      7  C   UNL     1      18.004 -25.653 -24.350  1.00  0.00     0.093 A 
ATOM      8  C   UNL     1      16.693 -25.721 -23.879  1.00  0.00     0.123 A 
ATOM      9  C   UNL     1      16.300 -26.792 -23.077  1.00  0.00     0.094 A 
ATOM     10  C   UNL     1      17.201 -27.813 -22.768  1.00  0.00     0.146 A 
ATOM     11  O   UNL     1      16.778 -28.826 -22.021  1.00  0.00    -0.452 OA
ENDROOT
BRANCH   1  12
ATOM     12  C   UNL     1      16.948 -30.925 -20.850  1.00  0.00     0.021 A 
ATOM     13  C   UNL     1      16.611 -30.641 -19.516  1.00  0.00     0.016 A 
ATOM     14  C   UNL     1      16.028 -31.623 -18.708  1.00  0.00     0.047 A 
ATOM     15  C   UNL     1      15.761 -32.893 -19.226  1.00  0.00     0.115 A 
ATOM     16  C   UNL     1      16.657 -32.199 -21.372  1.00  0.00     0.016 A 
ATOM     17  C   UNL     1      16.074 -33.178 -20.563  1.00  0.00     0.047 A 
BRANCH  15  18
ATOM     18  O   UNL     1      15.180 -33.861 -18.410  1.00  0.00    -0.508 OA
ATOM     19  H   UNL     1      15.723 -34.366 -17.719  1.00  0.00     0.293 HD
ENDBRANCH  15  18
ENDBRANCH   1  12
BRANCH   2  20
ATOM     20  O   UNL     1      19.695 -30.984 -21.769  1.00  0.00    -0.502 OA
ATOM     21  H   UNL     1      19.897 -31.759 -22.390  1.00  0.00     0.293 HD
ENDBRANCH   2  20
BRANCH   6  22
ATOM     22  O   UNL     1      20.249 -26.429 -24.474  1.00  0.00    -0.507 OA
ATOM     23  H   UNL     1      20.843 -25.668 -24.183  1.00  0.00     0.293 HD
ENDBRANCH   6  22
BRANCH   8  24
ATOM     24  O   UNL     1      15.792 -24.710 -24.208  1.00  0.00    -0.508 OA
ATOM     25  H   UNL     1      16.005 -24.022 -24.921  1.00  0.00     0.293 HD
ENDBRANCH   8  24
TORSDOF 5
ENDMDL
MODEL 7
REMARK VINA RESULT:    -6.535      1.776      6.995
REMARK INTER + INTRA:          -7.979
REMARK INTER:                  -7.701
REMARK INTRA:                  -0.278
REMARK UNBOUND:                -0.298
REMARK SMILES O=c1c(O)c(-c2ccc(O)cc2)oc2cc(O)cc(O)c12
REMARK SMILES IDX 5 1 3 2 2 3 1 4 21 5 19 6 18 7 16 8 15 9 14 10 13 11 6 12
REMARK SMILES IDX 7 13 8 14 9 15 12 16 11 17 10 18 4 20 20 22 17 24
REMARK H PARENT 10 19 4 21 20 23 17 25
REMARK Flexibility Score: inf
ROOT
ATOM      1  C   UNL     1       7.873 -23.842 -13.669  1.00  0.00     0.180 A 
ATOM      2  C   UNL     1       6.739 -23.345 -13.005  1.00  0.00     0.208 A 
ATOM      3  C   UNL     1       6.099 -22.203 -13.512  1.00  0.00     0.238 A 
ATOM      4  O   UNL     1       5.130 -21.721 -12.871  1.00  0.00    -0.285 OA
ATOM      5  C   UNL     1       6.567 -21.605 -14.707  1.00  0.00     0.111 A 
ATOM      6  C   UNL     1       5.969 -20.471 -15.337  1.00  0.00     0.134 A 
ATOM      7  C   UNL     1       6.581 -19.901 -16.459  1.00  0.00     0.093 A 
ATOM      8  C   UNL     1       7.733 -20.459 -17.013  1.00  0.00     0.123 A 
ATOM      9  C   UNL     1       8.294 -21.600 -16.439  1.00  0.00     0.094 A 
ATOM     10  C   UNL     1       7.729 -22.169 -15.296  1.00  0.00     0.146 A 
ATOM     11  O   UNL     1       8.309 -23.241 -14.770  1.00  0.00    -0.452 OA
ENDROOT
BRANCH   1  12
ATOM     12  C   UNL     1       8.610 -25.033 -13.188  1.00  0.00     0.021 A 
ATOM     13  C   UNL     1       8.416 -26.270 -13.825  1.00  0.00     0.016 A 
ATOM     14  C   UNL     1       9.118 -27.403 -13.402  1.00  0.00     0.047 A 
ATOM     15  C   UNL     1      10.033 -27.311 -12.349  1.00  0.00     0.115 A 
ATOM     16  C   UNL     1       9.547 -24.943 -12.142  1.00  0.00     0.016 A 
ATOM     17  C   UNL     1      10.249 -26.077 -11.722  1.00  0.00     0.047 A 
BRANCH  15  18
ATOM     18  O   UNL     1      10.726 -28.448 -11.938  1.00  0.00    -0.508 OA
ATOM     19  H   UNL     1      10.328 -29.098 -11.271  1.00  0.00     0.293 HD
ENDBRANCH  15  18
ENDBRANCH   1  12
BRANCH   2  20
ATOM     20  O   UNL     1       6.247 -23.995 -11.870  1.00  0.00    -0.502 OA
ATOM     21  H   UNL     1       6.578 -24.909 -11.580  1.00  0.00     0.293 HD
ENDBRANCH   2  20
BRANCH   6  22
ATOM     22  O   UNL     1       4.769 -19.886 -14.920  1.00  0.00    -0.507 OA
ATOM     23  H   UNL     1       4.520 -19.699 -13.960  1.00  0.00     0.293 HD
ENDBRANCH   6  22
BRANCH   8  24
ATOM     24  O   UNL     1       8.306 -19.875 -18.140  1.00  0.00    -0.508 OA
ATOM     25  H   UNL     1       8.091 -18.923 -18.411  1.00  0.00     0.293 HD
ENDBRANCH   8  24
TORSDOF 5
ENDMDL
MODEL 8
REMARK VINA RESULT:    -6.460      9.444     10.391
REMARK INTER + INTRA:          -7.891
REMARK INTER:                  -7.628
REMARK INTRA:                  -0.263
REMARK UNBOUND:                -0.298
REMARK SMILES O=c1c(O)c(-c2ccc(O)cc2)oc2cc(O)cc(O)c12
REMARK SMILES IDX 5 1 3 2 2 3 1 4 21 5 19 6 18 7 16 8 15 9 14 10 13 11 6 12
REMARK SMILES IDX 7 13 8 14 9 15 12 16 11 17 10 18 4 20 20 22 17 24
REMARK H PARENT 10 19 4 21 20 23 17 25
REMARK Flexibility Score: inf
ROOT
ATOM      1  C   UNL     1      11.075 -33.765 -15.339  1.00  0.00     0.180 A 
ATOM      2  C   UNL     1      10.575 -34.502 -14.252  1.00  0.00     0.208 A 
ATOM      3  C   UNL     1      11.433 -34.805 -13.182  1.00  0.00     0.238 A 
ATOM      4  O   UNL     1      11.000 -35.527 -12.248  1.00  0.00    -0.285 OA
ATOM      5  C   UNL     1      12.764 -34.320 -13.187  1.00  0.00     0.111 A 
ATOM      6  C   UNL     1      13.708 -34.529 -12.136  1.00  0.00     0.134 A 
ATOM      7  C   UNL     1      15.029 -34.093 -12.298  1.00  0.00     0.093 A 
ATOM      8  C   UNL     1      15.425 -33.402 -13.443  1.00  0.00     0.123 A 
ATOM      9  C   UNL     1      14.496 -33.145 -14.452  1.00  0.00     0.094 A 
ATOM     10  C   UNL     1      13.182 -33.600 -14.337  1.00  0.00     0.146 A 
ATOM     11  O   UNL     1      12.337 -33.352 -15.331  1.00  0.00    -0.452 OA
ENDROOT
BRANCH   1  12
ATOM     12  C   UNL     1      10.236 -33.419 -16.509  1.00  0.00     0.021 A 
ATOM     13  C   UNL     1       9.370 -32.315 -16.436  1.00  0.00     0.016 A 
ATOM     14  C   UNL     1       8.586 -31.955 -17.537  1.00  0.00     0.047 A 
ATOM     15  C   UNL     1       8.668 -32.684 -18.726  1.00  0.00     0.115 A 
ATOM     16  C   UNL     1      10.329 -34.136 -17.716  1.00  0.00     0.016 A 
ATOM     17  C   UNL     1       9.544 -33.774 -18.815  1.00  0.00     0.047 A 
BRANCH  15  18
ATOM     18  O   UNL     1       7.880 -32.315 -19.815  1.00  0.00    -0.508 OA
ATOM     19  H   UNL     1       6.961 -32.716 -19.964  1.00  0.00     0.293 HD
ENDBRANCH  15  18
ENDBRANCH   1  12
BRANCH   2  20
ATOM     20  O   UNL     1       9.237 -34.904 -14.231  1.00  0.00    -0.502 OA
ATOM     21  H   UNL     1       8.836 -35.420 -13.455  1.00  0.00     0.293 HD
ENDBRANCH   2  20
BRANCH   6  22
ATOM     22  O   UNL     1      13.398 -35.129 -10.912  1.00  0.00    -0.507 OA
ATOM     23  H   UNL     1      12.709 -34.788 -10.259  1.00  0.00     0.293 HD
ENDBRANCH   6  22
BRANCH   8  24
ATOM     24  O   UNL     1      16.743 -32.969 -13.562  1.00  0.00    -0.508 OA
ATOM     25  H   UNL     1      17.140 -32.295 -12.918  1.00  0.00     0.293 HD
ENDBRANCH   8  24
TORSDOF 5
ENDMDL
MODEL 9
REMARK VINA RESULT:    -6.444     11.143     12.908
REMARK INTER + INTRA:          -7.872
REMARK INTER:                  -7.610
REMARK INTRA:                  -0.263
REMARK UNBOUND:                -0.298
REMARK SMILES O=c1c(O)c(-c2ccc(O)cc2)oc2cc(O)cc(O)c12
REMARK SMILES IDX 5 1 3 2 2 3 1 4 21 5 19 6 18 7 16 8 15 9 14 10 13 11 6 12
REMARK SMILES IDX 7 13 8 14 9 15 12 16 11 17 10 18 4 20 20 22 17 24
REMARK H PARENT 10 19 4 21 20 23 17 25
REMARK Flexibility Score: inf
ROOT
ATOM      1  C   UNL     1      14.676 -32.491 -19.586  1.00  0.00     0.180 A 
ATOM      2  C   UNL     1      15.507 -32.719 -20.697  1.00  0.00     0.208 A 
ATOM      3  C   UNL     1      16.613 -31.880 -20.904  1.00  0.00     0.238 A 
ATOM      4  O   UNL     1      17.308 -32.043 -21.939  1.00  0.00    -0.285 OA
ATOM      5  C   UNL     1      16.908 -30.859 -19.967  1.00  0.00     0.111 A 
ATOM      6  C   UNL     1      18.029 -29.978 -20.052  1.00  0.00     0.134 A 
ATOM      7  C   UNL     1      18.162 -28.937 -19.125  1.00  0.00     0.093 A 
ATOM      8  C   UNL     1      17.251 -28.782 -18.081  1.00  0.00     0.123 A 
ATOM      9  C   UNL     1      16.183 -29.671 -17.956  1.00  0.00     0.094 A 
ATOM     10  C   UNL     1      16.002 -30.696 -18.887  1.00  0.00     0.146 A 
ATOM     11  O   UNL     1      14.960 -31.506 -18.743  1.00  0.00    -0.452 OA
ENDROOT
BRANCH   1  12
ATOM     12  C   UNL     1      13.484 -33.324 -19.309  1.00  0.00     0.021 A 
ATOM     13  C   UNL     1      12.293 -33.082 -20.014  1.00  0.00     0.016 A 
ATOM     14  C   UNL     1      11.161 -33.871 -19.785  1.00  0.00     0.047 A 
ATOM     15  C   UNL     1      11.210 -34.919 -18.863  1.00  0.00     0.115 A 
ATOM     16  C   UNL     1      13.533 -34.395 -18.397  1.00  0.00     0.016 A 
ATOM     17  C   UNL     1      12.400 -35.182 -18.171  1.00  0.00     0.047 A 
BRANCH  15  18
ATOM     18  O   UNL     1      10.075 -35.697 -18.644  1.00  0.00    -0.508 OA
ATOM     19  H   UNL     1       9.868 -36.088 -17.733  1.00  0.00     0.293 HD
ENDBRANCH  15  18
ENDBRANCH   1  12
BRANCH   2  20
ATOM     20  O   UNL     1      15.242 -33.780 -21.567  1.00  0.00    -0.502 OA
ATOM     21  H   UNL     1      14.301 -34.031 -21.848  1.00  0.00     0.293 HD
ENDBRANCH   2  20
BRANCH   6  22
ATOM     22  O   UNL     1      19.048 -30.096 -21.004  1.00  0.00    -0.507 OA
ATOM     23  H   UNL     1      19.961 -30.487 -20.827  1.00  0.00     0.293 HD
ENDBRANCH   6  22
BRANCH   8  24
ATOM     24  O   UNL     1      17.424 -27.746 -17.167  1.00  0.00    -0.508 OA
ATOM     25  H   UNL     1      17.791 -26.845 -17.451  1.00  0.00     0.293 HD
ENDBRANCH   8  24
TORSDOF 5
ENDMDL
