MODEL 1
REMARK VINA RESULT:    -6.073      0.000      0.000
REMARK INTER + INTRA:          -9.502
REMARK INTER:                  -8.381
REMARK INTRA:                  -1.121
REMARK UNBOUND:                -1.121
REMARK SMILES CC[C@H](CC[C@H](C)[C@@H]1CC[C@H]2[C@H]3CC=C4C[C@H](O)CC[C@]4(C)[C@H]3CC[C@]21C)C(C)C
REMARK SMILES IDX 5 1 4 2 3 3 2 4 1 5 28 6 29 7 30 8 6 9 7 10 8 11 9 12 26 13
REMARK SMILES IDX 10 14 11 15 25 16 27 17 12 18 24 19 23 20 13 21 21 22 14 23
REMARK SMILES IDX 15 24 20 25 22 26 16 27 19 28 17 29 18 30
REMARK H PARENT 18 31
REMARK Flexibility Score: inf
ROOT
ATOM      1  C   UNL     1      -4.091  -4.787  -7.125  1.00  0.00     0.004 C 
ENDROOT
BRANCH   1   2
ATOM      2  C   UNL     1      -2.673  -4.958  -6.517  1.00  0.00     0.004 C 
BRANCH   2   3
ATOM      3  C   UNL     1      -2.650  -5.519  -5.060  1.00  0.00    -0.009 C 
BRANCH   3   4
ATOM      4  C   UNL     1      -3.483  -6.832  -4.946  1.00  0.00     0.000 C 
ATOM      5  C   UNL     1      -2.662  -8.090  -5.244  1.00  0.00     0.004 C 
ENDBRANCH   3   4
BRANCH   3   6
ATOM      6  C   UNL     1      -1.194  -5.663  -4.486  1.00  0.00    -0.014 C 
ATOM      7  C   UNL     1      -1.130  -5.392  -2.967  1.00  0.00     0.007 C 
ATOM      8  C   UNL     1      -0.209  -4.703  -5.186  1.00  0.00     0.007 C 
ENDBRANCH   3   6
ENDBRANCH   2   3
ENDBRANCH   1   2
BRANCH   1   9
ATOM      9  C   UNL     1      -5.066  -3.882  -6.311  1.00  0.00    -0.011 C 
ATOM     10  C   UNL     1      -6.531  -4.089  -6.738  1.00  0.00     0.008 C 
BRANCH   9  11
ATOM     11  C   UNL     1      -4.707  -2.354  -6.226  1.00  0.00    -0.002 C 
ATOM     12  C   UNL     1      -3.297  -1.934  -6.660  1.00  0.00     0.005 C 
ATOM     13  C   UNL     1      -4.936  -1.657  -4.855  1.00  0.00    -0.026 C 
ATOM     14  C   UNL     1      -3.026  -0.580  -5.996  1.00  0.00     0.005 C 
ATOM     15  C   UNL     1      -4.191  -0.305  -5.024  1.00  0.00    -0.001 C 
ATOM     16  C   UNL     1      -6.448  -1.458  -4.535  1.00  0.00     0.007 C 
ATOM     17  C   UNL     1      -4.274  -2.448  -3.691  1.00  0.00     0.012 C 
ATOM     18  C   UNL     1      -5.100   0.907  -5.424  1.00  0.00     0.000 C 
ATOM     19  C   UNL     1      -6.678  -0.204  -3.677  1.00  0.00     0.005 C 
ATOM     20  C   UNL     1      -6.293   1.108  -4.422  1.00  0.00     0.003 C 
ATOM     21  C   UNL     1      -5.600   0.937  -6.880  1.00  0.00     0.031 C 
ATOM     22  C   UNL     1      -7.534   1.945  -4.997  1.00  0.00    -0.008 C 
ATOM     23  C   UNL     1      -6.269   2.257  -7.125  1.00  0.00    -0.027 C 
ATOM     24  C   UNL     1      -7.113   2.783  -6.216  1.00  0.00    -0.065 C 
ATOM     25  C   UNL     1      -8.055   2.882  -3.858  1.00  0.00     0.014 C 
ATOM     26  C   UNL     1      -8.714   1.045  -5.471  1.00  0.00     0.016 C 
ATOM     27  C   UNL     1      -7.887   4.031  -6.606  1.00  0.00     0.063 C 
ATOM     28  C   UNL     1      -9.003   3.984  -4.347  1.00  0.00     0.033 C 
ATOM     29  C   UNL     1      -8.317   4.866  -5.397  1.00  0.00     0.118 C 
BRANCH  29  30
ATOM     30  O   UNL     1      -7.196   5.512  -4.850  1.00  0.00    -0.393 OA
ATOM     31  H   UNL     1      -6.504   4.814  -4.708  1.00  0.00     0.210 HD
ENDBRANCH  29  30
ENDBRANCH   9  11
ENDBRANCH   1   9
TORSDOF 7
ENDMDL
MODEL 2
REMARK VINA RESULT:    -5.945      2.858      8.719
REMARK INTER + INTRA:          -9.324
REMARK INTER:                  -7.646
REMARK INTRA:                  -1.679
REMARK UNBOUND:                -1.121
REMARK SMILES CC[C@H](CC[C@H](C)[C@@H]1CC[C@H]2[C@H]3CC=C4C[C@H](O)CC[C@]4(C)[C@H]3CC[C@]21C)C(C)C
REMARK SMILES IDX 5 1 4 2 3 3 2 4 1 5 28 6 29 7 30 8 6 9 7 10 8 11 9 12 26 13
REMARK SMILES IDX 10 14 11 15 25 16 27 17 12 18 24 19 23 20 13 21 21 22 14 23
REMARK SMILES IDX 15 24 20 25 22 26 16 27 19 28 17 29 18 30
REMARK H PARENT 18 31
REMARK Flexibility Score: inf
ROOT
ATOM      1  C   UNL     1      -7.143   2.148  -7.123  1.00  0.00     0.004 C 
ENDROOT
BRANCH   1   2
ATOM      2  C   UNL     1      -7.879   3.186  -6.236  1.00  0.00     0.004 C 
BRANCH   2   3
ATOM      3  C   UNL     1      -8.757   2.571  -5.101  1.00  0.00    -0.009 C 
BRANCH   3   4
ATOM      4  C   UNL     1      -9.215   3.663  -4.085  1.00  0.00     0.000 C 
ATOM      5  C   UNL     1      -8.384   4.946  -4.170  1.00  0.00     0.004 C 
ENDBRANCH   3   4
BRANCH   3   6
ATOM      6  C   UNL     1      -9.948   1.707  -5.653  1.00  0.00    -0.014 C 
ATOM      7  C   UNL     1     -11.087   2.574  -6.230  1.00  0.00     0.007 C 
ATOM      8  C   UNL     1     -10.545   0.797  -4.558  1.00  0.00     0.007 C 
ENDBRANCH   3   6
ENDBRANCH   2   3
ENDBRANCH   1   2
BRANCH   1   9
ATOM      9  C   UNL     1      -5.976   1.380  -6.431  1.00  0.00    -0.011 C 
ATOM     10  C   UNL     1      -4.614   1.711  -7.069  1.00  0.00     0.008 C 
BRANCH   9  11
ATOM     11  C   UNL     1      -6.159  -0.171  -6.251  1.00  0.00    -0.002 C 
ATOM     12  C   UNL     1      -7.547  -0.756  -6.536  1.00  0.00     0.005 C 
ATOM     13  C   UNL     1      -5.737  -0.771  -4.880  1.00  0.00    -0.026 C 
ATOM     14  C   UNL     1      -7.613  -2.096  -5.795  1.00  0.00     0.005 C 
ATOM     15  C   UNL     1      -6.344  -2.200  -4.924  1.00  0.00    -0.001 C 
ATOM     16  C   UNL     1      -4.191  -0.796  -4.692  1.00  0.00     0.007 C 
ATOM     17  C   UNL     1      -6.377   0.005  -3.693  1.00  0.00     0.012 C 
ATOM     18  C   UNL     1      -5.348  -3.330  -5.356  1.00  0.00     0.000 C 
ATOM     19  C   UNL     1      -3.754  -1.974  -3.808  1.00  0.00     0.005 C 
ATOM     20  C   UNL     1      -4.058  -3.355  -4.460  1.00  0.00     0.003 C 
ATOM     21  C   UNL     1      -4.977  -3.381  -6.849  1.00  0.00     0.031 C 
ATOM     22  C   UNL     1      -2.789  -4.086  -5.112  1.00  0.00    -0.008 C 
ATOM     23  C   UNL     1      -4.193  -4.635  -7.100  1.00  0.00    -0.027 C 
ATOM     24  C   UNL     1      -3.222  -5.025  -6.252  1.00  0.00    -0.065 C 
ATOM     25  C   UNL     1      -2.073  -4.906  -3.989  1.00  0.00     0.014 C 
ATOM     26  C   UNL     1      -1.759  -3.095  -5.729  1.00  0.00     0.016 C 
ATOM     27  C   UNL     1      -2.355  -6.203  -6.660  1.00  0.00     0.063 C 
ATOM     28  C   UNL     1      -1.058  -5.927  -4.517  1.00  0.00     0.033 C 
ATOM     29  C   UNL     1      -1.734  -6.927  -5.462  1.00  0.00     0.118 C 
BRANCH  29  30
ATOM     30  O   UNL     1      -2.727  -7.658  -4.789  1.00  0.00    -0.393 OA
ATOM     31  H   UNL     1      -3.222  -7.011  -4.220  1.00  0.00     0.210 HD
ENDBRANCH  29  30
ENDBRANCH   9  11
ENDBRANCH   1   9
TORSDOF 7
ENDMDL
MODEL 3
REMARK VINA RESULT:    -5.773      3.781      9.629
REMARK INTER + INTRA:          -9.088
REMARK INTER:                  -7.827
REMARK INTRA:                  -1.260
REMARK UNBOUND:                -1.121
REMARK SMILES CC[C@H](CC[C@H](C)[C@@H]1CC[C@H]2[C@H]3CC=C4C[C@H](O)CC[C@]4(C)[C@H]3CC[C@]21C)C(C)C
REMARK SMILES IDX 5 1 4 2 3 3 2 4 1 5 28 6 29 7 30 8 6 9 7 10 8 11 9 12 26 13
REMARK SMILES IDX 10 14 11 15 25 16 27 17 12 18 24 19 23 20 13 21 21 22 14 23
REMARK SMILES IDX 15 24 20 25 22 26 16 27 19 28 17 29 18 30
REMARK H PARENT 18 31
REMARK Flexibility Score: inf
ROOT
ATOM      1  C   UNL     1      -6.027  -3.649  -6.932  1.00  0.00     0.004 C 
ENDROOT
BRANCH   1   2
ATOM      2  C   UNL     1      -6.978  -3.063  -5.854  1.00  0.00     0.004 C 
BRANCH   2   3
ATOM      3  C   UNL     1      -6.859  -1.520  -5.647  1.00  0.00    -0.009 C 
BRANCH   3   4
ATOM      4  C   UNL     1      -7.321  -1.104  -4.216  1.00  0.00     0.000 C 
ATOM      5  C   UNL     1      -8.310   0.064  -4.222  1.00  0.00     0.004 C 
ENDBRANCH   3   4
BRANCH   3   6
ATOM      6  C   UNL     1      -5.437  -0.963  -6.019  1.00  0.00    -0.014 C 
ATOM      7  C   UNL     1      -4.699  -0.369  -4.800  1.00  0.00     0.007 C 
ATOM      8  C   UNL     1      -5.521   0.127  -7.108  1.00  0.00     0.007 C 
ENDBRANCH   3   6
ENDBRANCH   2   3
ENDBRANCH   1   2
BRANCH   1   9
ATOM      9  C   UNL     1      -5.294  -4.967  -6.536  1.00  0.00    -0.011 C 
ATOM     10  C   UNL     1      -6.283  -6.064  -6.098  1.00  0.00     0.008 C 
BRANCH   9  11
ATOM     11  C   UNL     1      -4.102  -4.834  -5.519  1.00  0.00    -0.002 C 
ATOM     12  C   UNL     1      -4.255  -3.819  -4.381  1.00  0.00     0.005 C 
ATOM     13  C   UNL     1      -2.695  -4.562  -6.123  1.00  0.00    -0.026 C 
ATOM     14  C   UNL     1      -2.837  -3.494  -3.897  1.00  0.00     0.005 C 
ATOM     15  C   UNL     1      -1.854  -4.166  -4.879  1.00  0.00    -0.001 C 
ATOM     16  C   UNL     1      -2.110  -5.807  -6.853  1.00  0.00     0.007 C 
ATOM     17  C   UNL     1      -2.717  -3.361  -7.111  1.00  0.00     0.012 C 
ATOM     18  C   UNL     1      -1.004  -5.326  -4.256  1.00  0.00     0.000 C 
ATOM     19  C   UNL     1      -0.576  -5.834  -6.774  1.00  0.00     0.005 C 
ATOM     20  C   UNL     1      -0.058  -5.997  -5.315  1.00  0.00     0.003 C 
ATOM     21  C   UNL     1      -1.779  -6.392  -3.462  1.00  0.00     0.031 C 
ATOM     22  C   UNL     1       0.446  -7.474  -4.940  1.00  0.00    -0.008 C 
ATOM     23  C   UNL     1      -0.788  -7.288  -2.780  1.00  0.00    -0.027 C 
ATOM     24  C   UNL     1       0.303  -7.736  -3.431  1.00  0.00    -0.065 C 
ATOM     25  C   UNL     1       1.946  -7.595  -5.364  1.00  0.00     0.014 C 
ATOM     26  C   UNL     1      -0.360  -8.597  -5.658  1.00  0.00     0.016 C 
ATOM     27  C   UNL     1       1.166  -8.776  -2.738  1.00  0.00     0.063 C 
ATOM     28  C   UNL     1       2.664  -8.811  -4.765  1.00  0.00     0.033 C 
ATOM     29  C   UNL     1       2.615  -8.772  -3.233  1.00  0.00     0.118 C 
BRANCH  29  30
ATOM     30  O   UNL     1       3.275  -7.633  -2.742  1.00  0.00    -0.393 OA
ATOM     31  H   UNL     1       3.508  -7.823  -1.795  1.00  0.00     0.210 HD
ENDBRANCH  29  30
ENDBRANCH   9  11
ENDBRANCH   1   9
TORSDOF 7
ENDMDL
MODEL 4
REMARK VINA RESULT:    -5.685      3.060      9.001
REMARK INTER + INTRA:          -8.966
REMARK INTER:                  -7.587
REMARK INTRA:                  -1.379
REMARK UNBOUND:                -1.121
REMARK SMILES CC[C@H](CC[C@H](C)[C@@H]1CC[C@H]2[C@H]3CC=C4C[C@H](O)CC[C@]4(C)[C@H]3CC[C@]21C)C(C)C
REMARK SMILES IDX 5 1 4 2 3 3 2 4 1 5 28 6 29 7 30 8 6 9 7 10 8 11 9 12 26 13
REMARK SMILES IDX 10 14 11 15 25 16 27 17 12 18 24 19 23 20 13 21 21 22 14 23
REMARK SMILES IDX 15 24 20 25 22 26 16 27 19 28 17 29 18 30
REMARK H PARENT 18 31
REMARK Flexibility Score: inf
ROOT
ATOM      1  C   UNL     1      -5.685   1.220  -7.120  1.00  0.00     0.004 C 
ENDROOT
BRANCH   1   2
ATOM      2  C   UNL     1      -6.530   2.182  -6.243  1.00  0.00     0.004 C 
BRANCH   2   3
ATOM      3  C   UNL     1      -8.011   2.358  -6.707  1.00  0.00    -0.009 C 
BRANCH   3   4
ATOM      4  C   UNL     1      -8.986   1.529  -5.816  1.00  0.00     0.000 C 
ATOM      5  C   UNL     1      -8.372   1.124  -4.473  1.00  0.00     0.004 C 
ENDBRANCH   3   4
BRANCH   3   6
ATOM      6  C   UNL     1      -8.432   3.867  -6.839  1.00  0.00    -0.014 C 
ATOM      7  C   UNL     1      -7.314   4.832  -6.390  1.00  0.00     0.007 C 
ATOM      8  C   UNL     1      -9.696   4.179  -6.011  1.00  0.00     0.007 C 
ENDBRANCH   3   6
ENDBRANCH   2   3
ENDBRANCH   1   2
BRANCH   1   9
ATOM      9  C   UNL     1      -4.682   0.312  -6.345  1.00  0.00    -0.011 C 
ATOM     10  C   UNL     1      -3.229   0.546  -6.798  1.00  0.00     0.008 C 
BRANCH   9  11
ATOM     11  C   UNL     1      -5.020  -1.223  -6.283  1.00  0.00    -0.002 C 
ATOM     12  C   UNL     1      -6.399  -1.663  -6.785  1.00  0.00     0.005 C 
ATOM     13  C   UNL     1      -4.844  -1.922  -4.905  1.00  0.00    -0.026 C 
ATOM     14  C   UNL     1      -6.680  -3.025  -6.141  1.00  0.00     0.005 C 
ATOM     15  C   UNL     1      -5.558  -3.286  -5.115  1.00  0.00    -0.001 C 
ATOM     16  C   UNL     1      -3.347  -2.098  -4.514  1.00  0.00     0.007 C 
ATOM     17  C   UNL     1      -5.574  -1.148  -3.771  1.00  0.00     0.012 C 
ATOM     18  C   UNL     1      -4.611  -4.481  -5.476  1.00  0.00     0.000 C 
ATOM     19  C   UNL     1      -3.138  -3.352  -3.650  1.00  0.00     0.005 C 
ATOM     20  C   UNL     1      -3.465  -4.667  -4.418  1.00  0.00     0.003 C 
ATOM     21  C   UNL     1      -4.042  -4.495  -6.906  1.00  0.00     0.031 C 
ATOM     22  C   UNL     1      -2.184  -5.481  -4.936  1.00  0.00    -0.008 C 
ATOM     23  C   UNL     1      -3.340  -5.803  -7.123  1.00  0.00    -0.027 C 
ATOM     24  C   UNL     1      -2.532  -6.320  -6.178  1.00  0.00    -0.065 C 
ATOM     25  C   UNL     1      -1.703  -6.414  -3.777  1.00  0.00     0.014 C 
ATOM     26  C   UNL     1      -0.998  -4.560  -5.350  1.00  0.00     0.016 C 
ATOM     27  C   UNL     1      -1.720  -7.553  -6.535  1.00  0.00     0.063 C 
ATOM     28  C   UNL     1      -0.715  -7.499  -4.224  1.00  0.00     0.033 C 
ATOM     29  C   UNL     1      -1.335  -8.387  -5.309  1.00  0.00     0.118 C 
BRANCH  29  30
ATOM     30  O   UNL     1      -2.470  -9.054  -4.820  1.00  0.00    -0.393 OA
ATOM     31  H   UNL     1      -2.924  -8.427  -4.196  1.00  0.00     0.210 HD
ENDBRANCH  29  30
ENDBRANCH   9  11
ENDBRANCH   1   9
TORSDOF 7
ENDMDL
MODEL 5
REMARK VINA RESULT:    -5.680      2.957      8.892
REMARK INTER + INTRA:          -8.958
REMARK INTER:                  -7.564
REMARK INTRA:                  -1.394
REMARK UNBOUND:                -1.121
REMARK SMILES CC[C@H](CC[C@H](C)[C@@H]1CC[C@H]2[C@H]3CC=C4C[C@H](O)CC[C@]4(C)[C@H]3CC[C@]21C)C(C)C
REMARK SMILES IDX 5 1 4 2 3 3 2 4 1 5 28 6 29 7 30 8 6 9 7 10 8 11 9 12 26 13
REMARK SMILES IDX 10 14 11 15 25 16 27 17 12 18 24 19 23 20 13 21 21 22 14 23
REMARK SMILES IDX 15 24 20 25 22 26 16 27 19 28 17 29 18 30
REMARK H PARENT 18 31
REMARK Flexibility Score: inf
ROOT
ATOM      1  C   UNL     1      -6.761   1.327  -4.077  1.00  0.00     0.004 C 
ENDROOT
BRANCH   1   2
ATOM      2  C   UNL     1      -7.243   2.081  -5.345  1.00  0.00     0.004 C 
BRANCH   2   3
ATOM      3  C   UNL     1      -8.602   2.833  -5.182  1.00  0.00    -0.009 C 
BRANCH   3   4
ATOM      4  C   UNL     1      -9.786   1.831  -5.014  1.00  0.00     0.000 C 
ATOM      5  C   UNL     1      -9.785   0.721  -6.069  1.00  0.00     0.004 C 
ENDBRANCH   3   4
BRANCH   3   6
ATOM      6  C   UNL     1      -8.560   3.929  -4.057  1.00  0.00    -0.014 C 
ATOM      7  C   UNL     1      -9.959   4.499  -3.738  1.00  0.00     0.007 C 
ATOM      8  C   UNL     1      -7.639   5.106  -4.444  1.00  0.00     0.007 C 
ENDBRANCH   3   6
ENDBRANCH   2   3
ENDBRANCH   1   2
BRANCH   1   9
ATOM      9  C   UNL     1      -6.736  -0.228  -4.189  1.00  0.00    -0.011 C 
ATOM     10  C   UNL     1      -7.234  -0.904  -2.898  1.00  0.00     0.008 C 
BRANCH   9  11
ATOM     11  C   UNL     1      -5.396  -0.878  -4.693  1.00  0.00    -0.002 C 
ATOM     12  C   UNL     1      -4.209   0.057  -4.947  1.00  0.00     0.005 C 
ATOM     13  C   UNL     1      -5.487  -1.775  -5.960  1.00  0.00    -0.026 C 
ATOM     14  C   UNL     1      -3.269  -0.685  -5.903  1.00  0.00     0.005 C 
ATOM     15  C   UNL     1      -3.999  -1.966  -6.359  1.00  0.00    -0.001 C 
ATOM     16  C   UNL     1      -6.198  -3.132  -5.678  1.00  0.00     0.007 C 
ATOM     17  C   UNL     1      -6.224  -1.051  -7.123  1.00  0.00     0.012 C 
ATOM     18  C   UNL     1      -3.345  -3.300  -5.860  1.00  0.00     0.000 C 
ATOM     19  C   UNL     1      -5.658  -4.246  -6.589  1.00  0.00     0.005 C 
ATOM     20  C   UNL     1      -4.158  -4.563  -6.319  1.00  0.00     0.003 C 
ATOM     21  C   UNL     1      -3.012  -3.380  -4.359  1.00  0.00     0.031 C 
ATOM     22  C   UNL     1      -3.895  -5.892  -5.460  1.00  0.00    -0.008 C 
ATOM     23  C   UNL     1      -2.216  -4.628  -4.117  1.00  0.00    -0.027 C 
ATOM     24  C   UNL     1      -2.566  -5.795  -4.691  1.00  0.00    -0.065 C 
ATOM     25  C   UNL     1      -3.854  -7.105  -6.448  1.00  0.00     0.014 C 
ATOM     26  C   UNL     1      -4.998  -6.164  -4.395  1.00  0.00     0.016 C 
ATOM     27  C   UNL     1      -1.823  -7.048  -4.263  1.00  0.00     0.063 C 
ATOM     28  C   UNL     1      -3.272  -8.385  -5.834  1.00  0.00     0.033 C 
ATOM     29  C   UNL     1      -1.843  -8.146  -5.331  1.00  0.00     0.118 C 
BRANCH  29  30
ATOM     30  O   UNL     1      -0.994  -7.785  -6.391  1.00  0.00    -0.393 OA
ATOM     31  H   UNL     1      -0.869  -8.600  -6.947  1.00  0.00     0.210 HD
ENDBRANCH  29  30
ENDBRANCH   9  11
ENDBRANCH   1   9
TORSDOF 7
ENDMDL
MODEL 6
REMARK VINA RESULT:    -5.630      2.306      4.814
REMARK INTER + INTRA:          -8.889
REMARK INTER:                  -8.188
REMARK INTRA:                  -0.702
REMARK UNBOUND:                -1.121
REMARK SMILES CC[C@H](CC[C@H](C)[C@@H]1CC[C@H]2[C@H]3CC=C4C[C@H](O)CC[C@]4(C)[C@H]3CC[C@]21C)C(C)C
REMARK SMILES IDX 5 1 4 2 3 3 2 4 1 5 28 6 29 7 30 8 6 9 7 10 8 11 9 12 26 13
REMARK SMILES IDX 10 14 11 15 25 16 27 17 12 18 24 19 23 20 13 21 21 22 14 23
REMARK SMILES IDX 15 24 20 25 22 26 16 27 19 28 17 29 18 30
REMARK H PARENT 18 31
REMARK Flexibility Score: inf
ROOT
ATOM      1  C   UNL     1      -0.432  -6.866  -5.171  1.00  0.00     0.004 C 
ENDROOT
BRANCH   1   2
ATOM      2  C   UNL     1      -0.517  -8.191  -4.368  1.00  0.00     0.004 C 
BRANCH   2   3
ATOM      3  C   UNL     1       0.862  -8.802  -3.966  1.00  0.00    -0.009 C 
BRANCH   3   4
ATOM      4  C   UNL     1       2.041  -8.026  -4.631  1.00  0.00     0.000 C 
ATOM      5  C   UNL     1       3.043  -8.946  -5.333  1.00  0.00     0.004 C 
ENDBRANCH   3   4
BRANCH   3   6
ATOM      6  C   UNL     1       1.030  -8.957  -2.411  1.00  0.00    -0.014 C 
ATOM      7  C   UNL     1      -0.302  -8.770  -1.653  1.00  0.00     0.007 C 
ATOM      8  C   UNL     1       2.050  -7.946  -1.845  1.00  0.00     0.007 C 
ENDBRANCH   3   6
ENDBRANCH   2   3
ENDBRANCH   1   2
BRANCH   1   9
ATOM      9  C   UNL     1      -0.840  -5.580  -4.390  1.00  0.00    -0.011 C 
ATOM     10  C   UNL     1      -0.398  -5.640  -2.915  1.00  0.00     0.008 C 
BRANCH   9  11
ATOM     11  C   UNL     1      -2.338  -5.120  -4.518  1.00  0.00    -0.002 C 
ATOM     12  C   UNL     1      -3.422  -6.120  -4.098  1.00  0.00     0.005 C 
ATOM     13  C   UNL     1      -2.790  -4.589  -5.908  1.00  0.00    -0.026 C 
ATOM     14  C   UNL     1      -4.711  -5.681  -4.800  1.00  0.00     0.005 C 
ATOM     15  C   UNL     1      -4.337  -4.548  -5.778  1.00  0.00    -0.001 C 
ATOM     16  C   UNL     1      -2.192  -3.188  -6.232  1.00  0.00     0.007 C 
ATOM     17  C   UNL     1      -2.412  -5.575  -7.050  1.00  0.00     0.012 C 
ATOM     18  C   UNL     1      -4.935  -3.147  -5.411  1.00  0.00     0.000 C 
ATOM     19  C   UNL     1      -3.136  -2.368  -7.125  1.00  0.00     0.005 C 
ATOM     20  C   UNL     1      -4.481  -2.030  -6.417  1.00  0.00     0.003 C 
ATOM     21  C   UNL     1      -4.744  -2.681  -3.956  1.00  0.00     0.031 C 
ATOM     22  C   UNL     1      -4.592  -0.528  -5.865  1.00  0.00    -0.008 C 
ATOM     23  C   UNL     1      -5.552  -1.435  -3.748  1.00  0.00    -0.027 C 
ATOM     24  C   UNL     1      -5.558  -0.452  -4.670  1.00  0.00    -0.065 C 
ATOM     25  C   UNL     1      -5.110   0.379  -7.029  1.00  0.00     0.014 C 
ATOM     26  C   UNL     1      -3.232   0.044  -5.364  1.00  0.00     0.016 C 
ATOM     27  C   UNL     1      -6.254   0.850  -4.315  1.00  0.00     0.063 C 
ATOM     28  C   UNL     1      -5.595   1.760  -6.571  1.00  0.00     0.033 C 
ATOM     29  C   UNL     1      -6.728   1.626  -5.547  1.00  0.00     0.118 C 
BRANCH  29  30
ATOM     30  O   UNL     1      -7.838   0.977  -6.112  1.00  0.00    -0.393 OA
ATOM     31  H   UNL     1      -7.512   0.511  -6.928  1.00  0.00     0.210 HD
ENDBRANCH  29  30
ENDBRANCH   9  11
ENDBRANCH   1   9
TORSDOF 7
ENDMDL
MODEL 7
REMARK VINA RESULT:    -5.345      3.000      8.739
REMARK INTER + INTRA:          -8.496
REMARK INTER:                  -7.244
REMARK INTRA:                  -1.253
REMARK UNBOUND:                -1.121
REMARK SMILES CC[C@H](CC[C@H](C)[C@@H]1CC[C@H]2[C@H]3CC=C4C[C@H](O)CC[C@]4(C)[C@H]3CC[C@]21C)C(C)C
REMARK SMILES IDX 5 1 4 2 3 3 2 4 1 5 28 6 29 7 30 8 6 9 7 10 8 11 9 12 26 13
REMARK SMILES IDX 10 14 11 15 25 16 27 17 12 18 24 19 23 20 13 21 21 22 14 23
REMARK SMILES IDX 15 24 20 25 22 26 16 27 19 28 17 29 18 30
REMARK H PARENT 18 31
REMARK Flexibility Score: inf
ROOT
ATOM      1  C   UNL     1      -7.966  -0.697  -6.359  1.00  0.00     0.004 C 
ENDROOT
BRANCH   1   2
ATOM      2  C   UNL     1      -7.572   0.646  -7.029  1.00  0.00     0.004 C 
BRANCH   2   3
ATOM      3  C   UNL     1      -8.102   1.921  -6.300  1.00  0.00    -0.009 C 
BRANCH   3   4
ATOM      4  C   UNL     1      -8.907   1.545  -5.017  1.00  0.00     0.000 C 
ATOM      5  C   UNL     1     -10.418   1.482  -5.255  1.00  0.00     0.004 C 
ENDBRANCH   3   4
BRANCH   3   6
ATOM      6  C   UNL     1      -6.975   2.982  -6.029  1.00  0.00    -0.014 C 
ATOM      7  C   UNL     1      -6.076   2.595  -4.835  1.00  0.00     0.007 C 
ATOM      8  C   UNL     1      -7.565   4.380  -5.751  1.00  0.00     0.007 C 
ENDBRANCH   3   6
ENDBRANCH   2   3
ENDBRANCH   1   2
BRANCH   1   9
ATOM      9  C   UNL     1      -7.022  -1.901  -6.663  1.00  0.00    -0.011 C 
ATOM     10  C   UNL     1      -7.814  -3.180  -6.993  1.00  0.00     0.008 C 
BRANCH   9  11
ATOM     11  C   UNL     1      -5.884  -2.188  -5.616  1.00  0.00    -0.002 C 
ATOM     12  C   UNL     1      -6.076  -1.643  -4.196  1.00  0.00     0.005 C 
ATOM     13  C   UNL     1      -4.442  -1.773  -6.021  1.00  0.00    -0.026 C 
ATOM     14  C   UNL     1      -4.680  -1.568  -3.569  1.00  0.00     0.005 C 
ATOM     15  C   UNL     1      -3.660  -1.882  -4.683  1.00  0.00    -0.001 C 
ATOM     16  C   UNL     1      -3.845  -2.696  -7.125  1.00  0.00     0.007 C 
ATOM     17  C   UNL     1      -4.384  -0.298  -6.511  1.00  0.00     0.012 C 
ATOM     18  C   UNL     1      -2.870  -3.220  -4.484  1.00  0.00     0.000 C 
ATOM     19  C   UNL     1      -2.318  -2.809  -6.995  1.00  0.00     0.005 C 
ATOM     20  C   UNL     1      -1.882  -3.505  -5.671  1.00  0.00     0.003 C 
ATOM     21  C   UNL     1      -3.710  -4.470  -4.160  1.00  0.00     0.031 C 
ATOM     22  C   UNL     1      -1.432  -5.036  -5.832  1.00  0.00    -0.008 C 
ATOM     23  C   UNL     1      -2.776  -5.588  -3.805  1.00  0.00    -0.027 C 
ATOM     24  C   UNL     1      -1.661  -5.816  -4.526  1.00  0.00    -0.065 C 
ATOM     25  C   UNL     1       0.087  -5.056  -6.207  1.00  0.00     0.014 C 
ATOM     26  C   UNL     1      -2.221  -5.795  -6.939  1.00  0.00     0.016 C 
ATOM     27  C   UNL     1      -0.859  -7.068  -4.217  1.00  0.00     0.063 C 
ATOM     28  C   UNL     1       0.745  -6.433  -6.055  1.00  0.00     0.033 C 
ATOM     29  C   UNL     1       0.614  -6.943  -4.615  1.00  0.00     0.118 C 
BRANCH  29  30
ATOM     30  O   UNL     1       1.271  -6.083  -3.720  1.00  0.00    -0.393 OA
ATOM     31  H   UNL     1       2.120  -6.531  -3.463  1.00  0.00     0.210 HD
ENDBRANCH  29  30
ENDBRANCH   9  11
ENDBRANCH   1   9
TORSDOF 7
ENDMDL
MODEL 8
REMARK VINA RESULT:    -5.190      2.984      6.205
REMARK INTER + INTRA:          -8.283
REMARK INTER:                  -8.330
REMARK INTRA:                   0.047
REMARK UNBOUND:                -1.121
REMARK SMILES CC[C@H](CC[C@H](C)[C@@H]1CC[C@H]2[C@H]3CC=C4C[C@H](O)CC[C@]4(C)[C@H]3CC[C@]21C)C(C)C
REMARK SMILES IDX 5 1 4 2 3 3 2 4 1 5 28 6 29 7 30 8 6 9 7 10 8 11 9 12 26 13
REMARK SMILES IDX 10 14 11 15 25 16 27 17 12 18 24 19 23 20 13 21 21 22 14 23
REMARK SMILES IDX 15 24 20 25 22 26 16 27 19 28 17 29 18 30
REMARK H PARENT 18 31
REMARK Flexibility Score: inf
ROOT
ATOM      1  C   UNL     1       0.027  -7.261  -2.636  1.00  0.00     0.004 C 
ENDROOT
BRANCH   1   2
ATOM      2  C   UNL     1       0.759  -8.595  -2.330  1.00  0.00     0.004 C 
BRANCH   2   3
ATOM      3  C   UNL     1       2.198  -8.432  -1.745  1.00  0.00    -0.009 C 
BRANCH   3   4
ATOM      4  C   UNL     1       3.095  -7.566  -2.683  1.00  0.00     0.000 C 
ATOM      5  C   UNL     1       3.738  -8.377  -3.812  1.00  0.00     0.004 C 
ENDBRANCH   3   4
BRANCH   3   6
ATOM      6  C   UNL     1       2.197  -7.926  -0.257  1.00  0.00    -0.014 C 
ATOM      7  C   UNL     1       3.610  -7.546   0.237  1.00  0.00     0.007 C 
ATOM      8  C   UNL     1       1.622  -8.988   0.704  1.00  0.00     0.007 C 
ENDBRANCH   3   6
ENDBRANCH   2   3
ENDBRANCH   1   2
BRANCH   1   9
ATOM      9  C   UNL     1      -0.134  -6.916  -4.148  1.00  0.00    -0.011 C 
ATOM     10  C   UNL     1       0.947  -5.931  -4.630  1.00  0.00     0.008 C 
BRANCH   9  11
ATOM     11  C   UNL     1      -1.565  -6.470  -4.622  1.00  0.00    -0.002 C 
ATOM     12  C   UNL     1      -2.668  -7.534  -4.638  1.00  0.00     0.005 C 
ATOM     13  C   UNL     1      -1.656  -5.768  -6.007  1.00  0.00    -0.026 C 
ATOM     14  C   UNL     1      -3.744  -7.028  -5.605  1.00  0.00     0.005 C 
ATOM     15  C   UNL     1      -3.181  -5.771  -6.299  1.00  0.00    -0.001 C 
ATOM     16  C   UNL     1      -1.066  -4.326  -5.983  1.00  0.00     0.007 C 
ATOM     17  C   UNL     1      -0.936  -6.588  -7.115  1.00  0.00     0.012 C 
ATOM     18  C   UNL     1      -3.927  -4.440  -5.941  1.00  0.00     0.000 C 
ATOM     19  C   UNL     1      -1.779  -3.413  -6.992  1.00  0.00     0.005 C 
ATOM     20  C   UNL     1      -3.280  -3.193  -6.641  1.00  0.00     0.003 C 
ATOM     21  C   UNL     1      -4.157  -4.167  -4.443  1.00  0.00     0.031 C 
ATOM     22  C   UNL     1      -3.612  -1.779  -5.961  1.00  0.00    -0.008 C 
ATOM     23  C   UNL     1      -5.055  -2.972  -4.312  1.00  0.00    -0.027 C 
ATOM     24  C   UNL     1      -4.865  -1.878  -5.074  1.00  0.00    -0.065 C 
ATOM     25  C   UNL     1      -3.846  -0.736  -7.103  1.00  0.00     0.014 C 
ATOM     26  C   UNL     1      -2.468  -1.255  -5.044  1.00  0.00     0.016 C 
ATOM     27  C   UNL     1      -5.698  -0.645  -4.766  1.00  0.00     0.063 C 
ATOM     28  C   UNL     1      -4.507   0.565  -6.629  1.00  0.00     0.033 C 
ATOM     29  C   UNL     1      -5.865   0.278  -5.976  1.00  0.00     0.118 C 
BRANCH  29  30
ATOM     30  O   UNL     1      -6.748  -0.310  -6.897  1.00  0.00    -0.393 OA
ATOM     31  H   UNL     1      -7.436  -0.792  -6.366  1.00  0.00     0.210 HD
ENDBRANCH  29  30
ENDBRANCH   9  11
ENDBRANCH   1   9
TORSDOF 7
ENDMDL
