MODEL 1
REMARK VINA RESULT:    -3.802      0.000      0.000
REMARK INTER + INTRA:          -4.322
REMARK INTER:                  -4.136
REMARK INTRA:                  -0.186
REMARK UNBOUND:                -0.186
REMARK SMILES CC1(C)CC[C@]2(C(=O)[O-])CC[C@]3(C)C(=CC[C@@H]4[C@@]5(C)CC[C@H](O)C(C)(C)[C@H]5CC[C@]43C)[C@@H]2C1
REMARK SMILES IDX 6 1 5 2 10 3 32 4 4 5 11 6 14 7 33 8 2 9 12 10 15 11 1 12
REMARK SMILES IDX 3 13 13 14 30 15 16 16 17 17 29 18 31 19 18 20 28 21 27 22
REMARK SMILES IDX 20 23 19 24 24 25 21 26 22 27 25 28 26 29 7 30 8 31 9 32
REMARK SMILES IDX 23 33
REMARK H PARENT 23 34
REMARK Flexibility Score: inf
ROOT
ATOM      1  C   UNL     1     -44.776 -25.244  40.448  1.00  0.00     0.017 C 
ATOM      2  C   UNL     1     -44.834 -25.999  39.073  1.00  0.00     0.014 C 
ATOM      3  C   UNL     1     -43.306 -24.830  40.708  1.00  0.00     0.014 C 
ATOM      4  C   UNL     1     -45.301 -26.171  41.605  1.00  0.00     0.028 C 
ATOM      5  C   UNL     1     -45.962 -27.038  39.021  1.00  0.00     0.007 C 
ATOM      6  C   UNL     1     -43.119 -24.159  42.075  1.00  0.00     0.013 C 
ATOM      7  C   UNL     1     -44.873 -25.749  43.017  1.00  0.00    -0.064 C 
ATOM      8  C   UNL     1     -44.989 -27.659  41.329  1.00  0.00     0.015 C 
ATOM      9  C   UNL     1     -45.748 -28.180  40.066  1.00  0.00    -0.035 C 
ATOM     10  C   UNL     1     -43.521 -25.058  43.293  1.00  0.00    -0.006 C 
ATOM     11  C   UNL     1     -45.702 -26.096  44.036  1.00  0.00    -0.027 C 
ATOM     12  C   UNL     1     -47.125 -28.746  40.480  1.00  0.00     0.011 C 
ATOM     13  C   UNL     1     -44.933 -29.325  39.426  1.00  0.00     0.011 C 
ATOM     14  C   UNL     1     -42.444 -26.192  43.393  1.00  0.00     0.017 C 
ATOM     15  C   UNL     1     -43.632 -24.175  44.643  1.00  0.00    -0.020 C 
ATOM     16  C   UNL     1     -45.584 -25.593  45.454  1.00  0.00     0.032 C 
ATOM     17  C   UNL     1     -44.166 -25.089  45.811  1.00  0.00     0.006 C 
ATOM     18  C   UNL     1     -42.252 -23.596  45.055  1.00  0.00     0.008 C 
ATOM     19  C   UNL     1     -44.613 -22.977  44.388  1.00  0.00     0.012 C 
ATOM     20  C   UNL     1     -43.974 -24.605  47.335  1.00  0.00    -0.025 C 
ATOM     21  C   UNL     1     -42.297 -22.875  46.402  1.00  0.00     0.005 C 
ATOM     22  C   UNL     1     -42.603 -23.830  47.587  1.00  0.00     0.003 C 
ATOM     23  C   UNL     1     -44.035 -25.856  48.269  1.00  0.00     0.010 C 
ATOM     24  C   UNL     1     -45.138 -23.685  47.818  1.00  0.00     0.012 C 
ATOM     25  C   UNL     1     -41.375 -24.715  48.124  1.00  0.00    -0.006 C 
ATOM     26  C   UNL     1     -42.853 -26.834  48.137  1.00  0.00     0.033 C 
ATOM     27  C   UNL     1     -41.531 -26.195  47.668  1.00  0.00     0.120 C 
ATOM     28  C   UNL     1     -41.304 -24.645  49.680  1.00  0.00     0.014 C 
ATOM     29  C   UNL     1     -39.988 -24.191  47.646  1.00  0.00     0.014 C 
ENDROOT
BRANCH   1  30
ATOM     30  C   UNL     1     -45.629 -23.978  40.347  1.00  0.00     0.048 C 
ATOM     31  O   UNL     1     -45.448 -23.167  39.400  1.00  0.00    -0.550 OA
ATOM     32  O   UNL     1     -46.578 -23.666  41.316  1.00  0.00    -0.550 OA
ENDBRANCH   1  30
BRANCH  27  33
ATOM     33  O   UNL     1     -40.467 -26.988  48.145  1.00  0.00    -0.393 OA
ATOM     34  H   UNL     1     -40.809 -27.913  48.260  1.00  0.00     0.210 HD
ENDBRANCH  27  33
TORSDOF 2
ENDMDL
MODEL 2
REMARK VINA RESULT:    -3.643      1.938      7.716
REMARK INTER + INTRA:          -4.148
REMARK INTER:                  -3.919
REMARK INTRA:                  -0.229
REMARK UNBOUND:                -0.186
REMARK SMILES CC1(C)CC[C@]2(C(=O)[O-])CC[C@]3(C)C(=CC[C@@H]4[C@@]5(C)CC[C@H](O)C(C)(C)[C@H]5CC[C@]43C)[C@@H]2C1
REMARK SMILES IDX 6 1 5 2 10 3 32 4 4 5 11 6 14 7 33 8 2 9 12 10 15 11 1 12
REMARK SMILES IDX 3 13 13 14 30 15 16 16 17 17 29 18 31 19 18 20 28 21 27 22
REMARK SMILES IDX 20 23 19 24 24 25 21 26 22 27 25 28 26 29 7 30 8 31 9 32
REMARK SMILES IDX 23 33
REMARK H PARENT 23 34
REMARK Flexibility Score: inf
ROOT
ATOM      1  C   UNL     1     -41.313 -25.960  46.198  1.00  0.00     0.017 C 
ATOM      2  C   UNL     1     -39.908 -26.289  46.815  1.00  0.00     0.014 C 
ATOM      3  C   UNL     1     -41.825 -27.226  45.466  1.00  0.00     0.014 C 
ATOM      4  C   UNL     1     -41.203 -24.752  45.197  1.00  0.00     0.028 C 
ATOM      5  C   UNL     1     -39.006 -25.050  46.915  1.00  0.00     0.007 C 
ATOM      6  C   UNL     1     -43.158 -26.989  44.746  1.00  0.00     0.013 C 
ATOM      7  C   UNL     1     -42.362 -24.631  44.198  1.00  0.00    -0.064 C 
ATOM      8  C   UNL     1     -39.829 -24.718  44.492  1.00  0.00     0.015 C 
ATOM      9  C   UNL     1     -38.668 -24.463  45.507  1.00  0.00    -0.035 C 
ATOM     10  C   UNL     1     -43.108 -25.867  43.653  1.00  0.00    -0.006 C 
ATOM     11  C   UNL     1     -42.645 -23.385  43.737  1.00  0.00    -0.027 C 
ATOM     12  C   UNL     1     -38.418 -22.945  45.643  1.00  0.00     0.011 C 
ATOM     13  C   UNL     1     -37.376 -25.115  44.968  1.00  0.00     0.011 C 
ATOM     14  C   UNL     1     -42.251 -26.429  42.468  1.00  0.00     0.017 C 
ATOM     15  C   UNL     1     -44.602 -25.442  43.203  1.00  0.00    -0.020 C 
ATOM     16  C   UNL     1     -43.869 -23.019  42.934  1.00  0.00     0.032 C 
ATOM     17  C   UNL     1     -44.508 -24.224  42.206  1.00  0.00     0.006 C 
ATOM     18  C   UNL     1     -45.333 -26.612  42.493  1.00  0.00     0.008 C 
ATOM     19  C   UNL     1     -45.424 -25.047  44.479  1.00  0.00     0.012 C 
ATOM     20  C   UNL     1     -45.778 -23.870  41.280  1.00  0.00    -0.025 C 
ATOM     21  C   UNL     1     -46.693 -26.197  41.931  1.00  0.00     0.005 C 
ATOM     22  C   UNL     1     -46.579 -25.157  40.784  1.00  0.00     0.003 C 
ATOM     23  C   UNL     1     -45.283 -23.064  40.037  1.00  0.00     0.010 C 
ATOM     24  C   UNL     1     -46.791 -22.924  41.997  1.00  0.00     0.012 C 
ATOM     25  C   UNL     1     -46.179 -25.731  39.339  1.00  0.00    -0.006 C 
ATOM     26  C   UNL     1     -44.422 -23.860  39.037  1.00  0.00     0.033 C 
ATOM     27  C   UNL     1     -44.700 -25.375  39.004  1.00  0.00     0.120 C 
ATOM     28  C   UNL     1     -47.125 -25.143  38.248  1.00  0.00     0.014 C 
ATOM     29  C   UNL     1     -46.358 -27.274  39.222  1.00  0.00     0.014 C 
ENDROOT
BRANCH   1  30
ATOM     30  C   UNL     1     -42.281 -25.629  47.334  1.00  0.00     0.048 C 
ATOM     31  O   UNL     1     -42.725 -24.457  47.466  1.00  0.00    -0.550 OA
ATOM     32  O   UNL     1     -42.649 -26.587  48.274  1.00  0.00    -0.550 OA
ENDBRANCH   1  30
BRANCH  27  33
ATOM     33  O   UNL     1     -44.339 -25.860  37.731  1.00  0.00    -0.393 OA
ATOM     34  H   UNL     1     -43.691 -26.601  37.863  1.00  0.00     0.210 HD
ENDBRANCH  27  33
TORSDOF 2
ENDMDL
MODEL 3
REMARK VINA RESULT:    -3.642      1.788      7.485
REMARK INTER + INTRA:          -4.148
REMARK INTER:                  -3.934
REMARK INTRA:                  -0.214
REMARK UNBOUND:                -0.186
REMARK SMILES CC1(C)CC[C@]2(C(=O)[O-])CC[C@]3(C)C(=CC[C@@H]4[C@@]5(C)CC[C@H](O)C(C)(C)[C@H]5CC[C@]43C)[C@@H]2C1
REMARK SMILES IDX 6 1 5 2 10 3 32 4 4 5 11 6 14 7 33 8 2 9 12 10 15 11 1 12
REMARK SMILES IDX 3 13 13 14 30 15 16 16 17 17 29 18 31 19 18 20 28 21 27 22
REMARK SMILES IDX 20 23 19 24 24 25 21 26 22 27 25 28 26 29 7 30 8 31 9 32
REMARK SMILES IDX 23 33
REMARK H PARENT 23 34
REMARK Flexibility Score: inf
ROOT
ATOM      1  C   UNL     1     -43.889 -24.860  48.494  1.00  0.00     0.017 C 
ATOM      2  C   UNL     1     -44.449 -25.342  49.879  1.00  0.00     0.014 C 
ATOM      3  C   UNL     1     -45.000 -24.047  47.783  1.00  0.00     0.014 C 
ATOM      4  C   UNL     1     -43.462 -26.093  47.616  1.00  0.00     0.028 C 
ATOM      5  C   UNL     1     -43.818 -26.664  50.339  1.00  0.00     0.007 C 
ATOM      6  C   UNL     1     -44.589 -23.599  46.375  1.00  0.00     0.013 C 
ATOM      7  C   UNL     1     -43.346 -25.808  46.112  1.00  0.00    -0.064 C 
ATOM      8  C   UNL     1     -44.344 -27.329  47.901  1.00  0.00     0.015 C 
ATOM      9  C   UNL     1     -44.161 -27.840  49.368  1.00  0.00    -0.035 C 
ATOM     10  C   UNL     1     -44.247 -24.778  45.400  1.00  0.00    -0.006 C 
ATOM     11  C   UNL     1     -42.472 -26.576  45.411  1.00  0.00    -0.027 C 
ATOM     12  C   UNL     1     -43.022 -28.882  49.420  1.00  0.00     0.011 C 
ATOM     13  C   UNL     1     -45.464 -28.531  49.826  1.00  0.00     0.011 C 
ATOM     14  C   UNL     1     -45.598 -25.503  45.077  1.00  0.00     0.017 C 
ATOM     15  C   UNL     1     -43.497 -24.226  44.078  1.00  0.00    -0.020 C 
ATOM     16  C   UNL     1     -42.046 -26.316  43.986  1.00  0.00     0.032 C 
ATOM     17  C   UNL     1     -43.054 -25.452  43.192  1.00  0.00     0.006 C 
ATOM     18  C   UNL     1     -44.429 -23.315  43.238  1.00  0.00     0.008 C 
ATOM     19  C   UNL     1     -42.248 -23.384  44.517  1.00  0.00     0.012 C 
ATOM     20  C   UNL     1     -42.675 -25.205  41.646  1.00  0.00    -0.025 C 
ATOM     21  C   UNL     1     -43.796 -22.893  41.911  1.00  0.00     0.005 C 
ATOM     22  C   UNL     1     -43.569 -24.086  40.945  1.00  0.00     0.003 C 
ATOM     23  C   UNL     1     -42.836 -26.552  40.870  1.00  0.00     0.010 C 
ATOM     24  C   UNL     1     -41.178 -24.808  41.457  1.00  0.00     0.012 C 
ATOM     25  C   UNL     1     -44.858 -24.607  40.142  1.00  0.00    -0.006 C 
ATOM     26  C   UNL     1     -44.284 -27.058  40.724  1.00  0.00     0.033 C 
ATOM     27  C   UNL     1     -45.361 -25.956  40.735  1.00  0.00     0.120 C 
ATOM     28  C   UNL     1     -44.511 -24.790  38.633  1.00  0.00     0.014 C 
ATOM     29  C   UNL     1     -46.038 -23.589  40.150  1.00  0.00     0.014 C 
ENDROOT
BRANCH   1  30
ATOM     30  C   UNL     1     -42.694 -23.940  48.743  1.00  0.00     0.048 C 
ATOM     31  O   UNL     1     -42.841 -22.875  49.400  1.00  0.00    -0.550 OA
ATOM     32  O   UNL     1     -41.439 -24.224  48.211  1.00  0.00    -0.550 OA
ENDBRANCH   1  30
BRANCH  27  33
ATOM     33  O   UNL     1     -46.484 -26.433  40.029  1.00  0.00    -0.393 OA
ATOM     34  H   UNL     1     -47.185 -26.660  40.695  1.00  0.00     0.210 HD
ENDBRANCH  27  33
TORSDOF 2
ENDMDL
MODEL 4
REMARK VINA RESULT:    -3.603     13.449     16.387
REMARK INTER + INTRA:          -4.105
REMARK INTER:                  -3.884
REMARK INTRA:                  -0.221
REMARK UNBOUND:                -0.186
REMARK SMILES CC1(C)CC[C@]2(C(=O)[O-])CC[C@]3(C)C(=CC[C@@H]4[C@@]5(C)CC[C@H](O)C(C)(C)[C@H]5CC[C@]43C)[C@@H]2C1
REMARK SMILES IDX 6 1 5 2 10 3 32 4 4 5 11 6 14 7 33 8 2 9 12 10 15 11 1 12
REMARK SMILES IDX 3 13 13 14 30 15 16 16 17 17 29 18 31 19 18 20 28 21 27 22
REMARK SMILES IDX 20 23 19 24 24 25 21 26 22 27 25 28 26 29 7 30 8 31 9 32
REMARK SMILES IDX 23 33
REMARK H PARENT 23 34
REMARK Flexibility Score: inf
ROOT
ATOM      1  C   UNL     1     -30.039 -28.605  46.435  1.00  0.00     0.017 C 
ATOM      2  C   UNL     1     -30.393 -30.001  47.060  1.00  0.00     0.014 C 
ATOM      3  C   UNL     1     -31.287 -28.088  45.678  1.00  0.00     0.014 C 
ATOM      4  C   UNL     1     -28.816 -28.738  45.455  1.00  0.00     0.028 C 
ATOM      5  C   UNL     1     -29.165 -30.915  47.188  1.00  0.00     0.007 C 
ATOM      6  C   UNL     1     -31.024 -26.764  44.950  1.00  0.00     0.013 C 
ATOM      7  C   UNL     1     -28.667 -27.590  44.447  1.00  0.00    -0.064 C 
ATOM      8  C   UNL     1     -28.786 -30.119  44.763  1.00  0.00     0.015 C 
ATOM      9  C   UNL     1     -28.559 -31.273  45.793  1.00  0.00    -0.035 C 
ATOM     10  C   UNL     1     -29.886 -26.836  43.875  1.00  0.00    -0.006 C 
ATOM     11  C   UNL     1     -27.410 -27.325  44.004  1.00  0.00    -0.027 C 
ATOM     12  C   UNL     1     -27.046 -31.538  45.956  1.00  0.00     0.011 C 
ATOM     13  C   UNL     1     -29.216 -32.563  45.256  1.00  0.00     0.011 C 
ATOM     14  C   UNL     1     -30.438 -27.698  42.689  1.00  0.00     0.017 C 
ATOM     15  C   UNL     1     -29.437 -25.351  43.418  1.00  0.00    -0.020 C 
ATOM     16  C   UNL     1     -27.018 -26.113  43.195  1.00  0.00     0.032 C 
ATOM     17  C   UNL     1     -28.205 -25.467  42.442  1.00  0.00     0.006 C 
ATOM     18  C   UNL     1     -30.587 -24.614  42.683  1.00  0.00     0.008 C 
ATOM     19  C   UNL     1     -29.054 -24.521  44.693  1.00  0.00     0.012 C 
ATOM     20  C   UNL     1     -27.822 -24.210  41.510  1.00  0.00    -0.025 C 
ATOM     21  C   UNL     1     -30.149 -23.264  42.115  1.00  0.00     0.005 C 
ATOM     22  C   UNL     1     -29.092 -23.400  40.986  1.00  0.00     0.003 C 
ATOM     23  C   UNL     1     -27.002 -24.726  40.285  1.00  0.00     0.010 C 
ATOM     24  C   UNL     1     -26.876 -23.200  42.233  1.00  0.00     0.012 C 
ATOM     25  C   UNL     1     -29.647 -23.808  39.536  1.00  0.00    -0.006 C 
ATOM     26  C   UNL     1     -27.790 -25.587  39.280  1.00  0.00     0.033 C 
ATOM     27  C   UNL     1     -29.302 -25.293  39.220  1.00  0.00     0.120 C 
ATOM     28  C   UNL     1     -29.031 -22.879  38.446  1.00  0.00     0.014 C 
ATOM     29  C   UNL     1     -31.186 -23.613  39.392  1.00  0.00     0.014 C 
ENDROOT
BRANCH   1  30
ATOM     30  C   UNL     1     -29.715 -27.630  47.567  1.00  0.00     0.048 C 
ATOM     31  O   UNL     1     -30.601 -27.321  48.408  1.00  0.00    -0.550 OA
ATOM     32  O   UNL     1     -28.466 -27.025  47.666  1.00  0.00    -0.550 OA
ENDBRANCH   1  30
BRANCH  27  33
ATOM     33  O   UNL     1     -29.770 -25.662  37.943  1.00  0.00    -0.393 OA
ATOM     34  H   UNL     1     -30.640 -25.206  37.797  1.00  0.00     0.210 HD
ENDBRANCH  27  33
TORSDOF 2
ENDMDL
MODEL 5
REMARK VINA RESULT:    -3.572      2.106      7.731
REMARK INTER + INTRA:          -4.071
REMARK INTER:                  -3.874
REMARK INTRA:                  -0.198
REMARK UNBOUND:                -0.186
REMARK SMILES CC1(C)CC[C@]2(C(=O)[O-])CC[C@]3(C)C(=CC[C@@H]4[C@@]5(C)CC[C@H](O)C(C)(C)[C@H]5CC[C@]43C)[C@@H]2C1
REMARK SMILES IDX 6 1 5 2 10 3 32 4 4 5 11 6 14 7 33 8 2 9 12 10 15 11 1 12
REMARK SMILES IDX 3 13 13 14 30 15 16 16 17 17 29 18 31 19 18 20 28 21 27 22
REMARK SMILES IDX 20 23 19 24 24 25 21 26 22 27 25 28 26 29 7 30 8 31 9 32
REMARK SMILES IDX 23 33
REMARK H PARENT 23 34
REMARK Flexibility Score: inf
ROOT
ATOM      1  C   UNL     1     -43.678 -26.631  46.146  1.00  0.00     0.017 C 
ATOM      2  C   UNL     1     -43.121 -26.334  47.583  1.00  0.00     0.014 C 
ATOM      3  C   UNL     1     -42.486 -27.037  45.243  1.00  0.00     0.014 C 
ATOM      4  C   UNL     1     -44.401 -25.361  45.565  1.00  0.00     0.028 C 
ATOM      5  C   UNL     1     -43.961 -25.292  48.334  1.00  0.00     0.007 C 
ATOM      6  C   UNL     1     -42.906 -27.266  43.786  1.00  0.00     0.013 C 
ATOM      7  C   UNL     1     -44.572 -25.354  44.040  1.00  0.00    -0.064 C 
ATOM      8  C   UNL     1     -43.759 -24.054  46.079  1.00  0.00     0.015 C 
ATOM      9  C   UNL     1     -43.928 -23.899  47.625  1.00  0.00    -0.035 C 
ATOM     10  C   UNL     1     -43.543 -26.011  43.096  1.00  0.00    -0.006 C 
ATOM     11  C   UNL     1     -45.629 -24.658  43.546  1.00  0.00    -0.027 C 
ATOM     12  C   UNL     1     -45.241 -23.147  47.935  1.00  0.00     0.011 C 
ATOM     13  C   UNL     1     -42.754 -23.062  48.179  1.00  0.00     0.011 C 
ATOM     14  C   UNL     1     -42.387 -24.973  42.891  1.00  0.00     0.017 C 
ATOM     15  C   UNL     1     -44.268 -26.426  41.712  1.00  0.00    -0.020 C 
ATOM     16  C   UNL     1     -46.101 -24.706  42.114  1.00  0.00     0.032 C 
ATOM     17  C   UNL     1     -45.006 -25.165  41.122  1.00  0.00     0.006 C 
ATOM     18  C   UNL     1     -43.241 -26.937  40.667  1.00  0.00     0.008 C 
ATOM     19  C   UNL     1     -45.292 -27.579  42.001  1.00  0.00     0.012 C 
ATOM     20  C   UNL     1     -45.444 -25.167  39.572  1.00  0.00    -0.025 C 
ATOM     21  C   UNL     1     -43.877 -27.203  39.302  1.00  0.00     0.005 C 
ATOM     22  C   UNL     1     -44.403 -25.912  38.620  1.00  0.00     0.003 C 
ATOM     23  C   UNL     1     -45.606 -23.688  39.095  1.00  0.00     0.010 C 
ATOM     24  C   UNL     1     -46.845 -25.818  39.350  1.00  0.00     0.012 C 
ATOM     25  C   UNL     1     -43.304 -24.986  37.905  1.00  0.00    -0.006 C 
ATOM     26  C   UNL     1     -44.300 -22.875  39.014  1.00  0.00     0.033 C 
ATOM     27  C   UNL     1     -43.031 -23.710  38.756  1.00  0.00     0.120 C 
ATOM     28  C   UNL     1     -43.792 -24.577  36.482  1.00  0.00     0.014 C 
ATOM     29  C   UNL     1     -41.952 -25.718  37.659  1.00  0.00     0.014 C 
ENDROOT
BRANCH   1  30
ATOM     30  C   UNL     1     -44.649 -27.809  46.232  1.00  0.00     0.048 C 
ATOM     31  O   UNL     1     -44.278 -28.900  46.742  1.00  0.00    -0.550 OA
ATOM     32  O   UNL     1     -45.935 -27.727  45.705  1.00  0.00    -0.550 OA
ENDBRANCH   1  30
BRANCH  27  33
ATOM     33  O   UNL     1     -42.079 -22.879  38.132  1.00  0.00    -0.393 OA
ATOM     34  H   UNL     1     -42.274 -22.875  37.159  1.00  0.00     0.210 HD
ENDBRANCH  27  33
TORSDOF 2
ENDMDL
MODEL 6
REMARK VINA RESULT:    -3.534      2.242      7.823
REMARK INTER + INTRA:          -4.031
REMARK INTER:                  -3.811
REMARK INTRA:                  -0.219
REMARK UNBOUND:                -0.186
REMARK SMILES CC1(C)CC[C@]2(C(=O)[O-])CC[C@]3(C)C(=CC[C@@H]4[C@@]5(C)CC[C@H](O)C(C)(C)[C@H]5CC[C@]43C)[C@@H]2C1
REMARK SMILES IDX 6 1 5 2 10 3 32 4 4 5 11 6 14 7 33 8 2 9 12 10 15 11 1 12
REMARK SMILES IDX 3 13 13 14 30 15 16 16 17 17 29 18 31 19 18 20 28 21 27 22
REMARK SMILES IDX 20 23 19 24 24 25 21 26 22 27 25 28 26 29 7 30 8 31 9 32
REMARK SMILES IDX 23 33
REMARK H PARENT 23 34
REMARK Flexibility Score: inf
ROOT
ATOM      1  C   UNL     1     -43.552 -25.492  45.928  1.00  0.00     0.017 C 
ATOM      2  C   UNL     1     -42.774 -26.069  47.164  1.00  0.00     0.014 C 
ATOM      3  C   UNL     1     -44.599 -26.544  45.485  1.00  0.00     0.014 C 
ATOM      4  C   UNL     1     -42.556 -25.176  44.753  1.00  0.00     0.028 C 
ATOM      5  C   UNL     1     -41.336 -25.539  47.252  1.00  0.00     0.007 C 
ATOM      6  C   UNL     1     -45.360 -26.118  44.224  1.00  0.00     0.013 C 
ATOM      7  C   UNL     1     -43.207 -25.058  43.367  1.00  0.00    -0.064 C 
ATOM      8  C   UNL     1     -41.357 -26.149  44.744  1.00  0.00     0.015 C 
ATOM      9  C   UNL     1     -40.476 -25.987  46.026  1.00  0.00    -0.035 C 
ATOM     10  C   UNL     1     -44.448 -25.884  42.971  1.00  0.00    -0.006 C 
ATOM     11  C   UNL     1     -42.583 -24.257  42.465  1.00  0.00    -0.027 C 
ATOM     12  C   UNL     1     -39.375 -24.934  45.773  1.00  0.00     0.011 C 
ATOM     13  C   UNL     1     -39.788 -27.334  46.337  1.00  0.00     0.011 C 
ATOM     14  C   UNL     1     -43.931 -27.293  42.519  1.00  0.00     0.017 C 
ATOM     15  C   UNL     1     -45.263 -25.110  41.808  1.00  0.00    -0.020 C 
ATOM     16  C   UNL     1     -43.166 -23.832  41.140  1.00  0.00     0.032 C 
ATOM     17  C   UNL     1     -44.276 -24.778  40.625  1.00  0.00     0.006 C 
ATOM     18  C   UNL     1     -46.425 -25.979  41.258  1.00  0.00     0.008 C 
ATOM     19  C   UNL     1     -45.871 -23.793  42.404  1.00  0.00     0.012 C 
ATOM     20  C   UNL     1     -44.881 -24.402  39.181  1.00  0.00    -0.025 C 
ATOM     21  C   UNL     1     -47.125 -25.333  40.062  1.00  0.00     0.005 C 
ATOM     22  C   UNL     1     -46.205 -25.215  38.817  1.00  0.00     0.003 C 
ATOM     23  C   UNL     1     -43.794 -24.681  38.094  1.00  0.00     0.010 C 
ATOM     24  C   UNL     1     -45.203 -22.881  39.049  1.00  0.00     0.012 C 
ATOM     25  C   UNL     1     -46.003 -26.552  37.951  1.00  0.00    -0.006 C 
ATOM     26  C   UNL     1     -43.449 -26.165  37.873  1.00  0.00     0.033 C 
ATOM     27  C   UNL     1     -44.588 -27.152  38.200  1.00  0.00     0.120 C 
ATOM     28  C   UNL     1     -46.187 -26.240  36.435  1.00  0.00     0.014 C 
ATOM     29  C   UNL     1     -47.068 -27.646  38.258  1.00  0.00     0.014 C 
ENDROOT
BRANCH   1  30
ATOM     30  C   UNL     1     -44.288 -24.224  46.363  1.00  0.00     0.048 C 
ATOM     31  O   UNL     1     -45.239 -24.295  47.186  1.00  0.00    -0.550 OA
ATOM     32  O   UNL     1     -43.966 -22.981  45.826  1.00  0.00    -0.550 OA
ENDBRANCH   1  30
BRANCH  27  33
ATOM     33  O   UNL     1     -44.390 -28.318  37.434  1.00  0.00    -0.393 OA
ATOM     34  H   UNL     1     -44.513 -28.076  36.478  1.00  0.00     0.210 HD
ENDBRANCH  27  33
TORSDOF 2
ENDMDL
MODEL 7
REMARK VINA RESULT:    -3.503     12.258     15.962
REMARK INTER + INTRA:          -3.997
REMARK INTER:                  -3.777
REMARK INTRA:                  -0.220
REMARK UNBOUND:                -0.186
REMARK SMILES CC1(C)CC[C@]2(C(=O)[O-])CC[C@]3(C)C(=CC[C@@H]4[C@@]5(C)CC[C@H](O)C(C)(C)[C@H]5CC[C@]43C)[C@@H]2C1
REMARK SMILES IDX 6 1 5 2 10 3 32 4 4 5 11 6 14 7 33 8 2 9 12 10 15 11 1 12
REMARK SMILES IDX 3 13 13 14 30 15 16 16 17 17 29 18 31 19 18 20 28 21 27 22
REMARK SMILES IDX 20 23 19 24 24 25 21 26 22 27 25 28 26 29 7 30 8 31 9 32
REMARK SMILES IDX 23 33
REMARK H PARENT 23 34
REMARK Flexibility Score: inf
ROOT
ATOM      1  C   UNL     1     -30.668 -27.249  46.329  1.00  0.00     0.017 C 
ATOM      2  C   UNL     1     -30.160 -27.938  47.645  1.00  0.00     0.014 C 
ATOM      3  C   UNL     1     -30.780 -28.335  45.230  1.00  0.00     0.014 C 
ATOM      4  C   UNL     1     -29.671 -26.116  45.884  1.00  0.00     0.028 C 
ATOM      5  C   UNL     1     -29.348 -26.983  48.532  1.00  0.00     0.007 C 
ATOM      6  C   UNL     1     -31.185 -27.753  43.870  1.00  0.00     0.013 C 
ATOM      7  C   UNL     1     -29.786 -25.694  44.413  1.00  0.00    -0.064 C 
ATOM      8  C   UNL     1     -28.215 -26.450  46.275  1.00  0.00     0.015 C 
ATOM      9  C   UNL     1     -28.036 -26.510  47.827  1.00  0.00    -0.035 C 
ATOM     10  C   UNL     1     -30.185 -26.688  43.302  1.00  0.00    -0.006 C 
ATOM     11  C   UNL     1     -29.428 -24.418  44.113  1.00  0.00    -0.027 C 
ATOM     12  C   UNL     1     -27.653 -25.113  48.363  1.00  0.00     0.011 C 
ATOM     13  C   UNL     1     -26.885 -27.484  48.164  1.00  0.00     0.011 C 
ATOM     14  C   UNL     1     -28.884 -27.461  42.896  1.00  0.00     0.017 C 
ATOM     15  C   UNL     1     -30.850 -25.882  42.068  1.00  0.00    -0.020 C 
ATOM     16  C   UNL     1     -29.673 -23.742  42.786  1.00  0.00     0.032 C 
ATOM     17  C   UNL     1     -29.866 -24.736  41.617  1.00  0.00     0.006 C 
ATOM     18  C   UNL     1     -31.114 -26.817  40.859  1.00  0.00     0.008 C 
ATOM     19  C   UNL     1     -32.221 -25.279  42.535  1.00  0.00     0.012 C 
ATOM     20  C   UNL     1     -30.064 -24.059  40.169  1.00  0.00    -0.025 C 
ATOM     21  C   UNL     1     -31.610 -26.057  39.628  1.00  0.00     0.005 C 
ATOM     22  C   UNL     1     -30.545 -25.088  39.049  1.00  0.00     0.003 C 
ATOM     23  C   UNL     1     -28.709 -23.417  39.727  1.00  0.00     0.010 C 
ATOM     24  C   UNL     1     -31.080 -22.875  40.199  1.00  0.00     0.012 C 
ATOM     25  C   UNL     1     -29.392 -25.751  38.150  1.00  0.00    -0.006 C 
ATOM     26  C   UNL     1     -27.578 -24.415  39.416  1.00  0.00     0.033 C 
ATOM     27  C   UNL     1     -28.050 -25.802  38.938  1.00  0.00     0.120 C 
ATOM     28  C   UNL     1     -29.202 -24.935  36.835  1.00  0.00     0.014 C 
ATOM     29  C   UNL     1     -29.742 -27.191  37.670  1.00  0.00     0.014 C 
ENDROOT
BRANCH   1  30
ATOM     30  C   UNL     1     -32.059 -26.669  46.586  1.00  0.00     0.048 C 
ATOM     31  O   UNL     1     -33.037 -27.437  46.787  1.00  0.00    -0.550 OA
ATOM     32  O   UNL     1     -32.289 -25.296  46.550  1.00  0.00    -0.550 OA
ENDBRANCH   1  30
BRANCH  27  33
ATOM     33  O   UNL     1     -27.023 -26.369  38.156  1.00  0.00    -0.393 OA
ATOM     34  H   UNL     1     -26.602 -27.093  38.689  1.00  0.00     0.210 HD
ENDBRANCH  27  33
TORSDOF 2
ENDMDL
MODEL 8
REMARK VINA RESULT:    -3.410      1.935      3.123
REMARK INTER + INTRA:          -3.895
REMARK INTER:                  -3.688
REMARK INTRA:                  -0.207
REMARK UNBOUND:                -0.186
REMARK SMILES CC1(C)CC[C@]2(C(=O)[O-])CC[C@]3(C)C(=CC[C@@H]4[C@@]5(C)CC[C@H](O)C(C)(C)[C@H]5CC[C@]43C)[C@@H]2C1
REMARK SMILES IDX 6 1 5 2 10 3 32 4 4 5 11 6 14 7 33 8 2 9 12 10 15 11 1 12
REMARK SMILES IDX 3 13 13 14 30 15 16 16 17 17 29 18 31 19 18 20 28 21 27 22
REMARK SMILES IDX 20 23 19 24 24 25 21 26 22 27 25 28 26 29 7 30 8 31 9 32
REMARK SMILES IDX 23 33
REMARK H PARENT 23 34
REMARK Flexibility Score: inf
ROOT
ATOM      1  C   UNL     1     -44.689 -24.030  41.370  1.00  0.00     0.017 C 
ATOM      2  C   UNL     1     -44.449 -23.406  39.950  1.00  0.00     0.014 C 
ATOM      3  C   UNL     1     -44.727 -22.875  42.402  1.00  0.00     0.014 C 
ATOM      4  C   UNL     1     -43.541 -25.046  41.723  1.00  0.00     0.028 C 
ATOM      5  C   UNL     1     -43.701 -24.361  39.008  1.00  0.00     0.007 C 
ATOM      6  C   UNL     1     -44.868 -23.381  43.843  1.00  0.00     0.013 C 
ATOM      7  C   UNL     1     -43.393 -25.363  43.218  1.00  0.00    -0.064 C 
ATOM      8  C   UNL     1     -42.196 -24.631  41.087  1.00  0.00     0.015 C 
ATOM      9  C   UNL     1     -42.261 -24.676  39.526  1.00  0.00    -0.035 C 
ATOM     10  C   UNL     1     -43.705 -24.320  44.312  1.00  0.00    -0.006 C 
ATOM     11  C   UNL     1     -42.883 -26.580  43.537  1.00  0.00    -0.027 C 
ATOM     12  C   UNL     1     -41.843 -26.077  39.025  1.00  0.00     0.011 C 
ATOM     13  C   UNL     1     -41.265 -23.646  38.950  1.00  0.00     0.011 C 
ATOM     14  C   UNL     1     -42.430 -23.421  44.458  1.00  0.00     0.017 C 
ATOM     15  C   UNL     1     -44.101 -25.079  45.684  1.00  0.00    -0.020 C 
ATOM     16  C   UNL     1     -42.864 -27.171  44.926  1.00  0.00     0.032 C 
ATOM     17  C   UNL     1     -42.964 -26.108  46.046  1.00  0.00     0.006 C 
ATOM     18  C   UNL     1     -44.259 -24.077  46.858  1.00  0.00     0.008 C 
ATOM     19  C   UNL     1     -45.469 -25.818  45.479  1.00  0.00     0.012 C 
ATOM     20  C   UNL     1     -42.878 -26.686  47.547  1.00  0.00    -0.025 C 
ATOM     21  C   UNL     1     -44.493 -24.777  48.198  1.00  0.00     0.005 C 
ATOM     22  C   UNL     1     -43.272 -25.615  48.662  1.00  0.00     0.003 C 
ATOM     23  C   UNL     1     -41.422 -27.187  47.809  1.00  0.00     0.010 C 
ATOM     24  C   UNL     1     -43.780 -27.943  47.753  1.00  0.00     0.012 C 
ATOM     25  C   UNL     1     -42.058 -24.799  49.324  1.00  0.00    -0.006 C 
ATOM     26  C   UNL     1     -40.348 -26.084  47.874  1.00  0.00     0.033 C 
ATOM     27  C   UNL     1     -40.861 -24.705  48.332  1.00  0.00     0.120 C 
ATOM     28  C   UNL     1     -41.600 -25.495  50.641  1.00  0.00     0.014 C 
ATOM     29  C   UNL     1     -42.456 -23.358  49.761  1.00  0.00     0.014 C 
ENDROOT
BRANCH   1  30
ATOM     30  C   UNL     1     -46.047 -24.733  41.373  1.00  0.00     0.048 C 
ATOM     31  O   UNL     1     -47.109 -24.056  41.402  1.00  0.00    -0.550 OA
ATOM     32  O   UNL     1     -46.143 -26.121  41.399  1.00  0.00    -0.550 OA
ENDBRANCH   1  30
BRANCH  27  33
ATOM     33  O   UNL     1     -39.782 -24.004  48.905  1.00  0.00    -0.393 OA
ATOM     34  H   UNL     1     -39.453 -24.535  49.677  1.00  0.00     0.210 HD
ENDBRANCH  27  33
TORSDOF 2
ENDMDL
