MODEL 1
REMARK VINA RESULT:    -4.150      0.000      0.000
REMARK INTER + INTRA:          -9.208
REMARK INTER:                  -7.061
REMARK INTRA:                  -2.148
REMARK UNBOUND:                -2.148
REMARK SMILES CCCCCCCCCCCCCC(=O)[O-]
REMARK SMILES IDX 8 1 9 2 10 3 11 4 12 5 13 6 14 7 15 8 16 9 7 10 6 11 5 12
REMARK SMILES IDX 4 13 3 14 2 15 1 16
REMARK H PARENT
REMARK Flexibility Score: inf
ROOT
ATOM      1  C   UNL     1      14.063  12.488 -21.070  1.00  0.00     0.000 C 
ENDROOT
BRANCH   1   2
ATOM      2  C   UNL     1      13.378  13.802 -21.480  1.00  0.00     0.000 C 
BRANCH   2   3
ATOM      3  C   UNL     1      13.550  14.912 -20.428  1.00  0.00     0.000 C 
BRANCH   3   4
ATOM      4  C   UNL     1      14.475  14.493 -19.274  1.00  0.00     0.000 C 
BRANCH   4   5
ATOM      5  C   UNL     1      14.003  15.024 -17.912  1.00  0.00     0.006 C 
BRANCH   5   6
ATOM      6  C   UNL     1      14.339  14.033 -16.792  1.00  0.00     0.053 C 
BRANCH   6   7
ATOM      7  C   UNL     1      15.752  14.219 -16.336  1.00  0.00     0.041 C 
ATOM      8  O   UNL     1      16.360  13.280 -15.759  1.00  0.00    -0.550 OA
ATOM      9  O   UNL     1      16.382  15.445 -16.507  1.00  0.00    -0.550 OA
ENDBRANCH   6   7
ENDBRANCH   5   6
ENDBRANCH   4   5
ENDBRANCH   3   4
ENDBRANCH   2   3
ENDBRANCH   1   2
BRANCH   1  10
ATOM     10  C   UNL     1      13.123  11.273 -21.177  1.00  0.00     0.000 C 
BRANCH  10  11
ATOM     11  C   UNL     1      11.844  11.443 -20.340  1.00  0.00    -0.000 C 
BRANCH  11  12
ATOM     12  C   UNL     1      12.144  11.685 -18.849  1.00  0.00    -0.000 C 
BRANCH  12  13
ATOM     13  C   UNL     1      11.098  12.585 -18.167  1.00  0.00    -0.000 C 
BRANCH  13  14
ATOM     14  C   UNL     1      10.251  13.444 -19.124  1.00  0.00    -0.000 C 
BRANCH  14  15
ATOM     15  C   UNL     1      10.255  14.934 -18.751  1.00  0.00    -0.003 C 
ATOM     16  C   UNL     1      10.397  15.122 -17.243  1.00  0.00     0.004 C 
ENDBRANCH  14  15
ENDBRANCH  13  14
ENDBRANCH  12  13
ENDBRANCH  11  12
ENDBRANCH  10  11
ENDBRANCH   1  10
TORSDOF 12
ENDMDL
MODEL 2
REMARK VINA RESULT:    -4.119      1.214      2.248
REMARK INTER + INTRA:          -9.156
REMARK INTER:                  -7.836
REMARK INTRA:                  -1.320
REMARK UNBOUND:                -2.148
REMARK SMILES CCCCCCCCCCCCCC(=O)[O-]
REMARK SMILES IDX 8 1 9 2 10 3 11 4 12 5 13 6 14 7 15 8 16 9 7 10 6 11 5 12
REMARK SMILES IDX 4 13 3 14 2 15 1 16
REMARK H PARENT
REMARK Flexibility Score: inf
ROOT
ATOM      1  C   UNL     1      14.191  14.313 -20.448  1.00  0.00     0.000 C 
ENDROOT
BRANCH   1   2
ATOM      2  C   UNL     1      13.334  15.152 -19.486  1.00  0.00     0.000 C 
BRANCH   2   3
ATOM      3  C   UNL     1      14.123  15.633 -18.256  1.00  0.00     0.000 C 
BRANCH   3   4
ATOM      4  C   UNL     1      15.508  16.189 -18.624  1.00  0.00     0.000 C 
BRANCH   4   5
ATOM      5  C   UNL     1      16.617  15.691 -17.685  1.00  0.00     0.006 C 
BRANCH   5   6
ATOM      6  C   UNL     1      16.023  14.959 -16.477  1.00  0.00     0.053 C 
BRANCH   6   7
ATOM      7  C   UNL     1      16.701  13.641 -16.278  1.00  0.00     0.041 C 
ATOM      8  O   UNL     1      16.292  12.844 -15.393  1.00  0.00    -0.550 OA
ATOM      9  O   UNL     1      17.815  13.310 -17.040  1.00  0.00    -0.550 OA
ENDBRANCH   6   7
ENDBRANCH   5   6
ENDBRANCH   4   5
ENDBRANCH   3   4
ENDBRANCH   2   3
ENDBRANCH   1   2
BRANCH   1  10
ATOM     10  C   UNL     1      13.411  13.864 -21.698  1.00  0.00     0.000 C 
BRANCH  10  11
ATOM     11  C   UNL     1      13.756  12.426 -22.120  1.00  0.00    -0.000 C 
BRANCH  11  12
ATOM     12  C   UNL     1      13.443  11.397 -21.019  1.00  0.00    -0.000 C 
BRANCH  12  13
ATOM     13  C   UNL     1      11.953  11.372 -20.629  1.00  0.00    -0.000 C 
BRANCH  13  14
ATOM     14  C   UNL     1      11.645  11.842 -19.195  1.00  0.00    -0.000 C 
BRANCH  14  15
ATOM     15  C   UNL     1      10.403  12.743 -19.116  1.00  0.00    -0.003 C 
ATOM     16  C   UNL     1      10.423  13.593 -17.848  1.00  0.00     0.004 C 
ENDBRANCH  14  15
ENDBRANCH  13  14
ENDBRANCH  12  13
ENDBRANCH  11  12
ENDBRANCH  10  11
ENDBRANCH   1  10
TORSDOF 12
ENDMDL
MODEL 3
REMARK VINA RESULT:    -4.103      1.220      3.155
REMARK INTER + INTRA:          -9.129
REMARK INTER:                  -7.204
REMARK INTRA:                  -1.925
REMARK UNBOUND:                -2.148
REMARK SMILES CCCCCCCCCCCCCC(=O)[O-]
REMARK SMILES IDX 8 1 9 2 10 3 11 4 12 5 13 6 14 7 15 8 16 9 7 10 6 11 5 12
REMARK SMILES IDX 4 13 3 14 2 15 1 16
REMARK H PARENT
REMARK Flexibility Score: inf
ROOT
ATOM      1  C   UNL     1      11.059  15.435 -19.689  1.00  0.00     0.000 C 
ENDROOT
BRANCH   1   2
ATOM      2  C   UNL     1      12.307  15.128 -20.534  1.00  0.00     0.000 C 
BRANCH   2   3
ATOM      3  C   UNL     1      13.615  15.488 -19.809  1.00  0.00     0.000 C 
BRANCH   3   4
ATOM      4  C   UNL     1      14.057  14.403 -18.814  1.00  0.00     0.000 C 
BRANCH   4   5
ATOM      5  C   UNL     1      14.080  14.902 -17.362  1.00  0.00     0.006 C 
BRANCH   5   6
ATOM      6  C   UNL     1      15.377  14.485 -16.660  1.00  0.00     0.053 C 
BRANCH   6   7
ATOM      7  C   UNL     1      16.540  15.246 -17.213  1.00  0.00     0.041 C 
ATOM      8  O   UNL     1      17.592  14.642 -17.548  1.00  0.00    -0.550 OA
ATOM      9  O   UNL     1      16.479  16.630 -17.315  1.00  0.00    -0.550 OA
ENDBRANCH   6   7
ENDBRANCH   5   6
ENDBRANCH   4   5
ENDBRANCH   3   4
ENDBRANCH   2   3
ENDBRANCH   1   2
BRANCH   1  10
ATOM     10  C   UNL     1      10.194  14.187 -19.436  1.00  0.00     0.000 C 
BRANCH  10  11
ATOM     11  C   UNL     1      10.520  13.507 -18.095  1.00  0.00    -0.000 C 
BRANCH  11  12
ATOM     12  C   UNL     1      11.253  12.165 -18.277  1.00  0.00    -0.000 C 
BRANCH  12  13
ATOM     13  C   UNL     1      11.330  11.721 -19.749  1.00  0.00    -0.000 C 
BRANCH  13  14
ATOM     14  C   UNL     1      12.707  11.203 -20.204  1.00  0.00    -0.000 C 
BRANCH  14  15
ATOM     15  C   UNL     1      13.007  11.516 -21.678  1.00  0.00    -0.003 C 
ATOM     16  C   UNL     1      14.401  12.116 -21.839  1.00  0.00     0.004 C 
ENDBRANCH  14  15
ENDBRANCH  13  14
ENDBRANCH  12  13
ENDBRANCH  11  12
ENDBRANCH  10  11
ENDBRANCH   1  10
TORSDOF 12
ENDMDL
MODEL 4
REMARK VINA RESULT:    -4.075      1.714      3.686
REMARK INTER + INTRA:          -9.082
REMARK INTER:                  -7.666
REMARK INTRA:                  -1.416
REMARK UNBOUND:                -2.148
REMARK SMILES CCCCCCCCCCCCCC(=O)[O-]
REMARK SMILES IDX 8 1 9 2 10 3 11 4 12 5 13 6 14 7 15 8 16 9 7 10 6 11 5 12
REMARK SMILES IDX 4 13 3 14 2 15 1 16
REMARK H PARENT
REMARK Flexibility Score: inf
ROOT
ATOM      1  C   UNL     1      14.001  15.445 -19.948  1.00  0.00     0.000 C 
ENDROOT
BRANCH   1   2
ATOM      2  C   UNL     1      14.520  16.822 -19.502  1.00  0.00     0.000 C 
BRANCH   2   3
ATOM      3  C   UNL     1      14.476  17.005 -17.975  1.00  0.00     0.000 C 
BRANCH   3   4
ATOM      4  C   UNL     1      15.849  17.359 -17.382  1.00  0.00     0.000 C 
BRANCH   4   5
ATOM      5  C   UNL     1      16.447  16.218 -16.545  1.00  0.00     0.006 C 
BRANCH   5   6
ATOM      6  C   UNL     1      17.170  15.204 -17.439  1.00  0.00     0.053 C 
BRANCH   6   7
ATOM      7  C   UNL     1      17.130  13.841 -16.824  1.00  0.00     0.041 C 
ATOM      8  O   UNL     1      16.322  13.590 -15.892  1.00  0.00    -0.550 OA
ATOM      9  O   UNL     1      18.018  12.861 -17.248  1.00  0.00    -0.550 OA
ENDBRANCH   6   7
ENDBRANCH   5   6
ENDBRANCH   4   5
ENDBRANCH   3   4
ENDBRANCH   2   3
ENDBRANCH   1   2
BRANCH   1  10
ATOM     10  C   UNL     1      14.007  14.412 -18.807  1.00  0.00     0.000 C 
BRANCH  10  11
ATOM     11  C   UNL     1      12.652  13.699 -18.652  1.00  0.00    -0.000 C 
BRANCH  11  12
ATOM     12  C   UNL     1      12.127  13.135 -19.985  1.00  0.00    -0.000 C 
BRANCH  12  13
ATOM     13  C   UNL     1      12.498  11.656 -20.196  1.00  0.00    -0.000 C 
BRANCH  13  14
ATOM     14  C   UNL     1      13.065  11.317 -21.587  1.00  0.00    -0.000 C 
BRANCH  14  15
ATOM     15  C   UNL     1      13.961  12.428 -22.155  1.00  0.00    -0.003 C 
ATOM     16  C   UNL     1      15.374  12.338 -21.586  1.00  0.00     0.004 C 
ENDBRANCH  14  15
ENDBRANCH  13  14
ENDBRANCH  12  13
ENDBRANCH  11  12
ENDBRANCH  10  11
ENDBRANCH   1  10
TORSDOF 12
ENDMDL
MODEL 5
REMARK VINA RESULT:    -4.065      2.890      5.827
REMARK INTER + INTRA:          -9.064
REMARK INTER:                  -7.026
REMARK INTRA:                  -2.038
REMARK UNBOUND:                -2.148
REMARK SMILES CCCCCCCCCCCCCC(=O)[O-]
REMARK SMILES IDX 8 1 9 2 10 3 11 4 12 5 13 6 14 7 15 8 16 9 7 10 6 11 5 12
REMARK SMILES IDX 4 13 3 14 2 15 1 16
REMARK H PARENT
REMARK Flexibility Score: inf
ROOT
ATOM      1  C   UNL     1      12.938  16.228 -16.207  1.00  0.00     0.000 C 
ENDROOT
BRANCH   1   2
ATOM      2  C   UNL     1      12.953  15.887 -17.707  1.00  0.00     0.000 C 
BRANCH   2   3
ATOM      3  C   UNL     1      12.317  14.520 -18.010  1.00  0.00     0.000 C 
BRANCH   3   4
ATOM      4  C   UNL     1      13.169  13.670 -18.966  1.00  0.00     0.000 C 
BRANCH   4   5
ATOM      5  C   UNL     1      13.826  14.505 -20.077  1.00  0.00     0.006 C 
BRANCH   5   6
ATOM      6  C   UNL     1      13.405  14.001 -21.461  1.00  0.00     0.053 C 
BRANCH   6   7
ATOM      7  C   UNL     1      14.023  12.669 -21.744  1.00  0.00     0.041 C 
ATOM      8  O   UNL     1      13.305  11.701 -22.106  1.00  0.00    -0.550 OA
ATOM      9  O   UNL     1      15.387  12.483 -21.561  1.00  0.00    -0.550 OA
ENDBRANCH   6   7
ENDBRANCH   5   6
ENDBRANCH   4   5
ENDBRANCH   3   4
ENDBRANCH   2   3
ENDBRANCH   1   2
BRANCH   1  10
ATOM     10  C   UNL     1      14.112  17.135 -15.795  1.00  0.00     0.000 C 
BRANCH  10  11
ATOM     11  C   UNL     1      15.111  17.361 -16.942  1.00  0.00    -0.000 C 
BRANCH  11  12
ATOM     12  C   UNL     1      16.424  16.582 -16.741  1.00  0.00    -0.000 C 
BRANCH  12  13
ATOM     13  C   UNL     1      16.693  15.563 -17.863  1.00  0.00    -0.000 C 
BRANCH  13  14
ATOM     14  C   UNL     1      16.654  14.086 -17.427  1.00  0.00    -0.000 C 
BRANCH  14  15
ATOM     15  C   UNL     1      16.334  13.911 -15.935  1.00  0.00    -0.003 C 
ATOM     16  C   UNL     1      14.991  13.213 -15.739  1.00  0.00     0.004 C 
ENDBRANCH  14  15
ENDBRANCH  13  14
ENDBRANCH  12  13
ENDBRANCH  11  12
ENDBRANCH  10  11
ENDBRANCH   1  10
TORSDOF 12
ENDMDL
MODEL 6
REMARK VINA RESULT:    -4.052      1.670      2.927
REMARK INTER + INTRA:          -9.043
REMARK INTER:                  -7.159
REMARK INTRA:                  -1.884
REMARK UNBOUND:                -2.148
REMARK SMILES CCCCCCCCCCCCCC(=O)[O-]
REMARK SMILES IDX 8 1 9 2 10 3 11 4 12 5 13 6 14 7 15 8 16 9 7 10 6 11 5 12
REMARK SMILES IDX 4 13 3 14 2 15 1 16
REMARK H PARENT
REMARK Flexibility Score: inf
ROOT
ATOM      1  C   UNL     1      13.021  11.211 -20.599  1.00  0.00     0.000 C 
ENDROOT
BRANCH   1   2
ATOM      2  C   UNL     1      13.529  11.870 -21.893  1.00  0.00     0.000 C 
BRANCH   2   3
ATOM      3  C   UNL     1      15.004  12.297 -21.800  1.00  0.00     0.000 C 
BRANCH   3   4
ATOM      4  C   UNL     1      15.352  12.922 -20.439  1.00  0.00     0.000 C 
BRANCH   4   5
ATOM      5  C   UNL     1      16.867  13.024 -20.204  1.00  0.00     0.006 C 
BRANCH   5   6
ATOM      6  C   UNL     1      17.209  14.267 -19.375  1.00  0.00     0.053 C 
BRANCH   6   7
ATOM      7  C   UNL     1      17.143  13.956 -17.913  1.00  0.00     0.041 C 
ATOM      8  O   UNL     1      17.780  12.977 -17.444  1.00  0.00    -0.550 OA
ATOM      9  O   UNL     1      16.338  14.719 -17.076  1.00  0.00    -0.550 OA
ENDBRANCH   6   7
ENDBRANCH   5   6
ENDBRANCH   4   5
ENDBRANCH   3   4
ENDBRANCH   2   3
ENDBRANCH   1   2
BRANCH   1  10
ATOM     10  C   UNL     1      11.809  11.945 -19.998  1.00  0.00     0.000 C 
BRANCH  10  11
ATOM     11  C   UNL     1      11.912  12.096 -18.471  1.00  0.00    -0.000 C 
BRANCH  11  12
ATOM     12  C   UNL     1      12.687  13.359 -18.055  1.00  0.00    -0.000 C 
BRANCH  12  13
ATOM     13  C   UNL     1      12.335  14.587 -18.913  1.00  0.00    -0.000 C 
BRANCH  13  14
ATOM     14  C   UNL     1      13.421  15.678 -18.972  1.00  0.00    -0.000 C 
BRANCH  14  15
ATOM     15  C   UNL     1      13.761  16.106 -20.407  1.00  0.00    -0.003 C 
ATOM     16  C   UNL     1      12.795  15.481 -21.410  1.00  0.00     0.004 C 
ENDBRANCH  14  15
ENDBRANCH  13  14
ENDBRANCH  12  13
ENDBRANCH  11  12
ENDBRANCH  10  11
ENDBRANCH   1  10
TORSDOF 12
ENDMDL
MODEL 7
REMARK VINA RESULT:    -4.032      1.494      3.198
REMARK INTER + INTRA:          -9.009
REMARK INTER:                  -7.285
REMARK INTRA:                  -1.724
REMARK UNBOUND:                -2.148
REMARK SMILES CCCCCCCCCCCCCC(=O)[O-]
REMARK SMILES IDX 8 1 9 2 10 3 11 4 12 5 13 6 14 7 15 8 16 9 7 10 6 11 5 12
REMARK SMILES IDX 4 13 3 14 2 15 1 16
REMARK H PARENT
REMARK Flexibility Score: inf
ROOT
ATOM      1  C   UNL     1      13.605  14.885 -19.321  1.00  0.00     0.000 C 
ENDROOT
BRANCH   1   2
ATOM      2  C   UNL     1      12.894  15.774 -18.287  1.00  0.00     0.000 C 
BRANCH   2   3
ATOM      3  C   UNL     1      13.345  15.484 -16.846  1.00  0.00     0.000 C 
BRANCH   3   4
ATOM      4  C   UNL     1      14.222  14.225 -16.745  1.00  0.00     0.000 C 
BRANCH   4   5
ATOM      5  C   UNL     1      15.647  14.531 -16.261  1.00  0.00     0.006 C 
BRANCH   5   6
ATOM      6  C   UNL     1      16.686  14.050 -17.280  1.00  0.00     0.053 C 
BRANCH   6   7
ATOM      7  C   UNL     1      17.025  15.147 -18.239  1.00  0.00     0.041 C 
ATOM      8  O   UNL     1      16.741  16.341 -17.962  1.00  0.00    -0.550 OA
ATOM      9  O   UNL     1      17.612  14.844 -19.461  1.00  0.00    -0.550 OA
ENDBRANCH   6   7
ENDBRANCH   5   6
ENDBRANCH   4   5
ENDBRANCH   3   4
ENDBRANCH   2   3
ENDBRANCH   1   2
BRANCH   1  10
ATOM     10  C   UNL     1      13.004  15.021 -20.732  1.00  0.00     0.000 C 
BRANCH  10  11
ATOM     11  C   UNL     1      13.430  13.875 -21.665  1.00  0.00    -0.000 C 
BRANCH  11  12
ATOM     12  C   UNL     1      14.106  12.718 -20.907  1.00  0.00    -0.000 C 
BRANCH  12  13
ATOM     13  C   UNL     1      13.340  11.389 -21.038  1.00  0.00    -0.000 C 
BRANCH  13  14
ATOM     14  C   UNL     1      11.942  11.373 -20.394  1.00  0.00    -0.000 C 
BRANCH  14  15
ATOM     15  C   UNL     1      11.965  11.751 -18.905  1.00  0.00    -0.003 C 
ATOM     16  C   UNL     1      10.789  12.656 -18.550  1.00  0.00     0.004 C 
ENDBRANCH  14  15
ENDBRANCH  13  14
ENDBRANCH  12  13
ENDBRANCH  11  12
ENDBRANCH  10  11
ENDBRANCH   1  10
TORSDOF 12
ENDMDL
MODEL 8
REMARK VINA RESULT:    -4.015      1.311      3.199
REMARK INTER + INTRA:          -8.979
REMARK INTER:                  -7.280
REMARK INTRA:                  -1.699
REMARK UNBOUND:                -2.148
REMARK SMILES CCCCCCCCCCCCCC(=O)[O-]
REMARK SMILES IDX 8 1 9 2 10 3 11 4 12 5 13 6 14 7 15 8 16 9 7 10 6 11 5 12
REMARK SMILES IDX 4 13 3 14 2 15 1 16
REMARK H PARENT
REMARK Flexibility Score: inf
ROOT
ATOM      1  C   UNL     1      12.126  15.383 -21.019  1.00  0.00     0.000 C 
ENDROOT
BRANCH   1   2
ATOM      2  C   UNL     1      13.613  15.078 -20.771  1.00  0.00     0.000 C 
BRANCH   2   3
ATOM      3  C   UNL     1      13.957  14.990 -19.274  1.00  0.00     0.000 C 
BRANCH   3   4
ATOM      4  C   UNL     1      15.215  14.147 -19.006  1.00  0.00     0.000 C 
BRANCH   4   5
ATOM      5  C   UNL     1      16.496  14.995 -18.948  1.00  0.00     0.006 C 
BRANCH   5   6
ATOM      6  C   UNL     1      16.973  15.165 -17.502  1.00  0.00     0.053 C 
BRANCH   6   7
ATOM      7  C   UNL     1      17.106  13.833 -16.834  1.00  0.00     0.041 C 
ATOM      8  O   UNL     1      16.446  13.577 -15.793  1.00  0.00    -0.550 OA
ATOM      9  O   UNL     1      17.995  12.891 -17.334  1.00  0.00    -0.550 OA
ENDBRANCH   6   7
ENDBRANCH   5   6
ENDBRANCH   4   5
ENDBRANCH   3   4
ENDBRANCH   2   3
ENDBRANCH   1   2
BRANCH   1  10
ATOM     10  C   UNL     1      11.337  15.586 -19.712  1.00  0.00     0.000 C 
BRANCH  10  11
ATOM     11  C   UNL     1      10.167  14.597 -19.572  1.00  0.00    -0.000 C 
BRANCH  11  12
ATOM     12  C   UNL     1      10.520  13.389 -18.685  1.00  0.00    -0.000 C 
BRANCH  12  13
ATOM     13  C   UNL     1      10.744  12.098 -19.494  1.00  0.00    -0.000 C 
BRANCH  13  14
ATOM     14  C   UNL     1      12.217  11.684 -19.669  1.00  0.00    -0.000 C 
BRANCH  14  15
ATOM     15  C   UNL     1      12.607  11.468 -21.139  1.00  0.00    -0.003 C 
ATOM     16  C   UNL     1      14.122  11.503 -21.316  1.00  0.00     0.004 C 
ENDBRANCH  14  15
ENDBRANCH  13  14
ENDBRANCH  12  13
ENDBRANCH  11  12
ENDBRANCH  10  11
ENDBRANCH   1  10
TORSDOF 12
ENDMDL
MODEL 9
REMARK VINA RESULT:    -4.010      2.725      5.765
REMARK INTER + INTRA:          -8.972
REMARK INTER:                  -7.652
REMARK INTRA:                  -1.320
REMARK UNBOUND:                -2.148
REMARK SMILES CCCCCCCCCCCCCC(=O)[O-]
REMARK SMILES IDX 8 1 9 2 10 3 11 4 12 5 13 6 14 7 15 8 16 9 7 10 6 11 5 12
REMARK SMILES IDX 4 13 3 14 2 15 1 16
REMARK H PARENT
REMARK Flexibility Score: inf
ROOT
ATOM      1  C   UNL     1      13.263  15.225 -17.494  1.00  0.00     0.000 C 
ENDROOT
BRANCH   1   2
ATOM      2  C   UNL     1      13.386  14.040 -18.467  1.00  0.00     0.000 C 
BRANCH   2   3
ATOM      3  C   UNL     1      12.042  13.332 -18.711  1.00  0.00     0.000 C 
BRANCH   3   4
ATOM      4  C   UNL     1      12.215  11.854 -19.097  1.00  0.00     0.000 C 
BRANCH   4   5
ATOM      5  C   UNL     1      12.275  11.642 -20.618  1.00  0.00     0.006 C 
BRANCH   5   6
ATOM      6  C   UNL     1      13.628  11.055 -21.036  1.00  0.00     0.053 C 
BRANCH   6   7
ATOM      7  C   UNL     1      14.492  12.113 -21.644  1.00  0.00     0.041 C 
ATOM      8  O   UNL     1      15.401  12.658 -20.964  1.00  0.00    -0.550 OA
ATOM      9  O   UNL     1      14.264  12.532 -22.949  1.00  0.00    -0.550 OA
ENDBRANCH   6   7
ENDBRANCH   5   6
ENDBRANCH   4   5
ENDBRANCH   3   4
ENDBRANCH   2   3
ENDBRANCH   1   2
BRANCH   1  10
ATOM     10  C   UNL     1      13.416  16.586 -18.197  1.00  0.00     0.000 C 
BRANCH  10  11
ATOM     11  C   UNL     1      14.882  16.915 -18.527  1.00  0.00    -0.000 C 
BRANCH  11  12
ATOM     12  C   UNL     1      15.679  17.360 -17.288  1.00  0.00    -0.000 C 
BRANCH  12  13
ATOM     13  C   UNL     1      16.617  16.261 -16.755  1.00  0.00    -0.000 C 
BRANCH  13  14
ATOM     14  C   UNL     1      17.125  15.265 -17.813  1.00  0.00    -0.000 C 
BRANCH  14  15
ATOM     15  C   UNL     1      17.178  13.819 -17.297  1.00  0.00    -0.003 C 
ATOM     16  C   UNL     1      16.370  13.666 -16.011  1.00  0.00     0.004 C 
ENDBRANCH  14  15
ENDBRANCH  13  14
ENDBRANCH  12  13
ENDBRANCH  11  12
ENDBRANCH  10  11
ENDBRANCH   1  10
TORSDOF 12
ENDMDL
