MODEL 1
REMARK VINA RESULT:    -2.820      0.000      0.000
REMARK INTER + INTRA:          -2.902
REMARK INTER:                  -2.902
REMARK INTRA:                   0.000
REMARK UNBOUND:                 0.000
REMARK SMILES O=c1ccc2ccc(O)cc2o1
REMARK SMILES IDX 6 1 7 2 8 3 10 4 11 5 5 6 4 7 3 8 2 9 1 10 12 11 9 12
REMARK H PARENT 9 13
REMARK Flexibility Score: inf
ROOT
ATOM      1  C   UNL     1      -1.885  60.236  -3.628  1.00  0.00     0.016 A 
ATOM      2  C   UNL     1      -3.160  59.891  -4.087  1.00  0.00     0.047 A 
ATOM      3  C   UNL     1      -3.317  59.216  -5.304  1.00  0.00     0.119 A 
ATOM      4  C   UNL     1      -2.189  58.882  -6.068  1.00  0.00     0.094 A 
ATOM      5  C   UNL     1      -0.909  59.222  -5.618  1.00  0.00     0.142 A 
ATOM      6  C   UNL     1      -0.756  59.903  -4.390  1.00  0.00     0.018 A 
ATOM      7  C   UNL     1       0.537  60.229  -3.966  1.00  0.00     0.019 A 
ATOM      8  C   UNL     1       1.627  59.876  -4.759  1.00  0.00     0.094 A 
ATOM      9  C   UNL     1       1.399  59.202  -5.964  1.00  0.00     0.336 A 
ATOM     10  O   UNL     1       2.371  58.875  -6.695  1.00  0.00    -0.246 OA
ATOM     11  O   UNL     1       0.159  58.904  -6.345  1.00  0.00    -0.423 OA
ENDROOT
BRANCH   3  12
ATOM     12  O   UNL     1      -4.596  58.882  -5.744  1.00  0.00    -0.508 OA
ATOM     13  H   UNL     1      -5.119  58.124  -5.323  1.00  0.00     0.293 HD
ENDBRANCH   3  12
TORSDOF 1
ENDMDL
MODEL 2
REMARK VINA RESULT:    -2.599      0.799      4.225
REMARK INTER + INTRA:          -2.675
REMARK INTER:                  -2.675
REMARK INTRA:                   0.000
REMARK UNBOUND:                 0.000
REMARK SMILES O=c1ccc2ccc(O)cc2o1
REMARK SMILES IDX 6 1 7 2 8 3 10 4 11 5 5 6 4 7 3 8 2 9 1 10 12 11 9 12
REMARK H PARENT 9 13
REMARK Flexibility Score: inf
ROOT
ATOM      1  C   UNL     1       0.543  60.325  -3.993  1.00  0.00     0.016 A 
ATOM      2  C   UNL     1       1.636  59.956  -4.784  1.00  0.00     0.047 A 
ATOM      3  C   UNL     1       1.442  59.234  -5.968  1.00  0.00     0.119 A 
ATOM      4  C   UNL     1       0.145  58.878  -6.365  1.00  0.00     0.094 A 
ATOM      5  C   UNL     1      -0.955  59.242  -5.581  1.00  0.00     0.142 A 
ATOM      6  C   UNL     1      -0.755  59.971  -4.387  1.00  0.00     0.018 A 
ATOM      7  C   UNL     1      -1.873  60.321  -3.624  1.00  0.00     0.019 A 
ATOM      8  C   UNL     1      -3.143  59.945  -4.059  1.00  0.00     0.094 A 
ATOM      9  C   UNL     1      -3.266  59.224  -5.252  1.00  0.00     0.336 A 
ATOM     10  O   UNL     1      -4.404  58.875  -5.661  1.00  0.00    -0.246 OA
ATOM     11  O   UNL     1      -2.185  58.903  -5.959  1.00  0.00    -0.423 OA
ENDROOT
BRANCH   3  12
ATOM     12  O   UNL     1       2.544  58.875  -6.742  1.00  0.00    -0.508 OA
ATOM     13  H   UNL     1       3.400  59.416  -6.725  1.00  0.00     0.293 HD
ENDBRANCH   3  12
TORSDOF 1
ENDMDL
MODEL 3
REMARK VINA RESULT:    -2.058      1.149      4.230
REMARK INTER + INTRA:          -2.118
REMARK INTER:                  -2.118
REMARK INTRA:                   0.000
REMARK UNBOUND:                 0.000
REMARK SMILES O=c1ccc2ccc(O)cc2o1
REMARK SMILES IDX 6 1 7 2 8 3 10 4 11 5 5 6 4 7 3 8 2 9 1 10 12 11 9 12
REMARK H PARENT 9 13
REMARK Flexibility Score: inf
ROOT
ATOM      1  C   UNL     1      -0.562  60.375  -3.118  1.00  0.00     0.016 A 
ATOM      2  C   UNL     1       0.767  60.189  -3.513  1.00  0.00     0.047 A 
ATOM      3  C   UNL     1       1.063  59.630  -4.762  1.00  0.00     0.119 A 
ATOM      4  C   UNL     1       0.022  59.254  -5.624  1.00  0.00     0.094 A 
ATOM      5  C   UNL     1      -1.310  59.437  -5.239  1.00  0.00     0.142 A 
ATOM      6  C   UNL     1      -1.604  60.002  -3.978  1.00  0.00     0.018 A 
ATOM      7  C   UNL     1      -2.946  60.172  -3.620  1.00  0.00     0.019 A 
ATOM      8  C   UNL     1      -3.946  59.784  -4.510  1.00  0.00     0.094 A 
ATOM      9  C   UNL     1      -3.580  59.232  -5.743  1.00  0.00     0.336 A 
ATOM     10  O   UNL     1      -4.468  58.875  -6.560  1.00  0.00    -0.246 OA
ATOM     11  O   UNL     1      -2.296  59.080  -6.058  1.00  0.00    -0.423 OA
ENDROOT
BRANCH   3  12
ATOM     12  O   UNL     1       2.393  59.451  -5.136  1.00  0.00    -0.508 OA
ATOM     13  H   UNL     1       2.808  59.989  -5.889  1.00  0.00     0.293 HD
ENDBRANCH   3  12
TORSDOF 1
ENDMDL
MODEL 4
REMARK VINA RESULT:    -2.003     22.773     23.762
REMARK INTER + INTRA:          -2.062
REMARK INTER:                  -2.062
REMARK INTRA:                   0.000
REMARK UNBOUND:                 0.000
REMARK SMILES O=c1ccc2ccc(O)cc2o1
REMARK SMILES IDX 6 1 7 2 8 3 10 4 11 5 5 6 4 7 3 8 2 9 1 10 12 11 9 12
REMARK H PARENT 9 13
REMARK Flexibility Score: inf
ROOT
ATOM      1  C   UNL     1       1.980  79.123   8.163  1.00  0.00     0.016 A 
ATOM      2  C   UNL     1       2.005  78.530   6.897  1.00  0.00     0.047 A 
ATOM      3  C   UNL     1       2.770  77.380   6.668  1.00  0.00     0.119 A 
ATOM      4  C   UNL     1       3.516  76.817   7.714  1.00  0.00     0.094 A 
ATOM      5  C   UNL     1       3.497  77.403   8.984  1.00  0.00     0.142 A 
ATOM      6  C   UNL     1       2.724  78.563   9.211  1.00  0.00     0.018 A 
ATOM      7  C   UNL     1       2.725  79.125  10.491  1.00  0.00     0.019 A 
ATOM      8  C   UNL     1       3.482  78.530  11.499  1.00  0.00     0.094 A 
ATOM      9  C   UNL     1       4.224  77.382  11.202  1.00  0.00     0.336 A 
ATOM     10  O   UNL     1       4.915  76.830  12.099  1.00  0.00    -0.246 OA
ATOM     11  O   UNL     1       4.207  76.867   9.975  1.00  0.00    -0.423 OA
ENDROOT
BRANCH   3  12
ATOM     12  O   UNL     1       2.783  76.805   5.399  1.00  0.00    -0.508 OA
ATOM     13  H   UNL     1       3.409  76.042   5.170  1.00  0.00     0.293 HD
ENDBRANCH   3  12
TORSDOF 1
ENDMDL
MODEL 5
REMARK VINA RESULT:    -1.897      2.160      3.298
REMARK INTER + INTRA:          -1.952
REMARK INTER:                  -1.952
REMARK INTRA:                   0.000
REMARK UNBOUND:                 0.000
REMARK SMILES O=c1ccc2ccc(O)cc2o1
REMARK SMILES IDX 6 1 7 2 8 3 10 4 11 5 5 6 4 7 3 8 2 9 1 10 12 11 9 12
REMARK H PARENT 9 13
REMARK Flexibility Score: inf
ROOT
ATOM      1  C   UNL     1      -0.686  59.002  -6.033  1.00  0.00     0.016 A 
ATOM      2  C   UNL     1      -1.104  59.378  -4.753  1.00  0.00     0.047 A 
ATOM      3  C   UNL     1      -0.209  59.987  -3.865  1.00  0.00     0.119 A 
ATOM      4  C   UNL     1       1.116  60.222  -4.260  1.00  0.00     0.094 A 
ATOM      5  C   UNL     1       1.544  59.850  -5.539  1.00  0.00     0.142 A 
ATOM      6  C   UNL     1       0.638  59.236  -6.432  1.00  0.00     0.018 A 
ATOM      7  C   UNL     1       1.095  58.875  -7.703  1.00  0.00     0.019 A 
ATOM      8  C   UNL     1       2.421  59.129  -8.051  1.00  0.00     0.094 A 
ATOM      9  C   UNL     1       3.263  59.741  -7.115  1.00  0.00     0.336 A 
ATOM     10  O   UNL     1       4.463  59.978  -7.411  1.00  0.00    -0.246 OA
ATOM     11  O   UNL     1       2.803  60.073  -5.912  1.00  0.00    -0.423 OA
ENDROOT
BRANCH   3  12
ATOM     12  O   UNL     1      -0.645  60.353  -2.594  1.00  0.00    -0.508 OA
ATOM     13  H   UNL     1      -0.145  61.039  -2.040  1.00  0.00     0.293 HD
ENDBRANCH   3  12
TORSDOF 1
ENDMDL
MODEL 6
REMARK VINA RESULT:    -1.344      1.957      2.658
REMARK INTER + INTRA:          -1.383
REMARK INTER:                  -1.383
REMARK INTRA:                   0.000
REMARK UNBOUND:                 0.000
REMARK SMILES O=c1ccc2ccc(O)cc2o1
REMARK SMILES IDX 6 1 7 2 8 3 10 4 11 5 5 6 4 7 3 8 2 9 1 10 12 11 9 12
REMARK H PARENT 9 13
REMARK Flexibility Score: inf
ROOT
ATOM      1  C   UNL     1      -1.270  59.010  -6.394  1.00  0.00     0.016 A 
ATOM      2  C   UNL     1      -2.660  58.876  -6.469  1.00  0.00     0.047 A 
ATOM      3  C   UNL     1      -3.463  59.196  -5.368  1.00  0.00     0.119 A 
ATOM      4  C   UNL     1      -2.872  59.654  -4.181  1.00  0.00     0.094 A 
ATOM      5  C   UNL     1      -1.483  59.791  -4.096  1.00  0.00     0.142 A 
ATOM      6  C   UNL     1      -0.676  59.467  -5.209  1.00  0.00     0.018 A 
ATOM      7  C   UNL     1       0.710  59.615  -5.094  1.00  0.00     0.019 A 
ATOM      8  C   UNL     1       1.252  60.074  -3.894  1.00  0.00     0.094 A 
ATOM      9  C   UNL     1       0.391  60.376  -2.833  1.00  0.00     0.336 A 
ATOM     10  O   UNL     1       0.862  60.791  -1.741  1.00  0.00    -0.246 OA
ATOM     11  O   UNL     1      -0.924  60.226  -2.969  1.00  0.00    -0.423 OA
ENDROOT
BRANCH   3  12
ATOM     12  O   UNL     1      -4.846  59.055  -5.463  1.00  0.00    -0.508 OA
ATOM     13  H   UNL     1      -5.475  59.777  -5.132  1.00  0.00     0.293 HD
ENDBRANCH   3  12
TORSDOF 1
ENDMDL
MODEL 7
REMARK VINA RESULT:    -0.925     22.727     23.808
REMARK INTER + INTRA:          -0.952
REMARK INTER:                  -0.952
REMARK INTRA:                   0.000
REMARK UNBOUND:                 0.000
REMARK SMILES O=c1ccc2ccc(O)cc2o1
REMARK SMILES IDX 6 1 7 2 8 3 10 4 11 5 5 6 4 7 3 8 2 9 1 10 12 11 9 12
REMARK H PARENT 9 13
REMARK Flexibility Score: inf
ROOT
ATOM      1  C   UNL     1       2.777  79.125  10.378  1.00  0.00     0.016 A 
ATOM      2  C   UNL     1       3.569  78.550  11.377  1.00  0.00     0.047 A 
ATOM      3  C   UNL     1       4.354  77.424  11.099  1.00  0.00     0.119 A 
ATOM      4  C   UNL     1       4.347  76.868   9.811  1.00  0.00     0.094 A 
ATOM      5  C   UNL     1       3.558  77.436   8.806  1.00  0.00     0.142 A 
ATOM      6  C   UNL     1       2.768  78.572   9.090  1.00  0.00     0.018 A 
ATOM      7  C   UNL     1       1.989  79.117   8.064  1.00  0.00     0.019 A 
ATOM      8  C   UNL     1       2.015  78.529   6.800  1.00  0.00     0.094 A 
ATOM      9  C   UNL     1       2.822  77.405   6.591  1.00  0.00     0.336 A 
ATOM     10  O   UNL     1       2.858  76.860   5.456  1.00  0.00    -0.246 OA
ATOM     11  O   UNL     1       3.552  76.906   7.584  1.00  0.00    -0.423 OA
ENDROOT
BRANCH   3  12
ATOM     12  O   UNL     1       5.136  76.866  12.108  1.00  0.00    -0.508 OA
ATOM     13  H   UNL     1       5.646  77.446  12.764  1.00  0.00     0.293 HD
ENDBRANCH   3  12
TORSDOF 1
ENDMDL
