MODEL 1
REMARK VINA RESULT:     6.192      0.000      0.000
REMARK INTER + INTRA:          10.246
REMARK INTER:                  10.535
REMARK INTRA:                  -0.290
REMARK UNBOUND:                -0.290
REMARK SMILES CCCCCCCCCCCCCC(=O)[O-]
REMARK SMILES IDX 8 1 9 2 10 3 11 4 12 5 13 6 14 7 15 8 16 9 7 10 6 11 5 12
REMARK SMILES IDX 4 13 3 14 2 15 1 16
REMARK H PARENT
REMARK Flexibility Score: inf
ROOT
ATOM      1  C   UNL     1     -16.414  24.927 -18.836  1.00  0.00     0.000 C 
ENDROOT
BRANCH   1   2
ATOM      2  C   UNL     1     -16.908  25.188 -17.401  1.00  0.00     0.000 C 
BRANCH   2   3
ATOM      3  C   UNL     1     -17.610  26.540 -17.183  1.00  0.00     0.000 C 
BRANCH   3   4
ATOM      4  C   UNL     1     -17.219  27.595 -18.232  1.00  0.00     0.000 C 
BRANCH   4   5
ATOM      5  C   UNL     1     -18.186  27.630 -19.430  1.00  0.00     0.006 C 
BRANCH   5   6
ATOM      6  C   UNL     1     -17.501  27.805 -20.795  1.00  0.00     0.053 C 
BRANCH   6   7
ATOM      7  C   UNL     1     -18.294  28.684 -21.714  1.00  0.00     0.041 C 
ATOM      8  O   UNL     1     -19.483  28.386 -22.004  1.00  0.00    -0.550 OA
ATOM      9  O   UNL     1     -17.732  29.847 -22.222  1.00  0.00    -0.550 OA
ENDBRANCH   6   7
ENDBRANCH   5   6
ENDBRANCH   4   5
ENDBRANCH   3   4
ENDBRANCH   2   3
ENDBRANCH   1   2
BRANCH   1  10
ATOM     10  C   UNL     1     -16.018  23.460 -19.078  1.00  0.00     0.000 C 
BRANCH  10  11
ATOM     11  C   UNL     1     -16.324  22.996 -20.512  1.00  0.00    -0.000 C 
BRANCH  11  12
ATOM     12  C   UNL     1     -15.366  23.612 -21.547  1.00  0.00    -0.000 C 
BRANCH  12  13
ATOM     13  C   UNL     1     -14.018  22.875 -21.617  1.00  0.00    -0.000 C 
BRANCH  13  14
ATOM     14  C   UNL     1     -13.366  22.962 -23.008  1.00  0.00    -0.000 C 
BRANCH  14  15
ATOM     15  C   UNL     1     -12.369  24.126 -23.118  1.00  0.00    -0.003 C 
ATOM     16  C   UNL     1     -13.031  25.493 -22.956  1.00  0.00     0.004 C 
ENDBRANCH  14  15
ENDBRANCH  13  14
ENDBRANCH  12  13
ENDBRANCH  11  12
ENDBRANCH  10  11
ENDBRANCH   1  10
TORSDOF 12
ENDMDL
