MODEL 1
REMARK VINA RESULT:    -4.486      0.000      0.000
REMARK INTER + INTRA:         -10.929
REMARK INTER:                  -8.683
REMARK INTRA:                  -2.246
REMARK UNBOUND:                -2.246
REMARK SMILES CCCCCCCCCCCCCCCCCC(=O)[O-]
REMARK SMILES IDX 10 1 11 2 12 3 13 4 14 5 15 6 16 7 17 8 18 9 19 10 20 11
REMARK SMILES IDX 9 12 8 13 7 14 6 15 5 16 4 17 3 18 2 19 1 20
REMARK H PARENT
REMARK Flexibility Score: inf
ROOT
ATOM      1  C   UNL     1      26.037   6.700   6.243  1.00  0.00     0.000 C 
ENDROOT
BRANCH   1   2
ATOM      2  C   UNL     1      26.386   7.882   7.162  1.00  0.00     0.000 C 
BRANCH   2   3
ATOM      3  C   UNL     1      25.962   7.642   8.621  1.00  0.00     0.000 C 
BRANCH   3   4
ATOM      4  C   UNL     1      25.120   8.794   9.199  1.00  0.00     0.000 C 
BRANCH   4   5
ATOM      5  C   UNL     1      23.736   8.386   9.734  1.00  0.00     0.000 C 
BRANCH   5   6
ATOM      6  C   UNL     1      23.402   6.909   9.463  1.00  0.00     0.000 C 
BRANCH   6   7
ATOM      7  C   UNL     1      22.852   6.186  10.707  1.00  0.00     0.006 C 
BRANCH   7   8
ATOM      8  C   UNL     1      23.422   6.702  12.038  1.00  0.00     0.053 C 
BRANCH   8   9
ATOM      9  C   UNL     1      22.340   7.076  13.004  1.00  0.00     0.041 C 
ATOM     10  O   UNL     1      22.631   7.433  14.176  1.00  0.00    -0.550 OA
ATOM     11  O   UNL     1      21.007   6.997  12.619  1.00  0.00    -0.550 OA
ENDBRANCH   8   9
ENDBRANCH   7   8
ENDBRANCH   6   7
ENDBRANCH   5   6
ENDBRANCH   4   5
ENDBRANCH   3   4
ENDBRANCH   2   3
ENDBRANCH   1   2
BRANCH   1  12
ATOM     12  C   UNL     1      24.860   5.864   6.771  1.00  0.00     0.000 C 
BRANCH  12  13
ATOM     13  C   UNL     1      25.194   4.366   6.735  1.00  0.00    -0.000 C 
BRANCH  13  14
ATOM     14  C   UNL     1      26.694   4.078   6.925  1.00  0.00    -0.000 C 
BRANCH  14  15
ATOM     15  C   UNL     1      27.194   4.169   8.378  1.00  0.00    -0.000 C 
BRANCH  15  16
ATOM     16  C   UNL     1      26.072   3.990   9.412  1.00  0.00    -0.000 C 
BRANCH  16  17
ATOM     17  C   UNL     1      26.361   4.799  10.683  1.00  0.00    -0.000 C 
BRANCH  17  18
ATOM     18  C   UNL     1      27.709   5.527  10.577  1.00  0.00    -0.000 C 
BRANCH  18  19
ATOM     19  C   UNL     1      28.695   5.108  11.677  1.00  0.00    -0.003 C 
ATOM     20  C   UNL     1      29.029   3.617  11.634  1.00  0.00     0.004 C 
ENDBRANCH  18  19
ENDBRANCH  17  18
ENDBRANCH  16  17
ENDBRANCH  15  16
ENDBRANCH  14  15
ENDBRANCH  13  14
ENDBRANCH  12  13
ENDBRANCH   1  12
TORSDOF 16
ENDMDL
MODEL 2
REMARK VINA RESULT:    -4.376      4.147      5.611
REMARK INTER + INTRA:         -10.714
REMARK INTER:                  -8.626
REMARK INTRA:                  -2.089
REMARK UNBOUND:                -2.246
REMARK SMILES CCCCCCCCCCCCCCCCCC(=O)[O-]
REMARK SMILES IDX 10 1 11 2 12 3 13 4 14 5 15 6 16 7 17 8 18 9 19 10 20 11
REMARK SMILES IDX 9 12 8 13 7 14 6 15 5 16 4 17 3 18 2 19 1 20
REMARK H PARENT
REMARK Flexibility Score: inf
ROOT
ATOM      1  C   UNL     1      27.992   2.776   8.722  1.00  0.00     0.000 C 
ENDROOT
BRANCH   1   2
ATOM      2  C   UNL     1      28.098   3.213  10.193  1.00  0.00     0.000 C 
BRANCH   2   3
ATOM      3  C   UNL     1      28.799   4.573  10.356  1.00  0.00     0.000 C 
BRANCH   3   4
ATOM      4  C   UNL     1      27.858   5.676  10.871  1.00  0.00     0.000 C 
BRANCH   4   5
ATOM      5  C   UNL     1      27.013   6.372   9.788  1.00  0.00     0.000 C 
BRANCH   5   6
ATOM      6  C   UNL     1      25.529   5.972   9.839  1.00  0.00     0.000 C 
BRANCH   6   7
ATOM      7  C   UNL     1      24.793   6.251   8.515  1.00  0.00     0.006 C 
BRANCH   7   8
ATOM      8  C   UNL     1      25.407   7.387   7.681  1.00  0.00     0.053 C 
BRANCH   8   9
ATOM      9  C   UNL     1      25.564   7.004   6.242  1.00  0.00     0.041 C 
ATOM     10  O   UNL     1      26.686   6.645   5.799  1.00  0.00    -0.550 OA
ATOM     11  O   UNL     1      24.475   7.074   5.381  1.00  0.00    -0.550 OA
ENDBRANCH   8   9
ENDBRANCH   7   8
ENDBRANCH   6   7
ENDBRANCH   5   6
ENDBRANCH   4   5
ENDBRANCH   3   4
ENDBRANCH   2   3
ENDBRANCH   1   2
BRANCH   1  12
ATOM     12  C   UNL     1      26.546   2.783   8.203  1.00  0.00     0.000 C 
BRANCH  12  13
ATOM     13  C   UNL     1      26.498   3.185   6.722  1.00  0.00    -0.000 C 
BRANCH  13  14
ATOM     14  C   UNL     1      26.566   1.978   5.768  1.00  0.00    -0.000 C 
BRANCH  14  15
ATOM     15  C   UNL     1      25.929   0.686   6.309  1.00  0.00    -0.000 C 
BRANCH  15  16
ATOM     16  C   UNL     1      26.846  -0.539   6.171  1.00  0.00    -0.000 C 
BRANCH  16  17
ATOM     17  C   UNL     1      27.755  -0.687   7.397  1.00  0.00    -0.000 C 
BRANCH  17  18
ATOM     18  C   UNL     1      26.927  -0.865   8.678  1.00  0.00    -0.000 C 
BRANCH  18  19
ATOM     19  C   UNL     1      27.549  -1.882   9.647  1.00  0.00    -0.003 C 
ATOM     20  C   UNL     1      27.935  -3.192   8.961  1.00  0.00     0.004 C 
ENDBRANCH  18  19
ENDBRANCH  17  18
ENDBRANCH  16  17
ENDBRANCH  15  16
ENDBRANCH  14  15
ENDBRANCH  13  14
ENDBRANCH  12  13
ENDBRANCH   1  12
TORSDOF 16
ENDMDL
MODEL 3
REMARK VINA RESULT:    -4.363      3.759      5.861
REMARK INTER + INTRA:         -10.690
REMARK INTER:                  -7.986
REMARK INTRA:                  -2.704
REMARK UNBOUND:                -2.246
REMARK SMILES CCCCCCCCCCCCCCCCCC(=O)[O-]
REMARK SMILES IDX 10 1 11 2 12 3 13 4 14 5 15 6 16 7 17 8 18 9 19 10 20 11
REMARK SMILES IDX 9 12 8 13 7 14 6 15 5 16 4 17 3 18 2 19 1 20
REMARK H PARENT
REMARK Flexibility Score: inf
ROOT
ATOM      1  C   UNL     1      25.828   8.052   8.277  1.00  0.00     0.000 C 
ENDROOT
BRANCH   1   2
ATOM      2  C   UNL     1      26.108   7.286   9.581  1.00  0.00     0.000 C 
BRANCH   2   3
ATOM      3  C   UNL     1      27.355   6.390   9.483  1.00  0.00     0.000 C 
BRANCH   3   4
ATOM      4  C   UNL     1      27.442   5.356  10.621  1.00  0.00     0.000 C 
BRANCH   4   5
ATOM      5  C   UNL     1      27.808   3.928  10.178  1.00  0.00     0.000 C 
BRANCH   5   6
ATOM      6  C   UNL     1      28.045   3.815   8.662  1.00  0.00     0.000 C 
BRANCH   6   7
ATOM      7  C   UNL     1      27.300   2.624   8.031  1.00  0.00     0.006 C 
BRANCH   7   8
ATOM      8  C   UNL     1      28.039   1.282   8.156  1.00  0.00     0.053 C 
BRANCH   8   9
ATOM      9  C   UNL     1      27.175   0.126   7.754  1.00  0.00     0.041 C 
ATOM     10  O   UNL     1      26.136  -0.149   8.410  1.00  0.00    -0.550 OA
ATOM     11  O   UNL     1      27.535  -0.668   6.672  1.00  0.00    -0.550 OA
ENDBRANCH   8   9
ENDBRANCH   7   8
ENDBRANCH   6   7
ENDBRANCH   5   6
ENDBRANCH   4   5
ENDBRANCH   3   4
ENDBRANCH   2   3
ENDBRANCH   1   2
BRANCH   1  12
ATOM     12  C   UNL     1      26.799   7.676   7.147  1.00  0.00     0.000 C 
BRANCH  12  13
ATOM     13  C   UNL     1      26.099   6.810   6.090  1.00  0.00    -0.000 C 
BRANCH  13  14
ATOM     14  C   UNL     1      24.622   6.531   6.421  1.00  0.00    -0.000 C 
BRANCH  14  15
ATOM     15  C   UNL     1      24.294   5.062   6.743  1.00  0.00    -0.000 C 
BRANCH  15  16
ATOM     16  C   UNL     1      23.535   4.892   8.068  1.00  0.00    -0.000 C 
BRANCH  16  17
ATOM     17  C   UNL     1      24.271   3.927   9.005  1.00  0.00    -0.000 C 
BRANCH  17  18
ATOM     18  C   UNL     1      23.984   4.262  10.476  1.00  0.00    -0.000 C 
BRANCH  18  19
ATOM     19  C   UNL     1      23.210   5.578  10.642  1.00  0.00    -0.003 C 
ATOM     20  C   UNL     1      23.503   6.272  11.972  1.00  0.00     0.004 C 
ENDBRANCH  18  19
ENDBRANCH  17  18
ENDBRANCH  16  17
ENDBRANCH  15  16
ENDBRANCH  14  15
ENDBRANCH  13  14
ENDBRANCH  12  13
ENDBRANCH   1  12
TORSDOF 16
ENDMDL
MODEL 4
REMARK VINA RESULT:    -4.350      3.842      6.819
REMARK INTER + INTRA:         -10.665
REMARK INTER:                  -7.646
REMARK INTRA:                  -3.019
REMARK UNBOUND:                -2.246
REMARK SMILES CCCCCCCCCCCCCCCCCC(=O)[O-]
REMARK SMILES IDX 10 1 11 2 12 3 13 4 14 5 15 6 16 7 17 8 18 9 19 10 20 11
REMARK SMILES IDX 9 12 8 13 7 14 6 15 5 16 4 17 3 18 2 19 1 20
REMARK H PARENT
REMARK Flexibility Score: inf
ROOT
ATOM      1  C   UNL     1      23.725   5.423  10.204  1.00  0.00     0.000 C 
ENDROOT
BRANCH   1   2
ATOM      2  C   UNL     1      24.848   4.374  10.268  1.00  0.00     0.000 C 
BRANCH   2   3
ATOM      3  C   UNL     1      26.232   5.005  10.500  1.00  0.00     0.000 C 
BRANCH   3   4
ATOM      4  C   UNL     1      27.384   3.994  10.354  1.00  0.00     0.000 C 
BRANCH   4   5
ATOM      5  C   UNL     1      28.076   3.987   8.979  1.00  0.00     0.000 C 
BRANCH   5   6
ATOM      6  C   UNL     1      27.915   2.649   8.237  1.00  0.00     0.000 C 
BRANCH   6   7
ATOM      7  C   UNL     1      26.617   2.579   7.412  1.00  0.00     0.006 C 
BRANCH   7   8
ATOM      8  C   UNL     1      26.839   2.538   5.892  1.00  0.00     0.053 C 
BRANCH   8   9
ATOM      9  C   UNL     1      26.306   1.279   5.281  1.00  0.00     0.041 C 
ATOM     10  O   UNL     1      25.427   1.331   4.382  1.00  0.00    -0.550 OA
ATOM     11  O   UNL     1      26.758   0.043   5.729  1.00  0.00    -0.550 OA
ENDBRANCH   8   9
ENDBRANCH   7   8
ENDBRANCH   6   7
ENDBRANCH   5   6
ENDBRANCH   4   5
ENDBRANCH   3   4
ENDBRANCH   2   3
ENDBRANCH   1   2
BRANCH   1  12
ATOM     12  C   UNL     1      24.175   6.806  10.699  1.00  0.00     0.000 C 
BRANCH  12  13
ATOM     13  C   UNL     1      23.667   7.914   9.765  1.00  0.00    -0.000 C 
BRANCH  13  14
ATOM     14  C   UNL     1      24.784   8.863   9.294  1.00  0.00    -0.000 C 
BRANCH  14  15
ATOM     15  C   UNL     1      26.017   8.166   8.691  1.00  0.00    -0.000 C 
BRANCH  15  16
ATOM     16  C   UNL     1      25.855   7.846   7.197  1.00  0.00    -0.000 C 
BRANCH  16  17
ATOM     17  C   UNL     1      26.133   6.364   6.918  1.00  0.00    -0.000 C 
BRANCH  17  18
ATOM     18  C   UNL     1      24.824   5.587   6.716  1.00  0.00    -0.000 C 
BRANCH  18  19
ATOM     19  C   UNL     1      23.648   6.500   6.337  1.00  0.00    -0.003 C 
ATOM     20  C   UNL     1      22.295   5.926   6.758  1.00  0.00     0.004 C 
ENDBRANCH  18  19
ENDBRANCH  17  18
ENDBRANCH  16  17
ENDBRANCH  15  16
ENDBRANCH  14  15
ENDBRANCH  13  14
ENDBRANCH  12  13
ENDBRANCH   1  12
TORSDOF 16
ENDMDL
MODEL 5
REMARK VINA RESULT:    -4.345      4.562      7.071
REMARK INTER + INTRA:         -10.656
REMARK INTER:                  -8.000
REMARK INTRA:                  -2.656
REMARK UNBOUND:                -2.246
REMARK SMILES CCCCCCCCCCCCCCCCCC(=O)[O-]
REMARK SMILES IDX 10 1 11 2 12 3 13 4 14 5 15 6 16 7 17 8 18 9 19 10 20 11
REMARK SMILES IDX 9 12 8 13 7 14 6 15 5 16 4 17 3 18 2 19 1 20
REMARK H PARENT
REMARK Flexibility Score: inf
ROOT
ATOM      1  C   UNL     1      26.784   3.445   6.994  1.00  0.00     0.000 C 
ENDROOT
BRANCH   1   2
ATOM      2  C   UNL     1      27.904   2.584   7.603  1.00  0.00     0.000 C 
BRANCH   2   3
ATOM      3  C   UNL     1      27.361   1.374   8.381  1.00  0.00     0.000 C 
BRANCH   3   4
ATOM      4  C   UNL     1      28.334   0.181   8.393  1.00  0.00     0.000 C 
BRANCH   4   5
ATOM      5  C   UNL     1      27.965  -0.972   7.443  1.00  0.00     0.000 C 
BRANCH   5   6
ATOM      6  C   UNL     1      26.541  -0.845   6.874  1.00  0.00     0.000 C 
BRANCH   6   7
ATOM      7  C   UNL     1      26.517  -0.818   5.335  1.00  0.00     0.006 C 
BRANCH   7   8
ATOM      8  C   UNL     1      26.542   0.596   4.731  1.00  0.00     0.053 C 
BRANCH   8   9
ATOM      9  C   UNL     1      25.268   0.921   4.013  1.00  0.00     0.041 C 
ATOM     10  O   UNL     1      25.153   0.681   2.783  1.00  0.00    -0.550 OA
ATOM     11  O   UNL     1      24.218   1.522   4.698  1.00  0.00    -0.550 OA
ENDBRANCH   8   9
ENDBRANCH   7   8
ENDBRANCH   6   7
ENDBRANCH   5   6
ENDBRANCH   4   5
ENDBRANCH   3   4
ENDBRANCH   2   3
ENDBRANCH   1   2
BRANCH   1  12
ATOM     12  C   UNL     1      25.412   3.169   7.626  1.00  0.00     0.000 C 
BRANCH  12  13
ATOM     13  C   UNL     1      24.395   4.245   7.219  1.00  0.00    -0.000 C 
BRANCH  13  14
ATOM     14  C   UNL     1      24.407   5.469   8.151  1.00  0.00    -0.000 C 
BRANCH  14  15
ATOM     15  C   UNL     1      24.205   5.153   9.644  1.00  0.00    -0.000 C 
BRANCH  15  16
ATOM     16  C   UNL     1      25.383   5.608  10.519  1.00  0.00    -0.000 C 
BRANCH  16  17
ATOM     17  C   UNL     1      26.475   6.271   9.671  1.00  0.00    -0.000 C 
BRANCH  17  18
ATOM     18  C   UNL     1      27.827   5.570   9.869  1.00  0.00    -0.000 C 
BRANCH  18  19
ATOM     19  C   UNL     1      27.722   4.326  10.764  1.00  0.00    -0.003 C 
ATOM     20  C   UNL     1      28.983   4.089  11.596  1.00  0.00     0.004 C 
ENDBRANCH  18  19
ENDBRANCH  17  18
ENDBRANCH  16  17
ENDBRANCH  15  16
ENDBRANCH  14  15
ENDBRANCH  13  14
ENDBRANCH  12  13
ENDBRANCH   1  12
TORSDOF 16
ENDMDL
MODEL 6
REMARK VINA RESULT:    -4.336      4.682      7.032
REMARK INTER + INTRA:         -10.638
REMARK INTER:                  -8.039
REMARK INTRA:                  -2.599
REMARK UNBOUND:                -2.246
REMARK SMILES CCCCCCCCCCCCCCCCCC(=O)[O-]
REMARK SMILES IDX 10 1 11 2 12 3 13 4 14 5 15 6 16 7 17 8 18 9 19 10 20 11
REMARK SMILES IDX 9 12 8 13 7 14 6 15 5 16 4 17 3 18 2 19 1 20
REMARK H PARENT
REMARK Flexibility Score: inf
ROOT
ATOM      1  C   UNL     1      27.272   6.355   9.582  1.00  0.00     0.000 C 
ENDROOT
BRANCH   1   2
ATOM      2  C   UNL     1      26.750   5.173  10.415  1.00  0.00     0.000 C 
BRANCH   2   3
ATOM      3  C   UNL     1      26.801   3.841   9.647  1.00  0.00     0.000 C 
BRANCH   3   4
ATOM      4  C   UNL     1      27.844   3.842   8.514  1.00  0.00     0.000 C 
BRANCH   4   5
ATOM      5  C   UNL     1      27.814   2.604   7.599  1.00  0.00     0.000 C 
BRANCH   5   6
ATOM      6  C   UNL     1      27.243   1.358   8.298  1.00  0.00     0.000 C 
BRANCH   6   7
ATOM      7  C   UNL     1      28.332   0.340   8.682  1.00  0.00     0.006 C 
BRANCH   7   8
ATOM      8  C   UNL     1      27.788  -0.972   9.269  1.00  0.00     0.053 C 
BRANCH   8   9
ATOM      9  C   UNL     1      27.917  -2.113   8.308  1.00  0.00     0.041 C 
ATOM     10  O   UNL     1      28.328  -3.235   8.705  1.00  0.00    -0.550 OA
ATOM     11  O   UNL     1      27.615  -1.928   6.964  1.00  0.00    -0.550 OA
ENDBRANCH   8   9
ENDBRANCH   7   8
ENDBRANCH   6   7
ENDBRANCH   5   6
ENDBRANCH   4   5
ENDBRANCH   3   4
ENDBRANCH   2   3
ENDBRANCH   1   2
BRANCH   1  12
ATOM     12  C   UNL     1      26.141   7.205   8.983  1.00  0.00     0.000 C 
BRANCH  12  13
ATOM     13  C   UNL     1      26.545   7.767   7.612  1.00  0.00    -0.000 C 
BRANCH  13  14
ATOM     14  C   UNL     1      26.367   6.750   6.470  1.00  0.00    -0.000 C 
BRANCH  14  15
ATOM     15  C   UNL     1      24.926   6.255   6.258  1.00  0.00    -0.000 C 
BRANCH  15  16
ATOM     16  C   UNL     1      24.736   4.779   6.642  1.00  0.00    -0.000 C 
BRANCH  16  17
ATOM     17  C   UNL     1      23.672   4.627   7.735  1.00  0.00    -0.000 C 
BRANCH  17  18
ATOM     18  C   UNL     1      22.855   5.919   7.892  1.00  0.00    -0.000 C 
BRANCH  18  19
ATOM     19  C   UNL     1      22.478   6.205   9.353  1.00  0.00    -0.003 C 
ATOM     20  C   UNL     1      23.150   5.247  10.336  1.00  0.00     0.004 C 
ENDBRANCH  18  19
ENDBRANCH  17  18
ENDBRANCH  16  17
ENDBRANCH  15  16
ENDBRANCH  14  15
ENDBRANCH  13  14
ENDBRANCH  12  13
ENDBRANCH   1  12
TORSDOF 16
ENDMDL
MODEL 7
REMARK VINA RESULT:    -4.335      4.982      7.018
REMARK INTER + INTRA:         -10.636
REMARK INTER:                  -8.368
REMARK INTRA:                  -2.268
REMARK UNBOUND:                -2.246
REMARK SMILES CCCCCCCCCCCCCCCCCC(=O)[O-]
REMARK SMILES IDX 10 1 11 2 12 3 13 4 14 5 15 6 16 7 17 8 18 9 19 10 20 11
REMARK SMILES IDX 9 12 8 13 7 14 6 15 5 16 4 17 3 18 2 19 1 20
REMARK H PARENT
REMARK Flexibility Score: inf
ROOT
ATOM      1  C   UNL     1      24.974   5.933   6.627  1.00  0.00     0.000 C 
ENDROOT
BRANCH   1   2
ATOM      2  C   UNL     1      25.193   4.439   6.920  1.00  0.00     0.000 C 
BRANCH   2   3
ATOM      3  C   UNL     1      26.635   3.986   6.631  1.00  0.00     0.000 C 
BRANCH   3   4
ATOM      4  C   UNL     1      27.274   3.229   7.809  1.00  0.00     0.000 C 
BRANCH   4   5
ATOM      5  C   UNL     1      26.627   1.872   8.141  1.00  0.00     0.000 C 
BRANCH   5   6
ATOM      6  C   UNL     1      27.486   0.676   7.697  1.00  0.00     0.000 C 
BRANCH   6   7
ATOM      7  C   UNL     1      28.020  -0.146   8.885  1.00  0.00     0.006 C 
BRANCH   7   8
ATOM      8  C   UNL     1      27.293  -1.483   9.103  1.00  0.00     0.053 C 
BRANCH   8   9
ATOM      9  C   UNL     1      27.991  -2.618   8.419  1.00  0.00     0.041 C 
ATOM     10  O   UNL     1      27.966  -3.773   8.919  1.00  0.00    -0.550 OA
ATOM     11  O   UNL     1      28.699  -2.393   7.244  1.00  0.00    -0.550 OA
ENDBRANCH   8   9
ENDBRANCH   7   8
ENDBRANCH   6   7
ENDBRANCH   5   6
ENDBRANCH   4   5
ENDBRANCH   3   4
ENDBRANCH   2   3
ENDBRANCH   1   2
BRANCH   1  12
ATOM     12  C   UNL     1      26.291   6.699   6.426  1.00  0.00     0.000 C 
BRANCH  12  13
ATOM     13  C   UNL     1      26.440   7.814   7.470  1.00  0.00    -0.000 C 
BRANCH  13  14
ATOM     14  C   UNL     1      26.165   7.335   8.907  1.00  0.00    -0.000 C 
BRANCH  14  15
ATOM     15  C   UNL     1      27.267   6.453   9.521  1.00  0.00    -0.000 C 
BRANCH  15  16
ATOM     16  C   UNL     1      26.731   5.466  10.569  1.00  0.00    -0.000 C 
BRANCH  16  17
ATOM     17  C   UNL     1      25.215   5.617  10.743  1.00  0.00    -0.000 C 
BRANCH  17  18
ATOM     18  C   UNL     1      24.504   4.267  10.569  1.00  0.00    -0.000 C 
BRANCH  18  19
ATOM     19  C   UNL     1      23.136   4.403   9.885  1.00  0.00    -0.003 C 
ATOM     20  C   UNL     1      22.660   3.097   9.250  1.00  0.00     0.004 C 
ENDBRANCH  18  19
ENDBRANCH  17  18
ENDBRANCH  16  17
ENDBRANCH  15  16
ENDBRANCH  14  15
ENDBRANCH  13  14
ENDBRANCH  12  13
ENDBRANCH   1  12
TORSDOF 16
ENDMDL
MODEL 8
REMARK VINA RESULT:    -4.330      4.357      6.270
REMARK INTER + INTRA:         -10.626
REMARK INTER:                  -8.234
REMARK INTRA:                  -2.392
REMARK UNBOUND:                -2.246
REMARK SMILES CCCCCCCCCCCCCCCCCC(=O)[O-]
REMARK SMILES IDX 10 1 11 2 12 3 13 4 14 5 15 6 16 7 17 8 18 9 19 10 20 11
REMARK SMILES IDX 9 12 8 13 7 14 6 15 5 16 4 17 3 18 2 19 1 20
REMARK H PARENT
REMARK Flexibility Score: inf
ROOT
ATOM      1  C   UNL     1      23.290   4.371   6.741  1.00  0.00     0.000 C 
ENDROOT
BRANCH   1   2
ATOM      2  C   UNL     1      23.391   2.991   7.412  1.00  0.00     0.000 C 
BRANCH   2   3
ATOM      3  C   UNL     1      24.817   2.669   7.888  1.00  0.00     0.000 C 
BRANCH   3   4
ATOM      4  C   UNL     1      25.899   3.110   6.885  1.00  0.00     0.000 C 
BRANCH   4   5
ATOM      5  C   UNL     1      27.336   2.700   7.253  1.00  0.00     0.000 C 
BRANCH   5   6
ATOM      6  C   UNL     1      27.401   1.803   8.500  1.00  0.00     0.000 C 
BRANCH   6   7
ATOM      7  C   UNL     1      28.075   0.446   8.222  1.00  0.00     0.006 C 
BRANCH   7   8
ATOM      8  C   UNL     1      27.156  -0.768   8.435  1.00  0.00     0.053 C 
BRANCH   8   9
ATOM      9  C   UNL     1      27.669  -1.677   9.509  1.00  0.00     0.041 C 
ATOM     10  O   UNL     1      27.720  -2.920   9.318  1.00  0.00    -0.550 OA
ATOM     11  O   UNL     1      28.060  -1.153  10.736  1.00  0.00    -0.550 OA
ENDBRANCH   8   9
ENDBRANCH   7   8
ENDBRANCH   6   7
ENDBRANCH   5   6
ENDBRANCH   4   5
ENDBRANCH   3   4
ENDBRANCH   2   3
ENDBRANCH   1   2
BRANCH   1  12
ATOM     12  C   UNL     1      22.430   5.361   7.541  1.00  0.00     0.000 C 
BRANCH  12  13
ATOM     13  C   UNL     1      23.302   6.444   8.191  1.00  0.00    -0.000 C 
BRANCH  13  14
ATOM     14  C   UNL     1      24.722   6.509   7.599  1.00  0.00    -0.000 C 
BRANCH  14  15
ATOM     15  C   UNL     1      25.860   6.459   8.633  1.00  0.00    -0.000 C 
BRANCH  15  16
ATOM     16  C   UNL     1      25.482   5.687   9.906  1.00  0.00    -0.000 C 
BRANCH  16  17
ATOM     17  C   UNL     1      26.641   4.800  10.377  1.00  0.00    -0.000 C 
BRANCH  17  18
ATOM     18  C   UNL     1      27.889   5.641  10.680  1.00  0.00    -0.000 C 
BRANCH  18  19
ATOM     19  C   UNL     1      28.891   4.907  11.585  1.00  0.00    -0.003 C 
ATOM     20  C   UNL     1      28.774   3.386  11.484  1.00  0.00     0.004 C 
ENDBRANCH  18  19
ENDBRANCH  17  18
ENDBRANCH  16  17
ENDBRANCH  15  16
ENDBRANCH  14  15
ENDBRANCH  13  14
ENDBRANCH  12  13
ENDBRANCH   1  12
TORSDOF 16
ENDMDL
MODEL 9
REMARK VINA RESULT:    -4.283      4.197      6.287
REMARK INTER + INTRA:         -10.536
REMARK INTER:                  -8.112
REMARK INTRA:                  -2.424
REMARK UNBOUND:                -2.246
REMARK SMILES CCCCCCCCCCCCCCCCCC(=O)[O-]
REMARK SMILES IDX 10 1 11 2 12 3 13 4 14 5 15 6 16 7 17 8 18 9 19 10 20 11
REMARK SMILES IDX 9 12 8 13 7 14 6 15 5 16 4 17 3 18 2 19 1 20
REMARK H PARENT
REMARK Flexibility Score: inf
ROOT
ATOM      1  C   UNL     1      25.712   6.973   6.679  1.00  0.00     0.000 C 
ENDROOT
BRANCH   1   2
ATOM      2  C   UNL     1      26.017   5.466   6.640  1.00  0.00     0.000 C 
BRANCH   2   3
ATOM      3  C   UNL     1      24.741   4.607   6.624  1.00  0.00     0.000 C 
BRANCH   3   4
ATOM      4  C   UNL     1      24.993   3.151   7.058  1.00  0.00     0.000 C 
BRANCH   4   5
ATOM      5  C   UNL     1      26.415   2.626   6.790  1.00  0.00     0.000 C 
BRANCH   5   6
ATOM      6  C   UNL     1      26.485   1.686   5.575  1.00  0.00     0.000 C 
BRANCH   6   7
ATOM      7  C   UNL     1      26.647   0.207   5.976  1.00  0.00     0.006 C 
BRANCH   7   8
ATOM      8  C   UNL     1      26.757  -0.025   7.492  1.00  0.00     0.053 C 
BRANCH   8   9
ATOM      9  C   UNL     1      28.139  -0.435   7.897  1.00  0.00     0.041 C 
ATOM     10  O   UNL     1      28.754  -1.321   7.249  1.00  0.00    -0.550 OA
ATOM     11  O   UNL     1      28.736   0.140   9.013  1.00  0.00    -0.550 OA
ENDBRANCH   8   9
ENDBRANCH   7   8
ENDBRANCH   6   7
ENDBRANCH   5   6
ENDBRANCH   4   5
ENDBRANCH   3   4
ENDBRANCH   2   3
ENDBRANCH   1   2
BRANCH   1  12
ATOM     12  C   UNL     1      26.527   7.717   7.747  1.00  0.00     0.000 C 
BRANCH  12  13
ATOM     13  C   UNL     1      25.625   8.179   8.901  1.00  0.00    -0.000 C 
BRANCH  13  14
ATOM     14  C   UNL     1      24.228   7.535   8.867  1.00  0.00    -0.000 C 
BRANCH  14  15
ATOM     15  C   UNL     1      23.866   6.702  10.109  1.00  0.00    -0.000 C 
BRANCH  15  16
ATOM     16  C   UNL     1      25.094   6.091  10.801  1.00  0.00    -0.000 C 
BRANCH  16  17
ATOM     17  C   UNL     1      25.349   4.661  10.308  1.00  0.00    -0.000 C 
BRANCH  17  18
ATOM     18  C   UNL     1      26.854   4.387  10.171  1.00  0.00    -0.000 C 
BRANCH  18  19
ATOM     19  C   UNL     1      27.715   5.582  10.609  1.00  0.00    -0.003 C 
ATOM     20  C   UNL     1      28.818   5.186  11.590  1.00  0.00     0.004 C 
ENDBRANCH  18  19
ENDBRANCH  17  18
ENDBRANCH  16  17
ENDBRANCH  15  16
ENDBRANCH  14  15
ENDBRANCH  13  14
ENDBRANCH  12  13
ENDBRANCH   1  12
TORSDOF 16
ENDMDL
