MODEL 1
REMARK VINA RESULT:    -5.235      0.000      0.000
REMARK INTER + INTRA:          -6.376
REMARK INTER:                  -6.153
REMARK INTRA:                  -0.223
REMARK UNBOUND:                -0.223
REMARK SMILES O=c1c(O)c(-c2ccc(O)cc2)oc2cc(O)cc(O)c12
REMARK SMILES IDX 5 1 3 2 2 3 1 4 21 5 19 6 18 7 16 8 15 9 14 10 13 11 6 12
REMARK SMILES IDX 7 13 8 14 9 15 12 16 11 17 10 18 4 20 20 22 17 24
REMARK H PARENT 10 19 4 21 20 23 17 25
REMARK Flexibility Score: inf
ROOT
ATOM      1  C   UNL     1      13.847  42.877  25.445  1.00  0.00     0.180 A 
ATOM      2  C   UNL     1      14.794  43.862  25.775  1.00  0.00     0.208 A 
ATOM      3  C   UNL     1      14.877  44.310  27.102  1.00  0.00     0.238 A 
ATOM      4  O   UNL     1      15.675  45.244  27.374  1.00  0.00    -0.285 OA
ATOM      5  C   UNL     1      14.050  43.730  28.096  1.00  0.00     0.111 A 
ATOM      6  C   UNL     1      14.081  44.075  29.481  1.00  0.00     0.134 A 
ATOM      7  C   UNL     1      13.143  43.510  30.354  1.00  0.00     0.093 A 
ATOM      8  C   UNL     1      12.218  42.566  29.905  1.00  0.00     0.123 A 
ATOM      9  C   UNL     1      12.217  42.181  28.566  1.00  0.00     0.094 A 
ATOM     10  C   UNL     1      13.114  42.755  27.664  1.00  0.00     0.146 A 
ATOM     11  O   UNL     1      13.063  42.375  26.392  1.00  0.00    -0.452 OA
ENDROOT
BRANCH   1  12
ATOM     12  C   UNL     1      13.689  42.363  24.065  1.00  0.00     0.021 A 
ATOM     13  C   UNL     1      14.080  41.047  23.769  1.00  0.00     0.016 A 
ATOM     14  C   UNL     1      13.919  40.534  22.479  1.00  0.00     0.047 A 
ATOM     15  C   UNL     1      13.352  41.326  21.472  1.00  0.00     0.115 A 
ATOM     16  C   UNL     1      13.102  43.146  23.054  1.00  0.00     0.016 A 
ATOM     17  C   UNL     1      12.941  42.630  21.765  1.00  0.00     0.047 A 
BRANCH  15  18
ATOM     18  O   UNL     1      13.187  40.826  20.182  1.00  0.00    -0.508 OA
ATOM     19  H   UNL     1      13.288  41.420  19.368  1.00  0.00     0.293 HD
ENDBRANCH  15  18
ENDBRANCH   1  12
BRANCH   2  20
ATOM     20  O   UNL     1      15.653  44.367  24.795  1.00  0.00    -0.502 OA
ATOM     21  H   UNL     1      15.582  45.313  24.445  1.00  0.00     0.293 HD
ENDBRANCH   2  20
BRANCH   6  22
ATOM     22  O   UNL     1      15.020  44.941  30.052  1.00  0.00    -0.507 OA
ATOM     23  H   UNL     1      16.019  44.835  29.984  1.00  0.00     0.293 HD
ENDBRANCH   6  22
BRANCH   8  24
ATOM     24  O   UNL     1      11.300  41.996  30.785  1.00  0.00    -0.508 OA
ATOM     25  H   UNL     1      10.498  41.474  30.450  1.00  0.00     0.293 HD
ENDBRANCH   8  24
TORSDOF 5
ENDMDL
MODEL 2
REMARK VINA RESULT:    -5.126     12.463     14.972
REMARK INTER + INTRA:          -6.248
REMARK INTER:                  -6.160
REMARK INTRA:                  -0.088
REMARK UNBOUND:                -0.223
REMARK SMILES O=c1c(O)c(-c2ccc(O)cc2)oc2cc(O)cc(O)c12
REMARK SMILES IDX 5 1 3 2 2 3 1 4 21 5 19 6 18 7 16 8 15 9 14 10 13 11 6 12
REMARK SMILES IDX 7 13 8 14 9 15 12 16 11 17 10 18 4 20 20 22 17 24
REMARK H PARENT 10 19 4 21 20 23 17 25
REMARK Flexibility Score: inf
ROOT
ATOM      1  C   UNL     1      23.895  41.383  14.891  1.00  0.00     0.180 A 
ATOM      2  C   UNL     1      23.107  42.455  14.441  1.00  0.00     0.208 A 
ATOM      3  C   UNL     1      22.712  43.442  15.358  1.00  0.00     0.238 A 
ATOM      4  O   UNL     1      21.945  44.359  14.963  1.00  0.00    -0.285 OA
ATOM      5  C   UNL     1      23.154  43.374  16.701  1.00  0.00     0.111 A 
ATOM      6  C   UNL     1      22.852  44.343  17.706  1.00  0.00     0.134 A 
ATOM      7  C   UNL     1      23.256  44.116  19.027  1.00  0.00     0.093 A 
ATOM      8  C   UNL     1      24.006  42.989  19.368  1.00  0.00     0.123 A 
ATOM      9  C   UNL     1      24.354  42.066  18.385  1.00  0.00     0.094 A 
ATOM     10  C   UNL     1      23.933  42.245  17.065  1.00  0.00     0.146 A 
ATOM     11  O   UNL     1      24.268  41.329  16.164  1.00  0.00    -0.452 OA
ENDROOT
BRANCH   1  12
ATOM     12  C   UNL     1      24.340  40.296  13.988  1.00  0.00     0.021 A 
ATOM     13  C   UNL     1      23.909  38.981  14.225  1.00  0.00     0.016 A 
ATOM     14  C   UNL     1      24.298  37.944  13.373  1.00  0.00     0.047 A 
ATOM     15  C   UNL     1      25.111  38.211  12.264  1.00  0.00     0.115 A 
ATOM     16  C   UNL     1      25.140  40.561  12.862  1.00  0.00     0.016 A 
ATOM     17  C   UNL     1      25.527  39.521  12.010  1.00  0.00     0.047 A 
BRANCH  15  18
ATOM     18  O   UNL     1      25.507  37.185  11.408  1.00  0.00    -0.508 OA
ATOM     19  H   UNL     1      26.397  37.212  10.927  1.00  0.00     0.293 HD
ENDBRANCH  15  18
ENDBRANCH   1  12
BRANCH   2  20
ATOM     20  O   UNL     1      22.745  42.545  13.094  1.00  0.00    -0.502 OA
ATOM     21  H   UNL     1      22.952  43.358  12.528  1.00  0.00     0.293 HD
ENDBRANCH   2  20
BRANCH   6  22
ATOM     22  O   UNL     1      22.185  45.547  17.457  1.00  0.00    -0.507 OA
ATOM     23  H   UNL     1      22.508  46.268  16.833  1.00  0.00     0.293 HD
ENDBRANCH   6  22
BRANCH   8  24
ATOM     24  O   UNL     1      24.419  42.781  20.683  1.00  0.00    -0.508 OA
ATOM     25  H   UNL     1      24.595  43.555  21.312  1.00  0.00     0.293 HD
ENDBRANCH   8  24
TORSDOF 5
ENDMDL
MODEL 3
REMARK VINA RESULT:    -5.067     13.197     16.400
REMARK INTER + INTRA:          -6.179
REMARK INTER:                  -5.906
REMARK INTRA:                  -0.273
REMARK UNBOUND:                -0.223
REMARK SMILES O=c1c(O)c(-c2ccc(O)cc2)oc2cc(O)cc(O)c12
REMARK SMILES IDX 5 1 3 2 2 3 1 4 21 5 19 6 18 7 16 8 15 9 14 10 13 11 6 12
REMARK SMILES IDX 7 13 8 14 9 15 12 16 11 17 10 18 4 20 20 22 17 24
REMARK H PARENT 10 19 4 21 20 23 17 25
REMARK Flexibility Score: inf
ROOT
ATOM      1  C   UNL     1      23.595  40.182  15.117  1.00  0.00     0.180 A 
ATOM      2  C   UNL     1      24.607  39.996  14.160  1.00  0.00     0.208 A 
ATOM      3  C   UNL     1      24.504  38.923  13.260  1.00  0.00     0.238 A 
ATOM      4  O   UNL     1      25.450  38.720  12.455  1.00  0.00    -0.285 OA
ATOM      5  C   UNL     1      23.365  38.083  13.291  1.00  0.00     0.111 A 
ATOM      6  C   UNL     1      23.135  36.993  12.398  1.00  0.00     0.134 A 
ATOM      7  C   UNL     1      22.022  36.165  12.591  1.00  0.00     0.093 A 
ATOM      8  C   UNL     1      21.099  36.424  13.606  1.00  0.00     0.123 A 
ATOM      9  C   UNL     1      21.285  37.517  14.448  1.00  0.00     0.094 A 
ATOM     10  C   UNL     1      22.404  38.340  14.304  1.00  0.00     0.146 A 
ATOM     11  O   UNL     1      22.554  39.357  15.143  1.00  0.00    -0.452 OA
ENDROOT
BRANCH   1  12
ATOM     12  C   UNL     1      23.638  41.281  16.109  1.00  0.00     0.021 A 
ATOM     13  C   UNL     1      23.187  42.560  15.744  1.00  0.00     0.016 A 
ATOM     14  C   UNL     1      23.198  43.606  16.671  1.00  0.00     0.047 A 
ATOM     15  C   UNL     1      23.646  43.383  17.979  1.00  0.00     0.115 A 
ATOM     16  C   UNL     1      24.068  41.059  17.430  1.00  0.00     0.016 A 
ATOM     17  C   UNL     1      24.077  42.107  18.356  1.00  0.00     0.047 A 
BRANCH  15  18
ATOM     18  O   UNL     1      23.662  44.418  18.912  1.00  0.00    -0.508 OA
ATOM     19  H   UNL     1      24.477  45.008  19.032  1.00  0.00     0.293 HD
ENDBRANCH  15  18
ENDBRANCH   1  12
BRANCH   2  20
ATOM     20  O   UNL     1      25.685  40.883  14.095  1.00  0.00    -0.502 OA
ATOM     21  H   UNL     1      25.727  41.640  13.425  1.00  0.00     0.293 HD
ENDBRANCH   2  20
BRANCH   6  22
ATOM     22  O   UNL     1      23.946  36.698  11.298  1.00  0.00    -0.507 OA
ATOM     23  H   UNL     1      24.083  37.300  10.502  1.00  0.00     0.293 HD
ENDBRANCH   6  22
BRANCH   8  24
ATOM     24  O   UNL     1      19.985  35.604  13.780  1.00  0.00    -0.508 OA
ATOM     25  H   UNL     1      19.085  35.983  14.048  1.00  0.00     0.293 HD
ENDBRANCH   8  24
TORSDOF 5
ENDMDL
MODEL 4
REMARK VINA RESULT:    -5.038     10.290     11.686
REMARK INTER + INTRA:          -6.145
REMARK INTER:                  -6.216
REMARK INTRA:                   0.071
REMARK UNBOUND:                -0.223
REMARK SMILES O=c1c(O)c(-c2ccc(O)cc2)oc2cc(O)cc(O)c12
REMARK SMILES IDX 5 1 3 2 2 3 1 4 21 5 19 6 18 7 16 8 15 9 14 10 13 11 6 12
REMARK SMILES IDX 7 13 8 14 9 15 12 16 11 17 10 18 4 20 20 22 17 24
REMARK H PARENT 10 19 4 21 20 23 17 25
REMARK Flexibility Score: inf
ROOT
ATOM      1  C   UNL     1      22.268  38.563  30.037  1.00  0.00     0.180 A 
ATOM      2  C   UNL     1      23.389  37.784  30.368  1.00  0.00     0.208 A 
ATOM      3  C   UNL     1      23.278  36.385  30.346  1.00  0.00     0.238 A 
ATOM      4  O   UNL     1      24.264  35.695  30.714  1.00  0.00    -0.285 OA
ATOM      5  C   UNL     1      22.063  35.781  29.940  1.00  0.00     0.111 A 
ATOM      6  C   UNL     1      21.850  34.372  29.837  1.00  0.00     0.134 A 
ATOM      7  C   UNL     1      20.574  33.888  29.526  1.00  0.00     0.093 A 
ATOM      8  C   UNL     1      19.518  34.760  29.254  1.00  0.00     0.123 A 
ATOM      9  C   UNL     1      19.729  36.136  29.297  1.00  0.00     0.094 A 
ATOM     10  C   UNL     1      20.981  36.650  29.641  1.00  0.00     0.146 A 
ATOM     11  O   UNL     1      21.132  37.968  29.692  1.00  0.00    -0.452 OA
ENDROOT
BRANCH   1  12
ATOM     12  C   UNL     1      22.303  40.044  30.051  1.00  0.00     0.021 A 
ATOM     13  C   UNL     1      21.702  40.759  29.003  1.00  0.00     0.016 A 
ATOM     14  C   UNL     1      21.703  42.157  29.007  1.00  0.00     0.047 A 
ATOM     15  C   UNL     1      22.293  42.857  30.067  1.00  0.00     0.115 A 
ATOM     16  C   UNL     1      22.876  40.753  31.122  1.00  0.00     0.016 A 
ATOM     17  C   UNL     1      22.875  42.151  31.125  1.00  0.00     0.047 A 
BRANCH  15  18
ATOM     18  O   UNL     1      22.301  44.250  30.083  1.00  0.00    -0.508 OA
ATOM     19  H   UNL     1      21.529  44.787  29.706  1.00  0.00     0.293 HD
ENDBRANCH  15  18
ENDBRANCH   1  12
BRANCH   2  20
ATOM     20  O   UNL     1      24.603  38.399  30.691  1.00  0.00    -0.502 OA
ATOM     21  H   UNL     1      24.836  38.678  31.635  1.00  0.00     0.293 HD
ENDBRANCH   2  20
BRANCH   6  22
ATOM     22  O   UNL     1      22.856  33.415  30.002  1.00  0.00    -0.507 OA
ATOM     23  H   UNL     1      23.542  33.419  30.739  1.00  0.00     0.293 HD
ENDBRANCH   6  22
BRANCH   8  24
ATOM     24  O   UNL     1      18.256  34.269  28.929  1.00  0.00    -0.508 OA
ATOM     25  H   UNL     1      17.511  34.882  28.618  1.00  0.00     0.293 HD
ENDBRANCH   8  24
TORSDOF 5
ENDMDL
MODEL 5
REMARK VINA RESULT:    -4.985      3.070      6.406
REMARK INTER + INTRA:          -6.082
REMARK INTER:                  -5.784
REMARK INTRA:                  -0.299
REMARK UNBOUND:                -0.223
REMARK SMILES O=c1c(O)c(-c2ccc(O)cc2)oc2cc(O)cc(O)c12
REMARK SMILES IDX 5 1 3 2 2 3 1 4 21 5 19 6 18 7 16 8 15 9 14 10 13 11 6 12
REMARK SMILES IDX 7 13 8 14 9 15 12 16 11 17 10 18 4 20 20 22 17 24
REMARK H PARENT 10 19 4 21 20 23 17 25
REMARK Flexibility Score: inf
ROOT
ATOM      1  C   UNL     1      14.945  44.502  27.321  1.00  0.00     0.180 A 
ATOM      2  C   UNL     1      14.696  44.759  25.962  1.00  0.00     0.208 A 
ATOM      3  C   UNL     1      15.659  45.453  25.212  1.00  0.00     0.238 A 
ATOM      4  O   UNL     1      15.397  45.744  24.016  1.00  0.00    -0.285 OA
ATOM      5  C   UNL     1      16.882  45.834  25.815  1.00  0.00     0.111 A 
ATOM      6  C   UNL     1      17.948  46.502  25.138  1.00  0.00     0.134 A 
ATOM      7  C   UNL     1      19.069  46.923  25.864  1.00  0.00     0.093 A 
ATOM      8  C   UNL     1      19.192  46.646  27.227  1.00  0.00     0.123 A 
ATOM      9  C   UNL     1      18.183  45.946  27.884  1.00  0.00     0.094 A 
ATOM     10  C   UNL     1      17.035  45.545  27.196  1.00  0.00     0.146 A 
ATOM     11  O   UNL     1      16.088  44.900  27.867  1.00  0.00    -0.452 OA
ENDROOT
BRANCH   1  12
ATOM     12  C   UNL     1      13.973  43.789  28.181  1.00  0.00     0.021 A 
ATOM     13  C   UNL     1      14.106  42.404  28.371  1.00  0.00     0.016 A 
ATOM     14  C   UNL     1      13.213  41.714  29.197  1.00  0.00     0.047 A 
ATOM     15  C   UNL     1      12.186  42.403  29.854  1.00  0.00     0.115 A 
ATOM     16  C   UNL     1      12.952  44.478  28.860  1.00  0.00     0.016 A 
ATOM     17  C   UNL     1      12.061  43.785  29.686  1.00  0.00     0.047 A 
BRANCH  15  18
ATOM     18  O   UNL     1      11.290  41.726  30.679  1.00  0.00    -0.508 OA
ATOM     19  H   UNL     1      10.439  42.166  31.008  1.00  0.00     0.293 HD
ENDBRANCH  15  18
ENDBRANCH   1  12
BRANCH   2  20
ATOM     20  O   UNL     1      13.515  44.307  25.365  1.00  0.00    -0.502 OA
ATOM     21  H   UNL     1      13.267  43.327  25.326  1.00  0.00     0.293 HD
ENDBRANCH   2  20
BRANCH   6  22
ATOM     22  O   UNL     1      17.968  46.751  23.762  1.00  0.00    -0.507 OA
ATOM     23  H   UNL     1      18.133  46.056  23.051  1.00  0.00     0.293 HD
ENDBRANCH   6  22
BRANCH   8  24
ATOM     24  O   UNL     1      20.319  47.054  27.936  1.00  0.00    -0.508 OA
ATOM     25  H   UNL     1      20.561  48.034  28.030  1.00  0.00     0.293 HD
ENDBRANCH   8  24
TORSDOF 5
ENDMDL
MODEL 6
REMARK VINA RESULT:    -4.860     12.356     15.492
REMARK INTER + INTRA:          -5.935
REMARK INTER:                  -5.678
REMARK INTRA:                  -0.257
REMARK UNBOUND:                -0.223
REMARK SMILES O=c1c(O)c(-c2ccc(O)cc2)oc2cc(O)cc(O)c12
REMARK SMILES IDX 5 1 3 2 2 3 1 4 21 5 19 6 18 7 16 8 15 9 14 10 13 11 6 12
REMARK SMILES IDX 7 13 8 14 9 15 12 16 11 17 10 18 4 20 20 22 17 24
REMARK H PARENT 10 19 4 21 20 23 17 25
REMARK Flexibility Score: inf
ROOT
ATOM      1  C   UNL     1      23.474  41.791  17.101  1.00  0.00     0.180 A 
ATOM      2  C   UNL     1      22.412  40.881  17.243  1.00  0.00     0.208 A 
ATOM      3  C   UNL     1      22.246  39.872  16.281  1.00  0.00     0.238 A 
ATOM      4  O   UNL     1      21.250  39.108  16.375  1.00  0.00    -0.285 OA
ATOM      5  C   UNL     1      23.174  39.750  15.219  1.00  0.00     0.111 A 
ATOM      6  C   UNL     1      23.129  38.738  14.212  1.00  0.00     0.134 A 
ATOM      7  C   UNL     1      24.040  38.780  13.150  1.00  0.00     0.093 A 
ATOM      8  C   UNL     1      25.034  39.760  13.091  1.00  0.00     0.123 A 
ATOM      9  C   UNL     1      25.121  40.718  14.097  1.00  0.00     0.094 A 
ATOM     10  C   UNL     1      24.203  40.725  15.150  1.00  0.00     0.146 A 
ATOM     11  O   UNL     1      24.309  41.671  16.075  1.00  0.00    -0.452 OA
ENDROOT
BRANCH   1  12
ATOM     12  C   UNL     1      23.706  42.890  18.065  1.00  0.00     0.021 A 
ATOM     13  C   UNL     1      24.360  42.619  19.278  1.00  0.00     0.016 A 
ATOM     14  C   UNL     1      24.610  43.646  20.193  1.00  0.00     0.047 A 
ATOM     15  C   UNL     1      24.223  44.959  19.899  1.00  0.00     0.115 A 
ATOM     16  C   UNL     1      23.339  44.216  17.768  1.00  0.00     0.016 A 
ATOM     17  C   UNL     1      23.591  45.241  18.685  1.00  0.00     0.047 A 
BRANCH  15  18
ATOM     18  O   UNL     1      24.467  45.991  20.804  1.00  0.00    -0.508 OA
ATOM     19  H   UNL     1      23.725  46.381  21.372  1.00  0.00     0.293 HD
ENDBRANCH  15  18
ENDBRANCH   1  12
BRANCH   2  20
ATOM     20  O   UNL     1      21.551  40.971  18.341  1.00  0.00    -0.502 OA
ATOM     21  H   UNL     1      20.631  41.386  18.277  1.00  0.00     0.293 HD
ENDBRANCH   2  20
BRANCH   6  22
ATOM     22  O   UNL     1      22.234  37.664  14.223  1.00  0.00    -0.507 OA
ATOM     23  H   UNL     1      21.600  37.446  14.974  1.00  0.00     0.293 HD
ENDBRANCH   6  22
BRANCH   8  24
ATOM     24  O   UNL     1      25.947  39.783  12.039  1.00  0.00    -0.508 OA
ATOM     25  H   UNL     1      26.405  40.640  11.753  1.00  0.00     0.293 HD
ENDBRANCH   8  24
TORSDOF 5
ENDMDL
MODEL 7
REMARK VINA RESULT:    -4.853      1.649      6.541
REMARK INTER + INTRA:          -5.927
REMARK INTER:                  -5.847
REMARK INTRA:                  -0.079
REMARK UNBOUND:                -0.223
REMARK SMILES O=c1c(O)c(-c2ccc(O)cc2)oc2cc(O)cc(O)c12
REMARK SMILES IDX 5 1 3 2 2 3 1 4 21 5 19 6 18 7 16 8 15 9 14 10 13 11 6 12
REMARK SMILES IDX 7 13 8 14 9 15 12 16 11 17 10 18 4 20 20 22 17 24
REMARK H PARENT 10 19 4 21 20 23 17 25
REMARK Flexibility Score: inf
ROOT
ATOM      1  C   UNL     1      13.895  43.656  25.646  1.00  0.00     0.180 A 
ATOM      2  C   UNL     1      14.629  44.781  25.233  1.00  0.00     0.208 A 
ATOM      3  C   UNL     1      14.922  44.942  23.870  1.00  0.00     0.238 A 
ATOM      4  O   UNL     1      15.643  45.912  23.518  1.00  0.00    -0.285 OA
ATOM      5  C   UNL     1      14.432  44.005  22.928  1.00  0.00     0.111 A 
ATOM      6  C   UNL     1      14.630  44.091  21.517  1.00  0.00     0.134 A 
ATOM      7  C   UNL     1      14.188  43.049  20.692  1.00  0.00     0.093 A 
ATOM      8  C   UNL     1      13.500  41.955  21.220  1.00  0.00     0.123 A 
ATOM      9  C   UNL     1      13.254  41.888  22.589  1.00  0.00     0.094 A 
ATOM     10  C   UNL     1      13.714  42.893  23.442  1.00  0.00     0.146 A 
ATOM     11  O   UNL     1      13.477  42.777  24.743  1.00  0.00    -0.452 OA
ENDROOT
BRANCH   1  12
ATOM     12  C   UNL     1      13.559  43.410  27.067  1.00  0.00     0.021 A 
ATOM     13  C   UNL     1      14.055  42.262  27.705  1.00  0.00     0.016 A 
ATOM     14  C   UNL     1      13.769  42.021  29.052  1.00  0.00     0.047 A 
ATOM     15  C   UNL     1      12.995  42.933  29.781  1.00  0.00     0.115 A 
ATOM     16  C   UNL     1      12.800  44.332  27.811  1.00  0.00     0.016 A 
ATOM     17  C   UNL     1      12.516  44.089  29.158  1.00  0.00     0.047 A 
BRANCH  15  18
ATOM     18  O   UNL     1      12.703  42.703  31.125  1.00  0.00    -0.508 OA
ATOM     19  H   UNL     1      11.838  43.028  31.540  1.00  0.00     0.293 HD
ENDBRANCH  15  18
ENDBRANCH   1  12
BRANCH   2  20
ATOM     20  O   UNL     1      15.039  45.736  26.169  1.00  0.00    -0.502 OA
ATOM     21  H   UNL     1      16.011  45.978  26.310  1.00  0.00     0.293 HD
ENDBRANCH   2  20
BRANCH   6  22
ATOM     22  O   UNL     1      15.226  45.182  20.876  1.00  0.00    -0.507 OA
ATOM     23  H   UNL     1      14.753  46.035  20.626  1.00  0.00     0.293 HD
ENDBRANCH   6  22
BRANCH   8  24
ATOM     24  O   UNL     1      13.050  40.931  20.390  1.00  0.00    -0.508 OA
ATOM     25  H   UNL     1      12.471  40.178  20.742  1.00  0.00     0.293 HD
ENDBRANCH   8  24
TORSDOF 5
ENDMDL
MODEL 8
REMARK VINA RESULT:    -4.797      8.709     10.048
REMARK INTER + INTRA:          -5.861
REMARK INTER:                  -5.641
REMARK INTRA:                  -0.220
REMARK UNBOUND:                -0.223
REMARK SMILES O=c1c(O)c(-c2ccc(O)cc2)oc2cc(O)cc(O)c12
REMARK SMILES IDX 5 1 3 2 2 3 1 4 21 5 19 6 18 7 16 8 15 9 14 10 13 11 6 12
REMARK SMILES IDX 7 13 8 14 9 15 12 16 11 17 10 18 4 20 20 22 17 24
REMARK H PARENT 10 19 4 21 20 23 17 25
REMARK Flexibility Score: inf
ROOT
ATOM      1  C   UNL     1      22.001  39.844  29.387  1.00  0.00     0.180 A 
ATOM      2  C   UNL     1      22.603  40.834  30.183  1.00  0.00     0.208 A 
ATOM      3  C   UNL     1      22.197  42.170  30.033  1.00  0.00     0.238 A 
ATOM      4  O   UNL     1      22.792  43.059  30.695  1.00  0.00    -0.285 OA
ATOM      5  C   UNL     1      21.156  42.493  29.129  1.00  0.00     0.111 A 
ATOM      6  C   UNL     1      20.632  43.806  28.928  1.00  0.00     0.134 A 
ATOM      7  C   UNL     1      19.674  44.023  27.930  1.00  0.00     0.093 A 
ATOM      8  C   UNL     1      19.174  42.964  27.169  1.00  0.00     0.123 A 
ATOM      9  C   UNL     1      19.638  41.670  27.396  1.00  0.00     0.094 A 
ATOM     10  C   UNL     1      20.621  41.428  28.358  1.00  0.00     0.146 A 
ATOM     11  O   UNL     1      21.050  40.183  28.525  1.00  0.00    -0.452 OA
ENDROOT
BRANCH   1  12
ATOM     12  C   UNL     1      22.385  38.417  29.477  1.00  0.00     0.021 A 
ATOM     13  C   UNL     1      23.200  37.857  28.480  1.00  0.00     0.016 A 
ATOM     14  C   UNL     1      23.593  36.518  28.557  1.00  0.00     0.047 A 
ATOM     15  C   UNL     1      23.188  35.726  29.639  1.00  0.00     0.115 A 
ATOM     16  C   UNL     1      21.998  37.622  30.571  1.00  0.00     0.016 A 
ATOM     17  C   UNL     1      22.394  36.283  30.646  1.00  0.00     0.047 A 
BRANCH  15  18
ATOM     18  O   UNL     1      23.573  34.389  29.726  1.00  0.00    -0.508 OA
ATOM     19  H   UNL     1      24.455  34.068  29.346  1.00  0.00     0.293 HD
ENDBRANCH  15  18
ENDBRANCH   1  12
BRANCH   2  20
ATOM     20  O   UNL     1      23.575  40.484  31.125  1.00  0.00    -0.502 OA
ATOM     21  H   UNL     1      24.555  40.705  31.002  1.00  0.00     0.293 HD
ENDBRANCH   2  20
BRANCH   6  22
ATOM     22  O   UNL     1      20.997  44.919  29.692  1.00  0.00    -0.507 OA
ATOM     23  H   UNL     1      20.386  45.685  29.927  1.00  0.00     0.293 HD
ENDBRANCH   6  22
BRANCH   8  24
ATOM     24  O   UNL     1      18.208  43.186  26.190  1.00  0.00    -0.508 OA
ATOM     25  H   UNL     1      17.995  42.488  25.487  1.00  0.00     0.293 HD
ENDBRANCH   8  24
TORSDOF 5
ENDMDL
MODEL 9
REMARK VINA RESULT:    -4.793     11.947     15.923
REMARK INTER + INTRA:          -5.857
REMARK INTER:                  -5.563
REMARK INTRA:                  -0.293
REMARK UNBOUND:                -0.223
REMARK SMILES O=c1c(O)c(-c2ccc(O)cc2)oc2cc(O)cc(O)c12
REMARK SMILES IDX 5 1 3 2 2 3 1 4 21 5 19 6 18 7 16 8 15 9 14 10 13 11 6 12
REMARK SMILES IDX 7 13 8 14 9 15 12 16 11 17 10 18 4 20 20 22 17 24
REMARK H PARENT 10 19 4 21 20 23 17 25
REMARK Flexibility Score: inf
ROOT
ATOM      1  C   UNL     1      22.938  39.980  16.058  1.00  0.00     0.180 A 
ATOM      2  C   UNL     1      23.954  40.913  15.791  1.00  0.00     0.208 A 
ATOM      3  C   UNL     1      24.734  40.759  14.634  1.00  0.00     0.238 A 
ATOM      4  O   UNL     1      25.688  41.556  14.440  1.00  0.00    -0.285 OA
ATOM      5  C   UNL     1      24.454  39.706  13.730  1.00  0.00     0.111 A 
ATOM      6  C   UNL     1      25.151  39.480  12.504  1.00  0.00     0.134 A 
ATOM      7  C   UNL     1      24.856  38.344  11.741  1.00  0.00     0.093 A 
ATOM      8  C   UNL     1      23.848  37.458  12.127  1.00  0.00     0.123 A 
ATOM      9  C   UNL     1      23.124  37.700  13.292  1.00  0.00     0.094 A 
ATOM     10  C   UNL     1      23.420  38.804  14.094  1.00  0.00     0.146 A 
ATOM     11  O   UNL     1      22.721  38.983  15.208  1.00  0.00    -0.452 OA
ENDROOT
BRANCH   1  12
ATOM     12  C   UNL     1      22.083  40.066  17.264  1.00  0.00     0.021 A 
ATOM     13  C   UNL     1      20.812  40.657  17.169  1.00  0.00     0.016 A 
ATOM     14  C   UNL     1      19.979  40.728  18.289  1.00  0.00     0.047 A 
ATOM     15  C   UNL     1      20.401  40.198  19.515  1.00  0.00     0.115 A 
ATOM     16  C   UNL     1      22.492  39.518  18.494  1.00  0.00     0.016 A 
ATOM     17  C   UNL     1      21.656  39.591  19.612  1.00  0.00     0.047 A 
BRANCH  15  18
ATOM     18  O   UNL     1      19.580  40.265  20.639  1.00  0.00    -0.508 OA
ATOM     19  H   UNL     1      19.961  40.431  21.563  1.00  0.00     0.293 HD
ENDBRANCH  15  18
ENDBRANCH   1  12
BRANCH   2  20
ATOM     20  O   UNL     1      24.164  41.991  16.656  1.00  0.00    -0.502 OA
ATOM     21  H   UNL     1      24.696  42.808  16.387  1.00  0.00     0.293 HD
ENDBRANCH   2  20
BRANCH   6  22
ATOM     22  O   UNL     1      26.115  40.348  11.981  1.00  0.00    -0.507 OA
ATOM     23  H   UNL     1      25.997  41.342  11.864  1.00  0.00     0.293 HD
ENDBRANCH   6  22
BRANCH   8  24
ATOM     24  O   UNL     1      23.550  36.339  11.352  1.00  0.00    -0.508 OA
ATOM     25  H   UNL     1      23.786  35.403  11.660  1.00  0.00     0.293 HD
ENDBRANCH   8  24
TORSDOF 5
ENDMDL
