MODEL 1
REMARK VINA RESULT:    -5.056      0.000      0.000
REMARK INTER + INTRA:         -16.997
REMARK INTER:                 -12.741
REMARK INTRA:                  -4.256
REMARK UNBOUND:                -4.256
REMARK SMILES CCCCCCCCCCCCCCCCCCCCCCCCCCCC(=O)[O-]
REMARK SMILES IDX 15 1 16 2 17 3 18 4 19 5 20 6 21 7 22 8 23 9 24 10 25 11
REMARK SMILES IDX 26 12 27 13 28 14 29 15 30 16 14 17 13 18 12 19 11 20 10 21
REMARK SMILES IDX 9 22 8 23 7 24 6 25 5 26 4 27 3 28 2 29 1 30
REMARK H PARENT
REMARK Flexibility Score: inf
ROOT
ATOM      1  C   UNL     1      18.684  16.503  46.075  1.00  0.00     0.000 C 
ENDROOT
BRANCH   1   2
ATOM      2  C   UNL     1      19.937  16.084  46.860  1.00  0.00     0.000 C 
BRANCH   2   3
ATOM      3  C   UNL     1      20.273  17.055  48.006  1.00  0.00     0.000 C 
BRANCH   3   4
ATOM      4  C   UNL     1      21.406  18.033  47.625  1.00  0.00     0.000 C 
BRANCH   4   5
ATOM      5  C   UNL     1      20.919  19.275  46.860  1.00  0.00     0.000 C 
BRANCH   5   6
ATOM      6  C   UNL     1      20.583  20.452  47.785  1.00  0.00     0.000 C 
BRANCH   6   7
ATOM      7  C   UNL     1      19.140  20.356  48.298  1.00  0.00     0.000 C 
BRANCH   7   8
ATOM      8  C   UNL     1      18.150  20.227  47.134  1.00  0.00     0.000 C 
BRANCH   8   9
ATOM      9  C   UNL     1      17.959  21.571  46.422  1.00  0.00     0.000 C 
BRANCH   9  10
ATOM     10  C   UNL     1      17.695  21.366  44.923  1.00  0.00     0.000 C 
BRANCH  10  11
ATOM     11  C   UNL     1      18.836  20.612  44.219  1.00  0.00     0.000 C 
BRANCH  11  12
ATOM     12  C   UNL     1      18.350  19.335  43.510  1.00  0.00     0.006 C 
BRANCH  12  13
ATOM     13  C   UNL     1      16.912  18.969  43.901  1.00  0.00     0.053 C 
BRANCH  13  14
ATOM     14  C   UNL     1      16.333  17.932  42.987  1.00  0.00     0.041 C 
ATOM     15  O   UNL     1      16.317  16.720  43.330  1.00  0.00    -0.550 OA
ATOM     16  O   UNL     1      15.832  18.302  41.746  1.00  0.00    -0.550 OA
ENDBRANCH  13  14
ENDBRANCH  12  13
ENDBRANCH  11  12
ENDBRANCH  10  11
ENDBRANCH   9  10
ENDBRANCH   8   9
ENDBRANCH   7   8
ENDBRANCH   6   7
ENDBRANCH   5   6
ENDBRANCH   4   5
ENDBRANCH   3   4
ENDBRANCH   2   3
ENDBRANCH   1   2
BRANCH   1  17
ATOM     17  C   UNL     1      17.396  16.361  46.904  1.00  0.00     0.000 C 
BRANCH  17  18
ATOM     18  C   UNL     1      16.591  15.102  46.548  1.00  0.00     0.000 C 
BRANCH  18  19
ATOM     19  C   UNL     1      17.334  14.181  45.562  1.00  0.00     0.000 C 
BRANCH  19  20
ATOM     20  C   UNL     1      17.682  12.816  46.178  1.00  0.00     0.000 C 
BRANCH  20  21
ATOM     21  C   UNL     1      19.197  12.595  46.307  1.00  0.00     0.000 C 
BRANCH  21  22
ATOM     22  C   UNL     1      19.514  11.656  47.481  1.00  0.00    -0.000 C 
BRANCH  22  23
ATOM     23  C   UNL     1      20.848  11.991  48.168  1.00  0.00    -0.000 C 
BRANCH  23  24
ATOM     24  C   UNL     1      21.641  13.076  47.419  1.00  0.00    -0.000 C 
BRANCH  24  25
ATOM     25  C   UNL     1      22.943  13.473  48.140  1.00  0.00    -0.000 C 
BRANCH  25  26
ATOM     26  C   UNL     1      23.337  14.956  48.015  1.00  0.00    -0.000 C 
BRANCH  26  27
ATOM     27  C   UNL     1      23.781  15.573  49.350  1.00  0.00    -0.000 C 
BRANCH  27  28
ATOM     28  C   UNL     1      22.877  15.105  50.498  1.00  0.00    -0.000 C 
BRANCH  28  29
ATOM     29  C   UNL     1      22.455  16.256  51.425  1.00  0.00    -0.003 C 
ATOM     30  C   UNL     1      20.939  16.371  51.570  1.00  0.00     0.004 C 
ENDBRANCH  28  29
ENDBRANCH  27  28
ENDBRANCH  26  27
ENDBRANCH  25  26
ENDBRANCH  24  25
ENDBRANCH  23  24
ENDBRANCH  22  23
ENDBRANCH  21  22
ENDBRANCH  20  21
ENDBRANCH  19  20
ENDBRANCH  18  19
ENDBRANCH  17  18
ENDBRANCH   1  17
TORSDOF 26
ENDMDL
MODEL 2
REMARK VINA RESULT:    -4.989      2.963      8.056
REMARK INTER + INTRA:         -16.827
REMARK INTER:                 -11.889
REMARK INTRA:                  -4.938
REMARK UNBOUND:                -4.256
REMARK SMILES CCCCCCCCCCCCCCCCCCCCCCCCCCCC(=O)[O-]
REMARK SMILES IDX 15 1 16 2 17 3 18 4 19 5 20 6 21 7 22 8 23 9 24 10 25 11
REMARK SMILES IDX 26 12 27 13 28 14 29 15 30 16 14 17 13 18 12 19 11 20 10 21
REMARK SMILES IDX 9 22 8 23 7 24 6 25 5 26 4 27 3 28 2 29 1 30
REMARK H PARENT
REMARK Flexibility Score: inf
ROOT
ATOM      1  C   UNL     1      21.103  18.155  47.622  1.00  0.00     0.000 C 
ENDROOT
BRANCH   1   2
ATOM      2  C   UNL     1      20.924  16.631  47.526  1.00  0.00     0.000 C 
BRANCH   2   3
ATOM      3  C   UNL     1      19.602  16.230  46.848  1.00  0.00     0.000 C 
BRANCH   3   4
ATOM      4  C   UNL     1      18.940  17.419  46.118  1.00  0.00     0.000 C 
BRANCH   4   5
ATOM      5  C   UNL     1      17.509  17.718  46.596  1.00  0.00     0.000 C 
BRANCH   5   6
ATOM      6  C   UNL     1      16.878  16.548  47.363  1.00  0.00     0.000 C 
BRANCH   6   7
ATOM      7  C   UNL     1      15.809  15.847  46.516  1.00  0.00     0.000 C 
BRANCH   7   8
ATOM      8  C   UNL     1      16.073  14.339  46.431  1.00  0.00     0.000 C 
BRANCH   8   9
ATOM      9  C   UNL     1      17.234  14.037  45.476  1.00  0.00     0.000 C 
BRANCH   9  10
ATOM     10  C   UNL     1      17.701  12.581  45.623  1.00  0.00     0.000 C 
BRANCH  10  11
ATOM     11  C   UNL     1      19.209  12.415  45.372  1.00  0.00     0.000 C 
BRANCH  11  12
ATOM     12  C   UNL     1      19.942  11.791  46.573  1.00  0.00     0.006 C 
BRANCH  12  13
ATOM     13  C   UNL     1      20.703  12.839  47.394  1.00  0.00     0.053 C 
BRANCH  13  14
ATOM     14  C   UNL     1      22.186  12.722  47.209  1.00  0.00     0.041 C 
ATOM     15  O   UNL     1      22.672  11.748  46.576  1.00  0.00    -0.550 OA
ATOM     16  O   UNL     1      23.031  13.678  47.757  1.00  0.00    -0.550 OA
ENDBRANCH  13  14
ENDBRANCH  12  13
ENDBRANCH  11  12
ENDBRANCH  10  11
ENDBRANCH   9  10
ENDBRANCH   8   9
ENDBRANCH   7   8
ENDBRANCH   6   7
ENDBRANCH   5   6
ENDBRANCH   4   5
ENDBRANCH   3   4
ENDBRANCH   2   3
ENDBRANCH   1   2
BRANCH   1  17
ATOM     17  C   UNL     1      20.877  18.685  49.048  1.00  0.00     0.000 C 
BRANCH  17  18
ATOM     18  C   UNL     1      19.878  19.852  49.100  1.00  0.00     0.000 C 
BRANCH  18  19
ATOM     19  C   UNL     1      19.803  20.629  47.772  1.00  0.00     0.000 C 
BRANCH  19  20
ATOM     20  C   UNL     1      18.374  21.092  47.440  1.00  0.00     0.000 C 
BRANCH  20  21
ATOM     21  C   UNL     1      18.184  21.395  45.946  1.00  0.00     0.000 C 
BRANCH  21  22
ATOM     22  C   UNL     1      19.287  20.730  45.108  1.00  0.00    -0.000 C 
BRANCH  22  23
ATOM     23  C   UNL     1      18.824  20.377  43.685  1.00  0.00    -0.000 C 
BRANCH  23  24
ATOM     24  C   UNL     1      17.524  21.101  43.291  1.00  0.00    -0.000 C 
BRANCH  24  25
ATOM     25  C   UNL     1      16.529  20.187  42.552  1.00  0.00    -0.000 C 
BRANCH  25  26
ATOM     26  C   UNL     1      15.373  19.644  43.411  1.00  0.00    -0.000 C 
BRANCH  26  27
ATOM     27  C   UNL     1      15.538  18.160  43.771  1.00  0.00    -0.000 C 
BRANCH  27  28
ATOM     28  C   UNL     1      16.680  17.524  42.966  1.00  0.00    -0.000 C 
BRANCH  28  29
ATOM     29  C   UNL     1      16.363  16.087  42.524  1.00  0.00    -0.003 C 
ATOM     30  C   UNL     1      14.935  15.667  42.863  1.00  0.00     0.004 C 
ENDBRANCH  28  29
ENDBRANCH  27  28
ENDBRANCH  26  27
ENDBRANCH  25  26
ENDBRANCH  24  25
ENDBRANCH  23  24
ENDBRANCH  22  23
ENDBRANCH  21  22
ENDBRANCH  20  21
ENDBRANCH  19  20
ENDBRANCH  18  19
ENDBRANCH  17  18
ENDBRANCH   1  17
TORSDOF 26
ENDMDL
MODEL 3
REMARK VINA RESULT:    -4.986      2.941      8.250
REMARK INTER + INTRA:         -16.819
REMARK INTER:                 -11.369
REMARK INTRA:                  -5.450
REMARK UNBOUND:                -4.256
REMARK SMILES CCCCCCCCCCCCCCCCCCCCCCCCCCCC(=O)[O-]
REMARK SMILES IDX 15 1 16 2 17 3 18 4 19 5 20 6 21 7 22 8 23 9 24 10 25 11
REMARK SMILES IDX 26 12 27 13 28 14 29 15 30 16 14 17 13 18 12 19 11 20 10 21
REMARK SMILES IDX 9 22 8 23 7 24 6 25 5 26 4 27 3 28 2 29 1 30
REMARK H PARENT
REMARK Flexibility Score: inf
ROOT
ATOM      1  C   UNL     1      17.083  18.187  43.357  1.00  0.00     0.000 C 
ENDROOT
BRANCH   1   2
ATOM      2  C   UNL     1      17.920  18.118  44.645  1.00  0.00     0.000 C 
BRANCH   2   3
ATOM      3  C   UNL     1      17.051  18.044  45.914  1.00  0.00     0.000 C 
BRANCH   3   4
ATOM      4  C   UNL     1      17.642  17.080  46.966  1.00  0.00     0.000 C 
BRANCH   4   5
ATOM      5  C   UNL     1      18.579  16.015  46.370  1.00  0.00     0.000 C 
BRANCH   5   6
ATOM      6  C   UNL     1      20.019  16.131  46.887  1.00  0.00     0.000 C 
BRANCH   6   7
ATOM      7  C   UNL     1      20.158  17.295  47.876  1.00  0.00     0.000 C 
BRANCH   7   8
ATOM      8  C   UNL     1      21.244  18.278  47.421  1.00  0.00     0.000 C 
BRANCH   8   9
ATOM      9  C   UNL     1      20.623  19.539  46.809  1.00  0.00     0.000 C 
BRANCH   9  10
ATOM     10  C   UNL     1      19.753  20.278  47.837  1.00  0.00     0.000 C 
BRANCH  10  11
ATOM     11  C   UNL     1      18.543  20.976  47.195  1.00  0.00     0.000 C 
BRANCH  11  12
ATOM     12  C   UNL     1      18.817  21.419  45.747  1.00  0.00     0.006 C 
BRANCH  12  13
ATOM     13  C   UNL     1      17.533  21.835  45.017  1.00  0.00     0.053 C 
BRANCH  13  14
ATOM     14  C   UNL     1      17.752  21.977  43.542  1.00  0.00     0.041 C 
ATOM     15  O   UNL     1      18.681  21.346  42.974  1.00  0.00    -0.550 OA
ATOM     16  O   UNL     1      16.942  22.827  42.799  1.00  0.00    -0.550 OA
ENDBRANCH  13  14
ENDBRANCH  12  13
ENDBRANCH  11  12
ENDBRANCH  10  11
ENDBRANCH   9  10
ENDBRANCH   8   9
ENDBRANCH   7   8
ENDBRANCH   6   7
ENDBRANCH   5   6
ENDBRANCH   4   5
ENDBRANCH   3   4
ENDBRANCH   2   3
ENDBRANCH   1   2
BRANCH   1  17
ATOM     17  C   UNL     1      17.070  16.851  42.594  1.00  0.00     0.000 C 
BRANCH  17  18
ATOM     18  C   UNL     1      15.680  16.196  42.561  1.00  0.00     0.000 C 
BRANCH  18  19
ATOM     19  C   UNL     1      14.708  16.812  43.584  1.00  0.00     0.000 C 
BRANCH  19  20
ATOM     20  C   UNL     1      13.298  17.021  43.007  1.00  0.00     0.000 C 
BRANCH  20  21
ATOM     21  C   UNL     1      12.779  18.451  43.221  1.00  0.00     0.000 C 
BRANCH  21  22
ATOM     22  C   UNL     1      13.741  19.255  44.109  1.00  0.00    -0.000 C 
BRANCH  22  23
ATOM     23  C   UNL     1      14.335  20.477  43.390  1.00  0.00    -0.000 C 
BRANCH  23  24
ATOM     24  C   UNL     1      13.913  20.556  41.912  1.00  0.00    -0.000 C 
BRANCH  24  25
ATOM     25  C   UNL     1      15.100  20.421  40.941  1.00  0.00    -0.000 C 
BRANCH  25  26
ATOM     26  C   UNL     1      15.234  19.050  40.256  1.00  0.00    -0.000 C 
BRANCH  26  27
ATOM     27  C   UNL     1      13.900  18.519  39.709  1.00  0.00    -0.000 C 
BRANCH  27  28
ATOM     28  C   UNL     1      14.024  17.045  39.299  1.00  0.00    -0.000 C 
BRANCH  28  29
ATOM     29  C   UNL     1      13.193  16.707  38.051  1.00  0.00    -0.003 C 
ATOM     30  C   UNL     1      12.090  15.690  38.334  1.00  0.00     0.004 C 
ENDBRANCH  28  29
ENDBRANCH  27  28
ENDBRANCH  26  27
ENDBRANCH  25  26
ENDBRANCH  24  25
ENDBRANCH  23  24
ENDBRANCH  22  23
ENDBRANCH  21  22
ENDBRANCH  20  21
ENDBRANCH  19  20
ENDBRANCH  18  19
ENDBRANCH  17  18
ENDBRANCH   1  17
TORSDOF 26
ENDMDL
MODEL 4
REMARK VINA RESULT:    -4.984      2.256      4.926
REMARK INTER + INTRA:         -16.815
REMARK INTER:                 -11.779
REMARK INTRA:                  -5.035
REMARK UNBOUND:                -4.256
REMARK SMILES CCCCCCCCCCCCCCCCCCCCCCCCCCCC(=O)[O-]
REMARK SMILES IDX 15 1 16 2 17 3 18 4 19 5 20 6 21 7 22 8 23 9 24 10 25 11
REMARK SMILES IDX 26 12 27 13 28 14 29 15 30 16 14 17 13 18 12 19 11 20 10 21
REMARK SMILES IDX 9 22 8 23 7 24 6 25 5 26 4 27 3 28 2 29 1 30
REMARK H PARENT
REMARK Flexibility Score: inf
ROOT
ATOM      1  C   UNL     1      19.106  17.012  46.419  1.00  0.00     0.000 C 
ENDROOT
BRANCH   1   2
ATOM      2  C   UNL     1      20.177  16.039  46.938  1.00  0.00     0.000 C 
BRANCH   2   3
ATOM      3  C   UNL     1      21.322  16.755  47.677  1.00  0.00     0.000 C 
BRANCH   3   4
ATOM      4  C   UNL     1      21.108  18.283  47.737  1.00  0.00     0.000 C 
BRANCH   4   5
ATOM      5  C   UNL     1      20.692  18.795  49.127  1.00  0.00     0.000 C 
BRANCH   5   6
ATOM      6  C   UNL     1      19.945  20.134  49.071  1.00  0.00     0.000 C 
BRANCH   6   7
ATOM      7  C   UNL     1      19.783  20.616  47.624  1.00  0.00     0.000 C 
BRANCH   7   8
ATOM      8  C   UNL     1      18.324  20.982  47.327  1.00  0.00     0.000 C 
BRANCH   8   9
ATOM      9  C   UNL     1      18.075  21.066  45.816  1.00  0.00     0.000 C 
BRANCH   9  10
ATOM     10  C   UNL     1      19.224  20.413  45.033  1.00  0.00     0.000 C 
BRANCH  10  11
ATOM     11  C   UNL     1      18.788  19.919  43.644  1.00  0.00     0.000 C 
BRANCH  11  12
ATOM     12  C   UNL     1      17.351  19.367  43.639  1.00  0.00     0.006 C 
BRANCH  12  13
ATOM     13  C   UNL     1      16.537  19.886  42.447  1.00  0.00     0.053 C 
BRANCH  13  14
ATOM     14  C   UNL     1      16.537  21.383  42.383  1.00  0.00     0.041 C 
ATOM     15  O   UNL     1      15.936  22.057  43.261  1.00  0.00    -0.550 OA
ATOM     16  O   UNL     1      17.182  22.033  41.338  1.00  0.00    -0.550 OA
ENDBRANCH  13  14
ENDBRANCH  12  13
ENDBRANCH  11  12
ENDBRANCH  10  11
ENDBRANCH   9  10
ENDBRANCH   8   9
ENDBRANCH   7   8
ENDBRANCH   6   7
ENDBRANCH   5   6
ENDBRANCH   4   5
ENDBRANCH   3   4
ENDBRANCH   2   3
ENDBRANCH   1   2
BRANCH   1  17
ATOM     17  C   UNL     1      17.860  17.050  47.321  1.00  0.00     0.000 C 
BRANCH  17  18
ATOM     18  C   UNL     1      16.643  17.686  46.631  1.00  0.00     0.000 C 
BRANCH  18  19
ATOM     19  C   UNL     1      15.728  16.644  45.961  1.00  0.00     0.000 C 
BRANCH  19  20
ATOM     20  C   UNL     1      14.766  17.273  44.940  1.00  0.00     0.000 C 
BRANCH  20  21
ATOM     21  C   UNL     1      14.904  16.656  43.540  1.00  0.00     0.000 C 
BRANCH  21  22
ATOM     22  C   UNL     1      16.194  15.829  43.432  1.00  0.00    -0.000 C 
BRANCH  22  23
ATOM     23  C   UNL     1      15.988  14.498  42.691  1.00  0.00    -0.000 C 
BRANCH  23  24
ATOM     24  C   UNL     1      14.668  13.806  43.076  1.00  0.00    -0.000 C 
BRANCH  24  25
ATOM     25  C   UNL     1      14.605  13.423  44.567  1.00  0.00    -0.000 C 
BRANCH  25  26
ATOM     26  C   UNL     1      15.706  12.459  45.044  1.00  0.00    -0.000 C 
BRANCH  26  27
ATOM     27  C   UNL     1      16.539  13.025  46.204  1.00  0.00    -0.000 C 
BRANCH  27  28
ATOM     28  C   UNL     1      17.920  13.482  45.715  1.00  0.00    -0.000 C 
BRANCH  28  29
ATOM     29  C   UNL     1      19.061  12.615  46.269  1.00  0.00    -0.003 C 
ATOM     30  C   UNL     1      19.712  11.741  45.199  1.00  0.00     0.004 C 
ENDBRANCH  28  29
ENDBRANCH  27  28
ENDBRANCH  26  27
ENDBRANCH  25  26
ENDBRANCH  24  25
ENDBRANCH  23  24
ENDBRANCH  22  23
ENDBRANCH  21  22
ENDBRANCH  20  21
ENDBRANCH  19  20
ENDBRANCH  18  19
ENDBRANCH  17  18
ENDBRANCH   1  17
TORSDOF 26
ENDMDL
MODEL 5
REMARK VINA RESULT:    -4.944      3.032      8.602
REMARK INTER + INTRA:         -16.713
REMARK INTER:                 -12.412
REMARK INTRA:                  -4.301
REMARK UNBOUND:                -4.256
REMARK SMILES CCCCCCCCCCCCCCCCCCCCCCCCCCCC(=O)[O-]
REMARK SMILES IDX 15 1 16 2 17 3 18 4 19 5 20 6 21 7 22 8 23 9 24 10 25 11
REMARK SMILES IDX 26 12 27 13 28 14 29 15 30 16 14 17 13 18 12 19 11 20 10 21
REMARK SMILES IDX 9 22 8 23 7 24 6 25 5 26 4 27 3 28 2 29 1 30
REMARK H PARENT
REMARK Flexibility Score: inf
ROOT
ATOM      1  C   UNL     1      20.487  16.455  47.379  1.00  0.00     0.000 C 
ENDROOT
BRANCH   1   2
ATOM      2  C   UNL     1      19.285  16.844  46.503  1.00  0.00     0.000 C 
BRANCH   2   3
ATOM      3  C   UNL     1      18.036  17.195  47.331  1.00  0.00     0.000 C 
BRANCH   3   4
ATOM      4  C   UNL     1      16.802  16.372  46.897  1.00  0.00     0.000 C 
BRANCH   4   5
ATOM      5  C   UNL     1      17.084  15.402  45.737  1.00  0.00     0.000 C 
BRANCH   5   6
ATOM      6  C   UNL     1      17.073  13.931  46.172  1.00  0.00     0.000 C 
BRANCH   6   7
ATOM      7  C   UNL     1      18.463  13.301  46.022  1.00  0.00     0.000 C 
BRANCH   7   8
ATOM      8  C   UNL     1      18.576  12.012  46.846  1.00  0.00     0.000 C 
BRANCH   8   9
ATOM      9  C   UNL     1      20.041  11.595  47.016  1.00  0.00     0.000 C 
BRANCH   9  10
ATOM     10  C   UNL     1      20.968  12.819  46.986  1.00  0.00     0.000 C 
BRANCH  10  11
ATOM     11  C   UNL     1      22.228  12.629  47.848  1.00  0.00     0.000 C 
BRANCH  11  12
ATOM     12  C   UNL     1      23.003  13.942  48.057  1.00  0.00     0.006 C 
BRANCH  12  13
ATOM     13  C   UNL     1      24.296  13.729  48.854  1.00  0.00     0.053 C 
BRANCH  13  14
ATOM     14  C   UNL     1      24.394  14.667  50.019  1.00  0.00     0.041 C 
ATOM     15  O   UNL     1      25.266  14.486  50.908  1.00  0.00    -0.550 OA
ATOM     16  O   UNL     1      23.504  15.728  50.132  1.00  0.00    -0.550 OA
ENDBRANCH  13  14
ENDBRANCH  12  13
ENDBRANCH  11  12
ENDBRANCH  10  11
ENDBRANCH   9  10
ENDBRANCH   8   9
ENDBRANCH   7   8
ENDBRANCH   6   7
ENDBRANCH   5   6
ENDBRANCH   4   5
ENDBRANCH   3   4
ENDBRANCH   2   3
ENDBRANCH   1   2
BRANCH   1  17
ATOM     17  C   UNL     1      21.268  17.681  47.883  1.00  0.00     0.000 C 
BRANCH  17  18
ATOM     18  C   UNL     1      20.931  18.048  49.337  1.00  0.00     0.000 C 
BRANCH  18  19
ATOM     19  C   UNL     1      20.484  19.514  49.491  1.00  0.00     0.000 C 
BRANCH  19  20
ATOM     20  C   UNL     1      20.244  20.203  48.138  1.00  0.00     0.000 C 
BRANCH  20  21
ATOM     21  C   UNL     1      18.827  20.783  48.013  1.00  0.00     0.000 C 
BRANCH  21  22
ATOM     22  C   UNL     1      18.440  20.966  46.537  1.00  0.00    -0.000 C 
BRANCH  22  23
ATOM     23  C   UNL     1      19.430  20.292  45.573  1.00  0.00    -0.000 C 
BRANCH  23  24
ATOM     24  C   UNL     1      18.795  19.958  44.212  1.00  0.00    -0.000 C 
BRANCH  24  25
ATOM     25  C   UNL     1      17.769  21.011  43.754  1.00  0.00    -0.000 C 
BRANCH  25  26
ATOM     26  C   UNL     1      16.311  20.522  43.688  1.00  0.00    -0.000 C 
BRANCH  26  27
ATOM     27  C   UNL     1      16.094  19.185  44.413  1.00  0.00    -0.000 C 
BRANCH  27  28
ATOM     28  C   UNL     1      15.309  18.204  43.531  1.00  0.00    -0.000 C 
BRANCH  28  29
ATOM     29  C   UNL     1      16.071  17.818  42.254  1.00  0.00    -0.003 C 
ATOM     30  C   UNL     1      17.276  16.922  42.534  1.00  0.00     0.004 C 
ENDBRANCH  28  29
ENDBRANCH  27  28
ENDBRANCH  26  27
ENDBRANCH  25  26
ENDBRANCH  24  25
ENDBRANCH  23  24
ENDBRANCH  22  23
ENDBRANCH  21  22
ENDBRANCH  20  21
ENDBRANCH  19  20
ENDBRANCH  18  19
ENDBRANCH  17  18
ENDBRANCH   1  17
TORSDOF 26
ENDMDL
MODEL 6
REMARK VINA RESULT:    -4.929      1.521      1.981
REMARK INTER + INTRA:         -16.676
REMARK INTER:                 -11.998
REMARK INTRA:                  -4.679
REMARK UNBOUND:                -4.256
REMARK SMILES CCCCCCCCCCCCCCCCCCCCCCCCCCCC(=O)[O-]
REMARK SMILES IDX 15 1 16 2 17 3 18 4 19 5 20 6 21 7 22 8 23 9 24 10 25 11
REMARK SMILES IDX 26 12 27 13 28 14 29 15 30 16 14 17 13 18 12 19 11 20 10 21
REMARK SMILES IDX 9 22 8 23 7 24 6 25 5 26 4 27 3 28 2 29 1 30
REMARK H PARENT
REMARK Flexibility Score: inf
ROOT
ATOM      1  C   UNL     1      18.488  17.136  47.552  1.00  0.00     0.000 C 
ENDROOT
BRANCH   1   2
ATOM      2  C   UNL     1      19.887  16.839  46.988  1.00  0.00     0.000 C 
BRANCH   2   3
ATOM      3  C   UNL     1      20.954  17.823  47.499  1.00  0.00     0.000 C 
BRANCH   3   4
ATOM      4  C   UNL     1      20.369  18.849  48.493  1.00  0.00     0.000 C 
BRANCH   4   5
ATOM      5  C   UNL     1      20.211  20.261  47.902  1.00  0.00     0.000 C 
BRANCH   5   6
ATOM      6  C   UNL     1      18.746  20.708  47.806  1.00  0.00     0.000 C 
BRANCH   6   7
ATOM      7  C   UNL     1      18.343  20.966  46.349  1.00  0.00     0.000 C 
BRANCH   7   8
ATOM      8  C   UNL     1      19.421  20.462  45.381  1.00  0.00     0.000 C 
BRANCH   8   9
ATOM      9  C   UNL     1      18.838  19.453  44.385  1.00  0.00     0.000 C 
BRANCH   9  10
ATOM     10  C   UNL     1      17.328  19.670  44.204  1.00  0.00     0.000 C 
BRANCH  10  11
ATOM     11  C   UNL     1      16.770  18.945  42.967  1.00  0.00     0.000 C 
BRANCH  11  12
ATOM     12  C   UNL     1      15.583  18.027  43.307  1.00  0.00     0.006 C 
BRANCH  12  13
ATOM     13  C   UNL     1      14.972  18.355  44.675  1.00  0.00     0.053 C 
BRANCH  13  14
ATOM     14  C   UNL     1      13.623  18.995  44.545  1.00  0.00     0.041 C 
ATOM     15  O   UNL     1      12.704  18.710  45.358  1.00  0.00    -0.550 OA
ATOM     16  O   UNL     1      13.375  19.888  43.511  1.00  0.00    -0.550 OA
ENDBRANCH  13  14
ENDBRANCH  12  13
ENDBRANCH  11  12
ENDBRANCH  10  11
ENDBRANCH   9  10
ENDBRANCH   8   9
ENDBRANCH   7   8
ENDBRANCH   6   7
ENDBRANCH   5   6
ENDBRANCH   4   5
ENDBRANCH   3   4
ENDBRANCH   2   3
ENDBRANCH   1   2
BRANCH   1  17
ATOM     17  C   UNL     1      17.383  16.345  46.830  1.00  0.00     0.000 C 
BRANCH  17  18
ATOM     18  C   UNL     1      17.725  16.046  45.362  1.00  0.00     0.000 C 
BRANCH  18  19
ATOM     19  C   UNL     1      17.533  14.562  44.997  1.00  0.00     0.000 C 
BRANCH  19  20
ATOM     20  C   UNL     1      17.191  13.694  46.219  1.00  0.00     0.000 C 
BRANCH  20  21
ATOM     21  C   UNL     1      18.223  12.582  46.463  1.00  0.00     0.000 C 
BRANCH  21  22
ATOM     22  C   UNL     1      19.646  13.086  46.176  1.00  0.00    -0.000 C 
BRANCH  22  23
ATOM     23  C   UNL     1      20.564  13.009  47.407  1.00  0.00    -0.000 C 
BRANCH  23  24
ATOM     24  C   UNL     1      21.979  12.515  47.058  1.00  0.00    -0.000 C 
BRANCH  24  25
ATOM     25  C   UNL     1      23.083  13.269  47.823  1.00  0.00    -0.000 C 
BRANCH  25  26
ATOM     26  C   UNL     1      22.819  14.769  48.046  1.00  0.00    -0.000 C 
BRANCH  26  27
ATOM     27  C   UNL     1      23.158  15.233  49.471  1.00  0.00    -0.000 C 
BRANCH  27  28
ATOM     28  C   UNL     1      21.883  15.426  50.303  1.00  0.00    -0.000 C 
BRANCH  28  29
ATOM     29  C   UNL     1      22.155  16.112  51.651  1.00  0.00    -0.003 C 
ATOM     30  C   UNL     1      21.387  17.422  51.812  1.00  0.00     0.004 C 
ENDBRANCH  28  29
ENDBRANCH  27  28
ENDBRANCH  26  27
ENDBRANCH  25  26
ENDBRANCH  24  25
ENDBRANCH  23  24
ENDBRANCH  22  23
ENDBRANCH  21  22
ENDBRANCH  20  21
ENDBRANCH  19  20
ENDBRANCH  18  19
ENDBRANCH  17  18
ENDBRANCH   1  17
TORSDOF 26
ENDMDL
MODEL 7
REMARK VINA RESULT:    -4.885      2.670      5.957
REMARK INTER + INTRA:         -16.567
REMARK INTER:                 -11.601
REMARK INTRA:                  -4.965
REMARK UNBOUND:                -4.256
REMARK SMILES CCCCCCCCCCCCCCCCCCCCCCCCCCCC(=O)[O-]
REMARK SMILES IDX 15 1 16 2 17 3 18 4 19 5 20 6 21 7 22 8 23 9 24 10 25 11
REMARK SMILES IDX 26 12 27 13 28 14 29 15 30 16 14 17 13 18 12 19 11 20 10 21
REMARK SMILES IDX 9 22 8 23 7 24 6 25 5 26 4 27 3 28 2 29 1 30
REMARK H PARENT
REMARK Flexibility Score: inf
ROOT
ATOM      1  C   UNL     1      19.403  17.103  46.503  1.00  0.00     0.000 C 
ENDROOT
BRANCH   1   2
ATOM      2  C   UNL     1      20.590  16.693  47.391  1.00  0.00     0.000 C 
BRANCH   2   3
ATOM      3  C   UNL     1      21.409  17.899  47.882  1.00  0.00     0.000 C 
BRANCH   3   4
ATOM      4  C   UNL     1      20.635  18.743  48.919  1.00  0.00     0.000 C 
BRANCH   4   5
ATOM      5  C   UNL     1      20.340  20.178  48.451  1.00  0.00     0.000 C 
BRANCH   5   6
ATOM      6  C   UNL     1      18.838  20.483  48.369  1.00  0.00     0.000 C 
BRANCH   6   7
ATOM      7  C   UNL     1      18.469  21.068  47.001  1.00  0.00     0.000 C 
BRANCH   7   8
ATOM      8  C   UNL     1      19.551  20.760  45.959  1.00  0.00     0.000 C 
BRANCH   8   9
ATOM      9  C   UNL     1      19.011  20.937  44.535  1.00  0.00     0.000 C 
BRANCH   9  10
ATOM     10  C   UNL     1      18.808  19.576  43.852  1.00  0.00     0.000 C 
BRANCH  10  11
ATOM     11  C   UNL     1      17.400  19.419  43.253  1.00  0.00     0.000 C 
BRANCH  11  12
ATOM     12  C   UNL     1      16.379  20.382  43.886  1.00  0.00     0.006 C 
BRANCH  12  13
ATOM     13  C   UNL     1      15.566  21.137  42.828  1.00  0.00     0.053 C 
BRANCH  13  14
ATOM     14  C   UNL     1      16.431  22.032  41.993  1.00  0.00     0.041 C 
ATOM     15  O   UNL     1      16.546  21.829  40.755  1.00  0.00    -0.550 OA
ATOM     16  O   UNL     1      17.128  23.076  42.587  1.00  0.00    -0.550 OA
ENDBRANCH  13  14
ENDBRANCH  12  13
ENDBRANCH  11  12
ENDBRANCH  10  11
ENDBRANCH   9  10
ENDBRANCH   8   9
ENDBRANCH   7   8
ENDBRANCH   6   7
ENDBRANCH   5   6
ENDBRANCH   4   5
ENDBRANCH   3   4
ENDBRANCH   2   3
ENDBRANCH   1   2
BRANCH   1  17
ATOM     17  C   UNL     1      18.050  16.924  47.212  1.00  0.00     0.000 C 
BRANCH  17  18
ATOM     18  C   UNL     1      16.926  17.753  46.571  1.00  0.00     0.000 C 
BRANCH  18  19
ATOM     19  C   UNL     1      15.806  16.878  45.978  1.00  0.00     0.000 C 
BRANCH  19  20
ATOM     20  C   UNL     1      15.541  15.613  46.812  1.00  0.00     0.000 C 
BRANCH  20  21
ATOM     21  C   UNL     1      15.187  14.396  45.944  1.00  0.00     0.000 C 
BRANCH  21  22
ATOM     22  C   UNL     1      16.388  13.446  45.819  1.00  0.00    -0.000 C 
BRANCH  22  23
ATOM     23  C   UNL     1      17.254  13.740  44.583  1.00  0.00    -0.000 C 
BRANCH  23  24
ATOM     24  C   UNL     1      16.653  13.161  43.290  1.00  0.00    -0.000 C 
BRANCH  24  25
ATOM     25  C   UNL     1      15.933  14.221  42.436  1.00  0.00    -0.000 C 
BRANCH  25  26
ATOM     26  C   UNL     1      16.404  15.670  42.657  1.00  0.00    -0.000 C 
BRANCH  26  27
ATOM     27  C   UNL     1      15.345  16.712  42.262  1.00  0.00    -0.000 C 
BRANCH  27  28
ATOM     28  C   UNL     1      14.514  16.223  41.068  1.00  0.00    -0.000 C 
BRANCH  28  29
ATOM     29  C   UNL     1      14.673  17.119  39.830  1.00  0.00    -0.003 C 
ATOM     30  C   UNL     1      15.337  18.456  40.151  1.00  0.00     0.004 C 
ENDBRANCH  28  29
ENDBRANCH  27  28
ENDBRANCH  26  27
ENDBRANCH  25  26
ENDBRANCH  24  25
ENDBRANCH  23  24
ENDBRANCH  22  23
ENDBRANCH  21  22
ENDBRANCH  20  21
ENDBRANCH  19  20
ENDBRANCH  18  19
ENDBRANCH  17  18
ENDBRANCH   1  17
TORSDOF 26
ENDMDL
MODEL 8
REMARK VINA RESULT:    -4.873      2.907      8.455
REMARK INTER + INTRA:         -16.535
REMARK INTER:                 -12.094
REMARK INTRA:                  -4.440
REMARK UNBOUND:                -4.256
REMARK SMILES CCCCCCCCCCCCCCCCCCCCCCCCCCCC(=O)[O-]
REMARK SMILES IDX 15 1 16 2 17 3 18 4 19 5 20 6 21 7 22 8 23 9 24 10 25 11
REMARK SMILES IDX 26 12 27 13 28 14 29 15 30 16 14 17 13 18 12 19 11 20 10 21
REMARK SMILES IDX 9 22 8 23 7 24 6 25 5 26 4 27 3 28 2 29 1 30
REMARK H PARENT
REMARK Flexibility Score: inf
ROOT
ATOM      1  C   UNL     1      17.561  16.877  47.228  1.00  0.00     0.000 C 
ENDROOT
BRANCH   1   2
ATOM      2  C   UNL     1      16.214  16.233  46.861  1.00  0.00     0.000 C 
BRANCH   2   3
ATOM      3  C   UNL     1      16.361  15.085  45.846  1.00  0.00     0.000 C 
BRANCH   3   4
ATOM      4  C   UNL     1      15.914  13.729  46.434  1.00  0.00     0.000 C 
BRANCH   4   5
ATOM      5  C   UNL     1      17.030  12.670  46.461  1.00  0.00     0.000 C 
BRANCH   5   6
ATOM      6  C   UNL     1      18.057  12.857  45.336  1.00  0.00     0.000 C 
BRANCH   6   7
ATOM      7  C   UNL     1      19.475  12.536  45.827  1.00  0.00     0.000 C 
BRANCH   7   8
ATOM      8  C   UNL     1      19.439  11.778  47.159  1.00  0.00     0.000 C 
BRANCH   8   9
ATOM      9  C   UNL     1      20.731  12.000  47.954  1.00  0.00     0.000 C 
BRANCH   9  10
ATOM     10  C   UNL     1      21.450  13.275  47.488  1.00  0.00     0.000 C 
BRANCH  10  11
ATOM     11  C   UNL     1      22.756  13.532  48.257  1.00  0.00     0.000 C 
BRANCH  11  12
ATOM     12  C   UNL     1      22.853  14.973  48.790  1.00  0.00     0.006 C 
BRANCH  12  13
ATOM     13  C   UNL     1      23.723  15.066  50.050  1.00  0.00     0.053 C 
BRANCH  13  14
ATOM     14  C   UNL     1      22.988  15.705  51.189  1.00  0.00     0.041 C 
ATOM     15  O   UNL     1      21.742  15.561  51.302  1.00  0.00    -0.550 OA
ATOM     16  O   UNL     1      23.678  16.480  52.113  1.00  0.00    -0.550 OA
ENDBRANCH  13  14
ENDBRANCH  12  13
ENDBRANCH  11  12
ENDBRANCH  10  11
ENDBRANCH   9  10
ENDBRANCH   8   9
ENDBRANCH   7   8
ENDBRANCH   6   7
ENDBRANCH   5   6
ENDBRANCH   4   5
ENDBRANCH   3   4
ENDBRANCH   2   3
ENDBRANCH   1   2
BRANCH   1  17
ATOM     17  C   UNL     1      18.730  16.301  46.411  1.00  0.00     0.000 C 
BRANCH  17  18
ATOM     18  C   UNL     1      20.104  16.742  46.941  1.00  0.00     0.000 C 
BRANCH  18  19
ATOM     19  C   UNL     1      20.102  16.995  48.460  1.00  0.00     0.000 C 
BRANCH  19  20
ATOM     20  C   UNL     1      20.860  18.277  48.845  1.00  0.00     0.000 C 
BRANCH  20  21
ATOM     21  C   UNL     1      20.585  19.439  47.878  1.00  0.00     0.000 C 
BRANCH  21  22
ATOM     22  C   UNL     1      19.325  20.212  48.296  1.00  0.00    -0.000 C 
BRANCH  22  23
ATOM     23  C   UNL     1      18.431  20.584  47.102  1.00  0.00    -0.000 C 
BRANCH  23  24
ATOM     24  C   UNL     1      19.242  20.905  45.835  1.00  0.00    -0.000 C 
BRANCH  24  25
ATOM     25  C   UNL     1      19.126  19.813  44.755  1.00  0.00    -0.000 C 
BRANCH  25  26
ATOM     26  C   UNL     1      17.689  19.388  44.404  1.00  0.00    -0.000 C 
BRANCH  26  27
ATOM     27  C   UNL     1      17.635  18.194  43.439  1.00  0.00    -0.000 C 
BRANCH  27  28
ATOM     28  C   UNL     1      16.187  17.731  43.221  1.00  0.00    -0.000 C 
BRANCH  28  29
ATOM     29  C   UNL     1      15.934  17.240  41.787  1.00  0.00    -0.003 C 
ATOM     30  C   UNL     1      15.127  18.235  40.956  1.00  0.00     0.004 C 
ENDBRANCH  28  29
ENDBRANCH  27  28
ENDBRANCH  26  27
ENDBRANCH  25  26
ENDBRANCH  24  25
ENDBRANCH  23  24
ENDBRANCH  22  23
ENDBRANCH  21  22
ENDBRANCH  20  21
ENDBRANCH  19  20
ENDBRANCH  18  19
ENDBRANCH  17  18
ENDBRANCH   1  17
TORSDOF 26
ENDMDL
MODEL 9
REMARK VINA RESULT:    -4.824      2.025      5.993
REMARK INTER + INTRA:         -16.411
REMARK INTER:                 -11.239
REMARK INTRA:                  -5.173
REMARK UNBOUND:                -4.256
REMARK SMILES CCCCCCCCCCCCCCCCCCCCCCCCCCCC(=O)[O-]
REMARK SMILES IDX 15 1 16 2 17 3 18 4 19 5 20 6 21 7 22 8 23 9 24 10 25 11
REMARK SMILES IDX 26 12 27 13 28 14 29 15 30 16 14 17 13 18 12 19 11 20 10 21
REMARK SMILES IDX 9 22 8 23 7 24 6 25 5 26 4 27 3 28 2 29 1 30
REMARK H PARENT
REMARK Flexibility Score: inf
ROOT
ATOM      1  C   UNL     1      17.771  16.801  47.176  1.00  0.00     0.000 C 
ENDROOT
BRANCH   1   2
ATOM      2  C   UNL     1      18.725  16.159  46.155  1.00  0.00     0.000 C 
BRANCH   2   3
ATOM      3  C   UNL     1      18.712  14.621  46.215  1.00  0.00     0.000 C 
BRANCH   3   4
ATOM      4  C   UNL     1      17.543  14.019  45.405  1.00  0.00     0.000 C 
BRANCH   4   5
ATOM      5  C   UNL     1      16.362  13.558  46.275  1.00  0.00     0.000 C 
BRANCH   5   6
ATOM      6  C   UNL     1      15.101  14.410  46.072  1.00  0.00     0.000 C 
BRANCH   6   7
ATOM      7  C   UNL     1      15.056  14.997  44.656  1.00  0.00     0.000 C 
BRANCH   7   8
ATOM      8  C   UNL     1      13.859  15.941  44.489  1.00  0.00     0.000 C 
BRANCH   8   9
ATOM      9  C   UNL     1      13.386  15.977  43.031  1.00  0.00     0.000 C 
BRANCH   9  10
ATOM     10  C   UNL     1      14.284  15.105  42.140  1.00  0.00     0.000 C 
BRANCH  10  11
ATOM     11  C   UNL     1      14.710  15.822  40.848  1.00  0.00     0.000 C 
BRANCH  11  12
ATOM     12  C   UNL     1      14.259  17.293  40.812  1.00  0.00     0.006 C 
BRANCH  12  13
ATOM     13  C   UNL     1      15.442  18.263  40.922  1.00  0.00     0.053 C 
BRANCH  13  14
ATOM     14  C   UNL     1      15.016  19.686  40.726  1.00  0.00     0.041 C 
ATOM     15  O   UNL     1      15.389  20.326  39.708  1.00  0.00    -0.550 OA
ATOM     16  O   UNL     1      14.224  20.311  41.681  1.00  0.00    -0.550 OA
ENDBRANCH  13  14
ENDBRANCH  12  13
ENDBRANCH  11  12
ENDBRANCH  10  11
ENDBRANCH   9  10
ENDBRANCH   8   9
ENDBRANCH   7   8
ENDBRANCH   6   7
ENDBRANCH   5   6
ENDBRANCH   4   5
ENDBRANCH   3   4
ENDBRANCH   2   3
ENDBRANCH   1   2
BRANCH   1  17
ATOM     17  C   UNL     1      16.841  17.845  46.535  1.00  0.00     0.000 C 
BRANCH  17  18
ATOM     18  C   UNL     1      17.030  17.960  45.014  1.00  0.00     0.000 C 
BRANCH  18  19
ATOM     19  C   UNL     1      16.030  18.933  44.363  1.00  0.00     0.000 C 
BRANCH  19  20
ATOM     20  C   UNL     1      16.650  20.310  44.074  1.00  0.00     0.000 C 
BRANCH  20  21
ATOM     21  C   UNL     1      18.079  20.210  43.516  1.00  0.00     0.000 C 
BRANCH  21  22
ATOM     22  C   UNL     1      19.059  21.027  44.373  1.00  0.00    -0.000 C 
BRANCH  22  23
ATOM     23  C   UNL     1      18.548  21.260  45.804  1.00  0.00    -0.000 C 
BRANCH  23  24
ATOM     24  C   UNL     1      19.361  20.484  46.855  1.00  0.00    -0.000 C 
BRANCH  24  25
ATOM     25  C   UNL     1      20.352  19.485  46.229  1.00  0.00    -0.000 C 
BRANCH  25  26
ATOM     26  C   UNL     1      21.333  18.829  47.217  1.00  0.00    -0.000 C 
BRANCH  26  27
ATOM     27  C   UNL     1      20.710  18.561  48.595  1.00  0.00    -0.000 C 
BRANCH  27  28
ATOM     28  C   UNL     1      21.051  17.146  49.085  1.00  0.00    -0.000 C 
BRANCH  28  29
ATOM     29  C   UNL     1      21.845  16.336  48.049  1.00  0.00    -0.003 C 
ATOM     30  C   UNL     1      23.209  15.889  48.569  1.00  0.00     0.004 C 
ENDBRANCH  28  29
ENDBRANCH  27  28
ENDBRANCH  26  27
ENDBRANCH  25  26
ENDBRANCH  24  25
ENDBRANCH  23  24
ENDBRANCH  22  23
ENDBRANCH  21  22
ENDBRANCH  20  21
ENDBRANCH  19  20
ENDBRANCH  18  19
ENDBRANCH  17  18
ENDBRANCH   1  17
TORSDOF 26
ENDMDL
