MODEL 1
REMARK VINA RESULT:    -4.484      0.000      0.000
REMARK INTER + INTRA:         -10.151
REMARK INTER:                  -8.154
REMARK INTRA:                  -1.997
REMARK UNBOUND:                -1.997
REMARK SMILES CCCCCCCCCCCCCCCC(=O)[O-]
REMARK SMILES IDX 9 1 10 2 11 3 12 4 13 5 14 6 15 7 16 8 17 9 18 10 8 11 7 12
REMARK SMILES IDX 6 13 5 14 4 15 3 16 2 17 1 18
REMARK H PARENT
REMARK Flexibility Score: inf
ROOT
ATOM      1  C   UNL     1      -3.354  17.759  48.020  1.00  0.00     0.000 C 
ENDROOT
BRANCH   1   2
ATOM      2  C   UNL     1      -3.380  19.265  48.309  1.00  0.00     0.000 C 
BRANCH   2   3
ATOM      3  C   UNL     1      -2.316  19.642  49.350  1.00  0.00     0.000 C 
BRANCH   3   4
ATOM      4  C   UNL     1      -2.234  21.159  49.591  1.00  0.00     0.000 C 
BRANCH   4   5
ATOM      5  C   UNL     1      -0.893  21.589  50.202  1.00  0.00     0.000 C 
BRANCH   5   6
ATOM      6  C   UNL     1      -1.091  22.723  51.216  1.00  0.00     0.006 C 
BRANCH   6   7
ATOM      7  C   UNL     1      -2.570  22.886  51.578  1.00  0.00     0.053 C 
BRANCH   7   8
ATOM      8  C   UNL     1      -2.866  24.305  51.949  1.00  0.00     0.041 C 
ATOM      9  O   UNL     1      -3.459  25.062  51.135  1.00  0.00    -0.550 OA
ATOM     10  O   UNL     1      -2.442  24.806  53.173  1.00  0.00    -0.550 OA
ENDBRANCH   7   8
ENDBRANCH   6   7
ENDBRANCH   5   6
ENDBRANCH   4   5
ENDBRANCH   3   4
ENDBRANCH   2   3
ENDBRANCH   1   2
BRANCH   1  11
ATOM     11  C   UNL     1      -2.362  17.038  48.946  1.00  0.00     0.000 C 
BRANCH  11  12
ATOM     12  C   UNL     1      -1.364  16.157  48.176  1.00  0.00    -0.000 C 
BRANCH  12  13
ATOM     13  C   UNL     1      -1.234  16.565  46.699  1.00  0.00    -0.000 C 
BRANCH  13  14
ATOM     14  C   UNL     1       0.109  17.249  46.384  1.00  0.00    -0.000 C 
BRANCH  14  15
ATOM     15  C   UNL     1       0.618  18.226  47.464  1.00  0.00    -0.000 C 
BRANCH  15  16
ATOM     16  C   UNL     1       0.611  19.711  47.058  1.00  0.00    -0.000 C 
BRANCH  16  17
ATOM     17  C   UNL     1      -0.607  20.088  46.202  1.00  0.00    -0.003 C 
ATOM     18  C   UNL     1      -0.698  21.599  46.011  1.00  0.00     0.004 C 
ENDBRANCH  16  17
ENDBRANCH  15  16
ENDBRANCH  14  15
ENDBRANCH  13  14
ENDBRANCH  12  13
ENDBRANCH  11  12
ENDBRANCH   1  11
TORSDOF 14
ENDMDL
MODEL 2
REMARK VINA RESULT:    -4.198      3.021      6.686
REMARK INTER + INTRA:          -9.631
REMARK INTER:                  -8.309
REMARK INTRA:                  -1.322
REMARK UNBOUND:                -1.997
REMARK SMILES CCCCCCCCCCCCCCCC(=O)[O-]
REMARK SMILES IDX 9 1 10 2 11 3 12 4 13 5 14 6 15 7 16 8 17 9 18 10 8 11 7 12
REMARK SMILES IDX 6 13 5 14 4 15 3 16 2 17 1 18
REMARK H PARENT
REMARK Flexibility Score: inf
ROOT
ATOM      1  C   UNL     1      -3.286  19.310  48.212  1.00  0.00     0.000 C 
ENDROOT
BRANCH   1   2
ATOM      2  C   UNL     1      -3.397  17.781  48.225  1.00  0.00     0.000 C 
BRANCH   2   3
ATOM      3  C   UNL     1      -2.317  17.158  49.121  1.00  0.00     0.000 C 
BRANCH   3   4
ATOM      4  C   UNL     1      -1.337  16.269  48.338  1.00  0.00     0.000 C 
BRANCH   4   5
ATOM      5  C   UNL     1      -1.522  16.382  46.817  1.00  0.00     0.000 C 
BRANCH   5   6
ATOM      6  C   UNL     1      -0.285  17.006  46.159  1.00  0.00     0.006 C 
BRANCH   6   7
ATOM      7  C   UNL     1      -0.256  18.523  46.370  1.00  0.00     0.053 C 
BRANCH   7   8
ATOM      8  C   UNL     1       0.925  18.914  47.200  1.00  0.00     0.041 C 
ATOM      9  O   UNL     1       1.709  18.033  47.643  1.00  0.00    -0.550 OA
ATOM     10  O   UNL     1       1.133  20.248  47.528  1.00  0.00    -0.550 OA
ENDBRANCH   7   8
ENDBRANCH   6   7
ENDBRANCH   5   6
ENDBRANCH   4   5
ENDBRANCH   3   4
ENDBRANCH   2   3
ENDBRANCH   1   2
BRANCH   1  11
ATOM     11  C   UNL     1      -2.309  19.799  49.294  1.00  0.00     0.000 C 
BRANCH  11  12
ATOM     12  C   UNL     1      -1.931  21.280  49.127  1.00  0.00    -0.000 C 
BRANCH  12  13
ATOM     13  C   UNL     1      -2.443  22.154  50.284  1.00  0.00    -0.000 C 
BRANCH  13  14
ATOM     14  C   UNL     1      -1.344  23.047  50.890  1.00  0.00    -0.000 C 
BRANCH  14  15
ATOM     15  C   UNL     1      -1.290  23.068  52.432  1.00  0.00    -0.000 C 
BRANCH  15  16
ATOM     16  C   UNL     1      -1.005  24.445  53.057  1.00  0.00    -0.000 C 
BRANCH  16  17
ATOM     17  C   UNL     1      -2.280  25.165  53.518  1.00  0.00    -0.003 C 
ATOM     18  C   UNL     1      -2.767  26.152  52.460  1.00  0.00     0.004 C 
ENDBRANCH  16  17
ENDBRANCH  15  16
ENDBRANCH  14  15
ENDBRANCH  13  14
ENDBRANCH  12  13
ENDBRANCH  11  12
ENDBRANCH   1  11
TORSDOF 14
ENDMDL
MODEL 3
REMARK VINA RESULT:    -4.172      1.786      4.147
REMARK INTER + INTRA:          -9.583
REMARK INTER:                  -8.324
REMARK INTRA:                  -1.259
REMARK UNBOUND:                -1.997
REMARK SMILES CCCCCCCCCCCCCCCC(=O)[O-]
REMARK SMILES IDX 9 1 10 2 11 3 12 4 13 5 14 6 15 7 16 8 17 9 18 10 8 11 7 12
REMARK SMILES IDX 6 13 5 14 4 15 3 16 2 17 1 18
REMARK H PARENT
REMARK Flexibility Score: inf
ROOT
ATOM      1  C   UNL     1      -2.618  22.149  50.376  1.00  0.00     0.000 C 
ENDROOT
BRANCH   1   2
ATOM      2  C   UNL     1      -2.622  22.848  51.741  1.00  0.00     0.000 C 
BRANCH   2   3
ATOM      3  C   UNL     1      -1.190  23.071  52.248  1.00  0.00     0.000 C 
BRANCH   3   4
ATOM      4  C   UNL     1      -1.007  24.441  52.923  1.00  0.00     0.000 C 
BRANCH   4   5
ATOM      5  C   UNL     1      -2.336  25.051  53.393  1.00  0.00     0.000 C 
BRANCH   5   6
ATOM      6  C   UNL     1      -2.549  26.440  52.780  1.00  0.00     0.006 C 
BRANCH   6   7
ATOM      7  C   UNL     1      -2.063  26.482  51.327  1.00  0.00     0.053 C 
BRANCH   7   8
ATOM      8  C   UNL     1      -3.190  26.187  50.389  1.00  0.00     0.041 C 
ATOM      9  O   UNL     1      -4.356  26.014  50.833  1.00  0.00    -0.550 OA
ATOM     10  O   UNL     1      -2.945  26.052  49.029  1.00  0.00    -0.550 OA
ENDBRANCH   7   8
ENDBRANCH   6   7
ENDBRANCH   5   6
ENDBRANCH   4   5
ENDBRANCH   3   4
ENDBRANCH   2   3
ENDBRANCH   1   2
BRANCH   1  11
ATOM     11  C   UNL     1      -1.263  21.475  50.107  1.00  0.00     0.000 C 
BRANCH  11  12
ATOM     12  C   UNL     1      -1.408  20.091  49.454  1.00  0.00    -0.000 C 
BRANCH  12  13
ATOM     13  C   UNL     1      -2.731  19.935  48.687  1.00  0.00    -0.000 C 
BRANCH  13  14
ATOM     14  C   UNL     1      -3.149  18.464  48.508  1.00  0.00    -0.000 C 
BRANCH  14  15
ATOM     15  C   UNL     1      -2.229  17.431  49.192  1.00  0.00    -0.000 C 
BRANCH  15  16
ATOM     16  C   UNL     1      -1.310  16.644  48.242  1.00  0.00    -0.000 C 
BRANCH  16  17
ATOM     17  C   UNL     1      -1.795  16.671  46.785  1.00  0.00    -0.003 C 
ATOM     18  C   UNL     1      -0.760  17.323  45.873  1.00  0.00     0.004 C 
ENDBRANCH  16  17
ENDBRANCH  15  16
ENDBRANCH  14  15
ENDBRANCH  13  14
ENDBRANCH  12  13
ENDBRANCH  11  12
ENDBRANCH   1  11
TORSDOF 14
ENDMDL
MODEL 4
REMARK VINA RESULT:    -4.132      1.604      3.091
REMARK INTER + INTRA:          -9.511
REMARK INTER:                  -8.179
REMARK INTRA:                  -1.332
REMARK UNBOUND:                -1.997
REMARK SMILES CCCCCCCCCCCCCCCC(=O)[O-]
REMARK SMILES IDX 9 1 10 2 11 3 12 4 13 5 14 6 15 7 16 8 17 9 18 10 8 11 7 12
REMARK SMILES IDX 6 13 5 14 4 15 3 16 2 17 1 18
REMARK H PARENT
REMARK Flexibility Score: inf
ROOT
ATOM      1  C   UNL     1      -1.854  20.435  49.563  1.00  0.00     0.000 C 
ENDROOT
BRANCH   1   2
ATOM      2  C   UNL     1      -2.041  21.956  49.543  1.00  0.00     0.000 C 
BRANCH   2   3
ATOM      3  C   UNL     1      -2.294  22.498  50.958  1.00  0.00     0.000 C 
BRANCH   3   4
ATOM      4  C   UNL     1      -1.003  22.632  51.781  1.00  0.00     0.000 C 
BRANCH   4   5
ATOM      5  C   UNL     1      -0.999  23.882  52.675  1.00  0.00     0.000 C 
BRANCH   5   6
ATOM      6  C   UNL     1      -2.391  24.524  52.726  1.00  0.00     0.006 C 
BRANCH   6   7
ATOM      7  C   UNL     1      -2.423  25.689  53.720  1.00  0.00     0.053 C 
BRANCH   7   8
ATOM      8  C   UNL     1      -1.834  26.919  53.104  1.00  0.00     0.041 C 
ATOM      9  O   UNL     1      -2.301  27.375  52.027  1.00  0.00    -0.550 OA
ATOM     10  O   UNL     1      -0.737  27.534  53.694  1.00  0.00    -0.550 OA
ENDBRANCH   7   8
ENDBRANCH   6   7
ENDBRANCH   5   6
ENDBRANCH   4   5
ENDBRANCH   3   4
ENDBRANCH   2   3
ENDBRANCH   1   2
BRANCH   1  11
ATOM     11  C   UNL     1      -2.817  19.750  48.580  1.00  0.00     0.000 C 
BRANCH  11  12
ATOM     12  C   UNL     1      -2.958  18.241  48.840  1.00  0.00    -0.000 C 
BRANCH  12  13
ATOM     13  C   UNL     1      -1.874  17.702  49.787  1.00  0.00    -0.000 C 
BRANCH  13  14
ATOM     14  C   UNL     1      -1.257  16.378  49.297  1.00  0.00    -0.000 C 
BRANCH  14  15
ATOM     15  C   UNL     1      -1.443  16.083  47.794  1.00  0.00    -0.000 C 
BRANCH  15  16
ATOM     16  C   UNL     1      -0.240  16.445  46.904  1.00  0.00    -0.000 C 
BRANCH  16  17
ATOM     17  C   UNL     1      -0.462  17.733  46.099  1.00  0.00    -0.003 C 
ATOM     18  C   UNL     1       0.246  18.918  46.750  1.00  0.00     0.004 C 
ENDBRANCH  16  17
ENDBRANCH  15  16
ENDBRANCH  14  15
ENDBRANCH  13  14
ENDBRANCH  12  13
ENDBRANCH  11  12
ENDBRANCH   1  11
TORSDOF 14
ENDMDL
MODEL 5
REMARK VINA RESULT:    -4.105      1.712      3.414
REMARK INTER + INTRA:          -9.461
REMARK INTER:                  -8.215
REMARK INTRA:                  -1.246
REMARK UNBOUND:                -1.997
REMARK SMILES CCCCCCCCCCCCCCCC(=O)[O-]
REMARK SMILES IDX 9 1 10 2 11 3 12 4 13 5 14 6 15 7 16 8 17 9 18 10 8 11 7 12
REMARK SMILES IDX 6 13 5 14 4 15 3 16 2 17 1 18
REMARK H PARENT
REMARK Flexibility Score: inf
ROOT
ATOM      1  C   UNL     1      -1.196  20.788  49.629  1.00  0.00     0.000 C 
ENDROOT
BRANCH   1   2
ATOM      2  C   UNL     1      -2.351  21.746  49.948  1.00  0.00     0.000 C 
BRANCH   2   3
ATOM      3  C   UNL     1      -2.122  22.456  51.290  1.00  0.00     0.000 C 
BRANCH   3   4
ATOM      4  C   UNL     1      -3.226  23.474  51.617  1.00  0.00     0.000 C 
BRANCH   4   5
ATOM      5  C   UNL     1      -2.703  24.677  52.417  1.00  0.00     0.000 C 
BRANCH   5   6
ATOM      6  C   UNL     1      -3.179  25.996  51.797  1.00  0.00     0.006 C 
BRANCH   6   7
ATOM      7  C   UNL     1      -3.284  25.882  50.273  1.00  0.00     0.053 C 
BRANCH   7   8
ATOM      8  C   UNL     1      -4.318  26.826  49.747  1.00  0.00     0.041 C 
ATOM      9  O   UNL     1      -5.542  26.548  49.850  1.00  0.00    -0.550 OA
ATOM     10  O   UNL     1      -3.929  27.991  49.097  1.00  0.00    -0.550 OA
ENDBRANCH   7   8
ENDBRANCH   6   7
ENDBRANCH   5   6
ENDBRANCH   4   5
ENDBRANCH   3   4
ENDBRANCH   2   3
ENDBRANCH   1   2
BRANCH   1  11
ATOM     11  C   UNL     1      -1.705  19.346  49.476  1.00  0.00     0.000 C 
BRANCH  11  12
ATOM     12  C   UNL     1      -2.953  19.248  48.582  1.00  0.00    -0.000 C 
BRANCH  12  13
ATOM     13  C   UNL     1      -3.254  17.805  48.145  1.00  0.00    -0.000 C 
BRANCH  13  14
ATOM     14  C   UNL     1      -2.030  16.878  48.262  1.00  0.00    -0.000 C 
BRANCH  14  15
ATOM     15  C   UNL     1      -1.416  16.428  46.920  1.00  0.00    -0.000 C 
BRANCH  15  16
ATOM     16  C   UNL     1      -0.467  17.445  46.261  1.00  0.00    -0.000 C 
BRANCH  16  17
ATOM     17  C   UNL     1       0.744  17.787  47.141  1.00  0.00    -0.003 C 
ATOM     18  C   UNL     1       1.056  19.280  47.091  1.00  0.00     0.004 C 
ENDBRANCH  16  17
ENDBRANCH  15  16
ENDBRANCH  14  15
ENDBRANCH  13  14
ENDBRANCH  12  13
ENDBRANCH  11  12
ENDBRANCH   1  11
TORSDOF 14
ENDMDL
MODEL 6
REMARK VINA RESULT:    -4.062      1.334      2.051
REMARK INTER + INTRA:          -9.382
REMARK INTER:                  -7.760
REMARK INTRA:                  -1.622
REMARK UNBOUND:                -1.997
REMARK SMILES CCCCCCCCCCCCCCCC(=O)[O-]
REMARK SMILES IDX 9 1 10 2 11 3 12 4 13 5 14 6 15 7 16 8 17 9 18 10 8 11 7 12
REMARK SMILES IDX 6 13 5 14 4 15 3 16 2 17 1 18
REMARK H PARENT
REMARK Flexibility Score: inf
ROOT
ATOM      1  C   UNL     1      -3.275  17.763  48.140  1.00  0.00     0.000 C 
ENDROOT
BRANCH   1   2
ATOM      2  C   UNL     1      -3.226  19.295  48.159  1.00  0.00     0.000 C 
BRANCH   2   3
ATOM      3  C   UNL     1      -2.357  19.803  49.319  1.00  0.00     0.000 C 
BRANCH   3   4
ATOM      4  C   UNL     1      -1.417  20.944  48.899  1.00  0.00     0.000 C 
BRANCH   4   5
ATOM      5  C   UNL     1      -1.187  21.965  50.023  1.00  0.00     0.000 C 
BRANCH   5   6
ATOM      6  C   UNL     1      -2.502  22.642  50.426  1.00  0.00     0.006 C 
BRANCH   6   7
ATOM      7  C   UNL     1      -2.526  22.949  51.927  1.00  0.00     0.053 C 
BRANCH   7   8
ATOM      8  C   UNL     1      -1.370  23.821  52.302  1.00  0.00     0.041 C 
ATOM      9  O   UNL     1      -1.298  25.000  51.865  1.00  0.00    -0.550 OA
ATOM     10  O   UNL     1      -0.347  23.317  53.095  1.00  0.00    -0.550 OA
ENDBRANCH   7   8
ENDBRANCH   6   7
ENDBRANCH   5   6
ENDBRANCH   4   5
ENDBRANCH   3   4
ENDBRANCH   2   3
ENDBRANCH   1   2
BRANCH   1  11
ATOM     11  C   UNL     1      -2.296  17.169  49.164  1.00  0.00     0.000 C 
BRANCH  11  12
ATOM     12  C   UNL     1      -1.256  16.237  48.519  1.00  0.00    -0.000 C 
BRANCH  12  13
ATOM     13  C   UNL     1      -1.311  16.264  46.983  1.00  0.00    -0.000 C 
BRANCH  13  14
ATOM     14  C   UNL     1      -0.077  16.936  46.352  1.00  0.00    -0.000 C 
BRANCH  14  15
ATOM     15  C   UNL     1       0.182  18.389  46.800  1.00  0.00    -0.000 C 
BRANCH  15  16
ATOM     16  C   UNL     1       1.570  18.647  47.413  1.00  0.00    -0.000 C 
BRANCH  16  17
ATOM     17  C   UNL     1       2.453  17.392  47.436  1.00  0.00    -0.003 C 
ATOM     18  C   UNL     1       3.620  17.523  46.461  1.00  0.00     0.004 C 
ENDBRANCH  16  17
ENDBRANCH  15  16
ENDBRANCH  14  15
ENDBRANCH  13  14
ENDBRANCH  12  13
ENDBRANCH  11  12
ENDBRANCH   1  11
TORSDOF 14
ENDMDL
MODEL 7
REMARK VINA RESULT:    -4.024      1.464      3.267
REMARK INTER + INTRA:          -9.314
REMARK INTER:                  -7.572
REMARK INTRA:                  -1.742
REMARK UNBOUND:                -1.997
REMARK SMILES CCCCCCCCCCCCCCCC(=O)[O-]
REMARK SMILES IDX 9 1 10 2 11 3 12 4 13 5 14 6 15 7 16 8 17 9 18 10 8 11 7 12
REMARK SMILES IDX 6 13 5 14 4 15 3 16 2 17 1 18
REMARK H PARENT
REMARK Flexibility Score: inf
ROOT
ATOM      1  C   UNL     1      -1.625  21.099  47.143  1.00  0.00     0.000 C 
ENDROOT
BRANCH   1   2
ATOM      2  C   UNL     1      -1.105  21.230  48.580  1.00  0.00     0.000 C 
BRANCH   2   3
ATOM      3  C   UNL     1      -2.267  21.299  49.581  1.00  0.00     0.000 C 
BRANCH   3   4
ATOM      4  C   UNL     1      -1.937  22.156  50.814  1.00  0.00     0.000 C 
BRANCH   4   5
ATOM      5  C   UNL     1      -3.083  23.104  51.200  1.00  0.00     0.000 C 
BRANCH   5   6
ATOM      6  C   UNL     1      -2.634  24.097  52.278  1.00  0.00     0.006 C 
BRANCH   6   7
ATOM      7  C   UNL     1      -1.308  24.763  51.895  1.00  0.00     0.053 C 
BRANCH   7   8
ATOM      8  C   UNL     1      -0.353  24.731  53.047  1.00  0.00     0.041 C 
ATOM      9  O   UNL     1      -0.092  23.642  53.622  1.00  0.00    -0.550 OA
ATOM     10  O   UNL     1       0.209  25.911  53.516  1.00  0.00    -0.550 OA
ENDBRANCH   7   8
ENDBRANCH   6   7
ENDBRANCH   5   6
ENDBRANCH   4   5
ENDBRANCH   3   4
ENDBRANCH   2   3
ENDBRANCH   1   2
BRANCH   1  11
ATOM     11  C   UNL     1      -0.743  20.143  46.325  1.00  0.00     0.000 C 
BRANCH  11  12
ATOM     12  C   UNL     1       0.437  19.583  47.136  1.00  0.00    -0.000 C 
BRANCH  12  13
ATOM     13  C   UNL     1       0.545  18.052  47.041  1.00  0.00    -0.000 C 
BRANCH  13  14
ATOM     14  C   UNL     1      -0.551  17.430  46.154  1.00  0.00    -0.000 C 
BRANCH  14  15
ATOM     15  C   UNL     1      -1.623  16.617  46.908  1.00  0.00    -0.000 C 
BRANCH  15  16
ATOM     16  C   UNL     1      -1.489  16.621  48.442  1.00  0.00    -0.000 C 
BRANCH  16  17
ATOM     17  C   UNL     1      -2.482  17.573  49.124  1.00  0.00    -0.003 C 
ATOM     18  C   UNL     1      -3.536  18.068  48.137  1.00  0.00     0.004 C 
ENDBRANCH  16  17
ENDBRANCH  15  16
ENDBRANCH  14  15
ENDBRANCH  13  14
ENDBRANCH  12  13
ENDBRANCH  11  12
ENDBRANCH   1  11
TORSDOF 14
ENDMDL
MODEL 8
REMARK VINA RESULT:    -3.997      1.411      3.466
REMARK INTER + INTRA:          -9.265
REMARK INTER:                  -7.701
REMARK INTRA:                  -1.564
REMARK UNBOUND:                -1.997
REMARK SMILES CCCCCCCCCCCCCCCC(=O)[O-]
REMARK SMILES IDX 9 1 10 2 11 3 12 4 13 5 14 6 15 7 16 8 17 9 18 10 8 11 7 12
REMARK SMILES IDX 6 13 5 14 4 15 3 16 2 17 1 18
REMARK H PARENT
REMARK Flexibility Score: inf
ROOT
ATOM      1  C   UNL     1       0.396  21.211  48.499  1.00  0.00     0.000 C 
ENDROOT
BRANCH   1   2
ATOM      2  C   UNL     1       0.302  21.492  50.003  1.00  0.00     0.000 C 
BRANCH   2   3
ATOM      3  C   UNL     1      -0.393  22.835  50.269  1.00  0.00     0.000 C 
BRANCH   3   4
ATOM      4  C   UNL     1      -1.916  22.764  50.071  1.00  0.00     0.000 C 
BRANCH   4   5
ATOM      5  C   UNL     1      -2.692  22.927  51.386  1.00  0.00     0.000 C 
BRANCH   5   6
ATOM      6  C   UNL     1      -1.898  23.771  52.390  1.00  0.00     0.006 C 
BRANCH   6   7
ATOM      7  C   UNL     1      -2.653  25.055  52.749  1.00  0.00     0.053 C 
BRANCH   7   8
ATOM      8  C   UNL     1      -3.004  25.820  51.512  1.00  0.00     0.041 C 
ATOM      9  O   UNL     1      -2.114  26.452  50.884  1.00  0.00    -0.550 OA
ATOM     10  O   UNL     1      -4.323  25.876  51.081  1.00  0.00    -0.550 OA
ENDBRANCH   7   8
ENDBRANCH   6   7
ENDBRANCH   5   6
ENDBRANCH   4   5
ENDBRANCH   3   4
ENDBRANCH   2   3
ENDBRANCH   1   2
BRANCH   1  11
ATOM     11  C   UNL     1      -0.246  19.858  48.152  1.00  0.00     0.000 C 
BRANCH  11  12
ATOM     12  C   UNL     1      -1.717  19.992  47.724  1.00  0.00    -0.000 C 
BRANCH  12  13
ATOM     13  C   UNL     1      -2.688  19.397  48.757  1.00  0.00    -0.000 C 
BRANCH  13  14
ATOM     14  C   UNL     1      -3.099  17.949  48.426  1.00  0.00    -0.000 C 
BRANCH  14  15
ATOM     15  C   UNL     1      -2.127  16.860  48.926  1.00  0.00    -0.000 C 
BRANCH  15  16
ATOM     16  C   UNL     1      -1.262  16.206  47.833  1.00  0.00    -0.000 C 
BRANCH  16  17
ATOM     17  C   UNL     1      -1.754  16.523  46.414  1.00  0.00    -0.003 C 
ATOM     18  C   UNL     1      -0.628  17.092  45.556  1.00  0.00     0.004 C 
ENDBRANCH  16  17
ENDBRANCH  15  16
ENDBRANCH  14  15
ENDBRANCH  13  14
ENDBRANCH  12  13
ENDBRANCH  11  12
ENDBRANCH   1  11
TORSDOF 14
ENDMDL
MODEL 9
REMARK VINA RESULT:    -3.981      5.822      8.040
REMARK INTER + INTRA:          -9.236
REMARK INTER:                  -7.849
REMARK INTRA:                  -1.387
REMARK UNBOUND:                -1.997
REMARK SMILES CCCCCCCCCCCCCCCC(=O)[O-]
REMARK SMILES IDX 9 1 10 2 11 3 12 4 13 5 14 6 15 7 16 8 17 9 18 10 8 11 7 12
REMARK SMILES IDX 6 13 5 14 4 15 3 16 2 17 1 18
REMARK H PARENT
REMARK Flexibility Score: inf
ROOT
ATOM      1  C   UNL     1       0.713  16.881  46.657  1.00  0.00     0.000 C 
ENDROOT
BRANCH   1   2
ATOM      2  C   UNL     1       1.708  16.045  45.843  1.00  0.00     0.000 C 
BRANCH   2   3
ATOM      3  C   UNL     1       3.108  16.091  46.470  1.00  0.00     0.000 C 
BRANCH   3   4
ATOM      4  C   UNL     1       3.276  17.256  47.459  1.00  0.00     0.000 C 
BRANCH   4   5
ATOM      5  C   UNL     1       4.316  16.961  48.550  1.00  0.00     0.000 C 
BRANCH   5   6
ATOM      6  C   UNL     1       5.717  17.398  48.106  1.00  0.00     0.006 C 
BRANCH   6   7
ATOM      7  C   UNL     1       6.604  16.184  47.810  1.00  0.00     0.053 C 
BRANCH   7   8
ATOM      8  C   UNL     1       7.224  16.307  46.454  1.00  0.00     0.041 C 
ATOM      9  O   UNL     1       6.500  16.313  45.423  1.00  0.00    -0.550 OA
ATOM     10  O   UNL     1       8.606  16.364  46.324  1.00  0.00    -0.550 OA
ENDBRANCH   7   8
ENDBRANCH   6   7
ENDBRANCH   5   6
ENDBRANCH   4   5
ENDBRANCH   3   4
ENDBRANCH   2   3
ENDBRANCH   1   2
BRANCH   1  11
ATOM     11  C   UNL     1      -0.576  17.132  45.858  1.00  0.00     0.000 C 
BRANCH  11  12
ATOM     12  C   UNL     1      -1.834  16.638  46.591  1.00  0.00    -0.000 C 
BRANCH  12  13
ATOM     13  C   UNL     1      -1.661  16.628  48.119  1.00  0.00    -0.000 C 
BRANCH  13  14
ATOM     14  C   UNL     1      -2.749  17.438  48.849  1.00  0.00    -0.000 C 
BRANCH  14  15
ATOM     15  C   UNL     1      -2.957  18.876  48.331  1.00  0.00    -0.000 C 
BRANCH  15  16
ATOM     16  C   UNL     1      -2.500  19.989  49.292  1.00  0.00    -0.000 C 
BRANCH  16  17
ATOM     17  C   UNL     1      -0.974  20.057  49.443  1.00  0.00    -0.003 C 
ATOM     18  C   UNL     1      -0.293  20.196  48.084  1.00  0.00     0.004 C 
ENDBRANCH  16  17
ENDBRANCH  15  16
ENDBRANCH  14  15
ENDBRANCH  13  14
ENDBRANCH  12  13
ENDBRANCH  11  12
ENDBRANCH   1  11
TORSDOF 14
ENDMDL
