MODEL 1
REMARK VINA RESULT:    -4.832      0.000      0.000
REMARK INTER + INTRA:         -12.784
REMARK INTER:                 -10.482
REMARK INTRA:                  -2.303
REMARK UNBOUND:                -2.303
REMARK SMILES CCCCCCCCCCCCCCCCCCCCCC(=O)[O-]
REMARK SMILES IDX 12 1 11 2 10 3 9 4 8 5 7 6 6 7 5 8 4 9 3 10 2 11 1 12 13 13
REMARK SMILES IDX 14 14 15 15 16 16 17 17 18 18 19 19 20 20 21 21 22 22 23 23
REMARK SMILES IDX 24 24
REMARK H PARENT
REMARK Flexibility Score: inf
ROOT
ATOM      1  C   UNL     1       1.533  44.300   8.891  1.00  0.00     0.000 C 
ENDROOT
BRANCH   1   2
ATOM      2  C   UNL     1       0.523  44.372   7.732  1.00  0.00     0.000 C 
BRANCH   2   3
ATOM      3  C   UNL     1      -0.495  45.525   7.862  1.00  0.00     0.000 C 
BRANCH   3   4
ATOM      4  C   UNL     1      -0.072  46.558   8.922  1.00  0.00    -0.000 C 
BRANCH   4   5
ATOM      5  C   UNL     1      -0.193  48.006   8.422  1.00  0.00    -0.000 C 
BRANCH   5   6
ATOM      6  C   UNL     1       1.162  48.610   8.019  1.00  0.00    -0.000 C 
BRANCH   6   7
ATOM      7  C   UNL     1       2.320  47.827   8.649  1.00  0.00    -0.000 C 
BRANCH   7   8
ATOM      8  C   UNL     1       3.522  47.755   7.695  1.00  0.00    -0.000 C 
BRANCH   8   9
ATOM      9  C   UNL     1       4.776  48.453   8.253  1.00  0.00    -0.000 C 
BRANCH   9  10
ATOM     10  C   UNL     1       5.725  47.542   9.051  1.00  0.00    -0.000 C 
BRANCH  10  11
ATOM     11  C   UNL     1       7.042  48.235   9.432  1.00  0.00    -0.003 C 
ATOM     12  C   UNL     1       6.806  49.693   9.813  1.00  0.00     0.004 C 
ENDBRANCH  10  11
ENDBRANCH   9  10
ENDBRANCH   8   9
ENDBRANCH   7   8
ENDBRANCH   6   7
ENDBRANCH   5   6
ENDBRANCH   4   5
ENDBRANCH   3   4
ENDBRANCH   2   3
ENDBRANCH   1   2
BRANCH   1  13
ATOM     13  C   UNL     1       2.445  43.065   8.812  1.00  0.00     0.000 C 
BRANCH  13  14
ATOM     14  C   UNL     1       3.854  43.334   9.367  1.00  0.00     0.000 C 
BRANCH  14  15
ATOM     15  C   UNL     1       4.066  44.805   9.757  1.00  0.00     0.000 C 
BRANCH  15  16
ATOM     16  C   UNL     1       4.464  44.928  11.237  1.00  0.00     0.000 C 
BRANCH  16  17
ATOM     17  C   UNL     1       3.950  43.756  12.088  1.00  0.00     0.000 C 
BRANCH  17  18
ATOM     18  C   UNL     1       2.446  43.863  12.394  1.00  0.00     0.000 C 
BRANCH  18  19
ATOM     19  C   UNL     1       1.730  42.500  12.359  1.00  0.00     0.000 C 
BRANCH  19  20
ATOM     20  C   UNL     1       2.644  41.291  12.090  1.00  0.00     0.006 C 
BRANCH  20  21
ATOM     21  C   UNL     1       2.225  40.039  12.871  1.00  0.00     0.053 C 
BRANCH  21  22
ATOM     22  C   UNL     1       3.285  38.988  12.782  1.00  0.00     0.041 C 
ATOM     23  O   UNL     1       4.449  39.224  13.201  1.00  0.00    -0.550 OA
ATOM     24  O   UNL     1       2.977  37.729  12.281  1.00  0.00    -0.550 OA
ENDBRANCH  21  22
ENDBRANCH  20  21
ENDBRANCH  19  20
ENDBRANCH  18  19
ENDBRANCH  17  18
ENDBRANCH  16  17
ENDBRANCH  15  16
ENDBRANCH  14  15
ENDBRANCH  13  14
ENDBRANCH   1  13
TORSDOF 20
ENDMDL
MODEL 2
REMARK VINA RESULT:    -4.802      3.171      7.779
REMARK INTER + INTRA:         -12.718
REMARK INTER:                 -10.551
REMARK INTRA:                  -2.167
REMARK UNBOUND:                -2.303
REMARK SMILES CCCCCCCCCCCCCCCCCCCCCC(=O)[O-]
REMARK SMILES IDX 12 1 11 2 10 3 9 4 8 5 7 6 6 7 5 8 4 9 3 10 2 11 1 12 13 13
REMARK SMILES IDX 14 14 15 15 16 16 17 17 18 18 19 19 20 20 21 21 22 22 23 23
REMARK SMILES IDX 24 24
REMARK H PARENT
REMARK Flexibility Score: inf
ROOT
ATOM      1  C   UNL     1       2.199  43.243   8.767  1.00  0.00     0.000 C 
ENDROOT
BRANCH   1   2
ATOM      2  C   UNL     1       3.671  43.567   9.077  1.00  0.00     0.000 C 
BRANCH   2   3
ATOM      3  C   UNL     1       3.872  44.904   9.820  1.00  0.00     0.000 C 
BRANCH   3   4
ATOM      4  C   UNL     1       4.693  44.734  11.112  1.00  0.00    -0.000 C 
BRANCH   4   5
ATOM      5  C   UNL     1       4.135  43.636  12.030  1.00  0.00    -0.000 C 
BRANCH   5   6
ATOM      6  C   UNL     1       2.710  43.938  12.518  1.00  0.00    -0.000 C 
BRANCH   6   7
ATOM      7  C   UNL     1       1.775  42.753  12.246  1.00  0.00    -0.000 C 
BRANCH   7   8
ATOM      8  C   UNL     1       2.567  41.519  11.788  1.00  0.00    -0.000 C 
BRANCH   8   9
ATOM      9  C   UNL     1       2.647  40.421  12.866  1.00  0.00    -0.000 C 
BRANCH   9  10
ATOM     10  C   UNL     1       4.028  39.758  13.017  1.00  0.00    -0.000 C 
BRANCH  10  11
ATOM     11  C   UNL     1       4.063  38.319  12.482  1.00  0.00    -0.003 C 
ATOM     12  C   UNL     1       2.653  37.785  12.247  1.00  0.00     0.004 C 
ENDBRANCH  10  11
ENDBRANCH   9  10
ENDBRANCH   8   9
ENDBRANCH   7   8
ENDBRANCH   6   7
ENDBRANCH   5   6
ENDBRANCH   4   5
ENDBRANCH   3   4
ENDBRANCH   2   3
ENDBRANCH   1   2
BRANCH   1  13
ATOM     13  C   UNL     1       1.264  44.444   8.984  1.00  0.00     0.000 C 
BRANCH  13  14
ATOM     14  C   UNL     1       0.405  44.756   7.747  1.00  0.00     0.000 C 
BRANCH  14  15
ATOM     15  C   UNL     1      -0.397  46.058   7.897  1.00  0.00     0.000 C 
BRANCH  15  16
ATOM     16  C   UNL     1       0.286  47.011   8.890  1.00  0.00     0.000 C 
BRANCH  16  17
ATOM     17  C   UNL     1       0.356  48.457   8.372  1.00  0.00     0.000 C 
BRANCH  17  18
ATOM     18  C   UNL     1       1.717  48.794   7.741  1.00  0.00     0.000 C 
BRANCH  18  19
ATOM     19  C   UNL     1       2.780  47.709   7.996  1.00  0.00     0.000 C 
BRANCH  19  20
ATOM     20  C   UNL     1       4.238  48.198   7.931  1.00  0.00     0.006 C 
BRANCH  20  21
ATOM     21  C   UNL     1       5.074  47.749   9.137  1.00  0.00     0.053 C 
BRANCH  21  22
ATOM     22  C   UNL     1       6.403  48.435   9.135  1.00  0.00     0.041 C 
ATOM     23  O   UNL     1       7.447  47.796   9.431  1.00  0.00    -0.550 OA
ATOM     24  O   UNL     1       6.497  49.768   8.756  1.00  0.00    -0.550 OA
ENDBRANCH  21  22
ENDBRANCH  20  21
ENDBRANCH  19  20
ENDBRANCH  18  19
ENDBRANCH  17  18
ENDBRANCH  16  17
ENDBRANCH  15  16
ENDBRANCH  14  15
ENDBRANCH  13  14
ENDBRANCH   1  13
TORSDOF 20
ENDMDL
MODEL 3
REMARK VINA RESULT:    -4.777      1.340      2.043
REMARK INTER + INTRA:         -12.665
REMARK INTER:                 -10.082
REMARK INTRA:                  -2.584
REMARK UNBOUND:                -2.303
REMARK SMILES CCCCCCCCCCCCCCCCCCCCCC(=O)[O-]
REMARK SMILES IDX 12 1 11 2 10 3 9 4 8 5 7 6 6 7 5 8 4 9 3 10 2 11 1 12 13 13
REMARK SMILES IDX 14 14 15 15 16 16 17 17 18 18 19 19 20 20 21 21 22 22 23 23
REMARK SMILES IDX 24 24
REMARK H PARENT
REMARK Flexibility Score: inf
ROOT
ATOM      1  C   UNL     1      -0.170  45.476  10.238  1.00  0.00     0.000 C 
ENDROOT
BRANCH   1   2
ATOM      2  C   UNL     1      -0.228  46.020   8.800  1.00  0.00     0.000 C 
BRANCH   2   3
ATOM      3  C   UNL     1      -1.056  47.313   8.654  1.00  0.00     0.000 C 
BRANCH   3   4
ATOM      4  C   UNL     1      -0.219  48.481   8.102  1.00  0.00    -0.000 C 
BRANCH   4   5
ATOM      5  C   UNL     1       1.172  48.573   8.747  1.00  0.00    -0.000 C 
BRANCH   5   6
ATOM      6  C   UNL     1       2.309  48.525   7.716  1.00  0.00    -0.000 C 
BRANCH   6   7
ATOM      7  C   UNL     1       3.289  47.389   8.033  1.00  0.00    -0.000 C 
BRANCH   7   8
ATOM      8  C   UNL     1       3.229  47.006   9.519  1.00  0.00    -0.000 C 
BRANCH   8   9
ATOM      9  C   UNL     1       4.571  47.206  10.247  1.00  0.00    -0.000 C 
BRANCH   9  10
ATOM     10  C   UNL     1       5.797  46.626   9.519  1.00  0.00    -0.000 C 
BRANCH  10  11
ATOM     11  C   UNL     1       6.953  47.631   9.398  1.00  0.00    -0.003 C 
ATOM     12  C   UNL     1       6.431  49.037   9.117  1.00  0.00     0.004 C 
ENDBRANCH  10  11
ENDBRANCH   9  10
ENDBRANCH   8   9
ENDBRANCH   7   8
ENDBRANCH   6   7
ENDBRANCH   5   6
ENDBRANCH   4   5
ENDBRANCH   3   4
ENDBRANCH   2   3
ENDBRANCH   1   2
BRANCH   1  13
ATOM     13  C   UNL     1       0.895  44.382  10.421  1.00  0.00     0.000 C 
BRANCH  13  14
ATOM     14  C   UNL     1       1.523  43.940   9.089  1.00  0.00     0.000 C 
BRANCH  14  15
ATOM     15  C   UNL     1       2.553  42.814   9.266  1.00  0.00     0.000 C 
BRANCH  15  16
ATOM     16  C   UNL     1       3.901  43.375   9.747  1.00  0.00     0.000 C 
BRANCH  16  17
ATOM     17  C   UNL     1       4.225  42.981  11.197  1.00  0.00     0.000 C 
BRANCH  17  18
ATOM     18  C   UNL     1       3.530  41.677  11.624  1.00  0.00     0.000 C 
BRANCH  18  19
ATOM     19  C   UNL     1       4.313  40.907  12.703  1.00  0.00     0.000 C 
BRANCH  19  20
ATOM     20  C   UNL     1       4.059  39.389  12.733  1.00  0.00     0.006 C 
BRANCH  20  21
ATOM     21  C   UNL     1       2.571  39.029  12.644  1.00  0.00     0.053 C 
BRANCH  21  22
ATOM     22  C   UNL     1       2.401  37.628  12.147  1.00  0.00     0.041 C 
ATOM     23  O   UNL     1       3.387  36.994  11.689  1.00  0.00    -0.550 OA
ATOM     24  O   UNL     1       1.163  37.004  12.236  1.00  0.00    -0.550 OA
ENDBRANCH  21  22
ENDBRANCH  20  21
ENDBRANCH  19  20
ENDBRANCH  18  19
ENDBRANCH  17  18
ENDBRANCH  16  17
ENDBRANCH  15  16
ENDBRANCH  14  15
ENDBRANCH  13  14
ENDBRANCH   1  13
TORSDOF 20
ENDMDL
MODEL 4
REMARK VINA RESULT:    -4.600      3.464      8.173
REMARK INTER + INTRA:         -12.282
REMARK INTER:                 -10.551
REMARK INTRA:                  -1.731
REMARK UNBOUND:                -2.303
REMARK SMILES CCCCCCCCCCCCCCCCCCCCCC(=O)[O-]
REMARK SMILES IDX 12 1 11 2 10 3 9 4 8 5 7 6 6 7 5 8 4 9 3 10 2 11 1 12 13 13
REMARK SMILES IDX 14 14 15 15 16 16 17 17 18 18 19 19 20 20 21 21 22 22 23 23
REMARK SMILES IDX 24 24
REMARK H PARENT
REMARK Flexibility Score: inf
ROOT
ATOM      1  C   UNL     1       0.862  44.825  10.663  1.00  0.00     0.000 C 
ENDROOT
BRANCH   1   2
ATOM      2  C   UNL     1       1.512  43.954  11.752  1.00  0.00     0.000 C 
BRANCH   2   3
ATOM      3  C   UNL     1       3.001  44.273  12.000  1.00  0.00     0.000 C 
BRANCH   3   4
ATOM      4  C   UNL     1       3.916  43.084  11.655  1.00  0.00    -0.000 C 
BRANCH   4   5
ATOM      5  C   UNL     1       3.138  41.775  11.451  1.00  0.00    -0.000 C 
BRANCH   5   6
ATOM      6  C   UNL     1       3.625  40.646  12.373  1.00  0.00    -0.000 C 
BRANCH   6   7
ATOM      7  C   UNL     1       2.440  39.903  13.002  1.00  0.00    -0.000 C 
BRANCH   7   8
ATOM      8  C   UNL     1       1.336  40.883  13.427  1.00  0.00    -0.000 C 
BRANCH   8   9
ATOM      9  C   UNL     1       0.025  40.179  13.825  1.00  0.00    -0.000 C 
BRANCH   9  10
ATOM     10  C   UNL     1      -1.021  41.085  14.497  1.00  0.00    -0.000 C 
BRANCH  10  11
ATOM     11  C   UNL     1      -1.125  40.859  16.013  1.00  0.00    -0.003 C 
ATOM     12  C   UNL     1      -0.547  42.040  16.786  1.00  0.00     0.004 C 
ENDBRANCH  10  11
ENDBRANCH   9  10
ENDBRANCH   8   9
ENDBRANCH   7   8
ENDBRANCH   6   7
ENDBRANCH   5   6
ENDBRANCH   4   5
ENDBRANCH   3   4
ENDBRANCH   2   3
ENDBRANCH   1   2
BRANCH   1  13
ATOM     13  C   UNL     1       1.194  44.347   9.239  1.00  0.00     0.000 C 
BRANCH  13  14
ATOM     14  C   UNL     1       0.397  45.101   8.161  1.00  0.00     0.000 C 
BRANCH  14  15
ATOM     15  C   UNL     1      -0.361  46.313   8.725  1.00  0.00     0.000 C 
BRANCH  15  16
ATOM     16  C   UNL     1       0.170  47.621   8.117  1.00  0.00     0.000 C 
BRANCH  16  17
ATOM     17  C   UNL     1       1.540  48.027   8.685  1.00  0.00     0.000 C 
BRANCH  17  18
ATOM     18  C   UNL     1       2.615  48.162   7.593  1.00  0.00     0.000 C 
BRANCH  18  19
ATOM     19  C   UNL     1       4.023  47.783   8.088  1.00  0.00     0.000 C 
BRANCH  19  20
ATOM     20  C   UNL     1       4.059  46.694   9.175  1.00  0.00     0.006 C 
BRANCH  20  21
ATOM     21  C   UNL     1       5.272  46.818  10.106  1.00  0.00     0.053 C 
BRANCH  21  22
ATOM     22  C   UNL     1       6.312  47.701   9.493  1.00  0.00     0.041 C 
ATOM     23  O   UNL     1       6.112  48.939   9.389  1.00  0.00    -0.550 OA
ATOM     24  O   UNL     1       7.526  47.164   9.083  1.00  0.00    -0.550 OA
ENDBRANCH  21  22
ENDBRANCH  20  21
ENDBRANCH  19  20
ENDBRANCH  18  19
ENDBRANCH  17  18
ENDBRANCH  16  17
ENDBRANCH  15  16
ENDBRANCH  14  15
ENDBRANCH  13  14
ENDBRANCH   1  13
TORSDOF 20
ENDMDL
MODEL 5
REMARK VINA RESULT:    -4.572      1.212      2.466
REMARK INTER + INTRA:         -12.220
REMARK INTER:                  -9.585
REMARK INTRA:                  -2.635
REMARK UNBOUND:                -2.303
REMARK SMILES CCCCCCCCCCCCCCCCCCCCCC(=O)[O-]
REMARK SMILES IDX 12 1 11 2 10 3 9 4 8 5 7 6 6 7 5 8 4 9 3 10 2 11 1 12 13 13
REMARK SMILES IDX 14 14 15 15 16 16 17 17 18 18 19 19 20 20 21 21 22 22 23 23
REMARK SMILES IDX 24 24
REMARK H PARENT
REMARK Flexibility Score: inf
ROOT
ATOM      1  C   UNL     1      -0.841  46.334   6.764  1.00  0.00     0.000 C 
ENDROOT
BRANCH   1   2
ATOM      2  C   UNL     1      -1.077  47.052   8.104  1.00  0.00     0.000 C 
BRANCH   2   3
ATOM      3  C   UNL     1      -0.547  48.501   8.138  1.00  0.00     0.000 C 
BRANCH   3   4
ATOM      4  C   UNL     1       0.868  48.590   8.739  1.00  0.00    -0.000 C 
BRANCH   4   5
ATOM      5  C   UNL     1       1.939  48.929   7.691  1.00  0.00    -0.000 C 
BRANCH   5   6
ATOM      6  C   UNL     1       3.091  47.912   7.670  1.00  0.00    -0.000 C 
BRANCH   6   7
ATOM      7  C   UNL     1       3.113  47.082   8.959  1.00  0.00    -0.000 C 
BRANCH   7   8
ATOM      8  C   UNL     1       4.431  46.303   9.092  1.00  0.00    -0.000 C 
BRANCH   8   9
ATOM      9  C   UNL     1       5.465  47.018   9.981  1.00  0.00    -0.000 C 
BRANCH   9  10
ATOM     10  C   UNL     1       6.718  47.523   9.243  1.00  0.00    -0.000 C 
BRANCH  10  11
ATOM     11  C   UNL     1       6.627  49.007   8.856  1.00  0.00    -0.003 C 
ATOM     12  C   UNL     1       6.716  49.902  10.088  1.00  0.00     0.004 C 
ENDBRANCH  10  11
ENDBRANCH   9  10
ENDBRANCH   8   9
ENDBRANCH   7   8
ENDBRANCH   6   7
ENDBRANCH   5   6
ENDBRANCH   4   5
ENDBRANCH   3   4
ENDBRANCH   2   3
ENDBRANCH   1   2
BRANCH   1  13
ATOM     13  C   UNL     1      -0.142  44.974   6.930  1.00  0.00     0.000 C 
BRANCH  13  14
ATOM     14  C   UNL     1       0.453  44.783   8.335  1.00  0.00     0.000 C 
BRANCH  14  15
ATOM     15  C   UNL     1       1.551  43.709   8.372  1.00  0.00     0.000 C 
BRANCH  15  16
ATOM     16  C   UNL     1       1.886  43.316   9.820  1.00  0.00     0.000 C 
BRANCH  16  17
ATOM     17  C   UNL     1       1.689  44.476  10.809  1.00  0.00     0.000 C 
BRANCH  17  18
ATOM     18  C   UNL     1       2.796  44.537  11.876  1.00  0.00     0.000 C 
BRANCH  18  19
ATOM     19  C   UNL     1       3.976  43.596  11.568  1.00  0.00     0.000 C 
BRANCH  19  20
ATOM     20  C   UNL     1       4.041  42.329  12.439  1.00  0.00     0.006 C 
BRANCH  20  21
ATOM     21  C   UNL     1       3.422  41.102  11.757  1.00  0.00     0.053 C 
BRANCH  21  22
ATOM     22  C   UNL     1       3.426  39.930  12.687  1.00  0.00     0.041 C 
ATOM     23  O   UNL     1       2.380  39.248  12.852  1.00  0.00    -0.550 OA
ATOM     24  O   UNL     1       4.598  39.559  13.333  1.00  0.00    -0.550 OA
ENDBRANCH  21  22
ENDBRANCH  20  21
ENDBRANCH  19  20
ENDBRANCH  18  19
ENDBRANCH  17  18
ENDBRANCH  16  17
ENDBRANCH  15  16
ENDBRANCH  14  15
ENDBRANCH  13  14
ENDBRANCH   1  13
TORSDOF 20
ENDMDL
MODEL 6
REMARK VINA RESULT:    -4.563      2.092      4.344
REMARK INTER + INTRA:         -12.201
REMARK INTER:                  -9.459
REMARK INTRA:                  -2.742
REMARK UNBOUND:                -2.303
REMARK SMILES CCCCCCCCCCCCCCCCCCCCCC(=O)[O-]
REMARK SMILES IDX 12 1 11 2 10 3 9 4 8 5 7 6 6 7 5 8 4 9 3 10 2 11 1 12 13 13
REMARK SMILES IDX 14 14 15 15 16 16 17 17 18 18 19 19 20 20 21 21 22 22 23 23
REMARK SMILES IDX 24 24
REMARK H PARENT
REMARK Flexibility Score: inf
ROOT
ATOM      1  C   UNL     1       4.232  46.242   9.207  1.00  0.00     0.000 C 
ENDROOT
BRANCH   1   2
ATOM      2  C   UNL     1       4.659  47.623   8.680  1.00  0.00     0.000 C 
BRANCH   2   3
ATOM      3  C   UNL     1       3.664  48.242   7.675  1.00  0.00     0.000 C 
BRANCH   3   4
ATOM      4  C   UNL     1       2.220  47.768   7.918  1.00  0.00    -0.000 C 
BRANCH   4   5
ATOM      5  C   UNL     1       1.249  48.930   8.175  1.00  0.00    -0.000 C 
BRANCH   5   6
ATOM      6  C   UNL     1      -0.219  48.479   8.215  1.00  0.00    -0.000 C 
BRANCH   6   7
ATOM      7  C   UNL     1      -0.489  47.397   7.162  1.00  0.00    -0.000 C 
BRANCH   7   8
ATOM      8  C   UNL     1      -0.979  46.097   7.818  1.00  0.00    -0.000 C 
BRANCH   8   9
ATOM      9  C   UNL     1      -0.002  44.922   7.630  1.00  0.00    -0.000 C 
BRANCH   9  10
ATOM     10  C   UNL     1       0.831  44.565   8.873  1.00  0.00    -0.000 C 
BRANCH  10  11
ATOM     11  C   UNL     1       0.520  45.462  10.081  1.00  0.00    -0.003 C 
ATOM     12  C   UNL     1       0.208  44.628  11.319  1.00  0.00     0.004 C 
ENDBRANCH  10  11
ENDBRANCH   9  10
ENDBRANCH   8   9
ENDBRANCH   7   8
ENDBRANCH   6   7
ENDBRANCH   5   6
ENDBRANCH   4   5
ENDBRANCH   3   4
ENDBRANCH   2   3
ENDBRANCH   1   2
BRANCH   1  13
ATOM     13  C   UNL     1       4.041  46.217  10.732  1.00  0.00     0.000 C 
BRANCH  13  14
ATOM     14  C   UNL     1       3.955  44.789  11.295  1.00  0.00     0.000 C 
BRANCH  14  15
ATOM     15  C   UNL     1       4.204  43.715  10.224  1.00  0.00     0.000 C 
BRANCH  15  16
ATOM     16  C   UNL     1       3.170  42.583  10.333  1.00  0.00     0.000 C 
BRANCH  16  17
ATOM     17  C   UNL     1       2.885  42.177  11.788  1.00  0.00     0.000 C 
BRANCH  17  18
ATOM     18  C   UNL     1       3.671  40.926  12.217  1.00  0.00     0.000 C 
BRANCH  18  19
ATOM     19  C   UNL     1       2.757  39.738  12.572  1.00  0.00     0.000 C 
BRANCH  19  20
ATOM     20  C   UNL     1       1.913  39.923  13.846  1.00  0.00     0.006 C 
BRANCH  20  21
ATOM     21  C   UNL     1       0.406  39.969  13.564  1.00  0.00     0.053 C 
BRANCH  21  22
ATOM     22  C   UNL     1      -0.210  41.170  14.210  1.00  0.00     0.041 C 
ATOM     23  O   UNL     1      -0.866  41.994  13.520  1.00  0.00    -0.550 OA
ATOM     24  O   UNL     1      -0.103  41.352  15.583  1.00  0.00    -0.550 OA
ENDBRANCH  21  22
ENDBRANCH  20  21
ENDBRANCH  19  20
ENDBRANCH  18  19
ENDBRANCH  17  18
ENDBRANCH  16  17
ENDBRANCH  15  16
ENDBRANCH  14  15
ENDBRANCH  13  14
ENDBRANCH   1  13
TORSDOF 20
ENDMDL
MODEL 7
REMARK VINA RESULT:    -4.553      3.288      8.569
REMARK INTER + INTRA:         -12.178
REMARK INTER:                 -10.167
REMARK INTRA:                  -2.011
REMARK UNBOUND:                -2.303
REMARK SMILES CCCCCCCCCCCCCCCCCCCCCC(=O)[O-]
REMARK SMILES IDX 12 1 11 2 10 3 9 4 8 5 7 6 6 7 5 8 4 9 3 10 2 11 1 12 13 13
REMARK SMILES IDX 14 14 15 15 16 16 17 17 18 18 19 19 20 20 21 21 22 22 23 23
REMARK SMILES IDX 24 24
REMARK H PARENT
REMARK Flexibility Score: inf
ROOT
ATOM      1  C   UNL     1       1.303  44.660  10.502  1.00  0.00     0.000 C 
ENDROOT
BRANCH   1   2
ATOM      2  C   UNL     1       1.806  43.861  11.717  1.00  0.00     0.000 C 
BRANCH   2   3
ATOM      3  C   UNL     1       3.197  44.299  12.220  1.00  0.00     0.000 C 
BRANCH   3   4
ATOM      4  C   UNL     1       4.253  43.191  12.051  1.00  0.00    -0.000 C 
BRANCH   4   5
ATOM      5  C   UNL     1       3.639  41.784  12.027  1.00  0.00    -0.000 C 
BRANCH   5   6
ATOM      6  C   UNL     1       4.589  40.712  12.583  1.00  0.00    -0.000 C 
BRANCH   6   7
ATOM      7  C   UNL     1       3.874  39.361  12.715  1.00  0.00    -0.000 C 
BRANCH   7   8
ATOM      8  C   UNL     1       2.366  39.554  12.941  1.00  0.00    -0.000 C 
BRANCH   8   9
ATOM      9  C   UNL     1       1.579  38.230  12.912  1.00  0.00    -0.000 C 
BRANCH   9  10
ATOM     10  C   UNL     1       2.151  37.156  11.970  1.00  0.00    -0.000 C 
BRANCH  10  11
ATOM     11  C   UNL     1       1.147  36.034  11.662  1.00  0.00    -0.003 C 
ATOM     12  C   UNL     1      -0.259  36.415  12.114  1.00  0.00     0.004 C 
ENDBRANCH  10  11
ENDBRANCH   9  10
ENDBRANCH   8   9
ENDBRANCH   7   8
ENDBRANCH   6   7
ENDBRANCH   5   6
ENDBRANCH   4   5
ENDBRANCH   3   4
ENDBRANCH   2   3
ENDBRANCH   1   2
BRANCH   1  13
ATOM     13  C   UNL     1       1.548  43.936   9.168  1.00  0.00     0.000 C 
BRANCH  13  14
ATOM     14  C   UNL     1       0.737  44.540   8.010  1.00  0.00     0.000 C 
BRANCH  14  15
ATOM     15  C   UNL     1      -0.132  45.727   8.452  1.00  0.00     0.000 C 
BRANCH  15  16
ATOM     16  C   UNL     1       0.229  46.995   7.660  1.00  0.00     0.000 C 
BRANCH  16  17
ATOM     17  C   UNL     1       1.134  47.951   8.453  1.00  0.00     0.000 C 
BRANCH  17  18
ATOM     18  C   UNL     1       2.312  48.480   7.616  1.00  0.00     0.000 C 
BRANCH  18  19
ATOM     19  C   UNL     1       3.616  47.697   7.858  1.00  0.00     0.000 C 
BRANCH  19  20
ATOM     20  C   UNL     1       3.892  47.330   9.326  1.00  0.00     0.006 C 
BRANCH  20  21
ATOM     21  C   UNL     1       5.233  46.610   9.521  1.00  0.00     0.053 C 
BRANCH  21  22
ATOM     22  C   UNL     1       6.362  47.591   9.487  1.00  0.00     0.041 C 
ATOM     23  O   UNL     1       6.130  48.827   9.555  1.00  0.00    -0.550 OA
ATOM     24  O   UNL     1       7.674  47.139   9.431  1.00  0.00    -0.550 OA
ENDBRANCH  21  22
ENDBRANCH  20  21
ENDBRANCH  19  20
ENDBRANCH  18  19
ENDBRANCH  17  18
ENDBRANCH  16  17
ENDBRANCH  15  16
ENDBRANCH  14  15
ENDBRANCH  13  14
ENDBRANCH   1  13
TORSDOF 20
ENDMDL
MODEL 8
REMARK VINA RESULT:    -4.508      3.739      7.391
REMARK INTER + INTRA:         -12.082
REMARK INTER:                  -9.429
REMARK INTRA:                  -2.653
REMARK UNBOUND:                -2.303
REMARK SMILES CCCCCCCCCCCCCCCCCCCCCC(=O)[O-]
REMARK SMILES IDX 12 1 11 2 10 3 9 4 8 5 7 6 6 7 5 8 4 9 3 10 2 11 1 12 13 13
REMARK SMILES IDX 14 14 15 15 16 16 17 17 18 18 19 19 20 20 21 21 22 22 23 23
REMARK SMILES IDX 24 24
REMARK H PARENT
REMARK Flexibility Score: inf
ROOT
ATOM      1  C   UNL     1      -1.045  47.271   7.334  1.00  0.00     0.000 C 
ENDROOT
BRANCH   1   2
ATOM      2  C   UNL     1      -1.036  45.812   7.822  1.00  0.00     0.000 C 
BRANCH   2   3
ATOM      3  C   UNL     1      -0.049  44.904   7.058  1.00  0.00     0.000 C 
BRANCH   3   4
ATOM      4  C   UNL     1       0.929  44.183   8.003  1.00  0.00    -0.000 C 
BRANCH   4   5
ATOM      5  C   UNL     1       0.815  44.666   9.457  1.00  0.00    -0.000 C 
BRANCH   5   6
ATOM      6  C   UNL     1       1.681  43.844  10.425  1.00  0.00    -0.000 C 
BRANCH   6   7
ATOM      7  C   UNL     1       2.784  43.092   9.669  1.00  0.00    -0.000 C 
BRANCH   7   8
ATOM      8  C   UNL     1       4.103  43.108  10.457  1.00  0.00    -0.000 C 
BRANCH   8   9
ATOM      9  C   UNL     1       3.924  42.717  11.937  1.00  0.00    -0.000 C 
BRANCH   9  10
ATOM     10  C   UNL     1       4.323  41.270  12.278  1.00  0.00    -0.000 C 
BRANCH  10  11
ATOM     11  C   UNL     1       3.134  40.298  12.244  1.00  0.00    -0.003 C 
ATOM     12  C   UNL     1       3.427  39.043  13.061  1.00  0.00     0.004 C 
ENDBRANCH  10  11
ENDBRANCH   9  10
ENDBRANCH   8   9
ENDBRANCH   7   8
ENDBRANCH   6   7
ENDBRANCH   5   6
ENDBRANCH   4   5
ENDBRANCH   3   4
ENDBRANCH   2   3
ENDBRANCH   1   2
BRANCH   1  13
ATOM     13  C   UNL     1      -0.867  48.285   8.476  1.00  0.00     0.000 C 
BRANCH  13  14
ATOM     14  C   UNL     1       0.607  48.486   8.864  1.00  0.00     0.000 C 
BRANCH  14  15
ATOM     15  C   UNL     1       1.502  48.789   7.652  1.00  0.00     0.000 C 
BRANCH  15  16
ATOM     16  C   UNL     1       2.760  47.905   7.666  1.00  0.00     0.000 C 
BRANCH  16  17
ATOM     17  C   UNL     1       3.054  47.313   9.053  1.00  0.00     0.000 C 
BRANCH  17  18
ATOM     18  C   UNL     1       4.285  46.390   9.053  1.00  0.00     0.000 C 
BRANCH  18  19
ATOM     19  C   UNL     1       5.350  46.813  10.082  1.00  0.00     0.000 C 
BRANCH  19  20
ATOM     20  C   UNL     1       6.541  47.597   9.502  1.00  0.00     0.006 C 
BRANCH  20  21
ATOM     21  C   UNL     1       6.110  48.786   8.634  1.00  0.00     0.053 C 
BRANCH  21  22
ATOM     22  C   UNL     1       6.556  50.073   9.253  1.00  0.00     0.041 C 
ATOM     23  O   UNL     1       6.605  51.125   8.562  1.00  0.00    -0.550 OA
ATOM     24  O   UNL     1       6.868  50.123  10.605  1.00  0.00    -0.550 OA
ENDBRANCH  21  22
ENDBRANCH  20  21
ENDBRANCH  19  20
ENDBRANCH  18  19
ENDBRANCH  17  18
ENDBRANCH  16  17
ENDBRANCH  15  16
ENDBRANCH  14  15
ENDBRANCH  13  14
ENDBRANCH   1  13
TORSDOF 20
ENDMDL
MODEL 9
REMARK VINA RESULT:    -4.395      1.307      3.009
REMARK INTER + INTRA:         -11.836
REMARK INTER:                  -8.985
REMARK INTRA:                  -2.851
REMARK UNBOUND:                -2.303
REMARK SMILES CCCCCCCCCCCCCCCCCCCCCC(=O)[O-]
REMARK SMILES IDX 12 1 11 2 10 3 9 4 8 5 7 6 6 7 5 8 4 9 3 10 2 11 1 12 13 13
REMARK SMILES IDX 14 14 15 15 16 16 17 17 18 18 19 19 20 20 21 21 22 22 23 23
REMARK SMILES IDX 24 24
REMARK H PARENT
REMARK Flexibility Score: inf
ROOT
ATOM      1  C   UNL     1       3.921  42.771  10.746  1.00  0.00     0.000 C 
ENDROOT
BRANCH   1   2
ATOM      2  C   UNL     1       4.107  43.575   9.447  1.00  0.00     0.000 C 
BRANCH   2   3
ATOM      3  C   UNL     1       2.989  43.350   8.408  1.00  0.00     0.000 C 
BRANCH   3   4
ATOM      4  C   UNL     1       1.585  43.508   9.020  1.00  0.00    -0.000 C 
BRANCH   4   5
ATOM      5  C   UNL     1       0.902  44.821   8.611  1.00  0.00    -0.000 C 
BRANCH   5   6
ATOM      6  C   UNL     1       0.717  45.787   9.791  1.00  0.00    -0.000 C 
BRANCH   6   7
ATOM      7  C   UNL     1       1.968  46.651   9.993  1.00  0.00    -0.000 C 
BRANCH   7   8
ATOM      8  C   UNL     1       2.338  47.398   8.703  1.00  0.00    -0.000 C 
BRANCH   8   9
ATOM      9  C   UNL     1       3.857  47.469   8.463  1.00  0.00    -0.000 C 
BRANCH   9  10
ATOM     10  C   UNL     1       4.723  46.958   9.629  1.00  0.00    -0.000 C 
BRANCH  10  11
ATOM     11  C   UNL     1       6.212  47.296   9.463  1.00  0.00    -0.003 C 
ATOM     12  C   UNL     1       6.407  48.776   9.145  1.00  0.00     0.004 C 
ENDBRANCH  10  11
ENDBRANCH   9  10
ENDBRANCH   8   9
ENDBRANCH   7   8
ENDBRANCH   6   7
ENDBRANCH   5   6
ENDBRANCH   4   5
ENDBRANCH   3   4
ENDBRANCH   2   3
ENDBRANCH   1   2
BRANCH   1  13
ATOM     13  C   UNL     1       3.961  43.652  12.005  1.00  0.00     0.000 C 
BRANCH  13  14
ATOM     14  C   UNL     1       2.557  43.997  12.530  1.00  0.00     0.000 C 
BRANCH  14  15
ATOM     15  C   UNL     1       1.510  42.934  12.161  1.00  0.00     0.000 C 
BRANCH  15  16
ATOM     16  C   UNL     1       0.090  43.433  12.475  1.00  0.00     0.000 C 
BRANCH  16  17
ATOM     17  C   UNL     1      -0.718  42.430  13.315  1.00  0.00     0.000 C 
BRANCH  17  18
ATOM     18  C   UNL     1       0.177  41.418  14.049  1.00  0.00     0.000 C 
BRANCH  18  19
ATOM     19  C   UNL     1      -0.246  39.957  13.804  1.00  0.00     0.000 C 
BRANCH  19  20
ATOM     20  C   UNL     1       0.877  39.029  13.308  1.00  0.00     0.006 C 
BRANCH  20  21
ATOM     21  C   UNL     1       2.190  39.772  13.031  1.00  0.00     0.053 C 
BRANCH  21  22
ATOM     22  C   UNL     1       3.283  38.801  12.715  1.00  0.00     0.041 C 
ATOM     23  O   UNL     1       4.475  39.066  13.023  1.00  0.00    -0.550 OA
ATOM     24  O   UNL     1       2.980  37.581  12.125  1.00  0.00    -0.550 OA
ENDBRANCH  21  22
ENDBRANCH  20  21
ENDBRANCH  19  20
ENDBRANCH  18  19
ENDBRANCH  17  18
ENDBRANCH  16  17
ENDBRANCH  15  16
ENDBRANCH  14  15
ENDBRANCH  13  14
ENDBRANCH   1  13
TORSDOF 20
ENDMDL
