MODEL 1
REMARK VINA RESULT:    -4.099      0.000      0.000
REMARK INTER + INTRA:         -12.903
REMARK INTER:                  -9.370
REMARK INTRA:                  -3.533
REMARK UNBOUND:                -3.533
REMARK SMILES CCCCCCCCCCCCCCCCCCCCCCCC(=O)[O-]
REMARK SMILES IDX 13 1 14 2 15 3 16 4 17 5 18 6 19 7 20 8 21 9 22 10 23 11
REMARK SMILES IDX 24 12 25 13 26 14 12 15 11 16 10 17 9 18 8 19 7 20 6 21 5 22
REMARK SMILES IDX 4 23 3 24 2 25 1 26
REMARK H PARENT
REMARK Flexibility Score: inf
ROOT
ATOM      1  C   UNL     1      35.482 -49.433   2.821  1.00  0.00     0.000 C 
ENDROOT
BRANCH   1   2
ATOM      2  C   UNL     1      35.365 -48.002   3.380  1.00  0.00     0.000 C 
BRANCH   2   3
ATOM      3  C   UNL     1      36.318 -46.986   2.714  1.00  0.00     0.000 C 
BRANCH   3   4
ATOM      4  C   UNL     1      35.633 -45.654   2.341  1.00  0.00     0.000 C 
BRANCH   4   5
ATOM      5  C   UNL     1      34.108 -45.636   2.574  1.00  0.00     0.000 C 
BRANCH   5   6
ATOM      6  C   UNL     1      33.303 -44.988   1.430  1.00  0.00     0.000 C 
BRANCH   6   7
ATOM      7  C   UNL     1      34.110 -43.915   0.678  1.00  0.00     0.000 C 
BRANCH   7   8
ATOM      8  C   UNL     1      33.401 -43.419  -0.593  1.00  0.00     0.000 C 
BRANCH   8   9
ATOM      9  C   UNL     1      32.049 -44.113  -0.824  1.00  0.00     0.000 C 
BRANCH   9  10
ATOM     10  C   UNL     1      30.850 -43.161  -0.656  1.00  0.00     0.006 C 
BRANCH  10  11
ATOM     11  C   UNL     1      29.646 -43.506  -1.550  1.00  0.00     0.053 C 
BRANCH  11  12
ATOM     12  C   UNL     1      30.056 -44.074  -2.875  1.00  0.00     0.041 C 
ATOM     13  O   UNL     1      29.955 -45.310  -3.092  1.00  0.00    -0.550 OA
ATOM     14  O   UNL     1      30.518 -43.236  -3.881  1.00  0.00    -0.550 OA
ENDBRANCH  11  12
ENDBRANCH  10  11
ENDBRANCH   9  10
ENDBRANCH   8   9
ENDBRANCH   7   8
ENDBRANCH   6   7
ENDBRANCH   5   6
ENDBRANCH   4   5
ENDBRANCH   3   4
ENDBRANCH   2   3
ENDBRANCH   1   2
BRANCH   1  15
ATOM     15  C   UNL     1      34.190 -49.965   2.164  1.00  0.00     0.000 C 
BRANCH  15  16
ATOM     16  C   UNL     1      33.564 -49.031   1.107  1.00  0.00     0.000 C 
BRANCH  16  17
ATOM     17  C   UNL     1      34.231 -49.051  -0.285  1.00  0.00     0.000 C 
BRANCH  17  18
ATOM     18  C   UNL     1      34.981 -47.765  -0.673  1.00  0.00    -0.000 C 
BRANCH  18  19
ATOM     19  C   UNL     1      34.367 -47.064  -1.895  1.00  0.00    -0.000 C 
BRANCH  19  20
ATOM     20  C   UNL     1      32.871 -47.380  -2.014  1.00  0.00    -0.000 C 
BRANCH  20  21
ATOM     21  C   UNL     1      32.533 -47.928  -3.406  1.00  0.00    -0.000 C 
BRANCH  21  22
ATOM     22  C   UNL     1      32.039 -49.379  -3.321  1.00  0.00    -0.000 C 
BRANCH  22  23
ATOM     23  C   UNL     1      32.927 -50.360  -4.106  1.00  0.00    -0.000 C 
BRANCH  23  24
ATOM     24  C   UNL     1      34.313 -49.814  -4.503  1.00  0.00    -0.000 C 
BRANCH  24  25
ATOM     25  C   UNL     1      35.506 -50.662  -4.029  1.00  0.00    -0.003 C 
ATOM     26  C   UNL     1      36.739 -50.504  -4.918  1.00  0.00     0.004 C 
ENDBRANCH  24  25
ENDBRANCH  23  24
ENDBRANCH  22  23
ENDBRANCH  21  22
ENDBRANCH  20  21
ENDBRANCH  19  20
ENDBRANCH  18  19
ENDBRANCH  17  18
ENDBRANCH  16  17
ENDBRANCH  15  16
ENDBRANCH   1  15
TORSDOF 22
ENDMDL
MODEL 2
REMARK VINA RESULT:    -4.013      3.126      5.751
REMARK INTER + INTRA:         -12.707
REMARK INTER:                  -8.316
REMARK INTRA:                  -4.391
REMARK UNBOUND:                -3.533
REMARK SMILES CCCCCCCCCCCCCCCCCCCCCCCC(=O)[O-]
REMARK SMILES IDX 13 1 14 2 15 3 16 4 17 5 18 6 19 7 20 8 21 9 22 10 23 11
REMARK SMILES IDX 24 12 25 13 26 14 12 15 11 16 10 17 9 18 8 19 7 20 6 21 5 22
REMARK SMILES IDX 4 23 3 24 2 25 1 26
REMARK H PARENT
REMARK Flexibility Score: inf
ROOT
ATOM      1  C   UNL     1      35.557 -45.497  -3.645  1.00  0.00     0.000 C 
ENDROOT
BRANCH   1   2
ATOM      2  C   UNL     1      35.488 -45.307  -2.118  1.00  0.00     0.000 C 
BRANCH   2   3
ATOM      3  C   UNL     1      35.043 -43.896  -1.677  1.00  0.00     0.000 C 
BRANCH   3   4
ATOM      4  C   UNL     1      35.753 -43.398  -0.401  1.00  0.00     0.000 C 
BRANCH   4   5
ATOM      5  C   UNL     1      34.918 -43.541   0.888  1.00  0.00     0.000 C 
BRANCH   5   6
ATOM      6  C   UNL     1      33.400 -43.654   0.647  1.00  0.00     0.000 C 
BRANCH   6   7
ATOM      7  C   UNL     1      32.743 -44.733   1.527  1.00  0.00     0.000 C 
BRANCH   7   8
ATOM      8  C   UNL     1      33.649 -45.956   1.745  1.00  0.00     0.000 C 
BRANCH   8   9
ATOM      9  C   UNL     1      33.493 -47.012   0.638  1.00  0.00     0.000 C 
BRANCH   9  10
ATOM     10  C   UNL     1      34.618 -48.062   0.649  1.00  0.00     0.006 C 
BRANCH  10  11
ATOM     11  C   UNL     1      34.119 -49.517   0.587  1.00  0.00     0.053 C 
BRANCH  11  12
ATOM     12  C   UNL     1      34.017 -50.149   1.941  1.00  0.00     0.041 C 
ATOM     13  O   UNL     1      33.161 -51.047   2.158  1.00  0.00    -0.550 OA
ATOM     14  O   UNL     1      34.888 -49.771   2.956  1.00  0.00    -0.550 OA
ENDBRANCH  11  12
ENDBRANCH  10  11
ENDBRANCH   9  10
ENDBRANCH   8   9
ENDBRANCH   7   8
ENDBRANCH   6   7
ENDBRANCH   5   6
ENDBRANCH   4   5
ENDBRANCH   3   4
ENDBRANCH   2   3
ENDBRANCH   1   2
BRANCH   1  15
ATOM     15  C   UNL     1      34.838 -44.396  -4.454  1.00  0.00     0.000 C 
BRANCH  15  16
ATOM     16  C   UNL     1      34.008 -44.902  -5.652  1.00  0.00     0.000 C 
BRANCH  16  17
ATOM     17  C   UNL     1      32.894 -43.954  -6.144  1.00  0.00     0.000 C 
BRANCH  17  18
ATOM     18  C   UNL     1      32.037 -43.316  -5.037  1.00  0.00    -0.000 C 
BRANCH  18  19
ATOM     19  C   UNL     1      31.058 -44.310  -4.395  1.00  0.00    -0.000 C 
BRANCH  19  20
ATOM     20  C   UNL     1      31.038 -44.153  -2.870  1.00  0.00    -0.000 C 
BRANCH  20  21
ATOM     21  C   UNL     1      31.732 -45.336  -2.184  1.00  0.00    -0.000 C 
BRANCH  21  22
ATOM     22  C   UNL     1      31.826 -46.541  -3.131  1.00  0.00    -0.000 C 
BRANCH  22  23
ATOM     23  C   UNL     1      32.739 -47.656  -2.590  1.00  0.00    -0.000 C 
BRANCH  23  24
ATOM     24  C   UNL     1      32.874 -48.892  -3.502  1.00  0.00    -0.000 C 
BRANCH  24  25
ATOM     25  C   UNL     1      34.282 -49.125  -4.077  1.00  0.00    -0.003 C 
ATOM     26  C   UNL     1      35.302 -49.521  -3.010  1.00  0.00     0.004 C 
ENDBRANCH  24  25
ENDBRANCH  23  24
ENDBRANCH  22  23
ENDBRANCH  21  22
ENDBRANCH  20  21
ENDBRANCH  19  20
ENDBRANCH  18  19
ENDBRANCH  17  18
ENDBRANCH  16  17
ENDBRANCH  15  16
ENDBRANCH   1  15
TORSDOF 22
ENDMDL
MODEL 3
REMARK VINA RESULT:    -3.997      3.266      5.712
REMARK INTER + INTRA:         -12.670
REMARK INTER:                  -9.075
REMARK INTRA:                  -3.596
REMARK UNBOUND:                -3.533
REMARK SMILES CCCCCCCCCCCCCCCCCCCCCCCC(=O)[O-]
REMARK SMILES IDX 13 1 14 2 15 3 16 4 17 5 18 6 19 7 20 8 21 9 22 10 23 11
REMARK SMILES IDX 24 12 25 13 26 14 12 15 11 16 10 17 9 18 8 19 7 20 6 21 5 22
REMARK SMILES IDX 4 23 3 24 2 25 1 26
REMARK H PARENT
REMARK Flexibility Score: inf
ROOT
ATOM      1  C   UNL     1      34.164 -43.640  -1.713  1.00  0.00     0.000 C 
ENDROOT
BRANCH   1   2
ATOM      2  C   UNL     1      33.874 -43.057  -0.317  1.00  0.00     0.000 C 
BRANCH   2   3
ATOM      3  C   UNL     1      35.127 -42.886   0.568  1.00  0.00     0.000 C 
BRANCH   3   4
ATOM      4  C   UNL     1      34.903 -43.302   2.038  1.00  0.00     0.000 C 
BRANCH   4   5
ATOM      5  C   UNL     1      34.027 -44.560   2.216  1.00  0.00     0.000 C 
BRANCH   5   6
ATOM      6  C   UNL     1      34.666 -45.654   3.093  1.00  0.00     0.000 C 
BRANCH   6   7
ATOM      7  C   UNL     1      34.887 -46.969   2.324  1.00  0.00     0.000 C 
BRANCH   7   8
ATOM      8  C   UNL     1      34.426 -46.887   0.860  1.00  0.00     0.000 C 
BRANCH   8   9
ATOM      9  C   UNL     1      33.162 -47.721   0.591  1.00  0.00     0.000 C 
BRANCH   9  10
ATOM     10  C   UNL     1      33.471 -49.200   0.297  1.00  0.00     0.006 C 
BRANCH  10  11
ATOM     11  C   UNL     1      32.620 -50.192   1.109  1.00  0.00     0.053 C 
BRANCH  11  12
ATOM     12  C   UNL     1      33.423 -50.939   2.130  1.00  0.00     0.041 C 
ATOM     13  O   UNL     1      34.530 -50.484   2.521  1.00  0.00    -0.550 OA
ATOM     14  O   UNL     1      32.935 -52.120   2.675  1.00  0.00    -0.550 OA
ENDBRANCH  11  12
ENDBRANCH  10  11
ENDBRANCH   9  10
ENDBRANCH   8   9
ENDBRANCH   7   8
ENDBRANCH   6   7
ENDBRANCH   5   6
ENDBRANCH   4   5
ENDBRANCH   3   4
ENDBRANCH   2   3
ENDBRANCH   1   2
BRANCH   1  15
ATOM     15  C   UNL     1      35.603 -44.171  -1.892  1.00  0.00     0.000 C 
BRANCH  15  16
ATOM     16  C   UNL     1      35.996 -44.513  -3.344  1.00  0.00     0.000 C 
BRANCH  16  17
ATOM     17  C   UNL     1      35.128 -43.867  -4.444  1.00  0.00     0.000 C 
BRANCH  17  18
ATOM     18  C   UNL     1      34.434 -44.855  -5.398  1.00  0.00    -0.000 C 
BRANCH  18  19
ATOM     19  C   UNL     1      32.935 -44.566  -5.565  1.00  0.00    -0.000 C 
BRANCH  19  20
ATOM     20  C   UNL     1      32.089 -45.734  -5.041  1.00  0.00    -0.000 C 
BRANCH  20  21
ATOM     21  C   UNL     1      31.689 -45.511  -3.578  1.00  0.00    -0.000 C 
BRANCH  21  22
ATOM     22  C   UNL     1      32.217 -46.644  -2.685  1.00  0.00    -0.000 C 
BRANCH  22  23
ATOM     23  C   UNL     1      33.556 -47.220  -3.180  1.00  0.00    -0.000 C 
BRANCH  23  24
ATOM     24  C   UNL     1      33.569 -48.745  -3.402  1.00  0.00    -0.000 C 
BRANCH  24  25
ATOM     25  C   UNL     1      32.286 -49.477  -2.970  1.00  0.00    -0.003 C 
ATOM     26  C   UNL     1      31.575 -50.167  -4.134  1.00  0.00     0.004 C 
ENDBRANCH  24  25
ENDBRANCH  23  24
ENDBRANCH  22  23
ENDBRANCH  21  22
ENDBRANCH  20  21
ENDBRANCH  19  20
ENDBRANCH  18  19
ENDBRANCH  17  18
ENDBRANCH  16  17
ENDBRANCH  15  16
ENDBRANCH   1  15
TORSDOF 22
ENDMDL
MODEL 4
REMARK VINA RESULT:    -3.973      3.875      6.644
REMARK INTER + INTRA:         -12.616
REMARK INTER:                  -7.988
REMARK INTRA:                  -4.627
REMARK UNBOUND:                -3.533
REMARK SMILES CCCCCCCCCCCCCCCCCCCCCCCC(=O)[O-]
REMARK SMILES IDX 13 1 14 2 15 3 16 4 17 5 18 6 19 7 20 8 21 9 22 10 23 11
REMARK SMILES IDX 24 12 25 13 26 14 12 15 11 16 10 17 9 18 8 19 7 20 6 21 5 22
REMARK SMILES IDX 4 23 3 24 2 25 1 26
REMARK H PARENT
REMARK Flexibility Score: inf
ROOT
ATOM      1  C   UNL     1      37.691 -47.074   0.553  1.00  0.00     0.000 C 
ENDROOT
BRANCH   1   2
ATOM      2  C   UNL     1      37.422 -48.030  -0.624  1.00  0.00     0.000 C 
BRANCH   2   3
ATOM      3  C   UNL     1      36.107 -47.744  -1.381  1.00  0.00     0.000 C 
BRANCH   3   4
ATOM      4  C   UNL     1      35.322 -49.020  -1.754  1.00  0.00     0.000 C 
BRANCH   4   5
ATOM      5  C   UNL     1      33.790 -48.879  -1.643  1.00  0.00     0.000 C 
BRANCH   5   6
ATOM      6  C   UNL     1      33.328 -47.754  -0.696  1.00  0.00     0.000 C 
BRANCH   6   7
ATOM      7  C   UNL     1      33.112 -48.250   0.745  1.00  0.00     0.000 C 
BRANCH   7   8
ATOM      8  C   UNL     1      32.874 -49.767   0.823  1.00  0.00     0.000 C 
BRANCH   8   9
ATOM      9  C   UNL     1      33.791 -50.458   1.845  1.00  0.00     0.000 C 
BRANCH   9  10
ATOM     10  C   UNL     1      34.878 -49.521   2.405  1.00  0.00     0.006 C 
BRANCH  10  11
ATOM     11  C   UNL     1      36.290 -50.132   2.408  1.00  0.00     0.053 C 
BRANCH  11  12
ATOM     12  C   UNL     1      36.562 -50.949   3.634  1.00  0.00     0.041 C 
ATOM     13  O   UNL     1      36.222 -50.521   4.769  1.00  0.00    -0.550 OA
ATOM     14  O   UNL     1      37.162 -52.197   3.523  1.00  0.00    -0.550 OA
ENDBRANCH  11  12
ENDBRANCH  10  11
ENDBRANCH   9  10
ENDBRANCH   8   9
ENDBRANCH   7   8
ENDBRANCH   6   7
ENDBRANCH   5   6
ENDBRANCH   4   5
ENDBRANCH   3   4
ENDBRANCH   2   3
ENDBRANCH   1   2
BRANCH   1  15
ATOM     15  C   UNL     1      36.468 -46.233   0.979  1.00  0.00     0.000 C 
BRANCH  15  16
ATOM     16  C   UNL     1      36.204 -46.188   2.499  1.00  0.00     0.000 C 
BRANCH  16  17
ATOM     17  C   UNL     1      34.755 -45.864   2.919  1.00  0.00     0.000 C 
BRANCH  17  18
ATOM     18  C   UNL     1      34.230 -44.490   2.464  1.00  0.00    -0.000 C 
BRANCH  18  19
ATOM     19  C   UNL     1      32.809 -44.558   1.885  1.00  0.00    -0.000 C 
BRANCH  19  20
ATOM     20  C   UNL     1      32.822 -44.324   0.370  1.00  0.00    -0.000 C 
BRANCH  20  21
ATOM     21  C   UNL     1      34.099 -43.595  -0.064  1.00  0.00    -0.000 C 
BRANCH  21  22
ATOM     22  C   UNL     1      34.423 -43.883  -1.537  1.00  0.00    -0.000 C 
BRANCH  22  23
ATOM     23  C   UNL     1      33.163 -44.009  -2.412  1.00  0.00    -0.000 C 
BRANCH  23  24
ATOM     24  C   UNL     1      33.102 -45.272  -3.294  1.00  0.00    -0.000 C 
BRANCH  24  25
ATOM     25  C   UNL     1      34.225 -45.391  -4.338  1.00  0.00    -0.003 C 
ATOM     26  C   UNL     1      34.499 -46.836  -4.756  1.00  0.00     0.004 C 
ENDBRANCH  24  25
ENDBRANCH  23  24
ENDBRANCH  22  23
ENDBRANCH  21  22
ENDBRANCH  20  21
ENDBRANCH  19  20
ENDBRANCH  18  19
ENDBRANCH  17  18
ENDBRANCH  16  17
ENDBRANCH  15  16
ENDBRANCH   1  15
TORSDOF 22
ENDMDL
MODEL 5
REMARK VINA RESULT:    -3.963      3.776      6.329
REMARK INTER + INTRA:         -12.592
REMARK INTER:                  -8.860
REMARK INTRA:                  -3.732
REMARK UNBOUND:                -3.533
REMARK SMILES CCCCCCCCCCCCCCCCCCCCCCCC(=O)[O-]
REMARK SMILES IDX 13 1 14 2 15 3 16 4 17 5 18 6 19 7 20 8 21 9 22 10 23 11
REMARK SMILES IDX 24 12 25 13 26 14 12 15 11 16 10 17 9 18 8 19 7 20 6 21 5 22
REMARK SMILES IDX 4 23 3 24 2 25 1 26
REMARK H PARENT
REMARK Flexibility Score: inf
ROOT
ATOM      1  C   UNL     1      35.399 -45.911   2.439  1.00  0.00     0.000 C 
ENDROOT
BRANCH   1   2
ATOM      2  C   UNL     1      36.240 -45.777   1.155  1.00  0.00     0.000 C 
BRANCH   2   3
ATOM      3  C   UNL     1      36.658 -47.126   0.532  1.00  0.00     0.000 C 
BRANCH   3   4
ATOM      4  C   UNL     1      35.848 -47.498  -0.728  1.00  0.00     0.000 C 
BRANCH   4   5
ATOM      5  C   UNL     1      34.890 -48.692  -0.538  1.00  0.00     0.000 C 
BRANCH   5   6
ATOM      6  C   UNL     1      33.605 -48.351   0.243  1.00  0.00     0.000 C 
BRANCH   6   7
ATOM      7  C   UNL     1      33.000 -49.580   0.945  1.00  0.00     0.000 C 
BRANCH   7   8
ATOM      8  C   UNL     1      34.029 -50.351   1.788  1.00  0.00     0.000 C 
BRANCH   8   9
ATOM      9  C   UNL     1      34.747 -49.454   2.809  1.00  0.00     0.000 C 
BRANCH   9  10
ATOM     10  C   UNL     1      36.260 -49.729   2.890  1.00  0.00     0.006 C 
BRANCH  10  11
ATOM     11  C   UNL     1      36.620 -51.058   3.578  1.00  0.00     0.053 C 
BRANCH  11  12
ATOM     12  C   UNL     1      37.168 -50.861   4.959  1.00  0.00     0.041 C 
ATOM     13  O   UNL     1      36.442 -50.373   5.865  1.00  0.00    -0.550 OA
ATOM     14  O   UNL     1      38.470 -51.245   5.255  1.00  0.00    -0.550 OA
ENDBRANCH  11  12
ENDBRANCH  10  11
ENDBRANCH   9  10
ENDBRANCH   8   9
ENDBRANCH   7   8
ENDBRANCH   6   7
ENDBRANCH   5   6
ENDBRANCH   4   5
ENDBRANCH   3   4
ENDBRANCH   2   3
ENDBRANCH   1   2
BRANCH   1  15
ATOM     15  C   UNL     1      34.253 -44.882   2.557  1.00  0.00     0.000 C 
BRANCH  15  16
ATOM     16  C   UNL     1      33.131 -45.033   1.510  1.00  0.00     0.000 C 
BRANCH  16  17
ATOM     17  C   UNL     1      33.145 -44.005   0.359  1.00  0.00     0.000 C 
BRANCH  17  18
ATOM     18  C   UNL     1      32.338 -44.405  -0.889  1.00  0.00    -0.000 C 
BRANCH  18  19
ATOM     19  C   UNL     1      33.113 -45.349  -1.821  1.00  0.00    -0.000 C 
BRANCH  19  20
ATOM     20  C   UNL     1      32.158 -46.288  -2.568  1.00  0.00    -0.000 C 
BRANCH  20  21
ATOM     21  C   UNL     1      32.929 -47.408  -3.277  1.00  0.00    -0.000 C 
BRANCH  21  22
ATOM     22  C   UNL     1      32.155 -48.732  -3.215  1.00  0.00    -0.000 C 
BRANCH  22  23
ATOM     23  C   UNL     1      32.901 -49.893  -3.898  1.00  0.00    -0.000 C 
BRANCH  23  24
ATOM     24  C   UNL     1      34.345 -49.576  -4.336  1.00  0.00    -0.000 C 
BRANCH  24  25
ATOM     25  C   UNL     1      35.316 -50.768  -4.290  1.00  0.00    -0.003 C 
ATOM     26  C   UNL     1      36.548 -50.499  -3.426  1.00  0.00     0.004 C 
ENDBRANCH  24  25
ENDBRANCH  23  24
ENDBRANCH  22  23
ENDBRANCH  21  22
ENDBRANCH  20  21
ENDBRANCH  19  20
ENDBRANCH  18  19
ENDBRANCH  17  18
ENDBRANCH  16  17
ENDBRANCH  15  16
ENDBRANCH   1  15
TORSDOF 22
ENDMDL
MODEL 6
REMARK VINA RESULT:    -3.936      4.041      6.744
REMARK INTER + INTRA:         -12.531
REMARK INTER:                  -8.866
REMARK INTRA:                  -3.665
REMARK UNBOUND:                -3.533
REMARK SMILES CCCCCCCCCCCCCCCCCCCCCCCC(=O)[O-]
REMARK SMILES IDX 13 1 14 2 15 3 16 4 17 5 18 6 19 7 20 8 21 9 22 10 23 11
REMARK SMILES IDX 24 12 25 13 26 14 12 15 11 16 10 17 9 18 8 19 7 20 6 21 5 22
REMARK SMILES IDX 4 23 3 24 2 25 1 26
REMARK H PARENT
REMARK Flexibility Score: inf
ROOT
ATOM      1  C   UNL     1      36.129 -46.181   2.376  1.00  0.00     0.000 C 
ENDROOT
BRANCH   1   2
ATOM      2  C   UNL     1      34.828 -45.429   2.716  1.00  0.00     0.000 C 
BRANCH   2   3
ATOM      3  C   UNL     1      33.655 -45.732   1.759  1.00  0.00     0.000 C 
BRANCH   3   4
ATOM      4  C   UNL     1      34.056 -46.611   0.555  1.00  0.00     0.000 C 
BRANCH   4   5
ATOM      5  C   UNL     1      32.999 -47.661   0.155  1.00  0.00     0.000 C 
BRANCH   5   6
ATOM      6  C   UNL     1      33.536 -49.105   0.093  1.00  0.00     0.000 C 
BRANCH   6   7
ATOM      7  C   UNL     1      32.796 -50.050   1.057  1.00  0.00     0.000 C 
BRANCH   7   8
ATOM      8  C   UNL     1      33.717 -50.637   2.138  1.00  0.00     0.000 C 
BRANCH   8   9
ATOM      9  C   UNL     1      34.716 -49.606   2.687  1.00  0.00     0.000 C 
BRANCH   9  10
ATOM     10  C   UNL     1      36.178 -49.945   2.343  1.00  0.00     0.006 C 
BRANCH  10  11
ATOM     11  C   UNL     1      37.120 -49.970   3.560  1.00  0.00     0.053 C 
BRANCH  11  12
ATOM     12  C   UNL     1      37.007 -51.239   4.349  1.00  0.00     0.041 C 
ATOM     13  O   UNL     1      36.553 -51.216   5.524  1.00  0.00    -0.550 OA
ATOM     14  O   UNL     1      37.373 -52.451   3.779  1.00  0.00    -0.550 OA
ENDBRANCH  11  12
ENDBRANCH  10  11
ENDBRANCH   9  10
ENDBRANCH   8   9
ENDBRANCH   7   8
ENDBRANCH   6   7
ENDBRANCH   5   6
ENDBRANCH   4   5
ENDBRANCH   3   4
ENDBRANCH   2   3
ENDBRANCH   1   2
BRANCH   1  15
ATOM     15  C   UNL     1      37.226 -45.296   1.746  1.00  0.00     0.000 C 
BRANCH  15  16
ATOM     16  C   UNL     1      36.927 -43.783   1.751  1.00  0.00     0.000 C 
BRANCH  16  17
ATOM     17  C   UNL     1      36.490 -43.182   0.398  1.00  0.00     0.000 C 
BRANCH  17  18
ATOM     18  C   UNL     1      35.169 -42.392   0.426  1.00  0.00    -0.000 C 
BRANCH  18  19
ATOM     19  C   UNL     1      34.183 -42.844  -0.661  1.00  0.00    -0.000 C 
BRANCH  19  20
ATOM     20  C   UNL     1      34.827 -43.880  -1.591  1.00  0.00    -0.000 C 
BRANCH  20  21
ATOM     21  C   UNL     1      34.017 -44.040  -2.883  1.00  0.00    -0.000 C 
BRANCH  21  22
ATOM     22  C   UNL     1      32.883 -45.057  -2.698  1.00  0.00    -0.000 C 
BRANCH  22  23
ATOM     23  C   UNL     1      33.238 -46.454  -3.239  1.00  0.00    -0.000 C 
BRANCH  23  24
ATOM     24  C   UNL     1      32.039 -47.403  -3.439  1.00  0.00    -0.000 C 
BRANCH  24  25
ATOM     25  C   UNL     1      32.369 -48.901  -3.323  1.00  0.00    -0.003 C 
ATOM     26  C   UNL     1      33.820 -49.220  -3.681  1.00  0.00     0.004 C 
ENDBRANCH  24  25
ENDBRANCH  23  24
ENDBRANCH  22  23
ENDBRANCH  21  22
ENDBRANCH  20  21
ENDBRANCH  19  20
ENDBRANCH  18  19
ENDBRANCH  17  18
ENDBRANCH  16  17
ENDBRANCH  15  16
ENDBRANCH   1  15
TORSDOF 22
ENDMDL
MODEL 7
REMARK VINA RESULT:    -3.925      3.585      5.928
REMARK INTER + INTRA:         -12.505
REMARK INTER:                  -8.069
REMARK INTRA:                  -4.436
REMARK UNBOUND:                -3.533
REMARK SMILES CCCCCCCCCCCCCCCCCCCCCCCC(=O)[O-]
REMARK SMILES IDX 13 1 14 2 15 3 16 4 17 5 18 6 19 7 20 8 21 9 22 10 23 11
REMARK SMILES IDX 24 12 25 13 26 14 12 15 11 16 10 17 9 18 8 19 7 20 6 21 5 22
REMARK SMILES IDX 4 23 3 24 2 25 1 26
REMARK H PARENT
REMARK Flexibility Score: inf
ROOT
ATOM      1  C   UNL     1      32.868 -44.625   1.400  1.00  0.00     0.000 C 
ENDROOT
BRANCH   1   2
ATOM      2  C   UNL     1      32.947 -43.987  -0.000  1.00  0.00     0.000 C 
BRANCH   2   3
ATOM      3  C   UNL     1      34.172 -43.070  -0.208  1.00  0.00     0.000 C 
BRANCH   3   4
ATOM      4  C   UNL     1      35.077 -42.963   1.038  1.00  0.00     0.000 C 
BRANCH   4   5
ATOM      5  C   UNL     1      36.417 -43.717   0.915  1.00  0.00     0.000 C 
BRANCH   5   6
ATOM      6  C   UNL     1      36.619 -44.820   1.973  1.00  0.00     0.000 C 
BRANCH   6   7
ATOM      7  C   UNL     1      37.636 -45.886   1.524  1.00  0.00     0.000 C 
BRANCH   7   8
ATOM      8  C   UNL     1      37.374 -47.262   2.156  1.00  0.00     0.000 C 
BRANCH   8   9
ATOM      9  C   UNL     1      36.308 -47.211   3.263  1.00  0.00     0.000 C 
BRANCH   9  10
ATOM     10  C   UNL     1      35.525 -48.530   3.403  1.00  0.00     0.006 C 
BRANCH  10  11
ATOM     11  C   UNL     1      36.218 -49.580   4.287  1.00  0.00     0.053 C 
BRANCH  11  12
ATOM     12  C   UNL     1      36.449 -50.875   3.570  1.00  0.00     0.041 C 
ATOM     13  O   UNL     1      35.473 -51.595   3.231  1.00  0.00    -0.550 OA
ATOM     14  O   UNL     1      37.740 -51.274   3.247  1.00  0.00    -0.550 OA
ENDBRANCH  11  12
ENDBRANCH  10  11
ENDBRANCH   9  10
ENDBRANCH   8   9
ENDBRANCH   7   8
ENDBRANCH   6   7
ENDBRANCH   5   6
ENDBRANCH   4   5
ENDBRANCH   3   4
ENDBRANCH   2   3
ENDBRANCH   1   2
BRANCH   1  15
ATOM     15  C   UNL     1      33.270 -46.115   1.441  1.00  0.00     0.000 C 
BRANCH  15  16
ATOM     16  C   UNL     1      33.391 -46.796   0.062  1.00  0.00     0.000 C 
BRANCH  16  17
ATOM     17  C   UNL     1      34.467 -47.897  -0.050  1.00  0.00     0.000 C 
BRANCH  17  18
ATOM     18  C   UNL     1      35.595 -47.613  -1.057  1.00  0.00    -0.000 C 
BRANCH  18  19
ATOM     19  C   UNL     1      35.539 -46.187  -1.626  1.00  0.00    -0.000 C 
BRANCH  19  20
ATOM     20  C   UNL     1      35.570 -46.206  -3.159  1.00  0.00    -0.000 C 
BRANCH  20  21
ATOM     21  C   UNL     1      34.433 -45.359  -3.743  1.00  0.00    -0.000 C 
BRANCH  21  22
ATOM     22  C   UNL     1      33.330 -46.250  -4.331  1.00  0.00    -0.000 C 
BRANCH  22  23
ATOM     23  C   UNL     1      32.391 -46.827  -3.256  1.00  0.00    -0.000 C 
BRANCH  23  24
ATOM     24  C   UNL     1      32.181 -48.352  -3.322  1.00  0.00    -0.000 C 
BRANCH  24  25
ATOM     25  C   UNL     1      33.455 -49.174  -3.581  1.00  0.00    -0.003 C 
ATOM     26  C   UNL     1      33.175 -50.497  -4.294  1.00  0.00     0.004 C 
ENDBRANCH  24  25
ENDBRANCH  23  24
ENDBRANCH  22  23
ENDBRANCH  21  22
ENDBRANCH  20  21
ENDBRANCH  19  20
ENDBRANCH  18  19
ENDBRANCH  17  18
ENDBRANCH  16  17
ENDBRANCH  15  16
ENDBRANCH   1  15
TORSDOF 22
ENDMDL
MODEL 8
REMARK VINA RESULT:    -3.881      2.959      7.805
REMARK INTER + INTRA:         -12.406
REMARK INTER:                  -8.778
REMARK INTRA:                  -3.627
REMARK UNBOUND:                -3.533
REMARK SMILES CCCCCCCCCCCCCCCCCCCCCCCC(=O)[O-]
REMARK SMILES IDX 13 1 14 2 15 3 16 4 17 5 18 6 19 7 20 8 21 9 22 10 23 11
REMARK SMILES IDX 24 12 25 13 26 14 12 15 11 16 10 17 9 18 8 19 7 20 6 21 5 22
REMARK SMILES IDX 4 23 3 24 2 25 1 26
REMARK H PARENT
REMARK Flexibility Score: inf
ROOT
ATOM      1  C   UNL     1      31.182 -42.865  -4.888  1.00  0.00     0.000 C 
ENDROOT
BRANCH   1   2
ATOM      2  C   UNL     1      31.973 -42.801  -6.209  1.00  0.00     0.000 C 
BRANCH   2   3
ATOM      3  C   UNL     1      33.453 -43.223  -6.079  1.00  0.00     0.000 C 
BRANCH   3   4
ATOM      4  C   UNL     1      33.727 -44.139  -4.867  1.00  0.00     0.000 C 
BRANCH   4   5
ATOM      5  C   UNL     1      33.730 -45.645  -5.197  1.00  0.00     0.000 C 
BRANCH   5   6
ATOM      6  C   UNL     1      33.978 -46.557  -3.979  1.00  0.00     0.000 C 
BRANCH   6   7
ATOM      7  C   UNL     1      32.690 -47.241  -3.484  1.00  0.00     0.000 C 
BRANCH   7   8
ATOM      8  C   UNL     1      32.899 -48.034  -2.184  1.00  0.00     0.000 C 
BRANCH   8   9
ATOM      9  C   UNL     1      33.649 -47.225  -1.112  1.00  0.00     0.000 C 
BRANCH   9  10
ATOM     10  C   UNL     1      33.202 -47.569   0.320  1.00  0.00     0.006 C 
BRANCH  10  11
ATOM     11  C   UNL     1      34.154 -48.523   1.062  1.00  0.00     0.053 C 
BRANCH  11  12
ATOM     12  C   UNL     1      33.508 -49.831   1.406  1.00  0.00     0.041 C 
ATOM     13  O   UNL     1      32.458 -50.193   0.813  1.00  0.00    -0.550 OA
ATOM     14  O   UNL     1      34.081 -50.664   2.358  1.00  0.00    -0.550 OA
ENDBRANCH  11  12
ENDBRANCH  10  11
ENDBRANCH   9  10
ENDBRANCH   8   9
ENDBRANCH   7   8
ENDBRANCH   6   7
ENDBRANCH   5   6
ENDBRANCH   4   5
ENDBRANCH   3   4
ENDBRANCH   2   3
ENDBRANCH   1   2
BRANCH   1  15
ATOM     15  C   UNL     1      30.112 -43.976  -4.844  1.00  0.00     0.000 C 
BRANCH  15  16
ATOM     16  C   UNL     1      29.974 -44.695  -3.486  1.00  0.00     0.000 C 
BRANCH  16  17
ATOM     17  C   UNL     1      29.453 -43.829  -2.319  1.00  0.00     0.000 C 
BRANCH  17  18
ATOM     18  C   UNL     1      30.503 -43.458  -1.257  1.00  0.00    -0.000 C 
BRANCH  18  19
ATOM     19  C   UNL     1      31.845 -44.173  -1.472  1.00  0.00    -0.000 C 
BRANCH  19  20
ATOM     20  C   UNL     1      32.968 -43.479  -0.693  1.00  0.00    -0.000 C 
BRANCH  20  21
ATOM     21  C   UNL     1      34.279 -43.487  -1.488  1.00  0.00    -0.000 C 
BRANCH  21  22
ATOM     22  C   UNL     1      35.488 -43.319  -0.558  1.00  0.00    -0.000 C 
BRANCH  22  23
ATOM     23  C   UNL     1      35.244 -42.287   0.558  1.00  0.00    -0.000 C 
BRANCH  23  24
ATOM     24  C   UNL     1      35.439 -42.816   1.993  1.00  0.00    -0.000 C 
BRANCH  24  25
ATOM     25  C   UNL     1      35.336 -44.343   2.143  1.00  0.00    -0.003 C 
ATOM     26  C   UNL     1      33.945 -44.807   2.575  1.00  0.00     0.004 C 
ENDBRANCH  24  25
ENDBRANCH  23  24
ENDBRANCH  22  23
ENDBRANCH  21  22
ENDBRANCH  20  21
ENDBRANCH  19  20
ENDBRANCH  18  19
ENDBRANCH  17  18
ENDBRANCH  16  17
ENDBRANCH  15  16
ENDBRANCH   1  15
TORSDOF 22
ENDMDL
MODEL 9
REMARK VINA RESULT:    -3.855      1.788      5.538
REMARK INTER + INTRA:         -12.347
REMARK INTER:                  -8.096
REMARK INTRA:                  -4.251
REMARK UNBOUND:                -3.533
REMARK SMILES CCCCCCCCCCCCCCCCCCCCCCCC(=O)[O-]
REMARK SMILES IDX 13 1 14 2 15 3 16 4 17 5 18 6 19 7 20 8 21 9 22 10 23 11
REMARK SMILES IDX 24 12 25 13 26 14 12 15 11 16 10 17 9 18 8 19 7 20 6 21 5 22
REMARK SMILES IDX 4 23 3 24 2 25 1 26
REMARK H PARENT
REMARK Flexibility Score: inf
ROOT
ATOM      1  C   UNL     1      36.308 -44.459  -0.932  1.00  0.00     0.000 C 
ENDROOT
BRANCH   1   2
ATOM      2  C   UNL     1      36.056 -44.823  -2.407  1.00  0.00     0.000 C 
BRANCH   2   3
ATOM      3  C   UNL     1      35.754 -46.318  -2.646  1.00  0.00     0.000 C 
BRANCH   3   4
ATOM      4  C   UNL     1      35.695 -46.703  -4.139  1.00  0.00     0.000 C 
BRANCH   4   5
ATOM      5  C   UNL     1      34.427 -47.482  -4.546  1.00  0.00     0.000 C 
BRANCH   5   6
ATOM      6  C   UNL     1      33.960 -48.514  -3.501  1.00  0.00     0.000 C 
BRANCH   6   7
ATOM      7  C   UNL     1      32.520 -48.254  -3.021  1.00  0.00     0.000 C 
BRANCH   7   8
ATOM      8  C   UNL     1      32.009 -46.856  -3.403  1.00  0.00     0.000 C 
BRANCH   8   9
ATOM      9  C   UNL     1      32.076 -45.862  -2.233  1.00  0.00     0.000 C 
BRANCH   9  10
ATOM     10  C   UNL     1      31.995 -44.393  -2.688  1.00  0.00     0.006 C 
BRANCH  10  11
ATOM     11  C   UNL     1      32.771 -44.094  -3.983  1.00  0.00     0.053 C 
BRANCH  11  12
ATOM     12  C   UNL     1      31.879 -43.642  -5.098  1.00  0.00     0.041 C 
ATOM     13  O   UNL     1      32.365 -43.363  -6.226  1.00  0.00    -0.550 OA
ATOM     14  O   UNL     1      30.506 -43.558  -4.903  1.00  0.00    -0.550 OA
ENDBRANCH  11  12
ENDBRANCH  10  11
ENDBRANCH   9  10
ENDBRANCH   8   9
ENDBRANCH   7   8
ENDBRANCH   6   7
ENDBRANCH   5   6
ENDBRANCH   4   5
ENDBRANCH   3   4
ENDBRANCH   2   3
ENDBRANCH   1   2
BRANCH   1  15
ATOM     15  C   UNL     1      35.812 -43.053  -0.531  1.00  0.00     0.000 C 
BRANCH  15  16
ATOM     16  C   UNL     1      34.326 -42.977  -0.124  1.00  0.00     0.000 C 
BRANCH  16  17
ATOM     17  C   UNL     1      33.977 -43.577   1.255  1.00  0.00     0.000 C 
BRANCH  17  18
ATOM     18  C   UNL     1      33.011 -44.775   1.225  1.00  0.00    -0.000 C 
BRANCH  18  19
ATOM     19  C   UNL     1      33.658 -46.073   1.731  1.00  0.00    -0.000 C 
BRANCH  19  20
ATOM     20  C   UNL     1      34.045 -46.985   0.561  1.00  0.00    -0.000 C 
BRANCH  20  21
ATOM     21  C   UNL     1      33.171 -48.245   0.532  1.00  0.00    -0.000 C 
BRANCH  21  22
ATOM     22  C   UNL     1      34.029 -49.512   0.653  1.00  0.00    -0.000 C 
BRANCH  22  23
ATOM     23  C   UNL     1      34.178 -49.997   2.106  1.00  0.00    -0.000 C 
BRANCH  23  24
ATOM     24  C   UNL     1      35.585 -49.825   2.712  1.00  0.00    -0.000 C 
BRANCH  24  25
ATOM     25  C   UNL     1      35.731 -48.650   3.694  1.00  0.00    -0.003 C 
ATOM     26  C   UNL     1      36.712 -47.585   3.206  1.00  0.00     0.004 C 
ENDBRANCH  24  25
ENDBRANCH  23  24
ENDBRANCH  22  23
ENDBRANCH  21  22
ENDBRANCH  20  21
ENDBRANCH  19  20
ENDBRANCH  18  19
ENDBRANCH  17  18
ENDBRANCH  16  17
ENDBRANCH  15  16
ENDBRANCH   1  15
TORSDOF 22
ENDMDL
