MODEL 1
REMARK VINA RESULT:    -4.866      0.000      0.000
REMARK INTER + INTRA:          -6.010
REMARK INTER:                  -5.720
REMARK INTRA:                  -0.290
REMARK UNBOUND:                -0.290
REMARK SMILES O=c1c(O)c(-c2ccc(O)cc2)oc2cc(O)cc(O)c12
REMARK SMILES IDX 5 1 3 2 2 3 1 4 21 5 19 6 18 7 16 8 15 9 14 10 13 11 6 12
REMARK SMILES IDX 7 13 8 14 9 15 12 16 11 17 10 18 4 20 20 22 17 24
REMARK H PARENT 10 19 4 21 20 23 17 25
REMARK Flexibility Score: inf
ROOT
ATOM      1  C   UNL     1     141.642 147.404 137.141  1.00  0.00     0.180 A 
ATOM      2  C   UNL     1     140.756 148.137 136.331  1.00  0.00     0.208 A 
ATOM      3  C   UNL     1     140.767 149.539 136.407  1.00  0.00     0.238 A 
ATOM      4  O   UNL     1     140.011 150.190 135.640  1.00  0.00    -0.285 OA
ATOM      5  C   UNL     1     141.651 150.189 137.300  1.00  0.00     0.111 A 
ATOM      6  C   UNL     1     141.719 151.603 137.488  1.00  0.00     0.134 A 
ATOM      7  C   UNL     1     142.722 152.144 138.302  1.00  0.00     0.093 A 
ATOM      8  C   UNL     1     143.616 151.322 138.987  1.00  0.00     0.123 A 
ATOM      9  C   UNL     1     143.520 149.936 138.857  1.00  0.00     0.094 A 
ATOM     10  C   UNL     1     142.555 149.368 138.024  1.00  0.00     0.146 A 
ATOM     11  O   UNL     1     142.504 148.045 137.921  1.00  0.00    -0.452 OA
ENDROOT
BRANCH   1  12
ATOM     12  C   UNL     1     141.672 145.923 137.136  1.00  0.00     0.021 A 
ATOM     13  C   UNL     1     142.656 145.253 136.389  1.00  0.00     0.016 A 
ATOM     14  C   UNL     1     142.715 143.857 136.388  1.00  0.00     0.047 A 
ATOM     15  C   UNL     1     141.803 143.112 137.147  1.00  0.00     0.115 A 
ATOM     16  C   UNL     1     140.771 145.169 137.911  1.00  0.00     0.016 A 
ATOM     17  C   UNL     1     140.834 143.772 137.909  1.00  0.00     0.047 A 
BRANCH  15  18
ATOM     18  O   UNL     1     141.854 141.720 137.154  1.00  0.00    -0.508 OA
ATOM     19  H   UNL     1     142.042 141.192 136.310  1.00  0.00     0.293 HD
ENDBRANCH  15  18
ENDBRANCH   1  12
BRANCH   2  20
ATOM     20  O   UNL     1     139.908 147.475 135.439  1.00  0.00    -0.502 OA
ATOM     21  H   UNL     1     140.257 146.942 134.651  1.00  0.00     0.293 HD
ENDBRANCH   2  20
BRANCH   6  22
ATOM     22  O   UNL     1     140.817 152.509 136.924  1.00  0.00    -0.507 OA
ATOM     23  H   UNL     1     140.300 153.203 137.441  1.00  0.00     0.293 HD
ENDBRANCH   6  22
BRANCH   8  24
ATOM     24  O   UNL     1     144.591 151.894 139.802  1.00  0.00    -0.508 OA
ATOM     25  H   UNL     1     145.150 152.679 139.487  1.00  0.00     0.293 HD
ENDBRANCH   8  24
TORSDOF 5
ENDMDL
MODEL 2
REMARK VINA RESULT:    -4.850      5.755      8.352
REMARK INTER + INTRA:          -5.991
REMARK INTER:                  -5.691
REMARK INTRA:                  -0.300
REMARK UNBOUND:                -0.290
REMARK SMILES O=c1c(O)c(-c2ccc(O)cc2)oc2cc(O)cc(O)c12
REMARK SMILES IDX 5 1 3 2 2 3 1 4 21 5 19 6 18 7 16 8 15 9 14 10 13 11 6 12
REMARK SMILES IDX 7 13 8 14 9 15 12 16 11 17 10 18 4 20 20 22 17 24
REMARK H PARENT 10 19 4 21 20 23 17 25
REMARK Flexibility Score: inf
ROOT
ATOM      1  C   UNL     1     145.261 141.562 137.125  1.00  0.00     0.180 A 
ATOM      2  C   UNL     1     144.533 140.682 136.305  1.00  0.00     0.208 A 
ATOM      3  C   UNL     1     143.131 140.697 136.368  1.00  0.00     0.238 A 
ATOM      4  O   UNL     1     142.484 139.946 135.591  1.00  0.00    -0.285 OA
ATOM      5  C   UNL     1     142.475 141.578 137.260  1.00  0.00     0.111 A 
ATOM      6  C   UNL     1     141.059 141.648 137.436  1.00  0.00     0.134 A 
ATOM      7  C   UNL     1     140.513 142.647 138.251  1.00  0.00     0.093 A 
ATOM      8  C   UNL     1     141.331 143.536 138.948  1.00  0.00     0.123 A 
ATOM      9  C   UNL     1     142.718 143.438 138.829  1.00  0.00     0.094 A 
ATOM     10  C   UNL     1     143.291 142.475 137.996  1.00  0.00     0.146 A 
ATOM     11  O   UNL     1     144.615 142.422 137.905  1.00  0.00    -0.452 OA
ENDROOT
BRANCH   1  12
ATOM     12  C   UNL     1     146.742 141.589 137.134  1.00  0.00     0.021 A 
ATOM     13  C   UNL     1     147.422 142.507 136.316  1.00  0.00     0.016 A 
ATOM     14  C   UNL     1     148.819 142.564 136.325  1.00  0.00     0.047 A 
ATOM     15  C   UNL     1     149.552 141.715 137.164  1.00  0.00     0.115 A 
ATOM     16  C   UNL     1     147.485 140.753 137.988  1.00  0.00     0.016 A 
ATOM     17  C   UNL     1     148.882 140.814 137.996  1.00  0.00     0.047 A 
BRANCH  15  18
ATOM     18  O   UNL     1     150.945 141.764 137.182  1.00  0.00    -0.508 OA
ATOM     19  H   UNL     1     151.451 142.575 136.848  1.00  0.00     0.293 HD
ENDBRANCH  15  18
ENDBRANCH   1  12
BRANCH   2  20
ATOM     20  O   UNL     1     145.201 139.838 135.414  1.00  0.00    -0.502 OA
ATOM     21  H   UNL     1     144.918 138.877 135.260  1.00  0.00     0.293 HD
ENDBRANCH   2  20
BRANCH   6  22
ATOM     22  O   UNL     1     140.156 140.750 136.859  1.00  0.00    -0.507 OA
ATOM     23  H   UNL     1     139.885 139.867 137.264  1.00  0.00     0.293 HD
ENDBRANCH   6  22
BRANCH   8  24
ATOM     24  O   UNL     1     140.753 144.507 139.762  1.00  0.00    -0.508 OA
ATOM     25  H   UNL     1     139.913 145.001 139.483  1.00  0.00     0.293 HD
ENDBRANCH   8  24
TORSDOF 5
ENDMDL
MODEL 3
REMARK VINA RESULT:    -4.849      5.693      8.310
REMARK INTER + INTRA:          -5.990
REMARK INTER:                  -5.713
REMARK INTRA:                  -0.277
REMARK UNBOUND:                -0.290
REMARK SMILES O=c1c(O)c(-c2ccc(O)cc2)oc2cc(O)cc(O)c12
REMARK SMILES IDX 5 1 3 2 2 3 1 4 21 5 19 6 18 7 16 8 15 9 14 10 13 11 6 12
REMARK SMILES IDX 7 13 8 14 9 15 12 16 11 17 10 18 4 20 20 22 17 24
REMARK H PARENT 10 19 4 21 20 23 17 25
REMARK Flexibility Score: inf
ROOT
ATOM      1  C   UNL     1     147.399 151.036 137.184  1.00  0.00     0.180 A 
ATOM      2  C   UNL     1     148.121 151.928 136.373  1.00  0.00     0.208 A 
ATOM      3  C   UNL     1     149.525 151.907 136.420  1.00  0.00     0.238 A 
ATOM      4  O   UNL     1     150.165 152.670 135.651  1.00  0.00    -0.285 OA
ATOM      5  C   UNL     1     150.187 151.008 137.289  1.00  0.00     0.111 A 
ATOM      6  C   UNL     1     151.604 150.929 137.448  1.00  0.00     0.134 A 
ATOM      7  C   UNL     1     152.154 149.913 138.238  1.00  0.00     0.093 A 
ATOM      8  C   UNL     1     151.341 149.014 138.927  1.00  0.00     0.123 A 
ATOM      9  C   UNL     1     149.953 149.120 138.826  1.00  0.00     0.094 A 
ATOM     10  C   UNL     1     149.374 150.100 138.017  1.00  0.00     0.146 A 
ATOM     11  O   UNL     1     148.050 150.159 137.940  1.00  0.00    -0.452 OA
ENDROOT
BRANCH   1  12
ATOM     12  C   UNL     1     145.918 151.014 137.208  1.00  0.00     0.021 A 
ATOM     13  C   UNL     1     145.229 150.002 136.518  1.00  0.00     0.016 A 
ATOM     14  C   UNL     1     143.833 149.951 136.546  1.00  0.00     0.047 A 
ATOM     15  C   UNL     1     143.108 150.900 137.277  1.00  0.00     0.115 A 
ATOM     16  C   UNL     1     145.184 151.953 137.957  1.00  0.00     0.016 A 
ATOM     17  C   UNL     1     143.787 151.898 137.984  1.00  0.00     0.047 A 
BRANCH  15  18
ATOM     18  O   UNL     1     141.716 150.858 137.312  1.00  0.00    -0.508 OA
ATOM     19  H   UNL     1     141.190 151.309 138.052  1.00  0.00     0.293 HD
ENDBRANCH  15  18
ENDBRANCH   1  12
BRANCH   2  20
ATOM     20  O   UNL     1     147.447 152.792 135.505  1.00  0.00    -0.502 OA
ATOM     21  H   UNL     1     147.012 152.470 134.648  1.00  0.00     0.293 HD
ENDBRANCH   2  20
BRANCH   6  22
ATOM     22  O   UNL     1     152.504 151.834 136.878  1.00  0.00    -0.507 OA
ATOM     23  H   UNL     1     153.425 152.033 137.238  1.00  0.00     0.293 HD
ENDBRANCH   6  22
BRANCH   8  24
ATOM     24  O   UNL     1     151.923 148.025 139.717  1.00  0.00    -0.508 OA
ATOM     25  H   UNL     1     152.178 148.200 140.682  1.00  0.00     0.293 HD
ENDBRANCH   8  24
TORSDOF 5
ENDMDL
MODEL 4
REMARK VINA RESULT:    -4.798      8.458     11.744
REMARK INTER + INTRA:          -5.930
REMARK INTER:                  -5.637
REMARK INTRA:                  -0.293
REMARK UNBOUND:                -0.290
REMARK SMILES O=c1c(O)c(-c2ccc(O)cc2)oc2cc(O)cc(O)c12
REMARK SMILES IDX 5 1 3 2 2 3 1 4 21 5 19 6 18 7 16 8 15 9 14 10 13 11 6 12
REMARK SMILES IDX 7 13 8 14 9 15 12 16 11 17 10 18 4 20 20 22 17 24
REMARK H PARENT 10 19 4 21 20 23 17 25
REMARK Flexibility Score: inf
ROOT
ATOM      1  C   UNL     1     151.051 145.349 137.145  1.00  0.00     0.180 A 
ATOM      2  C   UNL     1     151.981 144.650 136.357  1.00  0.00     0.208 A 
ATOM      3  C   UNL     1     151.998 143.246 136.409  1.00  0.00     0.238 A 
ATOM      4  O   UNL     1     152.796 142.625 135.660  1.00  0.00    -0.285 OA
ATOM      5  C   UNL     1     151.097 142.562 137.259  1.00  0.00     0.111 A 
ATOM      6  C   UNL     1     151.054 141.143 137.421  1.00  0.00     0.134 A 
ATOM      7  C   UNL     1     150.035 140.567 138.189  1.00  0.00     0.093 A 
ATOM      8  C   UNL     1     149.099 141.358 138.854  1.00  0.00     0.123 A 
ATOM      9  C   UNL     1     149.168 142.747 138.750  1.00  0.00     0.094 A 
ATOM     10  C   UNL     1     150.150 143.351 137.962  1.00  0.00     0.146 A 
ATOM     11  O   UNL     1     150.175 144.676 137.883  1.00  0.00    -0.452 OA
ENDROOT
BRANCH   1  12
ATOM     12  C   UNL     1     150.987 146.829 137.164  1.00  0.00     0.021 A 
ATOM     13  C   UNL     1     150.031 147.491 136.375  1.00  0.00     0.016 A 
ATOM     14  C   UNL     1     149.940 148.885 136.395  1.00  0.00     0.047 A 
ATOM     15  C   UNL     1     150.793 149.635 137.215  1.00  0.00     0.115 A 
ATOM     16  C   UNL     1     151.828 147.588 138.000  1.00  0.00     0.016 A 
ATOM     17  C   UNL     1     151.733 148.983 138.018  1.00  0.00     0.047 A 
BRANCH  15  18
ATOM     18  O   UNL     1     150.711 151.026 137.243  1.00  0.00    -0.508 OA
ATOM     19  H   UNL     1     150.568 151.531 138.109  1.00  0.00     0.293 HD
ENDBRANCH  15  18
ENDBRANCH   1  12
BRANCH   2  20
ATOM     20  O   UNL     1     152.846 145.345 135.508  1.00  0.00    -0.502 OA
ATOM     21  H   UNL     1     153.787 145.024 135.309  1.00  0.00     0.293 HD
ENDBRANCH   2  20
BRANCH   6  22
ATOM     22  O   UNL     1     151.997 140.268 136.875  1.00  0.00    -0.507 OA
ATOM     23  H   UNL     1     152.680 140.520 136.177  1.00  0.00     0.293 HD
ENDBRANCH   6  22
BRANCH   8  24
ATOM     24  O   UNL     1     148.108 140.750 139.622  1.00  0.00    -0.508 OA
ATOM     25  H   UNL     1     147.582 139.956 139.276  1.00  0.00     0.293 HD
ENDBRANCH   8  24
TORSDOF 5
ENDMDL
MODEL 5
REMARK VINA RESULT:    -4.664      1.504      2.205
REMARK INTER + INTRA:          -5.772
REMARK INTER:                  -5.482
REMARK INTRA:                  -0.290
REMARK UNBOUND:                -0.290
REMARK SMILES O=c1c(O)c(-c2ccc(O)cc2)oc2cc(O)cc(O)c12
REMARK SMILES IDX 5 1 3 2 2 3 1 4 21 5 19 6 18 7 16 8 15 9 14 10 13 11 6 12
REMARK SMILES IDX 7 13 8 14 9 15 12 16 11 17 10 18 4 20 20 22 17 24
REMARK H PARENT 10 19 4 21 20 23 17 25
REMARK Flexibility Score: inf
ROOT
ATOM      1  C   UNL     1     140.842 145.490 136.830  1.00  0.00     0.180 A 
ATOM      2  C   UNL     1     139.674 146.113 136.355  1.00  0.00     0.208 A 
ATOM      3  C   UNL     1     139.610 147.515 136.339  1.00  0.00     0.238 A 
ATOM      4  O   UNL     1     138.585 148.067 135.861  1.00  0.00    -0.285 OA
ATOM      5  C   UNL     1     140.706 148.276 136.812  1.00  0.00     0.111 A 
ATOM      6  C   UNL     1     140.733 149.702 136.879  1.00  0.00     0.134 A 
ATOM      7  C   UNL     1     141.918 150.353 137.242  1.00  0.00     0.093 A 
ATOM      8  C   UNL     1     143.056 149.632 137.604  1.00  0.00     0.123 A 
ATOM      9  C   UNL     1     143.021 148.237 137.599  1.00  0.00     0.094 A 
ATOM     10  C   UNL     1     141.865 147.559 137.206  1.00  0.00     0.146 A 
ATOM     11  O   UNL     1     141.877 146.231 137.206  1.00  0.00    -0.452 OA
ENDROOT
BRANCH   1  12
ATOM     12  C   UNL     1     140.976 144.016 136.901  1.00  0.00     0.021 A 
ATOM     13  C   UNL     1     141.476 143.312 135.793  1.00  0.00     0.016 A 
ATOM     14  C   UNL     1     141.631 141.924 135.847  1.00  0.00     0.047 A 
ATOM     15  C   UNL     1     141.304 141.224 137.015  1.00  0.00     0.115 A 
ATOM     16  C   UNL     1     140.667 143.308 138.078  1.00  0.00     0.016 A 
ATOM     17  C   UNL     1     140.825 141.920 138.129  1.00  0.00     0.047 A 
BRANCH  15  18
ATOM     18  O   UNL     1     141.455 139.841 137.081  1.00  0.00    -0.508 OA
ATOM     19  H   UNL     1     140.834 139.216 136.580  1.00  0.00     0.293 HD
ENDBRANCH  15  18
ENDBRANCH   1  12
BRANCH   2  20
ATOM     20  O   UNL     1     138.614 145.342 135.871  1.00  0.00    -0.502 OA
ATOM     21  H   UNL     1     138.523 144.353 136.074  1.00  0.00     0.293 HD
ENDBRANCH   2  20
BRANCH   6  22
ATOM     22  O   UNL     1     139.625 150.516 136.628  1.00  0.00    -0.507 OA
ATOM     23  H   UNL     1     138.855 150.652 137.265  1.00  0.00     0.293 HD
ENDBRANCH   6  22
BRANCH   8  24
ATOM     24  O   UNL     1     144.213 150.313 137.975  1.00  0.00    -0.508 OA
ATOM     25  H   UNL     1     144.505 151.159 137.500  1.00  0.00     0.293 HD
ENDBRANCH   8  24
TORSDOF 5
ENDMDL
MODEL 6
REMARK VINA RESULT:    -4.660      5.920      9.727
REMARK INTER + INTRA:          -5.767
REMARK INTER:                  -5.478
REMARK INTRA:                  -0.288
REMARK UNBOUND:                -0.290
REMARK SMILES O=c1c(O)c(-c2ccc(O)cc2)oc2cc(O)cc(O)c12
REMARK SMILES IDX 5 1 3 2 2 3 1 4 21 5 19 6 18 7 16 8 15 9 14 10 13 11 6 12
REMARK SMILES IDX 7 13 8 14 9 15 12 16 11 17 10 18 4 20 20 22 17 24
REMARK H PARENT 10 19 4 21 20 23 17 25
REMARK Flexibility Score: inf
ROOT
ATOM      1  C   UNL     1     147.092 140.845 136.826  1.00  0.00     0.180 A 
ATOM      2  C   UNL     1     146.469 139.677 136.354  1.00  0.00     0.208 A 
ATOM      3  C   UNL     1     145.066 139.610 136.346  1.00  0.00     0.238 A 
ATOM      4  O   UNL     1     144.514 138.584 135.872  1.00  0.00    -0.285 OA
ATOM      5  C   UNL     1     144.306 140.704 136.825  1.00  0.00     0.111 A 
ATOM      6  C   UNL     1     142.880 140.729 136.901  1.00  0.00     0.134 A 
ATOM      7  C   UNL     1     142.229 141.912 137.268  1.00  0.00     0.093 A 
ATOM      8  C   UNL     1     142.950 143.051 137.626  1.00  0.00     0.123 A 
ATOM      9  C   UNL     1     144.345 143.019 137.612  1.00  0.00     0.094 A 
ATOM     10  C   UNL     1     145.023 141.865 137.215  1.00  0.00     0.146 A 
ATOM     11  O   UNL     1     146.351 141.879 137.207  1.00  0.00    -0.452 OA
ENDROOT
BRANCH   1  12
ATOM     12  C   UNL     1     148.566 140.982 136.888  1.00  0.00     0.021 A 
ATOM     13  C   UNL     1     149.264 141.471 135.770  1.00  0.00     0.016 A 
ATOM     14  C   UNL     1     150.652 141.629 135.816  1.00  0.00     0.047 A 
ATOM     15  C   UNL     1     151.358 141.315 136.984  1.00  0.00     0.115 A 
ATOM     16  C   UNL     1     149.280 140.687 138.064  1.00  0.00     0.016 A 
ATOM     17  C   UNL     1     150.668 140.847 138.107  1.00  0.00     0.047 A 
BRANCH  15  18
ATOM     18  O   UNL     1     152.742 141.468 137.041  1.00  0.00    -0.508 OA
ATOM     19  H   UNL     1     153.220 142.172 136.490  1.00  0.00     0.293 HD
ENDBRANCH  15  18
ENDBRANCH   1  12
BRANCH   2  20
ATOM     20  O   UNL     1     147.238 138.618 135.865  1.00  0.00    -0.502 OA
ATOM     21  H   UNL     1     147.339 138.432 134.874  1.00  0.00     0.293 HD
ENDBRANCH   2  20
BRANCH   6  22
ATOM     22  O   UNL     1     142.067 139.619 136.654  1.00  0.00    -0.507 OA
ATOM     23  H   UNL     1     142.362 138.659 136.744  1.00  0.00     0.293 HD
ENDBRANCH   6  22
BRANCH   8  24
ATOM     24  O   UNL     1     142.269 144.207 138.001  1.00  0.00    -0.508 OA
ATOM     25  H   UNL     1     142.573 145.124 137.695  1.00  0.00     0.293 HD
ENDBRANCH   8  24
TORSDOF 5
ENDMDL
MODEL 7
REMARK VINA RESULT:    -4.654      8.793     11.892
REMARK INTER + INTRA:          -5.760
REMARK INTER:                  -5.468
REMARK INTRA:                  -0.292
REMARK UNBOUND:                -0.290
REMARK SMILES O=c1c(O)c(-c2ccc(O)cc2)oc2cc(O)cc(O)c12
REMARK SMILES IDX 5 1 3 2 2 3 1 4 21 5 19 6 18 7 16 8 15 9 14 10 13 11 6 12
REMARK SMILES IDX 7 13 8 14 9 15 12 16 11 17 10 18 4 20 20 22 17 24
REMARK H PARENT 10 19 4 21 20 23 17 25
REMARK Flexibility Score: inf
ROOT
ATOM      1  C   UNL     1     151.661 147.073 136.890  1.00  0.00     0.180 A 
ATOM      2  C   UNL     1     152.817 146.408 136.442  1.00  0.00     0.208 A 
ATOM      3  C   UNL     1     152.841 145.004 136.455  1.00  0.00     0.238 A 
ATOM      4  O   UNL     1     153.857 144.414 136.002  1.00  0.00    -0.285 OA
ATOM      5  C   UNL     1     151.719 144.284 136.929  1.00  0.00     0.111 A 
ATOM      6  C   UNL     1     151.650 142.861 137.024  1.00  0.00     0.134 A 
ATOM      7  C   UNL     1     150.442 142.251 137.385  1.00  0.00     0.093 A 
ATOM      8  C   UNL     1     149.322 143.011 137.717  1.00  0.00     0.123 A 
ATOM      9  C   UNL     1     149.396 144.404 137.685  1.00  0.00     0.094 A 
ATOM     10  C   UNL     1     150.575 145.041 137.294  1.00  0.00     0.146 A 
ATOM     11  O   UNL     1     150.601 146.368 137.267  1.00  0.00    -0.452 OA
ENDROOT
BRANCH   1  12
ATOM     12  C   UNL     1     151.569 148.551 136.930  1.00  0.00     0.021 A 
ATOM     13  C   UNL     1     151.082 149.244 135.809  1.00  0.00     0.016 A 
ATOM     14  C   UNL     1     150.965 150.637 135.834  1.00  0.00     0.047 A 
ATOM     15  C   UNL     1     151.318 151.352 136.985  1.00  0.00     0.115 A 
ATOM     16  C   UNL     1     151.903 149.275 138.090  1.00  0.00     0.016 A 
ATOM     17  C   UNL     1     151.783 150.668 138.112  1.00  0.00     0.047 A 
BRANCH  15  18
ATOM     18  O   UNL     1     151.206 152.741 137.021  1.00  0.00    -0.508 OA
ATOM     19  H   UNL     1     150.613 153.241 136.369  1.00  0.00     0.293 HD
ENDBRANCH  15  18
ENDBRANCH   1  12
BRANCH   2  20
ATOM     20  O   UNL     1     153.905 147.138 135.957  1.00  0.00    -0.502 OA
ATOM     21  H   UNL     1     153.987 147.409 134.984  1.00  0.00     0.293 HD
ENDBRANCH   2  20
BRANCH   6  22
ATOM     22  O   UNL     1     152.738 142.011 136.803  1.00  0.00    -0.507 OA
ATOM     23  H   UNL     1     153.473 142.181 136.135  1.00  0.00     0.293 HD
ENDBRANCH   6  22
BRANCH   8  24
ATOM     24  O   UNL     1     148.141 142.370 138.087  1.00  0.00    -0.508 OA
ATOM     25  H   UNL     1     147.828 142.351 139.050  1.00  0.00     0.293 HD
ENDBRANCH   8  24
TORSDOF 5
ENDMDL
MODEL 8
REMARK VINA RESULT:    -4.644      4.763      7.363
REMARK INTER + INTRA:          -5.749
REMARK INTER:                  -5.485
REMARK INTRA:                  -0.264
REMARK UNBOUND:                -0.290
REMARK SMILES O=c1c(O)c(-c2ccc(O)cc2)oc2cc(O)cc(O)c12
REMARK SMILES IDX 5 1 3 2 2 3 1 4 21 5 19 6 18 7 16 8 15 9 14 10 13 11 6 12
REMARK SMILES IDX 7 13 8 14 9 15 12 16 11 17 10 18 4 20 20 22 17 24
REMARK H PARENT 10 19 4 21 20 23 17 25
REMARK Flexibility Score: inf
ROOT
ATOM      1  C   UNL     1     145.487 151.824 136.849  1.00  0.00     0.180 A 
ATOM      2  C   UNL     1     146.106 152.993 136.372  1.00  0.00     0.208 A 
ATOM      3  C   UNL     1     147.509 153.052 136.334  1.00  0.00     0.238 A 
ATOM      4  O   UNL     1     148.056 154.079 135.856  1.00  0.00    -0.285 OA
ATOM      5  C   UNL     1     148.273 151.951 136.787  1.00  0.00     0.111 A 
ATOM      6  C   UNL     1     149.700 151.917 136.831  1.00  0.00     0.134 A 
ATOM      7  C   UNL     1     150.352 150.727 137.175  1.00  0.00     0.093 A 
ATOM      8  C   UNL     1     149.633 149.590 137.540  1.00  0.00     0.123 A 
ATOM      9  C   UNL     1     148.238 149.629 137.557  1.00  0.00     0.094 A 
ATOM     10  C   UNL     1     147.558 150.790 137.184  1.00  0.00     0.146 A 
ATOM     11  O   UNL     1     146.231 150.783 137.205  1.00  0.00    -0.452 OA
ENDROOT
BRANCH   1  12
ATOM     12  C   UNL     1     144.014 151.694 136.942  1.00  0.00     0.021 A 
ATOM     13  C   UNL     1     143.276 151.344 135.799  1.00  0.00     0.016 A 
ATOM     14  C   UNL     1     141.888 151.195 135.871  1.00  0.00     0.047 A 
ATOM     15  C   UNL     1     141.222 151.378 137.090  1.00  0.00     0.115 A 
ATOM     16  C   UNL     1     143.341 151.857 138.168  1.00  0.00     0.016 A 
ATOM     17  C   UNL     1     141.952 151.706 138.236  1.00  0.00     0.047 A 
BRANCH  15  18
ATOM     18  O   UNL     1     139.839 151.232 137.173  1.00  0.00    -0.508 OA
ATOM     19  H   UNL     1     139.312 151.612 137.950  1.00  0.00     0.293 HD
ENDBRANCH  15  18
ENDBRANCH   1  12
BRANCH   2  20
ATOM     20  O   UNL     1     145.332 154.059 135.909  1.00  0.00    -0.502 OA
ATOM     21  H   UNL     1     144.491 153.923 135.360  1.00  0.00     0.293 HD
ENDBRANCH   2  20
BRANCH   6  22
ATOM     22  O   UNL     1     150.514 153.025 136.576  1.00  0.00    -0.507 OA
ATOM     23  H   UNL     1     150.184 153.912 136.227  1.00  0.00     0.293 HD
ENDBRANCH   6  22
BRANCH   8  24
ATOM     24  O   UNL     1     150.316 148.428 137.891  1.00  0.00    -0.508 OA
ATOM     25  H   UNL     1     149.912 147.510 137.743  1.00  0.00     0.293 HD
ENDBRANCH   8  24
TORSDOF 5
ENDMDL
MODEL 9
REMARK VINA RESULT:    -4.638      6.249      8.242
REMARK INTER + INTRA:          -5.742
REMARK INTER:                  -5.860
REMARK INTRA:                   0.118
REMARK UNBOUND:                -0.290
REMARK SMILES O=c1c(O)c(-c2ccc(O)cc2)oc2cc(O)cc(O)c12
REMARK SMILES IDX 5 1 3 2 2 3 1 4 21 5 19 6 18 7 16 8 15 9 14 10 13 11 6 12
REMARK SMILES IDX 7 13 8 14 9 15 12 16 11 17 10 18 4 20 20 22 17 24
REMARK H PARENT 10 19 4 21 20 23 17 25
REMARK Flexibility Score: inf
ROOT
ATOM      1  C   UNL     1     148.404 151.717 136.882  1.00  0.00     0.180 A 
ATOM      2  C   UNL     1     148.858 152.601 135.887  1.00  0.00     0.208 A 
ATOM      3  C   UNL     1     147.927 153.425 135.233  1.00  0.00     0.238 A 
ATOM      4  O   UNL     1     148.347 154.252 134.383  1.00  0.00    -0.285 OA
ATOM      5  C   UNL     1     146.555 153.342 135.570  1.00  0.00     0.111 A 
ATOM      6  C   UNL     1     145.519 154.100 134.943  1.00  0.00     0.134 A 
ATOM      7  C   UNL     1     144.215 154.033 135.446  1.00  0.00     0.093 A 
ATOM      8  C   UNL     1     143.893 153.188 136.507  1.00  0.00     0.123 A 
ATOM      9  C   UNL     1     144.886 152.399 137.088  1.00  0.00     0.094 A 
ATOM     10  C   UNL     1     146.204 152.471 136.634  1.00  0.00     0.146 A 
ATOM     11  O   UNL     1     147.120 151.710 137.220  1.00  0.00    -0.452 OA
ENDROOT
BRANCH   1  12
ATOM     12  C   UNL     1     149.321 150.800 137.599  1.00  0.00     0.021 A 
ATOM     13  C   UNL     1     150.519 151.300 138.136  1.00  0.00     0.016 A 
ATOM     14  C   UNL     1     151.387 150.456 138.835  1.00  0.00     0.047 A 
ATOM     15  C   UNL     1     151.061 149.107 139.020  1.00  0.00     0.115 A 
ATOM     16  C   UNL     1     148.990 149.447 137.805  1.00  0.00     0.016 A 
ATOM     17  C   UNL     1     149.860 148.607 138.506  1.00  0.00     0.047 A 
BRANCH  15  18
ATOM     18  O   UNL     1     151.919 148.257 139.715  1.00  0.00    -0.508 OA
ATOM     19  H   UNL     1     151.913 148.210 140.728  1.00  0.00     0.293 HD
ENDBRANCH  15  18
ENDBRANCH   1  12
BRANCH   2  20
ATOM     20  O   UNL     1     150.220 152.683 135.587  1.00  0.00    -0.502 OA
ATOM     21  H   UNL     1     150.738 151.905 135.196  1.00  0.00     0.293 HD
ENDBRANCH   2  20
BRANCH   6  22
ATOM     22  O   UNL     1     145.715 154.905 133.817  1.00  0.00    -0.507 OA
ATOM     23  H   UNL     1     145.318 154.726 132.907  1.00  0.00     0.293 HD
ENDBRANCH   6  22
BRANCH   8  24
ATOM     24  O   UNL     1     142.580 153.136 136.971  1.00  0.00    -0.508 OA
ATOM     25  H   UNL     1     142.178 153.894 137.510  1.00  0.00     0.293 HD
ENDBRANCH   8  24
TORSDOF 5
ENDMDL
