MODEL 1
REMARK VINA RESULT:    -6.410      0.000      0.000
REMARK INTER + INTRA:          -8.020
REMARK INTER:                  -7.721
REMARK INTRA:                  -0.299
REMARK UNBOUND:                -0.299
REMARK SMILES O=c1c(O)c(-c2ccc(O)c(O)c2)oc2cc(O)cc(O)c12
REMARK SMILES IDX 5 1 3 2 2 3 1 4 22 5 20 6 19 7 17 8 16 9 15 10 14 11 6 12
REMARK SMILES IDX 7 13 8 14 9 15 13 16 11 17 10 18 12 20 4 22 21 24 18 26
REMARK H PARENT 10 19 12 21 4 23 21 25 18 27
REMARK Flexibility Score: inf
ROOT
ATOM      1  C   UNL     1      23.721  -4.413  44.925  1.00  0.00     0.180 A 
ATOM      2  C   UNL     1      24.745  -3.449  44.991  1.00  0.00     0.208 A 
ATOM      3  C   UNL     1      24.688  -2.339  44.134  1.00  0.00     0.238 A 
ATOM      4  O   UNL     1      25.604  -1.474  44.177  1.00  0.00    -0.285 OA
ATOM      5  C   UNL     1      23.604  -2.202  43.242  1.00  0.00     0.111 A 
ATOM      6  C   UNL     1      23.470  -1.113  42.348  1.00  0.00     0.134 A 
ATOM      7  C   UNL     1      22.356  -1.043  41.497  1.00  0.00     0.093 A 
ATOM      8  C   UNL     1      21.376  -2.041  41.525  1.00  0.00     0.123 A 
ATOM      9  C   UNL     1      21.504  -3.118  42.404  1.00  0.00     0.094 A 
ATOM     10  C   UNL     1      22.607  -3.206  43.259  1.00  0.00     0.146 A 
ATOM     11  O   UNL     1      22.706  -4.243  44.081  1.00  0.00    -0.452 OA
ENDROOT
BRANCH   1  12
ATOM     12  C   UNL     1      23.720  -5.620  45.783  1.00  0.00     0.025 A 
ATOM     13  C   UNL     1      24.123  -6.872  45.286  1.00  0.00     0.016 A 
ATOM     14  C   UNL     1      24.091  -8.001  46.107  1.00  0.00     0.051 A 
ATOM     15  C   UNL     1      23.642  -7.902  47.431  1.00  0.00     0.157 A 
ATOM     16  C   UNL     1      23.251  -5.529  47.103  1.00  0.00     0.062 A 
ATOM     17  C   UNL     1      23.218  -6.659  47.929  1.00  0.00     0.158 A 
BRANCH  15  18
ATOM     18  O   UNL     1      23.613  -9.031  48.248  1.00  0.00    -0.504 OA
ATOM     19  H   UNL     1      23.717  -8.962  49.253  1.00  0.00     0.293 HD
ENDBRANCH  15  18
BRANCH  17  20
ATOM     20  O   UNL     1      22.760  -6.526  49.240  1.00  0.00    -0.504 OA
ATOM     21  H   UNL     1      21.814  -6.231  49.451  1.00  0.00     0.293 HD
ENDBRANCH  17  20
ENDBRANCH   1  12
BRANCH   2  22
ATOM     22  O   UNL     1      25.782  -3.582  45.918  1.00  0.00    -0.502 OA
ATOM     23  H   UNL     1      25.941  -4.439  46.435  1.00  0.00     0.293 HD
ENDBRANCH   2  22
BRANCH   6  24
ATOM     24  O   UNL     1      24.431  -0.101  42.299  1.00  0.00    -0.507 OA
ATOM     25  H   UNL     1      24.772   0.352  43.139  1.00  0.00     0.293 HD
ENDBRANCH   6  24
BRANCH   8  26
ATOM     26  O   UNL     1      20.270  -1.972  40.682  1.00  0.00    -0.508 OA
ATOM     27  H   UNL     1      20.367  -1.759  39.696  1.00  0.00     0.293 HD
ENDBRANCH   8  26
TORSDOF 6
ENDMDL
MODEL 2
REMARK VINA RESULT:    -6.295      9.722     11.236
REMARK INTER + INTRA:          -7.882
REMARK INTER:                  -7.619
REMARK INTRA:                  -0.263
REMARK UNBOUND:                -0.299
REMARK SMILES O=c1c(O)c(-c2ccc(O)c(O)c2)oc2cc(O)cc(O)c12
REMARK SMILES IDX 5 1 3 2 2 3 1 4 22 5 20 6 19 7 17 8 16 9 15 10 14 11 6 12
REMARK SMILES IDX 7 13 8 14 9 15 13 16 11 17 10 18 12 20 4 22 21 24 18 26
REMARK H PARENT 10 19 12 21 4 23 21 25 18 27
REMARK Flexibility Score: inf
ROOT
ATOM      1  C   UNL     1      19.879  -0.112  54.292  1.00  0.00     0.180 A 
ATOM      2  C   UNL     1      19.080   0.960  54.733  1.00  0.00     0.208 A 
ATOM      3  C   UNL     1      17.973   1.344  53.960  1.00  0.00     0.238 A 
ATOM      4  O   UNL     1      17.257   2.310  54.339  1.00  0.00    -0.285 OA
ATOM      5  C   UNL     1      17.673   0.641  52.774  1.00  0.00     0.111 A 
ATOM      6  C   UNL     1      16.576   0.963  51.941  1.00  0.00     0.134 A 
ATOM      7  C   UNL     1      16.338   0.209  50.781  1.00  0.00     0.093 A 
ATOM      8  C   UNL     1      17.176  -0.858  50.442  1.00  0.00     0.123 A 
ATOM      9  C   UNL     1      18.261  -1.178  51.260  1.00  0.00     0.094 A 
ATOM     10  C   UNL     1      18.515  -0.438  52.419  1.00  0.00     0.146 A 
ATOM     11  O   UNL     1      19.556  -0.761  53.176  1.00  0.00    -0.452 OA
ENDROOT
BRANCH   1  12
ATOM     12  C   UNL     1      21.072  -0.565  55.042  1.00  0.00     0.025 A 
ATOM     13  C   UNL     1      22.257   0.193  55.060  1.00  0.00     0.016 A 
ATOM     14  C   UNL     1      23.378  -0.267  55.755  1.00  0.00     0.051 A 
ATOM     15  C   UNL     1      23.339  -1.493  56.431  1.00  0.00     0.157 A 
ATOM     16  C   UNL     1      21.044  -1.803  55.703  1.00  0.00     0.062 A 
ATOM     17  C   UNL     1      22.166  -2.266  56.402  1.00  0.00     0.158 A 
BRANCH  15  18
ATOM     18  O   UNL     1      24.459  -1.947  57.125  1.00  0.00    -0.504 OA
ATOM     19  H   UNL     1      25.365  -2.024  56.679  1.00  0.00     0.293 HD
ENDBRANCH  15  18
BRANCH  17  20
ATOM     20  O   UNL     1      22.096  -3.495  57.058  1.00  0.00    -0.504 OA
ATOM     21  H   UNL     1      21.545  -3.625  57.898  1.00  0.00     0.293 HD
ENDBRANCH  17  20
ENDBRANCH   1  12
BRANCH   2  22
ATOM     22  O   UNL     1      19.369   1.609  55.936  1.00  0.00    -0.502 OA
ATOM     23  H   UNL     1      18.658   1.813  56.628  1.00  0.00     0.293 HD
ENDBRANCH   2  22
BRANCH   6  24
ATOM     24  O   UNL     1      15.721   2.021  52.254  1.00  0.00    -0.507 OA
ATOM     25  H   UNL     1      14.818   2.128  51.806  1.00  0.00     0.293 HD
ENDBRANCH   6  24
BRANCH   8  26
ATOM     26  O   UNL     1      16.941  -1.608  49.292  1.00  0.00    -0.508 OA
ATOM     27  H   UNL     1      16.399  -2.463  49.319  1.00  0.00     0.293 HD
ENDBRANCH   8  26
TORSDOF 6
ENDMDL
MODEL 3
REMARK VINA RESULT:    -6.036     10.737     13.211
REMARK INTER + INTRA:          -7.570
REMARK INTER:                  -7.506
REMARK INTRA:                  -0.065
REMARK UNBOUND:                -0.299
REMARK SMILES O=c1c(O)c(-c2ccc(O)c(O)c2)oc2cc(O)cc(O)c12
REMARK SMILES IDX 5 1 3 2 2 3 1 4 22 5 20 6 19 7 17 8 16 9 15 10 14 11 6 12
REMARK SMILES IDX 7 13 8 14 9 15 13 16 11 17 10 18 12 20 4 22 21 24 18 26
REMARK H PARENT 10 19 12 21 4 23 21 25 18 27
REMARK Flexibility Score: inf
ROOT
ATOM      1  C   UNL     1      17.423   2.344  52.099  1.00  0.00     0.180 A 
ATOM      2  C   UNL     1      16.772   1.984  53.295  1.00  0.00     0.208 A 
ATOM      3  C   UNL     1      17.375   1.037  54.137  1.00  0.00     0.238 A 
ATOM      4  O   UNL     1      16.797   0.698  55.205  1.00  0.00    -0.285 OA
ATOM      5  C   UNL     1      18.623   0.483  53.782  1.00  0.00     0.111 A 
ATOM      6  C   UNL     1      19.298  -0.475  54.576  1.00  0.00     0.134 A 
ATOM      7  C   UNL     1      20.542  -0.973  54.158  1.00  0.00     0.093 A 
ATOM      8  C   UNL     1      21.121  -0.531  52.963  1.00  0.00     0.123 A 
ATOM      9  C   UNL     1      20.458   0.412  52.176  1.00  0.00     0.094 A 
ATOM     10  C   UNL     1      19.217   0.920  52.575  1.00  0.00     0.146 A 
ATOM     11  O   UNL     1      18.606   1.812  51.804  1.00  0.00    -0.452 OA
ENDROOT
BRANCH   1  12
ATOM     12  C   UNL     1      16.843   3.322  51.151  1.00  0.00     0.025 A 
ATOM     13  C   UNL     1      17.528   4.500  50.803  1.00  0.00     0.016 A 
ATOM     14  C   UNL     1      16.949   5.419  49.925  1.00  0.00     0.051 A 
ATOM     15  C   UNL     1      15.675   5.185  49.391  1.00  0.00     0.157 A 
ATOM     16  C   UNL     1      15.557   3.101  50.630  1.00  0.00     0.062 A 
ATOM     17  C   UNL     1      14.976   4.020  49.749  1.00  0.00     0.158 A 
BRANCH  15  18
ATOM     18  O   UNL     1      15.103   6.104  48.514  1.00  0.00    -0.504 OA
ATOM     19  H   UNL     1      14.155   6.437  48.638  1.00  0.00     0.293 HD
ENDBRANCH  15  18
BRANCH  17  20
ATOM     20  O   UNL     1      13.703   3.760  49.242  1.00  0.00    -0.504 OA
ATOM     21  H   UNL     1      12.995   3.281  49.786  1.00  0.00     0.293 HD
ENDBRANCH  17  20
ENDBRANCH   1  12
BRANCH   2  22
ATOM     22  O   UNL     1      15.561   2.584  53.648  1.00  0.00    -0.502 OA
ATOM     23  H   UNL     1      14.833   2.777  52.971  1.00  0.00     0.293 HD
ENDBRANCH   2  22
BRANCH   6  24
ATOM     24  O   UNL     1      18.747  -0.933  55.773  1.00  0.00    -0.507 OA
ATOM     25  H   UNL     1      18.699  -1.922  55.995  1.00  0.00     0.293 HD
ENDBRANCH   6  24
BRANCH   8  26
ATOM     26  O   UNL     1      22.356  -1.023  52.548  1.00  0.00    -0.508 OA
ATOM     27  H   UNL     1      22.638  -0.995  51.576  1.00  0.00     0.293 HD
ENDBRANCH   8  26
TORSDOF 6
ENDMDL
MODEL 4
REMARK VINA RESULT:    -5.932     11.369     11.902
REMARK INTER + INTRA:          -7.445
REMARK INTER:                  -7.323
REMARK INTRA:                  -0.123
REMARK UNBOUND:                -0.299
REMARK SMILES O=c1c(O)c(-c2ccc(O)c(O)c2)oc2cc(O)cc(O)c12
REMARK SMILES IDX 5 1 3 2 2 3 1 4 22 5 20 6 19 7 17 8 16 9 15 10 14 11 6 12
REMARK SMILES IDX 7 13 8 14 9 15 13 16 11 17 10 18 12 20 4 22 21 24 18 26
REMARK H PARENT 10 19 12 21 4 23 21 25 18 27
REMARK Flexibility Score: inf
ROOT
ATOM      1  C   UNL     1      17.424   2.440  51.950  1.00  0.00     0.180 A 
ATOM      2  C   UNL     1      18.236   3.372  51.276  1.00  0.00     0.208 A 
ATOM      3  C   UNL     1      17.632   4.291  50.403  1.00  0.00     0.238 A 
ATOM      4  O   UNL     1      18.350   5.124  49.785  1.00  0.00    -0.285 OA
ATOM      5  C   UNL     1      16.232   4.276  50.234  1.00  0.00     0.111 A 
ATOM      6  C   UNL     1      15.546   5.169  49.376  1.00  0.00     0.134 A 
ATOM      7  C   UNL     1      14.149   5.097  49.269  1.00  0.00     0.093 A 
ATOM      8  C   UNL     1      13.427   4.149  50.003  1.00  0.00     0.123 A 
ATOM      9  C   UNL     1      14.099   3.265  50.850  1.00  0.00     0.094 A 
ATOM     10  C   UNL     1      15.491   3.321  50.969  1.00  0.00     0.146 A 
ATOM     11  O   UNL     1      16.105   2.465  51.777  1.00  0.00    -0.452 OA
ENDROOT
BRANCH   1  12
ATOM     12  C   UNL     1      17.987   1.428  52.872  1.00  0.00     0.025 A 
ATOM     13  C   UNL     1      18.949   0.498  52.439  1.00  0.00     0.016 A 
ATOM     14  C   UNL     1      19.448  -0.463  53.322  1.00  0.00     0.051 A 
ATOM     15  C   UNL     1      18.986  -0.520  54.643  1.00  0.00     0.157 A 
ATOM     16  C   UNL     1      17.512   1.354  54.191  1.00  0.00     0.062 A 
ATOM     17  C   UNL     1      18.011   0.393  55.078  1.00  0.00     0.158 A 
BRANCH  15  18
ATOM     18  O   UNL     1      19.488  -1.479  55.521  1.00  0.00    -0.504 OA
ATOM     19  H   UNL     1      18.968  -1.776  56.337  1.00  0.00     0.293 HD
ENDBRANCH  15  18
BRANCH  17  20
ATOM     20  O   UNL     1      17.524   0.359  56.385  1.00  0.00    -0.504 OA
ATOM     21  H   UNL     1      17.476  -0.500  56.919  1.00  0.00     0.293 HD
ENDBRANCH  17  20
ENDBRANCH   1  12
BRANCH   2  22
ATOM     22  O   UNL     1      19.615   3.399  51.498  1.00  0.00    -0.502 OA
ATOM     23  H   UNL     1      20.198   4.172  51.200  1.00  0.00     0.293 HD
ENDBRANCH   2  22
BRANCH   6  24
ATOM     24  O   UNL     1      16.239   6.126  48.633  1.00  0.00    -0.507 OA
ATOM     25  H   UNL     1      16.234   6.120  47.619  1.00  0.00     0.293 HD
ENDBRANCH   6  24
BRANCH   8  26
ATOM     26  O   UNL     1      12.040   4.078  49.899  1.00  0.00    -0.508 OA
ATOM     27  H   UNL     1      11.588   3.764  49.048  1.00  0.00     0.293 HD
ENDBRANCH   8  26
TORSDOF 6
ENDMDL
MODEL 5
REMARK VINA RESULT:    -5.880     10.825     11.693
REMARK INTER + INTRA:          -7.382
REMARK INTER:                  -7.106
REMARK INTRA:                  -0.276
REMARK UNBOUND:                -0.299
REMARK SMILES O=c1c(O)c(-c2ccc(O)c(O)c2)oc2cc(O)cc(O)c12
REMARK SMILES IDX 5 1 3 2 2 3 1 4 22 5 20 6 19 7 17 8 16 9 15 10 14 11 6 12
REMARK SMILES IDX 7 13 8 14 9 15 13 16 11 17 10 18 12 20 4 22 21 24 18 26
REMARK H PARENT 10 19 12 21 4 23 21 25 18 27
REMARK Flexibility Score: inf
ROOT
ATOM      1  C   UNL     1      17.777   2.286  52.001  1.00  0.00     0.180 A 
ATOM      2  C   UNL     1      16.537   2.059  51.372  1.00  0.00     0.208 A 
ATOM      3  C   UNL     1      16.018   3.046  50.520  1.00  0.00     0.238 A 
ATOM      4  O   UNL     1      14.904   2.859  49.960  1.00  0.00    -0.285 OA
ATOM      5  C   UNL     1      16.752   4.230  50.297  1.00  0.00     0.111 A 
ATOM      6  C   UNL     1      16.300   5.272  49.451  1.00  0.00     0.134 A 
ATOM      7  C   UNL     1      17.093   6.416  49.272  1.00  0.00     0.093 A 
ATOM      8  C   UNL     1      18.326   6.536  49.922  1.00  0.00     0.123 A 
ATOM      9  C   UNL     1      18.775   5.512  50.758  1.00  0.00     0.094 A 
ATOM     10  C   UNL     1      17.999   4.365  50.950  1.00  0.00     0.146 A 
ATOM     11  O   UNL     1      18.447   3.408  51.755  1.00  0.00    -0.452 OA
ENDROOT
BRANCH   1  12
ATOM     12  C   UNL     1      18.382   1.302  52.927  1.00  0.00     0.025 A 
ATOM     13  C   UNL     1      17.889   1.126  54.232  1.00  0.00     0.016 A 
ATOM     14  C   UNL     1      18.491   0.208  55.096  1.00  0.00     0.051 A 
ATOM     15  C   UNL     1      19.601  -0.537  54.676  1.00  0.00     0.157 A 
ATOM     16  C   UNL     1      19.506   0.568  52.518  1.00  0.00     0.062 A 
ATOM     17  C   UNL     1      20.112  -0.353  53.380  1.00  0.00     0.158 A 
BRANCH  15  18
ATOM     18  O   UNL     1      20.198  -1.454  55.541  1.00  0.00    -0.504 OA
ATOM     19  H   UNL     1      19.725  -1.785  56.372  1.00  0.00     0.293 HD
ENDBRANCH  15  18
BRANCH  17  20
ATOM     20  O   UNL     1      21.219  -1.074  52.933  1.00  0.00    -0.504 OA
ATOM     21  H   UNL     1      21.169  -2.065  52.729  1.00  0.00     0.293 HD
ENDBRANCH  17  20
ENDBRANCH   1  12
BRANCH   2  22
ATOM     22  O   UNL     1      15.854   0.857  51.572  1.00  0.00    -0.502 OA
ATOM     23  H   UNL     1      15.869   0.364  52.457  1.00  0.00     0.293 HD
ENDBRANCH   2  22
BRANCH   6  24
ATOM     24  O   UNL     1      15.076   5.179  48.788  1.00  0.00    -0.507 OA
ATOM     25  H   UNL     1      15.002   5.298  47.784  1.00  0.00     0.293 HD
ENDBRANCH   6  24
BRANCH   8  26
ATOM     26  O   UNL     1      19.114   7.671  49.745  1.00  0.00    -0.508 OA
ATOM     27  H   UNL     1      20.051   7.730  50.126  1.00  0.00     0.293 HD
ENDBRANCH   8  26
TORSDOF 6
ENDMDL
MODEL 6
REMARK VINA RESULT:    -5.869      9.288     11.467
REMARK INTER + INTRA:          -7.369
REMARK INTER:                  -7.045
REMARK INTRA:                  -0.324
REMARK UNBOUND:                -0.299
REMARK SMILES O=c1c(O)c(-c2ccc(O)c(O)c2)oc2cc(O)cc(O)c12
REMARK SMILES IDX 5 1 3 2 2 3 1 4 22 5 20 6 19 7 17 8 16 9 15 10 14 11 6 12
REMARK SMILES IDX 7 13 8 14 9 15 13 16 11 17 10 18 12 20 4 22 21 24 18 26
REMARK H PARENT 10 19 12 21 4 23 21 25 18 27
REMARK Flexibility Score: inf
ROOT
ATOM      1  C   UNL     1      20.593   0.765  53.170  1.00  0.00     0.180 A 
ATOM      2  C   UNL     1      20.902   0.351  54.479  1.00  0.00     0.208 A 
ATOM      3  C   UNL     1      22.231   0.023  54.791  1.00  0.00     0.238 A 
ATOM      4  O   UNL     1      22.518  -0.359  55.958  1.00  0.00    -0.285 OA
ATOM      5  C   UNL     1      23.227   0.134  53.799  1.00  0.00     0.111 A 
ATOM      6  C   UNL     1      24.589  -0.174  54.032  1.00  0.00     0.134 A 
ATOM      7  C   UNL     1      25.523  -0.030  52.994  1.00  0.00     0.093 A 
ATOM      8  C   UNL     1      25.119   0.416  51.731  1.00  0.00     0.123 A 
ATOM      9  C   UNL     1      23.777   0.719  51.496  1.00  0.00     0.094 A 
ATOM     10  C   UNL     1      22.831   0.581  52.516  1.00  0.00     0.146 A 
ATOM     11  O   UNL     1      21.561   0.872  52.264  1.00  0.00    -0.452 OA
ENDROOT
BRANCH   1  12
ATOM     12  C   UNL     1      19.212   1.110  52.759  1.00  0.00     0.025 A 
ATOM     13  C   UNL     1      18.725   2.425  52.864  1.00  0.00     0.016 A 
ATOM     14  C   UNL     1      17.411   2.722  52.492  1.00  0.00     0.051 A 
ATOM     15  C   UNL     1      16.562   1.711  52.025  1.00  0.00     0.157 A 
ATOM     16  C   UNL     1      18.351   0.097  52.309  1.00  0.00     0.062 A 
ATOM     17  C   UNL     1      17.034   0.391  51.935  1.00  0.00     0.158 A 
BRANCH  15  18
ATOM     18  O   UNL     1      15.252   2.012  51.654  1.00  0.00    -0.504 OA
ATOM     19  H   UNL     1      14.479   1.403  51.893  1.00  0.00     0.293 HD
ENDBRANCH  15  18
BRANCH  17  20
ATOM     20  O   UNL     1      16.213  -0.640  51.481  1.00  0.00    -0.504 OA
ATOM     21  H   UNL     1      16.590  -1.507  51.116  1.00  0.00     0.293 HD
ENDBRANCH  17  20
ENDBRANCH   1  12
BRANCH   2  22
ATOM     22  O   UNL     1      19.906   0.297  55.457  1.00  0.00    -0.502 OA
ATOM     23  H   UNL     1      19.662   1.098  56.028  1.00  0.00     0.293 HD
ENDBRANCH   2  22
BRANCH   6  24
ATOM     24  O   UNL     1      25.021  -0.619  55.282  1.00  0.00    -0.507 OA
ATOM     25  H   UNL     1      24.520  -0.390  56.133  1.00  0.00     0.293 HD
ENDBRANCH   6  24
BRANCH   8  26
ATOM     26  O   UNL     1      26.045   0.561  50.701  1.00  0.00    -0.508 OA
ATOM     27  H   UNL     1      26.460  -0.243  50.244  1.00  0.00     0.293 HD
ENDBRANCH   8  26
TORSDOF 6
ENDMDL
MODEL 7
REMARK VINA RESULT:    -5.826     10.035     12.352
REMARK INTER + INTRA:          -7.317
REMARK INTER:                  -6.996
REMARK INTRA:                  -0.321
REMARK UNBOUND:                -0.299
REMARK SMILES O=c1c(O)c(-c2ccc(O)c(O)c2)oc2cc(O)cc(O)c12
REMARK SMILES IDX 5 1 3 2 2 3 1 4 22 5 20 6 19 7 17 8 16 9 15 10 14 11 6 12
REMARK SMILES IDX 7 13 8 14 9 15 13 16 11 17 10 18 12 20 4 22 21 24 18 26
REMARK H PARENT 10 19 12 21 4 23 21 25 18 27
REMARK Flexibility Score: inf
ROOT
ATOM      1  C   UNL     1      20.632   0.055  54.263  1.00  0.00     0.180 A 
ATOM      2  C   UNL     1      20.711  -0.914  55.281  1.00  0.00     0.208 A 
ATOM      3  C   UNL     1      21.946  -1.137  55.911  1.00  0.00     0.238 A 
ATOM      4  O   UNL     1      22.031  -2.010  56.817  1.00  0.00    -0.285 OA
ATOM      5  C   UNL     1      23.071  -0.378  55.528  1.00  0.00     0.111 A 
ATOM      6  C   UNL     1      24.349  -0.539  56.115  1.00  0.00     0.134 A 
ATOM      7  C   UNL     1      25.418   0.262  55.685  1.00  0.00     0.093 A 
ATOM      8  C   UNL     1      25.232   1.219  54.681  1.00  0.00     0.123 A 
ATOM      9  C   UNL     1      23.973   1.381  54.099  1.00  0.00     0.094 A 
ATOM     10  C   UNL     1      22.896   0.592  54.513  1.00  0.00     0.146 A 
ATOM     11  O   UNL     1      21.711   0.763  53.939  1.00  0.00    -0.452 OA
ENDROOT
BRANCH   1  12
ATOM     12  C   UNL     1      19.371   0.336  53.539  1.00  0.00     0.025 A 
ATOM     13  C   UNL     1      18.426   1.247  54.043  1.00  0.00     0.016 A 
ATOM     14  C   UNL     1      17.232   1.478  53.355  1.00  0.00     0.051 A 
ATOM     15  C   UNL     1      16.958   0.794  52.164  1.00  0.00     0.157 A 
ATOM     16  C   UNL     1      19.083  -0.363  52.356  1.00  0.00     0.062 A 
ATOM     17  C   UNL     1      17.888  -0.133  51.664  1.00  0.00     0.158 A 
BRANCH  15  18
ATOM     18  O   UNL     1      15.766   1.028  51.479  1.00  0.00    -0.504 OA
ATOM     19  H   UNL     1      14.963   1.440  51.938  1.00  0.00     0.293 HD
ENDBRANCH  15  18
BRANCH  17  20
ATOM     20  O   UNL     1      17.642  -0.836  50.485  1.00  0.00    -0.504 OA
ATOM     21  H   UNL     1      18.259  -0.774  49.683  1.00  0.00     0.293 HD
ENDBRANCH  17  20
ENDBRANCH   1  12
BRANCH   2  22
ATOM     22  O   UNL     1      19.571  -1.618  55.677  1.00  0.00    -0.502 OA
ATOM     23  H   UNL     1      19.401  -2.577  55.398  1.00  0.00     0.293 HD
ENDBRANCH   2  22
BRANCH   6  24
ATOM     24  O   UNL     1      24.565  -1.484  57.118  1.00  0.00    -0.507 OA
ATOM     25  H   UNL     1      25.249  -1.337  57.852  1.00  0.00     0.293 HD
ENDBRANCH   6  24
BRANCH   8  26
ATOM     26  O   UNL     1      26.292   2.015  54.255  1.00  0.00    -0.508 OA
ATOM     27  H   UNL     1      27.051   2.265  54.877  1.00  0.00     0.293 HD
ENDBRANCH   8  26
TORSDOF 6
ENDMDL
MODEL 8
REMARK VINA RESULT:    -5.712     10.582     11.795
REMARK INTER + INTRA:          -7.180
REMARK INTER:                  -6.965
REMARK INTRA:                  -0.215
REMARK UNBOUND:                -0.299
REMARK SMILES O=c1c(O)c(-c2ccc(O)c(O)c2)oc2cc(O)cc(O)c12
REMARK SMILES IDX 5 1 3 2 2 3 1 4 22 5 20 6 19 7 17 8 16 9 15 10 14 11 6 12
REMARK SMILES IDX 7 13 8 14 9 15 13 16 11 17 10 18 12 20 4 22 21 24 18 26
REMARK H PARENT 10 19 12 21 4 23 21 25 18 27
REMARK Flexibility Score: inf
ROOT
ATOM      1  C   UNL     1      19.952   0.855  54.384  1.00  0.00     0.180 A 
ATOM      2  C   UNL     1      18.646   0.459  54.731  1.00  0.00     0.208 A 
ATOM      3  C   UNL     1      17.561   1.012  54.033  1.00  0.00     0.238 A 
ATOM      4  O   UNL     1      16.386   0.673  54.343  1.00  0.00    -0.285 OA
ATOM      5  C   UNL     1      17.798   1.932  52.991  1.00  0.00     0.111 A 
ATOM      6  C   UNL     1      16.761   2.532  52.238  1.00  0.00     0.134 A 
ATOM      7  C   UNL     1      17.079   3.432  51.209  1.00  0.00     0.093 A 
ATOM      8  C   UNL     1      18.413   3.742  50.922  1.00  0.00     0.123 A 
ATOM      9  C   UNL     1      19.439   3.154  51.664  1.00  0.00     0.094 A 
ATOM     10  C   UNL     1      19.143   2.255  52.693  1.00  0.00     0.146 A 
ATOM     11  O   UNL     1      20.138   1.714  53.385  1.00  0.00    -0.452 OA
ENDROOT
BRANCH   1  12
ATOM     12  C   UNL     1      21.146   0.331  55.085  1.00  0.00     0.025 A 
ATOM     13  C   UNL     1      21.936   1.159  55.903  1.00  0.00     0.016 A 
ATOM     14  C   UNL     1      23.072   0.648  56.535  1.00  0.00     0.051 A 
ATOM     15  C   UNL     1      23.445  -0.690  56.350  1.00  0.00     0.157 A 
ATOM     16  C   UNL     1      21.535  -1.003  54.885  1.00  0.00     0.062 A 
ATOM     17  C   UNL     1      22.673  -1.518  55.518  1.00  0.00     0.158 A 
BRANCH  15  18
ATOM     18  O   UNL     1      24.579  -1.197  56.983  1.00  0.00    -0.504 OA
ATOM     19  H   UNL     1      24.887  -0.844  57.881  1.00  0.00     0.293 HD
ENDBRANCH  15  18
BRANCH  17  20
ATOM     20  O   UNL     1      23.019  -2.852  55.306  1.00  0.00    -0.504 OA
ATOM     21  H   UNL     1      22.462  -3.617  55.669  1.00  0.00     0.293 HD
ENDBRANCH  17  20
ENDBRANCH   1  12
BRANCH   2  22
ATOM     22  O   UNL     1      18.440  -0.492  55.735  1.00  0.00    -0.502 OA
ATOM     23  H   UNL     1      17.534  -0.640  56.164  1.00  0.00     0.293 HD
ENDBRANCH   2  22
BRANCH   6  24
ATOM     24  O   UNL     1      15.422   2.241  52.500  1.00  0.00    -0.507 OA
ATOM     25  H   UNL     1      15.102   1.292  52.655  1.00  0.00     0.293 HD
ENDBRANCH   6  24
BRANCH   8  26
ATOM     26  O   UNL     1      18.730   4.635  49.901  1.00  0.00    -0.508 OA
ATOM     27  H   UNL     1      19.625   4.602  49.427  1.00  0.00     0.293 HD
ENDBRANCH   8  26
TORSDOF 6
ENDMDL
MODEL 9
REMARK VINA RESULT:    -5.587      0.617      1.464
REMARK INTER + INTRA:          -7.029
REMARK INTER:                  -6.733
REMARK INTRA:                  -0.296
REMARK UNBOUND:                -0.299
REMARK SMILES O=c1c(O)c(-c2ccc(O)c(O)c2)oc2cc(O)cc(O)c12
REMARK SMILES IDX 5 1 3 2 2 3 1 4 22 5 20 6 19 7 17 8 16 9 15 10 14 11 6 12
REMARK SMILES IDX 7 13 8 14 9 15 13 16 11 17 10 18 12 20 4 22 21 24 18 26
REMARK H PARENT 10 19 12 21 4 23 21 25 18 27
REMARK Flexibility Score: inf
ROOT
ATOM      1  C   UNL     1      23.736  -4.326  44.901  1.00  0.00     0.180 A 
ATOM      2  C   UNL     1      24.789  -3.392  44.960  1.00  0.00     0.208 A 
ATOM      3  C   UNL     1      24.774  -2.297  44.082  1.00  0.00     0.238 A 
ATOM      4  O   UNL     1      25.716  -1.460  44.118  1.00  0.00    -0.285 OA
ATOM      5  C   UNL     1      23.702  -2.143  43.178  1.00  0.00     0.111 A 
ATOM      6  C   UNL     1      23.610  -1.067  42.263  1.00  0.00     0.134 A 
ATOM      7  C   UNL     1      22.506  -0.979  41.400  1.00  0.00     0.093 A 
ATOM      8  C   UNL     1      21.496  -1.945  41.437  1.00  0.00     0.123 A 
ATOM      9  C   UNL     1      21.583  -3.009  42.337  1.00  0.00     0.094 A 
ATOM     10  C   UNL     1      22.675  -3.115  43.204  1.00  0.00     0.146 A 
ATOM     11  O   UNL     1      22.735  -4.140  44.045  1.00  0.00    -0.452 OA
ENDROOT
BRANCH   1  12
ATOM     12  C   UNL     1      23.690  -5.516  45.781  1.00  0.00     0.025 A 
ATOM     13  C   UNL     1      23.252  -5.424  47.114  1.00  0.00     0.016 A 
ATOM     14  C   UNL     1      23.239  -6.556  47.932  1.00  0.00     0.051 A 
ATOM     15  C   UNL     1      23.676  -7.792  47.439  1.00  0.00     0.157 A 
ATOM     16  C   UNL     1      24.147  -6.752  45.297  1.00  0.00     0.062 A 
ATOM     17  C   UNL     1      24.135  -7.888  46.114  1.00  0.00     0.158 A 
BRANCH  15  18
ATOM     18  O   UNL     1      23.661  -8.919  48.258  1.00  0.00    -0.504 OA
ATOM     19  H   UNL     1      22.837  -9.501  48.345  1.00  0.00     0.293 HD
ENDBRANCH  15  18
BRANCH  17  20
ATOM     20  O   UNL     1      24.584  -9.102  45.594  1.00  0.00    -0.504 OA
ATOM     21  H   UNL     1      23.967  -9.897  45.474  1.00  0.00     0.293 HD
ENDBRANCH  17  20
ENDBRANCH   1  12
BRANCH   2  22
ATOM     22  O   UNL     1      25.813  -3.540  45.898  1.00  0.00    -0.502 OA
ATOM     23  H   UNL     1      26.077  -2.799  46.535  1.00  0.00     0.293 HD
ENDBRANCH   2  22
BRANCH   6  24
ATOM     24  O   UNL     1      24.602  -0.087  42.204  1.00  0.00    -0.507 OA
ATOM     25  H   UNL     1      24.522   0.718  41.593  1.00  0.00     0.293 HD
ENDBRANCH   6  24
BRANCH   8  26
ATOM     26  O   UNL     1      20.399  -1.858  40.583  1.00  0.00    -0.508 OA
ATOM     27  H   UNL     1      19.458  -1.742  40.939  1.00  0.00     0.293 HD
ENDBRANCH   8  26
TORSDOF 6
ENDMDL
