MODEL 1
REMARK VINA RESULT:    -1.058      0.000      0.000
REMARK INTER + INTRA:          -2.677
REMARK INTER:                  -2.295
REMARK INTRA:                  -0.382
REMARK UNBOUND:                -0.382
REMARK SMILES CCCCCCCCCCCCCCCCCCCCCC(=O)[O-]
REMARK SMILES IDX 12 1 11 2 10 3 9 4 8 5 7 6 6 7 5 8 4 9 3 10 2 11 1 12 13 13
REMARK SMILES IDX 14 14 15 15 16 16 17 17 18 18 19 19 20 20 21 21 22 22 23 23
REMARK SMILES IDX 24 24
REMARK H PARENT
REMARK Flexibility Score: inf
ROOT
ATOM      1  C   UNL     1     -15.677  14.936  -7.553  1.00  0.00     0.000 C 
ENDROOT
BRANCH   1   2
ATOM      2  C   UNL     1     -15.777  16.196  -6.672  1.00  0.00     0.000 C 
BRANCH   2   3
ATOM      3  C   UNL     1     -17.035  17.057  -6.890  1.00  0.00     0.000 C 
BRANCH   3   4
ATOM      4  C   UNL     1     -17.124  17.639  -8.310  1.00  0.00    -0.000 C 
BRANCH   4   5
ATOM      5  C   UNL     1     -15.754  17.752  -9.003  1.00  0.00    -0.000 C 
BRANCH   5   6
ATOM      6  C   UNL     1     -15.801  18.032 -10.517  1.00  0.00    -0.000 C 
BRANCH   6   7
ATOM      7  C   UNL     1     -15.684  19.526 -10.856  1.00  0.00    -0.000 C 
BRANCH   7   8
ATOM      8  C   UNL     1     -16.419  19.853 -12.161  1.00  0.00    -0.000 C 
BRANCH   8   9
ATOM      9  C   UNL     1     -16.505  21.369 -12.381  1.00  0.00    -0.000 C 
BRANCH   9  10
ATOM     10  C   UNL     1     -15.216  21.962 -12.974  1.00  0.00    -0.000 C 
BRANCH  10  11
ATOM     11  C   UNL     1     -13.928  21.295 -12.448  1.00  0.00    -0.003 C 
ATOM     12  C   UNL     1     -12.672  22.089 -12.808  1.00  0.00     0.004 C 
ENDBRANCH  10  11
ENDBRANCH   9  10
ENDBRANCH   8   9
ENDBRANCH   7   8
ENDBRANCH   6   7
ENDBRANCH   5   6
ENDBRANCH   4   5
ENDBRANCH   3   4
ENDBRANCH   2   3
ENDBRANCH   1   2
BRANCH   1  13
ATOM     13  C   UNL     1     -14.316  14.230  -7.436  1.00  0.00     0.000 C 
BRANCH  13  14
ATOM     14  C   UNL     1     -14.369  12.752  -7.866  1.00  0.00     0.000 C 
BRANCH  14  15
ATOM     15  C   UNL     1     -14.488  12.513  -9.385  1.00  0.00     0.000 C 
BRANCH  15  16
ATOM     16  C   UNL     1     -15.919  12.267  -9.903  1.00  0.00     0.000 C 
BRANCH  16  17
ATOM     17  C   UNL     1     -16.851  13.491  -9.838  1.00  0.00     0.000 C 
BRANCH  17  18
ATOM     18  C   UNL     1     -16.384  14.645 -10.738  1.00  0.00     0.000 C 
BRANCH  18  19
ATOM     19  C   UNL     1     -17.124  14.625 -12.083  1.00  0.00     0.000 C 
BRANCH  19  20
ATOM     20  C   UNL     1     -16.433  13.732 -13.125  1.00  0.00     0.006 C 
BRANCH  20  21
ATOM     21  C   UNL     1     -14.905  13.882 -13.112  1.00  0.00     0.053 C 
BRANCH  21  22
ATOM     22  C   UNL     1     -14.250  12.539 -13.050  1.00  0.00     0.041 C 
ATOM     23  O   UNL     1     -12.996  12.447 -13.008  1.00  0.00    -0.550 OA
ATOM     24  O   UNL     1     -15.024  11.385 -13.090  1.00  0.00    -0.550 OA
ENDBRANCH  21  22
ENDBRANCH  20  21
ENDBRANCH  19  20
ENDBRANCH  18  19
ENDBRANCH  17  18
ENDBRANCH  16  17
ENDBRANCH  15  16
ENDBRANCH  14  15
ENDBRANCH  13  14
ENDBRANCH   1  13
TORSDOF 20
ENDMDL
MODEL 2
REMARK VINA RESULT:    -0.718      2.633      4.548
REMARK INTER + INTRA:          -1.940
REMARK INTER:                  -2.545
REMARK INTRA:                   0.605
REMARK UNBOUND:                -0.382
REMARK SMILES CCCCCCCCCCCCCCCCCCCCCC(=O)[O-]
REMARK SMILES IDX 12 1 11 2 10 3 9 4 8 5 7 6 6 7 5 8 4 9 3 10 2 11 1 12 13 13
REMARK SMILES IDX 14 14 15 15 16 16 17 17 18 18 19 19 20 20 21 21 22 22 23 23
REMARK SMILES IDX 24 24
REMARK H PARENT
REMARK Flexibility Score: inf
ROOT
ATOM      1  C   UNL     1     -15.433  16.680 -13.008  1.00  0.00     0.000 C 
ENDROOT
BRANCH   1   2
ATOM      2  C   UNL     1     -16.447  17.839 -13.051  1.00  0.00     0.000 C 
BRANCH   2   3
ATOM      3  C   UNL     1     -17.118  18.180 -11.707  1.00  0.00     0.000 C 
BRANCH   3   4
ATOM      4  C   UNL     1     -16.156  18.846 -10.710  1.00  0.00    -0.000 C 
BRANCH   4   5
ATOM      5  C   UNL     1     -16.814  19.977  -9.899  1.00  0.00    -0.000 C 
BRANCH   5   6
ATOM      6  C   UNL     1     -17.122  21.262 -10.689  1.00  0.00    -0.000 C 
BRANCH   6   7
ATOM      7  C   UNL     1     -16.995  21.079 -12.209  1.00  0.00    -0.000 C 
BRANCH   7   8
ATOM      8  C   UNL     1     -15.523  21.065 -12.640  1.00  0.00    -0.000 C 
BRANCH   8   9
ATOM      9  C   UNL     1     -14.713  22.113 -11.867  1.00  0.00    -0.000 C 
BRANCH   9  10
ATOM     10  C   UNL     1     -13.224  22.125 -12.254  1.00  0.00    -0.000 C 
BRANCH  10  11
ATOM     11  C   UNL     1     -12.802  20.923 -13.125  1.00  0.00    -0.003 C 
ATOM     12  C   UNL     1     -12.965  19.590 -12.395  1.00  0.00     0.004 C 
ENDBRANCH  10  11
ENDBRANCH   9  10
ENDBRANCH   8   9
ENDBRANCH   7   8
ENDBRANCH   6   7
ENDBRANCH   5   6
ENDBRANCH   4   5
ENDBRANCH   3   4
ENDBRANCH   2   3
ENDBRANCH   1   2
BRANCH   1  13
ATOM     13  C   UNL     1     -16.105  15.298 -12.946  1.00  0.00     0.000 C 
BRANCH  13  14
ATOM     14  C   UNL     1     -15.091  14.139 -12.934  1.00  0.00     0.000 C 
BRANCH  14  15
ATOM     15  C   UNL     1     -15.690  12.745 -12.660  1.00  0.00     0.000 C 
BRANCH  15  16
ATOM     16  C   UNL     1     -17.088  12.745 -12.010  1.00  0.00     0.000 C 
BRANCH  16  17
ATOM     17  C   UNL     1     -17.088  12.804 -10.472  1.00  0.00     0.000 C 
BRANCH  17  18
ATOM     18  C   UNL     1     -15.978  13.705  -9.909  1.00  0.00     0.000 C 
BRANCH  18  19
ATOM     19  C   UNL     1     -15.268  13.028  -8.728  1.00  0.00     0.000 C 
BRANCH  19  20
ATOM     20  C   UNL     1     -15.794  13.511  -7.367  1.00  0.00     0.006 C 
BRANCH  20  21
ATOM     21  C   UNL     1     -16.832  14.633  -7.499  1.00  0.00     0.053 C 
BRANCH  21  22
ATOM     22  C   UNL     1     -16.190  15.966  -7.275  1.00  0.00     0.041 C 
ATOM     23  O   UNL     1     -15.537  16.186  -6.222  1.00  0.00    -0.550 OA
ATOM     24  O   UNL     1     -16.356  16.983  -8.208  1.00  0.00    -0.550 OA
ENDBRANCH  21  22
ENDBRANCH  20  21
ENDBRANCH  19  20
ENDBRANCH  18  19
ENDBRANCH  17  18
ENDBRANCH  16  17
ENDBRANCH  15  16
ENDBRANCH  14  15
ENDBRANCH  13  14
ENDBRANCH   1  13
TORSDOF 20
ENDMDL
MODEL 3
REMARK VINA RESULT:    -0.327      1.505      2.243
REMARK INTER + INTRA:          -1.091
REMARK INTER:                  -1.432
REMARK INTRA:                   0.341
REMARK UNBOUND:                -0.382
REMARK SMILES CCCCCCCCCCCCCCCCCCCCCC(=O)[O-]
REMARK SMILES IDX 12 1 11 2 10 3 9 4 8 5 7 6 6 7 5 8 4 9 3 10 2 11 1 12 13 13
REMARK SMILES IDX 14 14 15 15 16 16 17 17 18 18 19 19 20 20 21 21 22 22 23 23
REMARK SMILES IDX 24 24
REMARK H PARENT
REMARK Flexibility Score: inf
ROOT
ATOM      1  C   UNL     1     -16.274  13.147  -6.458  1.00  0.00     0.000 C 
ENDROOT
BRANCH   1   2
ATOM      2  C   UNL     1     -16.486  14.166  -7.595  1.00  0.00     0.000 C 
BRANCH   2   3
ATOM      3  C   UNL     1     -16.521  15.643  -7.160  1.00  0.00     0.000 C 
BRANCH   3   4
ATOM      4  C   UNL     1     -16.496  16.618  -8.348  1.00  0.00    -0.000 C 
BRANCH   4   5
ATOM      5  C   UNL     1     -16.891  15.956  -9.681  1.00  0.00    -0.000 C 
BRANCH   5   6
ATOM      6  C   UNL     1     -16.854  16.880 -10.913  1.00  0.00    -0.000 C 
BRANCH   6   7
ATOM      7  C   UNL     1     -17.120  18.353 -10.568  1.00  0.00    -0.000 C 
BRANCH   7   8
ATOM      8  C   UNL     1     -15.806  19.132 -10.429  1.00  0.00    -0.000 C 
BRANCH   8   9
ATOM      9  C   UNL     1     -15.353  19.693 -11.783  1.00  0.00    -0.000 C 
BRANCH   9  10
ATOM     10  C   UNL     1     -13.823  19.746 -11.928  1.00  0.00    -0.000 C 
BRANCH  10  11
ATOM     11  C   UNL     1     -13.264  21.176 -12.079  1.00  0.00    -0.003 C 
ATOM     12  C   UNL     1     -12.152  21.258 -13.124  1.00  0.00     0.004 C 
ENDBRANCH  10  11
ENDBRANCH   9  10
ENDBRANCH   8   9
ENDBRANCH   7   8
ENDBRANCH   6   7
ENDBRANCH   5   6
ENDBRANCH   4   5
ENDBRANCH   3   4
ENDBRANCH   2   3
ENDBRANCH   1   2
BRANCH   1  13
ATOM     13  C   UNL     1     -14.858  12.549  -6.447  1.00  0.00     0.000 C 
BRANCH  13  14
ATOM     14  C   UNL     1     -14.006  13.001  -7.648  1.00  0.00     0.000 C 
BRANCH  14  15
ATOM     15  C   UNL     1     -14.598  12.673  -9.034  1.00  0.00     0.000 C 
BRANCH  15  16
ATOM     16  C   UNL     1     -13.643  11.950 -10.003  1.00  0.00     0.000 C 
BRANCH  16  17
ATOM     17  C   UNL     1     -14.239  10.712 -10.697  1.00  0.00     0.000 C 
BRANCH  17  18
ATOM     18  C   UNL     1     -15.773  10.748 -10.768  1.00  0.00     0.000 C 
BRANCH  18  19
ATOM     19  C   UNL     1     -16.296  12.182 -10.606  1.00  0.00     0.000 C 
BRANCH  19  20
ATOM     20  C   UNL     1     -17.085  12.666 -11.833  1.00  0.00     0.006 C 
BRANCH  20  21
ATOM     21  C   UNL     1     -16.240  12.670 -13.115  1.00  0.00     0.053 C 
BRANCH  21  22
ATOM     22  C   UNL     1     -15.242  13.784 -13.076  1.00  0.00     0.041 C 
ATOM     23  O   UNL     1     -15.628  14.981 -13.049  1.00  0.00    -0.550 OA
ATOM     24  O   UNL     1     -13.882  13.500 -13.121  1.00  0.00    -0.550 OA
ENDBRANCH  21  22
ENDBRANCH  20  21
ENDBRANCH  19  20
ENDBRANCH  18  19
ENDBRANCH  17  18
ENDBRANCH  16  17
ENDBRANCH  15  16
ENDBRANCH  14  15
ENDBRANCH  13  14
ENDBRANCH   1  13
TORSDOF 20
ENDMDL
MODEL 4
REMARK VINA RESULT:    -0.311      1.695      2.529
REMARK INTER + INTRA:          -1.057
REMARK INTER:                  -0.632
REMARK INTRA:                  -0.424
REMARK UNBOUND:                -0.382
REMARK SMILES CCCCCCCCCCCCCCCCCCCCCC(=O)[O-]
REMARK SMILES IDX 12 1 11 2 10 3 9 4 8 5 7 6 6 7 5 8 4 9 3 10 2 11 1 12 13 13
REMARK SMILES IDX 14 14 15 15 16 16 17 17 18 18 19 19 20 20 21 21 22 22 23 23
REMARK SMILES IDX 24 24
REMARK H PARENT
REMARK Flexibility Score: inf
ROOT
ATOM      1  C   UNL     1     -14.837  13.131  -9.554  1.00  0.00     0.000 C 
ENDROOT
BRANCH   1   2
ATOM      2  C   UNL     1     -14.880  14.449  -8.757  1.00  0.00     0.000 C 
BRANCH   2   3
ATOM      3  C   UNL     1     -16.103  15.345  -9.029  1.00  0.00     0.000 C 
BRANCH   3   4
ATOM      4  C   UNL     1     -15.775  16.845  -8.953  1.00  0.00    -0.000 C 
BRANCH   4   5
ATOM      5  C   UNL     1     -16.958  17.743  -9.361  1.00  0.00    -0.000 C 
BRANCH   5   6
ATOM      6  C   UNL     1     -17.116  17.978 -10.874  1.00  0.00    -0.000 C 
BRANCH   6   7
ATOM      7  C   UNL     1     -16.630  19.366 -11.322  1.00  0.00    -0.000 C 
BRANCH   7   8
ATOM      8  C   UNL     1     -16.283  19.372 -12.815  1.00  0.00    -0.000 C 
BRANCH   8   9
ATOM      9  C   UNL     1     -15.007  20.181 -13.081  1.00  0.00    -0.000 C 
BRANCH   9  10
ATOM     10  C   UNL     1     -14.879  21.414 -12.171  1.00  0.00    -0.000 C 
BRANCH  10  11
ATOM     11  C   UNL     1     -13.508  22.116 -12.269  1.00  0.00    -0.003 C 
ATOM     12  C   UNL     1     -12.488  21.293 -13.055  1.00  0.00     0.004 C 
ENDBRANCH  10  11
ENDBRANCH   9  10
ENDBRANCH   8   9
ENDBRANCH   7   8
ENDBRANCH   6   7
ENDBRANCH   5   6
ENDBRANCH   4   5
ENDBRANCH   3   4
ENDBRANCH   2   3
ENDBRANCH   1   2
BRANCH   1  13
ATOM     13  C   UNL     1     -13.749  12.166  -9.055  1.00  0.00     0.000 C 
BRANCH  13  14
ATOM     14  C   UNL     1     -13.296  11.165 -10.135  1.00  0.00     0.000 C 
BRANCH  14  15
ATOM     15  C   UNL     1     -13.652  11.554 -11.583  1.00  0.00     0.000 C 
BRANCH  15  16
ATOM     16  C   UNL     1     -13.744  13.069 -11.854  1.00  0.00     0.000 C 
BRANCH  16  17
ATOM     17  C   UNL     1     -14.524  13.453 -13.125  1.00  0.00     0.000 C 
BRANCH  17  18
ATOM     18  C   UNL     1     -15.356  14.733 -12.950  1.00  0.00     0.000 C 
BRANCH  18  19
ATOM     19  C   UNL     1     -16.831  14.397 -12.686  1.00  0.00     0.000 C 
BRANCH  19  20
ATOM     20  C   UNL     1     -17.125  12.893 -12.806  1.00  0.00     0.006 C 
BRANCH  20  21
ATOM     21  C   UNL     1     -17.099  12.175 -11.450  1.00  0.00     0.053 C 
BRANCH  21  22
ATOM     22  C   UNL     1     -17.065  10.693 -11.646  1.00  0.00     0.041 C 
ATOM     23  O   UNL     1     -17.044  10.207 -12.807  1.00  0.00    -0.550 OA
ATOM     24  O   UNL     1     -17.108   9.845 -10.545  1.00  0.00    -0.550 OA
ENDBRANCH  21  22
ENDBRANCH  20  21
ENDBRANCH  19  20
ENDBRANCH  18  19
ENDBRANCH  17  18
ENDBRANCH  16  17
ENDBRANCH  15  16
ENDBRANCH  14  15
ENDBRANCH  13  14
ENDBRANCH   1  13
TORSDOF 20
ENDMDL
MODEL 5
REMARK VINA RESULT:     0.608      3.073      6.960
REMARK INTER + INTRA:           0.938
REMARK INTER:                  -1.616
REMARK INTRA:                   2.554
REMARK UNBOUND:                -0.382
REMARK SMILES CCCCCCCCCCCCCCCCCCCCCC(=O)[O-]
REMARK SMILES IDX 12 1 11 2 10 3 9 4 8 5 7 6 6 7 5 8 4 9 3 10 2 11 1 12 13 13
REMARK SMILES IDX 14 14 15 15 16 16 17 17 18 18 19 19 20 20 21 21 22 22 23 23
REMARK SMILES IDX 24 24
REMARK H PARENT
REMARK Flexibility Score: inf
ROOT
ATOM      1  C   UNL     1     -17.046  13.498 -10.481  1.00  0.00     0.000 C 
ENDROOT
BRANCH   1   2
ATOM      2  C   UNL     1     -16.501  12.480 -11.500  1.00  0.00     0.000 C 
BRANCH   2   3
ATOM      3  C   UNL     1     -14.966  12.423 -11.620  1.00  0.00     0.000 C 
BRANCH   3   4
ATOM      4  C   UNL     1     -14.268  12.205 -10.268  1.00  0.00    -0.000 C 
BRANCH   4   5
ATOM      5  C   UNL     1     -15.114  12.671  -9.069  1.00  0.00    -0.000 C 
BRANCH   5   6
ATOM      6  C   UNL     1     -14.318  13.267  -7.892  1.00  0.00    -0.000 C 
BRANCH   6   7
ATOM      7  C   UNL     1     -15.134  13.348  -6.594  1.00  0.00    -0.000 C 
BRANCH   7   8
ATOM      8  C   UNL     1     -16.639  13.282  -6.884  1.00  0.00    -0.000 C 
BRANCH   8   9
ATOM      9  C   UNL     1     -17.089  14.475  -7.736  1.00  0.00    -0.000 C 
BRANCH   9  10
ATOM     10  C   UNL     1     -17.071  15.804  -6.963  1.00  0.00    -0.000 C 
BRANCH  10  11
ATOM     11  C   UNL     1     -16.937  17.046  -7.869  1.00  0.00    -0.003 C 
ATOM     12  C   UNL     1     -15.539  17.177  -8.474  1.00  0.00     0.004 C 
ENDBRANCH  10  11
ENDBRANCH   9  10
ENDBRANCH   8   9
ENDBRANCH   7   8
ENDBRANCH   6   7
ENDBRANCH   5   6
ENDBRANCH   4   5
ENDBRANCH   3   4
ENDBRANCH   2   3
ENDBRANCH   1   2
BRANCH   1  13
ATOM     13  C   UNL     1     -17.058  14.938 -11.021  1.00  0.00     0.000 C 
BRANCH  13  14
ATOM     14  C   UNL     1     -15.686  15.389 -11.556  1.00  0.00     0.000 C 
BRANCH  14  15
ATOM     15  C   UNL     1     -15.692  15.948 -12.993  1.00  0.00     0.000 C 
BRANCH  15  16
ATOM     16  C   UNL     1     -16.077  17.436 -13.118  1.00  0.00     0.000 C 
BRANCH  16  17
ATOM     17  C   UNL     1     -15.466  18.355 -12.045  1.00  0.00     0.000 C 
BRANCH  17  18
ATOM     18  C   UNL     1     -14.304  19.206 -12.580  1.00  0.00     0.000 C 
BRANCH  18  19
ATOM     19  C   UNL     1     -14.535  20.696 -12.289  1.00  0.00     0.000 C 
BRANCH  19  20
ATOM     20  C   UNL     1     -15.714  21.278 -13.085  1.00  0.00     0.006 C 
BRANCH  20  21
ATOM     21  C   UNL     1     -17.076  20.890 -12.492  1.00  0.00     0.053 C 
BRANCH  21  22
ATOM     22  C   UNL     1     -16.961  20.685 -11.015  1.00  0.00     0.041 C 
ATOM     23  O   UNL     1     -17.046  19.527 -10.527  1.00  0.00    -0.550 OA
ATOM     24  O   UNL     1     -16.812  21.778 -10.170  1.00  0.00    -0.550 OA
ENDBRANCH  21  22
ENDBRANCH  20  21
ENDBRANCH  19  20
ENDBRANCH  18  19
ENDBRANCH  17  18
ENDBRANCH  16  17
ENDBRANCH  15  16
ENDBRANCH  14  15
ENDBRANCH  13  14
ENDBRANCH   1  13
TORSDOF 20
ENDMDL
MODEL 6
REMARK VINA RESULT:     0.918      2.819      6.842
REMARK INTER + INTRA:           1.611
REMARK INTER:                   1.901
REMARK INTRA:                  -0.291
REMARK UNBOUND:                -0.382
REMARK SMILES CCCCCCCCCCCCCCCCCCCCCC(=O)[O-]
REMARK SMILES IDX 12 1 11 2 10 3 9 4 8 5 7 6 6 7 5 8 4 9 3 10 2 11 1 12 13 13
REMARK SMILES IDX 14 14 15 15 16 16 17 17 18 18 19 19 20 20 21 21 22 22 23 23
REMARK SMILES IDX 24 24
REMARK H PARENT
REMARK Flexibility Score: inf
ROOT
ATOM      1  C   UNL     1     -16.724  13.786 -11.813  1.00  0.00     0.000 C 
ENDROOT
BRANCH   1   2
ATOM      2  C   UNL     1     -15.321  13.154 -11.878  1.00  0.00     0.000 C 
BRANCH   2   3
ATOM      3  C   UNL     1     -15.167  11.811 -11.139  1.00  0.00     0.000 C 
BRANCH   3   4
ATOM      4  C   UNL     1     -16.293  11.554 -10.124  1.00  0.00    -0.000 C 
BRANCH   4   5
ATOM      5  C   UNL     1     -15.937  12.013  -8.698  1.00  0.00    -0.000 C 
BRANCH   5   6
ATOM      6  C   UNL     1     -16.577  13.341  -8.253  1.00  0.00    -0.000 C 
BRANCH   6   7
ATOM      7  C   UNL     1     -16.807  13.421  -6.737  1.00  0.00    -0.000 C 
BRANCH   7   8
ATOM      8  C   UNL     1     -17.033  14.870  -6.289  1.00  0.00    -0.000 C 
BRANCH   8   9
ATOM      9  C   UNL     1     -16.989  15.829  -7.485  1.00  0.00    -0.000 C 
BRANCH   9  10
ATOM     10  C   UNL     1     -16.009  16.997  -7.281  1.00  0.00    -0.000 C 
BRANCH  10  11
ATOM     11  C   UNL     1     -15.745  17.815  -8.562  1.00  0.00    -0.003 C 
ATOM     12  C   UNL     1     -16.948  18.668  -8.965  1.00  0.00     0.004 C 
ENDBRANCH  10  11
ENDBRANCH   9  10
ENDBRANCH   8   9
ENDBRANCH   7   8
ENDBRANCH   6   7
ENDBRANCH   5   6
ENDBRANCH   4   5
ENDBRANCH   3   4
ENDBRANCH   2   3
ENDBRANCH   1   2
BRANCH   1  13
ATOM     13  C   UNL     1     -16.880  14.779 -10.649  1.00  0.00     0.000 C 
BRANCH  13  14
ATOM     14  C   UNL     1     -17.080  16.231 -11.122  1.00  0.00     0.000 C 
BRANCH  14  15
ATOM     15  C   UNL     1     -16.855  16.468 -12.629  1.00  0.00     0.000 C 
BRANCH  15  16
ATOM     16  C   UNL     1     -17.125  17.905 -13.117  1.00  0.00     0.000 C 
BRANCH  16  17
ATOM     17  C   UNL     1     -15.893  18.829 -13.125  1.00  0.00     0.000 C 
BRANCH  17  18
ATOM     18  C   UNL     1     -15.531  19.352 -11.727  1.00  0.00     0.000 C 
BRANCH  18  19
ATOM     19  C   UNL     1     -15.972  20.813 -11.557  1.00  0.00     0.000 C 
BRANCH  19  20
ATOM     20  C   UNL     1     -14.964  21.808 -12.153  1.00  0.00     0.006 C 
BRANCH  20  21
ATOM     21  C   UNL     1     -13.603  21.765 -11.446  1.00  0.00     0.053 C 
BRANCH  21  22
ATOM     22  C   UNL     1     -12.554  21.229 -12.368  1.00  0.00     0.041 C 
ATOM     23  O   UNL     1     -11.870  22.014 -13.075  1.00  0.00    -0.550 OA
ATOM     24  O   UNL     1     -12.366  19.857 -12.484  1.00  0.00    -0.550 OA
ENDBRANCH  21  22
ENDBRANCH  20  21
ENDBRANCH  19  20
ENDBRANCH  18  19
ENDBRANCH  17  18
ENDBRANCH  16  17
ENDBRANCH  15  16
ENDBRANCH  14  15
ENDBRANCH  13  14
ENDBRANCH   1  13
TORSDOF 20
ENDMDL
MODEL 7
REMARK VINA RESULT:     1.046      2.958      6.135
REMARK INTER + INTRA:           1.887
REMARK INTER:                   1.230
REMARK INTRA:                   0.657
REMARK UNBOUND:                -0.382
REMARK SMILES CCCCCCCCCCCCCCCCCCCCCC(=O)[O-]
REMARK SMILES IDX 12 1 11 2 10 3 9 4 8 5 7 6 6 7 5 8 4 9 3 10 2 11 1 12 13 13
REMARK SMILES IDX 14 14 15 15 16 16 17 17 18 18 19 19 20 20 21 21 22 22 23 23
REMARK SMILES IDX 24 24
REMARK H PARENT
REMARK Flexibility Score: inf
ROOT
ATOM      1  C   UNL     1     -13.728  12.531  -8.620  1.00  0.00     0.000 C 
ENDROOT
BRANCH   1   2
ATOM      2  C   UNL     1     -15.186  12.767  -9.056  1.00  0.00     0.000 C 
BRANCH   2   3
ATOM      3  C   UNL     1     -15.999  11.494  -9.358  1.00  0.00     0.000 C 
BRANCH   3   4
ATOM      4  C   UNL     1     -16.676  11.528 -10.738  1.00  0.00    -0.000 C 
BRANCH   4   5
ATOM      5  C   UNL     1     -15.938  10.685 -11.794  1.00  0.00    -0.000 C 
BRANCH   5   6
ATOM      6  C   UNL     1     -15.642  11.404 -13.124  1.00  0.00    -0.000 C 
BRANCH   6   7
ATOM      7  C   UNL     1     -14.436  12.352 -13.039  1.00  0.00    -0.000 C 
BRANCH   7   8
ATOM      8  C   UNL     1     -14.881  13.817 -13.125  1.00  0.00    -0.000 C 
BRANCH   8   9
ATOM      9  C   UNL     1     -16.349  13.973 -12.707  1.00  0.00    -0.000 C 
BRANCH   9  10
ATOM     10  C   UNL     1     -16.521  14.793 -11.418  1.00  0.00    -0.000 C 
BRANCH  10  11
ATOM     11  C   UNL     1     -16.808  16.288 -11.670  1.00  0.00    -0.003 C 
ATOM     12  C   UNL     1     -16.568  16.690 -13.125  1.00  0.00     0.004 C 
ENDBRANCH  10  11
ENDBRANCH   9  10
ENDBRANCH   8   9
ENDBRANCH   7   8
ENDBRANCH   6   7
ENDBRANCH   5   6
ENDBRANCH   4   5
ENDBRANCH   3   4
ENDBRANCH   2   3
ENDBRANCH   1   2
BRANCH   1  13
ATOM     13  C   UNL     1     -13.476  12.902  -7.149  1.00  0.00     0.000 C 
BRANCH  13  14
ATOM     14  C   UNL     1     -14.588  13.786  -6.555  1.00  0.00     0.000 C 
BRANCH  14  15
ATOM     15  C   UNL     1     -15.975  13.118  -6.452  1.00  0.00     0.000 C 
BRANCH  15  16
ATOM     16  C   UNL     1     -17.122  13.873  -7.151  1.00  0.00     0.000 C 
BRANCH  16  17
ATOM     17  C   UNL     1     -17.061  15.406  -7.024  1.00  0.00     0.000 C 
BRANCH  17  18
ATOM     18  C   UNL     1     -16.939  16.114  -8.382  1.00  0.00     0.000 C 
BRANCH  18  19
ATOM     19  C   UNL     1     -16.263  17.483  -8.229  1.00  0.00     0.000 C 
BRANCH  19  20
ATOM     20  C   UNL     1     -16.127  18.229  -9.566  1.00  0.00     0.006 C 
BRANCH  20  21
ATOM     21  C   UNL     1     -16.956  19.519  -9.611  1.00  0.00     0.053 C 
BRANCH  21  22
ATOM     22  C   UNL     1     -16.600  20.326 -10.818  1.00  0.00     0.041 C 
ATOM     23  O   UNL     1     -16.950  21.532 -10.901  1.00  0.00    -0.550 OA
ATOM     24  O   UNL     1     -15.923  19.732 -11.877  1.00  0.00    -0.550 OA
ENDBRANCH  21  22
ENDBRANCH  20  21
ENDBRANCH  19  20
ENDBRANCH  18  19
ENDBRANCH  17  18
ENDBRANCH  16  17
ENDBRANCH  15  16
ENDBRANCH  14  15
ENDBRANCH  13  14
ENDBRANCH   1  13
TORSDOF 20
ENDMDL
