MODEL 1
REMARK VINA RESULT:     4.652      0.000      0.000
REMARK INTER + INTRA:           8.203
REMARK INTER:                   9.004
REMARK INTRA:                  -0.801
REMARK UNBOUND:                -0.801
REMARK SMILES CCCCCCCCCCCCCCCCCC(=O)[O-]
REMARK SMILES IDX 10 1 11 2 12 3 13 4 14 5 15 6 16 7 17 8 18 9 19 10 20 11
REMARK SMILES IDX 9 12 8 13 7 14 6 15 5 16 4 17 3 18 2 19 1 20
REMARK H PARENT
REMARK Flexibility Score: inf
ROOT
ATOM      1  C   UNL     1      68.092  75.961  97.227  1.00  0.00     0.000 C 
ENDROOT
BRANCH   1   2
ATOM      2  C   UNL     1      68.784  76.431  95.938  1.00  0.00     0.000 C 
BRANCH   2   3
ATOM      3  C   UNL     1      67.885  76.289  94.699  1.00  0.00     0.000 C 
BRANCH   3   4
ATOM      4  C   UNL     1      68.672  76.395  93.384  1.00  0.00     0.000 C 
BRANCH   4   5
ATOM      5  C   UNL     1      67.875  77.169  92.326  1.00  0.00     0.000 C 
BRANCH   5   6
ATOM      6  C   UNL     1      68.115  76.590  90.924  1.00  0.00     0.000 C 
BRANCH   6   7
ATOM      7  C   UNL     1      67.937  75.064  90.876  1.00  0.00     0.006 C 
BRANCH   7   8
ATOM      8  C   UNL     1      69.273  74.313  90.938  1.00  0.00     0.053 C 
BRANCH   8   9
ATOM      9  C   UNL     1      69.073  72.938  91.493  1.00  0.00     0.041 C 
ATOM     10  O   UNL     1      68.239  72.742  92.417  1.00  0.00    -0.550 OA
ATOM     11  O   UNL     1      69.773  71.864  90.958  1.00  0.00    -0.550 OA
ENDBRANCH   8   9
ENDBRANCH   7   8
ENDBRANCH   6   7
ENDBRANCH   5   6
ENDBRANCH   4   5
ENDBRANCH   3   4
ENDBRANCH   2   3
ENDBRANCH   1   2
BRANCH   1  12
ATOM     12  C   UNL     1      67.888  77.134  98.198  1.00  0.00     0.000 C 
BRANCH  12  13
ATOM     13  C   UNL     1      69.217  77.757  98.668  1.00  0.00    -0.000 C 
BRANCH  13  14
ATOM     14  C   UNL     1      69.294  79.291  98.542  1.00  0.00    -0.000 C 
BRANCH  14  15
ATOM     15  C   UNL     1      69.275  80.062  99.878  1.00  0.00    -0.000 C 
BRANCH  15  16
ATOM     16  C   UNL     1      67.910  80.101 100.592  1.00  0.00    -0.000 C 
BRANCH  16  17
ATOM     17  C   UNL     1      68.024  79.866 102.107  1.00  0.00    -0.000 C 
BRANCH  17  18
ATOM     18  C   UNL     1      69.141  78.874 102.478  1.00  0.00    -0.000 C 
BRANCH  18  19
ATOM     19  C   UNL     1      68.769  77.848 103.564  1.00  0.00    -0.003 C 
ATOM     20  C   UNL     1      69.038  76.404 103.143  1.00  0.00     0.004 C 
ENDBRANCH  18  19
ENDBRANCH  17  18
ENDBRANCH  16  17
ENDBRANCH  15  16
ENDBRANCH  14  15
ENDBRANCH  13  14
ENDBRANCH  12  13
ENDBRANCH   1  12
TORSDOF 16
ENDMDL
MODEL 2
REMARK VINA RESULT:     5.389      4.231      9.669
REMARK INTER + INTRA:           9.628
REMARK INTER:                   9.077
REMARK INTRA:                   0.551
REMARK UNBOUND:                -0.801
REMARK SMILES CCCCCCCCCCCCCCCCCC(=O)[O-]
REMARK SMILES IDX 10 1 11 2 12 3 13 4 14 5 15 6 16 7 17 8 18 9 19 10 20 11
REMARK SMILES IDX 9 12 8 13 7 14 6 15 5 16 4 17 3 18 2 19 1 20
REMARK H PARENT
REMARK Flexibility Score: inf
ROOT
ATOM      1  C   UNL     1      69.009  75.689  96.739  1.00  0.00     0.000 C 
ENDROOT
BRANCH   1   2
ATOM      2  C   UNL     1      68.434  76.478  97.925  1.00  0.00     0.000 C 
BRANCH   2   3
ATOM      3  C   UNL     1      68.077  77.927  97.554  1.00  0.00     0.000 C 
BRANCH   3   4
ATOM      4  C   UNL     1      67.923  78.830  98.787  1.00  0.00     0.000 C 
BRANCH   4   5
ATOM      5  C   UNL     1      69.292  79.264  99.325  1.00  0.00     0.000 C 
BRANCH   5   6
ATOM      6  C   UNL     1      69.144  80.050 100.636  1.00  0.00     0.000 C 
BRANCH   6   7
ATOM      7  C   UNL     1      68.309  79.298 101.685  1.00  0.00     0.006 C 
BRANCH   7   8
ATOM      8  C   UNL     1      68.798  77.861 101.907  1.00  0.00     0.053 C 
BRANCH   8   9
ATOM      9  C   UNL     1      69.063  77.619 103.359  1.00  0.00     0.041 C 
ATOM     10  O   UNL     1      69.565  78.527 104.073  1.00  0.00    -0.550 OA
ATOM     11  O   UNL     1      68.711  76.405 103.937  1.00  0.00    -0.550 OA
ENDBRANCH   8   9
ENDBRANCH   7   8
ENDBRANCH   6   7
ENDBRANCH   5   6
ENDBRANCH   4   5
ENDBRANCH   3   4
ENDBRANCH   2   3
ENDBRANCH   1   2
BRANCH   1  12
ATOM     12  C   UNL     1      68.090  75.797  95.513  1.00  0.00     0.000 C 
BRANCH  12  13
ATOM     13  C   UNL     1      68.025  77.226  94.940  1.00  0.00    -0.000 C 
BRANCH  13  14
ATOM     14  C   UNL     1      67.875  77.304  93.407  1.00  0.00    -0.000 C 
BRANCH  14  15
ATOM     15  C   UNL     1      68.119  75.980  92.655  1.00  0.00    -0.000 C 
BRANCH  15  16
ATOM     16  C   UNL     1      69.471  75.301  92.943  1.00  0.00    -0.000 C 
BRANCH  16  17
ATOM     17  C   UNL     1      70.011  74.513  91.739  1.00  0.00    -0.000 C 
BRANCH  17  18
ATOM     18  C   UNL     1      68.895  73.898  90.875  1.00  0.00    -0.000 C 
BRANCH  18  19
ATOM     19  C   UNL     1      68.448  72.485  91.294  1.00  0.00    -0.003 C 
ATOM     20  C   UNL     1      69.488  71.410  90.982  1.00  0.00     0.004 C 
ENDBRANCH  18  19
ENDBRANCH  17  18
ENDBRANCH  16  17
ENDBRANCH  15  16
ENDBRANCH  14  15
ENDBRANCH  13  14
ENDBRANCH  12  13
ENDBRANCH   1  12
TORSDOF 16
ENDMDL
