MODEL 1
REMARK VINA RESULT:    -4.303      0.000      0.000
REMARK INTER + INTRA:          -9.991
REMARK INTER:                  -7.824
REMARK INTRA:                  -2.167
REMARK UNBOUND:                -2.167
REMARK SMILES CCCCCCCCCCCCCCCC(=O)[O-]
REMARK SMILES IDX 9 1 10 2 11 3 12 4 13 5 14 6 15 7 16 8 17 9 18 10 8 11 7 12
REMARK SMILES IDX 6 13 5 14 4 15 3 16 2 17 1 18
REMARK H PARENT
REMARK Flexibility Score: inf
ROOT
ATOM      1  C   UNL     1     -52.428  15.635 -27.634  1.00  0.00     0.000 C 
ENDROOT
BRANCH   1   2
ATOM      2  C   UNL     1     -53.725  14.970 -28.131  1.00  0.00     0.000 C 
BRANCH   2   3
ATOM      3  C   UNL     1     -53.547  13.980 -29.301  1.00  0.00     0.000 C 
BRANCH   3   4
ATOM      4  C   UNL     1     -53.501  12.493 -28.904  1.00  0.00     0.000 C 
BRANCH   4   5
ATOM      5  C   UNL     1     -52.865  11.606 -29.988  1.00  0.00     0.000 C 
BRANCH   5   6
ATOM      6  C   UNL     1     -51.619  12.251 -30.618  1.00  0.00     0.006 C 
BRANCH   6   7
ATOM      7  C   UNL     1     -50.329  11.487 -30.294  1.00  0.00     0.053 C 
BRANCH   7   8
ATOM      8  C   UNL     1     -49.627  12.119 -29.132  1.00  0.00     0.041 C 
ATOM      9  O   UNL     1     -49.986  13.251 -28.715  1.00  0.00    -0.550 OA
ATOM     10  O   UNL     1     -48.545  11.478 -28.541  1.00  0.00    -0.550 OA
ENDBRANCH   7   8
ENDBRANCH   6   7
ENDBRANCH   5   6
ENDBRANCH   4   5
ENDBRANCH   3   4
ENDBRANCH   2   3
ENDBRANCH   1   2
BRANCH   1  11
ATOM     11  C   UNL     1     -52.670  17.012 -26.997  1.00  0.00     0.000 C 
BRANCH  11  12
ATOM     12  C   UNL     1     -53.854  17.725 -27.665  1.00  0.00    -0.000 C 
BRANCH  12  13
ATOM     13  C   UNL     1     -53.414  18.689 -28.779  1.00  0.00    -0.000 C 
BRANCH  13  14
ATOM     14  C   UNL     1     -53.786  18.180 -30.183  1.00  0.00    -0.000 C 
BRANCH  14  15
ATOM     15  C   UNL     1     -52.562  18.043 -31.104  1.00  0.00    -0.000 C 
BRANCH  15  16
ATOM     16  C   UNL     1     -51.259  17.795 -30.329  1.00  0.00    -0.000 C 
BRANCH  16  17
ATOM     17  C   UNL     1     -50.677  16.417 -30.662  1.00  0.00    -0.003 C 
ATOM     18  C   UNL     1     -51.461  15.743 -31.783  1.00  0.00     0.004 C 
ENDBRANCH  16  17
ENDBRANCH  15  16
ENDBRANCH  14  15
ENDBRANCH  13  14
ENDBRANCH  12  13
ENDBRANCH  11  12
ENDBRANCH   1  11
TORSDOF 14
ENDMDL
MODEL 2
REMARK VINA RESULT:    -4.285     14.793     16.652
REMARK INTER + INTRA:          -9.959
REMARK INTER:                  -7.473
REMARK INTRA:                  -2.486
REMARK UNBOUND:                -2.167
REMARK SMILES CCCCCCCCCCCCCCCC(=O)[O-]
REMARK SMILES IDX 9 1 10 2 11 3 12 4 13 5 14 6 15 7 16 8 17 9 18 10 8 11 7 12
REMARK SMILES IDX 6 13 5 14 4 15 3 16 2 17 1 18
REMARK H PARENT
REMARK Flexibility Score: inf
ROOT
ATOM      1  C   UNL     1     -34.869  18.096 -29.464  1.00  0.00     0.000 C 
ENDROOT
BRANCH   1   2
ATOM      2  C   UNL     1     -34.671  18.893 -28.162  1.00  0.00     0.000 C 
BRANCH   2   3
ATOM      3  C   UNL     1     -35.969  19.243 -27.404  1.00  0.00     0.000 C 
BRANCH   3   4
ATOM      4  C   UNL     1     -37.221  18.467 -27.850  1.00  0.00     0.000 C 
BRANCH   4   5
ATOM      5  C   UNL     1     -38.415  19.389 -28.157  1.00  0.00     0.000 C 
BRANCH   5   6
ATOM      6  C   UNL     1     -39.257  18.885 -29.340  1.00  0.00     0.006 C 
BRANCH   6   7
ATOM      7  C   UNL     1     -38.398  18.373 -30.503  1.00  0.00     0.053 C 
BRANCH   7   8
ATOM      8  C   UNL     1     -38.615  16.905 -30.705  1.00  0.00     0.041 C 
ATOM      9  O   UNL     1     -39.604  16.497 -31.365  1.00  0.00    -0.550 OA
ATOM     10  O   UNL     1     -37.750  15.988 -30.120  1.00  0.00    -0.550 OA
ENDBRANCH   7   8
ENDBRANCH   6   7
ENDBRANCH   5   6
ENDBRANCH   4   5
ENDBRANCH   3   4
ENDBRANCH   2   3
ENDBRANCH   1   2
BRANCH   1  11
ATOM     11  C   UNL     1     -34.179  18.745 -30.673  1.00  0.00     0.000 C 
BRANCH  11  12
ATOM     12  C   UNL     1     -34.083  20.268 -30.497  1.00  0.00    -0.000 C 
BRANCH  12  13
ATOM     13  C   UNL     1     -35.115  21.029 -31.347  1.00  0.00    -0.000 C 
BRANCH  13  14
ATOM     14  C   UNL     1     -36.409  21.333 -30.573  1.00  0.00    -0.000 C 
BRANCH  14  15
ATOM     15  C   UNL     1     -36.389  22.720 -29.910  1.00  0.00    -0.000 C 
BRANCH  15  16
ATOM     16  C   UNL     1     -36.792  22.677 -28.428  1.00  0.00    -0.000 C 
BRANCH  16  17
ATOM     17  C   UNL     1     -35.752  23.389 -27.556  1.00  0.00    -0.003 C 
ATOM     18  C   UNL     1     -34.443  22.607 -27.508  1.00  0.00     0.004 C 
ENDBRANCH  16  17
ENDBRANCH  15  16
ENDBRANCH  14  15
ENDBRANCH  13  14
ENDBRANCH  12  13
ENDBRANCH  11  12
ENDBRANCH   1  11
TORSDOF 14
ENDMDL
MODEL 3
REMARK VINA RESULT:    -4.273      2.214      3.730
REMARK INTER + INTRA:          -9.937
REMARK INTER:                  -7.918
REMARK INTRA:                  -2.019
REMARK UNBOUND:                -2.167
REMARK SMILES CCCCCCCCCCCCCCCC(=O)[O-]
REMARK SMILES IDX 9 1 10 2 11 3 12 4 13 5 14 6 15 7 16 8 17 9 18 10 8 11 7 12
REMARK SMILES IDX 6 13 5 14 4 15 3 16 2 17 1 18
REMARK H PARENT
REMARK Flexibility Score: inf
ROOT
ATOM      1  C   UNL     1     -50.458  15.656 -31.079  1.00  0.00     0.000 C 
ENDROOT
BRANCH   1   2
ATOM      2  C   UNL     1     -49.773  14.442 -30.426  1.00  0.00     0.000 C 
BRANCH   2   3
ATOM      3  C   UNL     1     -50.287  14.078 -29.017  1.00  0.00     0.000 C 
BRANCH   3   4
ATOM      4  C   UNL     1     -50.237  12.580 -28.666  1.00  0.00     0.000 C 
BRANCH   4   5
ATOM      5  C   UNL     1     -50.641  11.678 -29.845  1.00  0.00     0.000 C 
BRANCH   5   6
ATOM      6  C   UNL     1     -52.153  11.717 -30.123  1.00  0.00     0.006 C 
BRANCH   6   7
ATOM      7  C   UNL     1     -52.480  11.684 -31.622  1.00  0.00     0.053 C 
BRANCH   7   8
ATOM      8  C   UNL     1     -52.087  10.366 -32.212  1.00  0.00     0.041 C 
ATOM      9  O   UNL     1     -51.252  10.318 -33.153  1.00  0.00    -0.550 OA
ATOM     10  O   UNL     1     -52.679   9.195 -31.756  1.00  0.00    -0.550 OA
ENDBRANCH   7   8
ENDBRANCH   6   7
ENDBRANCH   5   6
ENDBRANCH   4   5
ENDBRANCH   3   4
ENDBRANCH   2   3
ENDBRANCH   1   2
BRANCH   1  11
ATOM     11  C   UNL     1     -51.956  15.431 -31.333  1.00  0.00     0.000 C 
BRANCH  11  12
ATOM     12  C   UNL     1     -52.708  16.770 -31.395  1.00  0.00    -0.000 C 
BRANCH  12  13
ATOM     13  C   UNL     1     -52.074  17.848 -30.500  1.00  0.00    -0.000 C 
BRANCH  13  14
ATOM     14  C   UNL     1     -53.125  18.721 -29.792  1.00  0.00    -0.000 C 
BRANCH  14  15
ATOM     15  C   UNL     1     -53.944  17.935 -28.755  1.00  0.00    -0.000 C 
BRANCH  15  16
ATOM     16  C   UNL     1     -53.208  17.771 -27.417  1.00  0.00    -0.000 C 
BRANCH  16  17
ATOM     17  C   UNL     1     -52.673  16.343 -27.257  1.00  0.00    -0.003 C 
ATOM     18  C   UNL     1     -53.565  15.335 -27.975  1.00  0.00     0.004 C 
ENDBRANCH  16  17
ENDBRANCH  15  16
ENDBRANCH  14  15
ENDBRANCH  13  14
ENDBRANCH  12  13
ENDBRANCH  11  12
ENDBRANCH   1  11
TORSDOF 14
ENDMDL
MODEL 4
REMARK VINA RESULT:    -4.265      1.784      3.352
REMARK INTER + INTRA:          -9.922
REMARK INTER:                  -7.932
REMARK INTRA:                  -1.990
REMARK UNBOUND:                -2.167
REMARK SMILES CCCCCCCCCCCCCCCC(=O)[O-]
REMARK SMILES IDX 9 1 10 2 11 3 12 4 13 5 14 6 15 7 16 8 17 9 18 10 8 11 7 12
REMARK SMILES IDX 6 13 5 14 4 15 3 16 2 17 1 18
REMARK H PARENT
REMARK Flexibility Score: inf
ROOT
ATOM      1  C   UNL     1     -50.629  13.911 -29.058  1.00  0.00     0.000 C 
ENDROOT
BRANCH   1   2
ATOM      2  C   UNL     1     -52.059  13.371 -29.243  1.00  0.00     0.000 C 
BRANCH   2   3
ATOM      3  C   UNL     1     -52.243  12.392 -30.422  1.00  0.00     0.000 C 
BRANCH   3   4
ATOM      4  C   UNL     1     -52.548  10.936 -30.026  1.00  0.00     0.000 C 
BRANCH   4   5
ATOM      5  C   UNL     1     -51.470   9.949 -30.509  1.00  0.00     0.000 C 
BRANCH   5   6
ATOM      6  C   UNL     1     -50.109  10.628 -30.729  1.00  0.00     0.006 C 
BRANCH   6   7
ATOM      7  C   UNL     1     -49.138  10.400 -29.562  1.00  0.00     0.053 C 
BRANCH   7   8
ATOM      8  C   UNL     1     -48.056   9.447 -29.963  1.00  0.00     0.041 C 
ATOM      9  O   UNL     1     -47.084   9.232 -29.193  1.00  0.00    -0.550 OA
ATOM     10  O   UNL     1     -48.097   8.833 -31.209  1.00  0.00    -0.550 OA
ENDBRANCH   7   8
ENDBRANCH   6   7
ENDBRANCH   5   6
ENDBRANCH   4   5
ENDBRANCH   3   4
ENDBRANCH   2   3
ENDBRANCH   1   2
BRANCH   1  11
ATOM     11  C   UNL     1     -49.975  14.338 -30.381  1.00  0.00     0.000 C 
BRANCH  11  12
ATOM     12  C   UNL     1     -50.316  15.798 -30.714  1.00  0.00    -0.000 C 
BRANCH  12  13
ATOM     13  C   UNL     1     -51.434  15.922 -31.763  1.00  0.00    -0.000 C 
BRANCH  13  14
ATOM     14  C   UNL     1     -52.553  16.881 -31.322  1.00  0.00    -0.000 C 
BRANCH  14  15
ATOM     15  C   UNL     1     -52.038  18.020 -30.427  1.00  0.00    -0.000 C 
BRANCH  15  16
ATOM     16  C   UNL     1     -52.899  18.226 -29.172  1.00  0.00    -0.000 C 
BRANCH  16  17
ATOM     17  C   UNL     1     -53.379  16.883 -28.609  1.00  0.00    -0.003 C 
ATOM     18  C   UNL     1     -52.636  16.526 -27.326  1.00  0.00     0.004 C 
ENDBRANCH  16  17
ENDBRANCH  15  16
ENDBRANCH  14  15
ENDBRANCH  13  14
ENDBRANCH  12  13
ENDBRANCH  11  12
ENDBRANCH   1  11
TORSDOF 14
ENDMDL
MODEL 5
REMARK VINA RESULT:    -4.250     14.683     16.815
REMARK INTER + INTRA:          -9.895
REMARK INTER:                  -7.872
REMARK INTRA:                  -2.023
REMARK UNBOUND:                -2.167
REMARK SMILES CCCCCCCCCCCCCCCC(=O)[O-]
REMARK SMILES IDX 9 1 10 2 11 3 12 4 13 5 14 6 15 7 16 8 17 9 18 10 8 11 7 12
REMARK SMILES IDX 6 13 5 14 4 15 3 16 2 17 1 18
REMARK H PARENT
REMARK Flexibility Score: inf
ROOT
ATOM      1  C   UNL     1     -33.898  21.327 -27.375  1.00  0.00     0.000 C 
ENDROOT
BRANCH   1   2
ATOM      2  C   UNL     1     -34.634  22.526 -26.750  1.00  0.00     0.000 C 
BRANCH   2   3
ATOM      3  C   UNL     1     -35.713  23.172 -27.644  1.00  0.00     0.000 C 
BRANCH   3   4
ATOM      4  C   UNL     1     -35.584  22.876 -29.149  1.00  0.00     0.000 C 
BRANCH   4   5
ATOM      5  C   UNL     1     -36.873  22.289 -29.752  1.00  0.00     0.000 C 
BRANCH   5   6
ATOM      6  C   UNL     1     -37.929  21.967 -28.682  1.00  0.00     0.006 C 
BRANCH   6   7
ATOM      7  C   UNL     1     -38.494  20.547 -28.816  1.00  0.00     0.053 C 
BRANCH   7   8
ATOM      8  C   UNL     1     -39.989  20.585 -28.882  1.00  0.00     0.041 C 
ATOM      9  O   UNL     1     -40.573  21.531 -29.471  1.00  0.00    -0.550 OA
ATOM     10  O   UNL     1     -40.738  19.601 -28.249  1.00  0.00    -0.550 OA
ENDBRANCH   7   8
ENDBRANCH   6   7
ENDBRANCH   5   6
ENDBRANCH   4   5
ENDBRANCH   3   4
ENDBRANCH   2   3
ENDBRANCH   1   2
BRANCH   1  11
ATOM     11  C   UNL     1     -34.366  19.977 -26.808  1.00  0.00     0.000 C 
BRANCH  11  12
ATOM     12  C   UNL     1     -35.345  19.288 -27.770  1.00  0.00    -0.000 C 
BRANCH  12  13
ATOM     13  C   UNL     1     -34.758  19.099 -29.179  1.00  0.00    -0.000 C 
BRANCH  13  14
ATOM     14  C   UNL     1     -35.808  18.620 -30.197  1.00  0.00    -0.000 C 
BRANCH  14  15
ATOM     15  C   UNL     1     -35.973  17.091 -30.200  1.00  0.00    -0.000 C 
BRANCH  15  16
ATOM     16  C   UNL     1     -37.403  16.647 -29.861  1.00  0.00    -0.000 C 
BRANCH  16  17
ATOM     17  C   UNL     1     -38.435  17.545 -30.553  1.00  0.00    -0.003 C 
ATOM     18  C   UNL     1     -39.488  16.715 -31.281  1.00  0.00     0.004 C 
ENDBRANCH  16  17
ENDBRANCH  15  16
ENDBRANCH  14  15
ENDBRANCH  13  14
ENDBRANCH  12  13
ENDBRANCH  11  12
ENDBRANCH   1  11
TORSDOF 14
ENDMDL
MODEL 6
REMARK VINA RESULT:    -4.199      3.704      8.186
REMARK INTER + INTRA:          -9.803
REMARK INTER:                  -7.673
REMARK INTRA:                  -2.130
REMARK UNBOUND:                -2.167
REMARK SMILES CCCCCCCCCCCCCCCC(=O)[O-]
REMARK SMILES IDX 9 1 10 2 11 3 12 4 13 5 14 6 15 7 16 8 17 9 18 10 8 11 7 12
REMARK SMILES IDX 6 13 5 14 4 15 3 16 2 17 1 18
REMARK H PARENT
REMARK Flexibility Score: inf
ROOT
ATOM      1  C   UNL     1     -51.896   7.463 -31.187  1.00  0.00     0.000 C 
ENDROOT
BRANCH   1   2
ATOM      2  C   UNL     1     -51.566   8.658 -30.275  1.00  0.00     0.000 C 
BRANCH   2   3
ATOM      3  C   UNL     1     -51.905  10.045 -30.862  1.00  0.00     0.000 C 
BRANCH   3   4
ATOM      4  C   UNL     1     -50.694  10.952 -31.147  1.00  0.00     0.000 C 
BRANCH   4   5
ATOM      5  C   UNL     1     -49.801  11.158 -29.911  1.00  0.00     0.000 C 
BRANCH   5   6
ATOM      6  C   UNL     1     -50.092  12.485 -29.191  1.00  0.00     0.006 C 
BRANCH   6   7
ATOM      7  C   UNL     1     -49.434  13.689 -29.879  1.00  0.00     0.053 C 
BRANCH   7   8
ATOM      8  C   UNL     1     -50.479  14.622 -30.406  1.00  0.00     0.041 C 
ATOM      9  O   UNL     1     -50.155  15.765 -30.823  1.00  0.00    -0.550 OA
ATOM     10  O   UNL     1     -51.817  14.248 -30.392  1.00  0.00    -0.550 OA
ENDBRANCH   7   8
ENDBRANCH   6   7
ENDBRANCH   5   6
ENDBRANCH   4   5
ENDBRANCH   3   4
ENDBRANCH   2   3
ENDBRANCH   1   2
BRANCH   1  11
ATOM     11  C   UNL     1     -51.827   7.815 -32.681  1.00  0.00     0.000 C 
BRANCH  11  12
ATOM     12  C   UNL     1     -51.101   6.715 -33.470  1.00  0.00    -0.000 C 
BRANCH  12  13
ATOM     13  C   UNL     1     -49.586   6.696 -33.204  1.00  0.00    -0.000 C 
BRANCH  13  14
ATOM     14  C   UNL     1     -48.960   8.100 -33.256  1.00  0.00    -0.000 C 
BRANCH  14  15
ATOM     15  C   UNL     1     -48.213   8.462 -31.962  1.00  0.00    -0.000 C 
BRANCH  15  16
ATOM     16  C   UNL     1     -48.125   7.286 -30.978  1.00  0.00    -0.000 C 
BRANCH  16  17
ATOM     17  C   UNL     1     -47.647   7.758 -29.600  1.00  0.00    -0.003 C 
ATOM     18  C   UNL     1     -46.843   9.050 -29.708  1.00  0.00     0.004 C 
ENDBRANCH  16  17
ENDBRANCH  15  16
ENDBRANCH  14  15
ENDBRANCH  13  14
ENDBRANCH  12  13
ENDBRANCH  11  12
ENDBRANCH   1  11
TORSDOF 14
ENDMDL
MODEL 7
REMARK VINA RESULT:    -4.173      2.021      4.092
REMARK INTER + INTRA:          -9.755
REMARK INTER:                  -7.190
REMARK INTRA:                  -2.565
REMARK UNBOUND:                -2.167
REMARK SMILES CCCCCCCCCCCCCCCC(=O)[O-]
REMARK SMILES IDX 9 1 10 2 11 3 12 4 13 5 14 6 15 7 16 8 17 9 18 10 8 11 7 12
REMARK SMILES IDX 6 13 5 14 4 15 3 16 2 17 1 18
REMARK H PARENT
REMARK Flexibility Score: inf
ROOT
ATOM      1  C   UNL     1     -50.592  15.722 -30.557  1.00  0.00     0.000 C 
ENDROOT
BRANCH   1   2
ATOM      2  C   UNL     1     -49.947  14.338 -30.364  1.00  0.00     0.000 C 
BRANCH   2   3
ATOM      3  C   UNL     1     -50.052  13.758 -28.938  1.00  0.00     0.000 C 
BRANCH   3   4
ATOM      4  C   UNL     1     -50.386  12.257 -28.861  1.00  0.00     0.000 C 
BRANCH   4   5
ATOM      5  C   UNL     1     -50.142  11.524 -30.191  1.00  0.00     0.000 C 
BRANCH   5   6
ATOM      6  C   UNL     1     -51.406  10.826 -30.718  1.00  0.00     0.006 C 
BRANCH   6   7
ATOM      7  C   UNL     1     -51.427   9.324 -30.405  1.00  0.00     0.053 C 
BRANCH   7   8
ATOM      8  C   UNL     1     -50.174   8.671 -30.900  1.00  0.00     0.041 C 
ATOM      9  O   UNL     1     -49.955   8.577 -32.135  1.00  0.00    -0.550 OA
ATOM     10  O   UNL     1     -49.272   8.122 -29.996  1.00  0.00    -0.550 OA
ENDBRANCH   7   8
ENDBRANCH   6   7
ENDBRANCH   5   6
ENDBRANCH   4   5
ENDBRANCH   3   4
ENDBRANCH   2   3
ENDBRANCH   1   2
BRANCH   1  11
ATOM     11  C   UNL     1     -51.782  15.697 -31.529  1.00  0.00     0.000 C 
BRANCH  11  12
ATOM     12  C   UNL     1     -52.486  14.332 -31.496  1.00  0.00    -0.000 C 
BRANCH  12  13
ATOM     13  C   UNL     1     -53.841  14.381 -30.769  1.00  0.00    -0.000 C 
BRANCH  13  14
ATOM     14  C   UNL     1     -53.901  13.424 -29.566  1.00  0.00    -0.000 C 
BRANCH  14  15
ATOM     15  C   UNL     1     -53.607  14.132 -28.233  1.00  0.00    -0.000 C 
BRANCH  15  16
ATOM     16  C   UNL     1     -53.882  15.642 -28.289  1.00  0.00    -0.000 C 
BRANCH  16  17
ATOM     17  C   UNL     1     -52.789  16.427 -27.555  1.00  0.00    -0.003 C 
ATOM     18  C   UNL     1     -52.561  17.790 -28.199  1.00  0.00     0.004 C 
ENDBRANCH  16  17
ENDBRANCH  15  16
ENDBRANCH  14  15
ENDBRANCH  13  14
ENDBRANCH  12  13
ENDBRANCH  11  12
ENDBRANCH   1  11
TORSDOF 14
ENDMDL
MODEL 8
REMARK VINA RESULT:    -4.099      2.056      2.970
REMARK INTER + INTRA:          -9.621
REMARK INTER:                  -8.022
REMARK INTRA:                  -1.599
REMARK UNBOUND:                -2.167
REMARK SMILES CCCCCCCCCCCCCCCC(=O)[O-]
REMARK SMILES IDX 9 1 10 2 11 3 12 4 13 5 14 6 15 7 16 8 17 9 18 10 8 11 7 12
REMARK SMILES IDX 6 13 5 14 4 15 3 16 2 17 1 18
REMARK H PARENT
REMARK Flexibility Score: inf
ROOT
ATOM      1  C   UNL     1     -53.484  14.516 -29.034  1.00  0.00     0.000 C 
ENDROOT
BRANCH   1   2
ATOM      2  C   UNL     1     -52.493  13.410 -29.439  1.00  0.00     0.000 C 
BRANCH   2   3
ATOM      3  C   UNL     1     -51.085  13.532 -28.819  1.00  0.00     0.000 C 
BRANCH   3   4
ATOM      4  C   UNL     1     -49.987  12.704 -29.512  1.00  0.00     0.000 C 
BRANCH   4   5
ATOM      5  C   UNL     1     -49.301  11.710 -28.559  1.00  0.00     0.000 C 
BRANCH   5   6
ATOM      6  C   UNL     1     -48.957  10.379 -29.248  1.00  0.00     0.006 C 
BRANCH   6   7
ATOM      7  C   UNL     1     -47.448  10.105 -29.287  1.00  0.00     0.053 C 
BRANCH   7   8
ATOM      8  C   UNL     1     -47.185   8.698 -29.725  1.00  0.00     0.041 C 
ATOM      9  O   UNL     1     -46.724   7.857 -28.911  1.00  0.00    -0.550 OA
ATOM     10  O   UNL     1     -47.402   8.330 -31.047  1.00  0.00    -0.550 OA
ENDBRANCH   7   8
ENDBRANCH   6   7
ENDBRANCH   5   6
ENDBRANCH   4   5
ENDBRANCH   3   4
ENDBRANCH   2   3
ENDBRANCH   1   2
BRANCH   1  11
ATOM     11  C   UNL     1     -52.905  15.487 -27.994  1.00  0.00     0.000 C 
BRANCH  11  12
ATOM     12  C   UNL     1     -53.850  16.676 -27.769  1.00  0.00    -0.000 C 
BRANCH  12  13
ATOM     13  C   UNL     1     -53.189  18.028 -28.084  1.00  0.00    -0.000 C 
BRANCH  13  14
ATOM     14  C   UNL     1     -53.605  18.584 -29.456  1.00  0.00    -0.000 C 
BRANCH  14  15
ATOM     15  C   UNL     1     -52.542  18.338 -30.540  1.00  0.00    -0.000 C 
BRANCH  15  16
ATOM     16  C   UNL     1     -52.917  17.192 -31.491  1.00  0.00    -0.000 C 
BRANCH  16  17
ATOM     17  C   UNL     1     -51.704  16.300 -31.780  1.00  0.00    -0.003 C 
ATOM     18  C   UNL     1     -50.621  16.482 -30.722  1.00  0.00     0.004 C 
ENDBRANCH  16  17
ENDBRANCH  15  16
ENDBRANCH  14  15
ENDBRANCH  13  14
ENDBRANCH  12  13
ENDBRANCH  11  12
ENDBRANCH   1  11
TORSDOF 14
ENDMDL
MODEL 9
REMARK VINA RESULT:    -4.087     15.163     16.929
REMARK INTER + INTRA:          -9.598
REMARK INTER:                  -7.574
REMARK INTRA:                  -2.024
REMARK UNBOUND:                -2.167
REMARK SMILES CCCCCCCCCCCCCCCC(=O)[O-]
REMARK SMILES IDX 9 1 10 2 11 3 12 4 13 5 14 6 15 7 16 8 17 9 18 10 8 11 7 12
REMARK SMILES IDX 6 13 5 14 4 15 3 16 2 17 1 18
REMARK H PARENT
REMARK Flexibility Score: inf
ROOT
ATOM      1  C   UNL     1     -37.667  17.897 -29.116  1.00  0.00     0.000 C 
ENDROOT
BRANCH   1   2
ATOM      2  C   UNL     1     -36.962  18.630 -27.960  1.00  0.00     0.000 C 
BRANCH   2   3
ATOM      3  C   UNL     1     -35.519  19.089 -28.258  1.00  0.00     0.000 C 
BRANCH   3   4
ATOM      4  C   UNL     1     -34.799  18.314 -29.376  1.00  0.00     0.000 C 
BRANCH   4   5
ATOM      5  C   UNL     1     -34.193  19.238 -30.447  1.00  0.00     0.000 C 
BRANCH   5   6
ATOM      6  C   UNL     1     -34.962  20.561 -30.585  1.00  0.00     0.006 C 
BRANCH   6   7
ATOM      7  C   UNL     1     -34.677  21.277 -31.912  1.00  0.00     0.053 C 
BRANCH   7   8
ATOM      8  C   UNL     1     -35.956  21.551 -32.641  1.00  0.00     0.041 C 
ATOM      9  O   UNL     1     -35.941  22.187 -33.727  1.00  0.00    -0.550 OA
ATOM     10  O   UNL     1     -37.168  21.148 -32.095  1.00  0.00    -0.550 OA
ENDBRANCH   7   8
ENDBRANCH   6   7
ENDBRANCH   5   6
ENDBRANCH   4   5
ENDBRANCH   3   4
ENDBRANCH   2   3
ENDBRANCH   1   2
BRANCH   1  11
ATOM     11  C   UNL     1     -38.851  18.688 -29.691  1.00  0.00     0.000 C 
BRANCH  11  12
ATOM     12  C   UNL     1     -39.387  19.697 -28.664  1.00  0.00    -0.000 C 
BRANCH  12  13
ATOM     13  C   UNL     1     -39.745  21.053 -29.295  1.00  0.00    -0.000 C 
BRANCH  13  14
ATOM     14  C   UNL     1     -39.066  22.234 -28.581  1.00  0.00    -0.000 C 
BRANCH  14  15
ATOM     15  C   UNL     1     -37.562  22.324 -28.889  1.00  0.00    -0.000 C 
BRANCH  15  16
ATOM     16  C   UNL     1     -36.781  23.095 -27.814  1.00  0.00    -0.000 C 
BRANCH  16  17
ATOM     17  C   UNL     1     -35.281  23.111 -28.131  1.00  0.00    -0.003 C 
ATOM     18  C   UNL     1     -34.477  22.428 -27.030  1.00  0.00     0.004 C 
ENDBRANCH  16  17
ENDBRANCH  15  16
ENDBRANCH  14  15
ENDBRANCH  13  14
ENDBRANCH  12  13
ENDBRANCH  11  12
ENDBRANCH   1  11
TORSDOF 14
ENDMDL
