MODEL 1
REMARK VINA RESULT:    -6.015      0.000      0.000
REMARK INTER + INTRA:         -16.417
REMARK INTER:                 -13.048
REMARK INTRA:                  -3.368
REMARK UNBOUND:                -3.368
REMARK SMILES CCCCCCCCCCCCCCCCCCCCCC(=O)[O-]
REMARK SMILES IDX 12 1 11 2 10 3 9 4 8 5 7 6 6 7 5 8 4 9 3 10 2 11 1 12 13 13
REMARK SMILES IDX 14 14 15 15 16 16 17 17 18 18 19 19 20 20 21 21 22 22 23 23
REMARK SMILES IDX 24 24
REMARK H PARENT
REMARK Flexibility Score: inf
ROOT
ATOM      1  C   UNL     1      16.344  -1.365  13.372  1.00  0.00     0.000 C 
ENDROOT
BRANCH   1   2
ATOM      2  C   UNL     1      17.824  -0.954  13.294  1.00  0.00     0.000 C 
BRANCH   2   3
ATOM      3  C   UNL     1      18.771  -2.038  13.840  1.00  0.00     0.000 C 
BRANCH   3   4
ATOM      4  C   UNL     1      19.280  -2.981  12.735  1.00  0.00    -0.000 C 
BRANCH   4   5
ATOM      5  C   UNL     1      18.964  -4.458  13.031  1.00  0.00    -0.000 C 
BRANCH   5   6
ATOM      6  C   UNL     1      17.517  -4.833  12.675  1.00  0.00    -0.000 C 
BRANCH   6   7
ATOM      7  C   UNL     1      17.434  -5.992  11.666  1.00  0.00    -0.000 C 
BRANCH   7   8
ATOM      8  C   UNL     1      16.498  -5.688  10.483  1.00  0.00    -0.000 C 
BRANCH   8   9
ATOM      9  C   UNL     1      15.298  -4.786  10.822  1.00  0.00    -0.000 C 
BRANCH   9  10
ATOM     10  C   UNL     1      13.970  -5.554  10.892  1.00  0.00    -0.000 C 
BRANCH  10  11
ATOM     11  C   UNL     1      13.428  -5.584  12.326  1.00  0.00    -0.003 C 
ATOM     12  C   UNL     1      14.085  -6.694  13.140  1.00  0.00     0.004 C 
ENDBRANCH  10  11
ENDBRANCH   9  10
ENDBRANCH   8   9
ENDBRANCH   7   8
ENDBRANCH   6   7
ENDBRANCH   5   6
ENDBRANCH   4   5
ENDBRANCH   3   4
ENDBRANCH   2   3
ENDBRANCH   1   2
BRANCH   1  13
ATOM     13  C   UNL     1      15.638  -1.296  12.006  1.00  0.00     0.000 C 
BRANCH  13  14
ATOM     14  C   UNL     1      14.154  -0.904  12.120  1.00  0.00     0.000 C 
BRANCH  14  15
ATOM     15  C   UNL     1      13.202  -2.039  12.549  1.00  0.00     0.000 C 
BRANCH  15  16
ATOM     16  C   UNL     1      12.476  -1.817  13.887  1.00  0.00     0.000 C 
BRANCH  16  17
ATOM     17  C   UNL     1      12.248  -3.124  14.667  1.00  0.00     0.000 C 
BRANCH  17  18
ATOM     18  C   UNL     1      13.097  -3.200  15.946  1.00  0.00     0.000 C 
BRANCH  18  19
ATOM     19  C   UNL     1      14.521  -3.719  15.678  1.00  0.00     0.000 C 
BRANCH  19  20
ATOM     20  C   UNL     1      15.521  -3.307  16.775  1.00  0.00     0.006 C 
BRANCH  20  21
ATOM     21  C   UNL     1      16.988  -3.633  16.453  1.00  0.00     0.053 C 
BRANCH  21  22
ATOM     22  C   UNL     1      17.919  -3.146  17.519  1.00  0.00     0.041 C 
ATOM     23  O   UNL     1      17.487  -2.907  18.677  1.00  0.00    -0.550 OA
ATOM     24  O   UNL     1      19.259  -2.924  17.225  1.00  0.00    -0.550 OA
ENDBRANCH  21  22
ENDBRANCH  20  21
ENDBRANCH  19  20
ENDBRANCH  18  19
ENDBRANCH  17  18
ENDBRANCH  16  17
ENDBRANCH  15  16
ENDBRANCH  14  15
ENDBRANCH  13  14
ENDBRANCH   1  13
TORSDOF 20
ENDMDL
MODEL 2
REMARK VINA RESULT:    -5.991      1.504      4.366
REMARK INTER + INTRA:         -16.365
REMARK INTER:                 -12.479
REMARK INTRA:                  -3.886
REMARK UNBOUND:                -3.368
REMARK SMILES CCCCCCCCCCCCCCCCCCCCCC(=O)[O-]
REMARK SMILES IDX 12 1 11 2 10 3 9 4 8 5 7 6 6 7 5 8 4 9 3 10 2 11 1 12 13 13
REMARK SMILES IDX 14 14 15 15 16 16 17 17 18 18 19 19 20 20 21 21 22 22 23 23
REMARK SMILES IDX 24 24
REMARK H PARENT
REMARK Flexibility Score: inf
ROOT
ATOM      1  C   UNL     1      15.189  -0.849  12.056  1.00  0.00     0.000 C 
ENDROOT
BRANCH   1   2
ATOM      2  C   UNL     1      13.738  -1.310  12.272  1.00  0.00     0.000 C 
BRANCH   2   3
ATOM      3  C   UNL     1      13.613  -2.381  13.371  1.00  0.00     0.000 C 
BRANCH   3   4
ATOM      4  C   UNL     1      12.460  -3.364  13.103  1.00  0.00    -0.000 C 
BRANCH   4   5
ATOM      5  C   UNL     1      12.937  -4.658  12.422  1.00  0.00    -0.000 C 
BRANCH   5   6
ATOM      6  C   UNL     1      12.683  -4.653  10.906  1.00  0.00    -0.000 C 
BRANCH   6   7
ATOM      7  C   UNL     1      13.864  -5.228  10.104  1.00  0.00    -0.000 C 
BRANCH   7   8
ATOM      8  C   UNL     1      15.231  -4.757  10.633  1.00  0.00    -0.000 C 
BRANCH   8   9
ATOM      9  C   UNL     1      16.409  -5.691  10.307  1.00  0.00    -0.000 C 
BRANCH   9  10
ATOM     10  C   UNL     1      17.264  -6.031  11.536  1.00  0.00    -0.000 C 
BRANCH  10  11
ATOM     11  C   UNL     1      16.452  -5.882  12.829  1.00  0.00    -0.003 C 
ATOM     12  C   UNL     1      15.963  -7.237  13.331  1.00  0.00     0.004 C 
ENDBRANCH  10  11
ENDBRANCH   9  10
ENDBRANCH   8   9
ENDBRANCH   7   8
ENDBRANCH   6   7
ENDBRANCH   5   6
ENDBRANCH   4   5
ENDBRANCH   3   4
ENDBRANCH   2   3
ENDBRANCH   1   2
BRANCH   1  13
ATOM     13  C   UNL     1      16.216  -1.817  12.669  1.00  0.00     0.000 C 
BRANCH  13  14
ATOM     14  C   UNL     1      17.233  -1.110  13.582  1.00  0.00     0.000 C 
BRANCH  14  15
ATOM     15  C   UNL     1      18.643  -1.736  13.609  1.00  0.00     0.000 C 
BRANCH  15  16
ATOM     16  C   UNL     1      18.772  -3.097  12.904  1.00  0.00     0.000 C 
BRANCH  16  17
ATOM     17  C   UNL     1      19.629  -4.101  13.695  1.00  0.00     0.000 C 
BRANCH  17  18
ATOM     18  C   UNL     1      19.460  -3.946  15.216  1.00  0.00     0.000 C 
BRANCH  18  19
ATOM     19  C   UNL     1      18.244  -4.720  15.755  1.00  0.00     0.000 C 
BRANCH  19  20
ATOM     20  C   UNL     1      17.249  -3.816  16.506  1.00  0.00     0.006 C 
BRANCH  20  21
ATOM     21  C   UNL     1      15.838  -3.779  15.896  1.00  0.00     0.053 C 
BRANCH  21  22
ATOM     22  C   UNL     1      14.816  -3.283  16.871  1.00  0.00     0.041 C 
ATOM     23  O   UNL     1      15.167  -2.572  17.848  1.00  0.00    -0.550 OA
ATOM     24  O   UNL     1      13.481  -3.636  16.721  1.00  0.00    -0.550 OA
ENDBRANCH  21  22
ENDBRANCH  20  21
ENDBRANCH  19  20
ENDBRANCH  18  19
ENDBRANCH  17  18
ENDBRANCH  16  17
ENDBRANCH  15  16
ENDBRANCH  14  15
ENDBRANCH  13  14
ENDBRANCH   1  13
TORSDOF 20
ENDMDL
MODEL 3
REMARK VINA RESULT:    -5.932      2.311      4.896
REMARK INTER + INTRA:         -16.237
REMARK INTER:                 -12.615
REMARK INTRA:                  -3.622
REMARK UNBOUND:                -3.368
REMARK SMILES CCCCCCCCCCCCCCCCCCCCCC(=O)[O-]
REMARK SMILES IDX 12 1 11 2 10 3 9 4 8 5 7 6 6 7 5 8 4 9 3 10 2 11 1 12 13 13
REMARK SMILES IDX 14 14 15 15 16 16 17 17 18 18 19 19 20 20 21 21 22 22 23 23
REMARK SMILES IDX 24 24
REMARK H PARENT
REMARK Flexibility Score: inf
ROOT
ATOM      1  C   UNL     1      18.468  -4.860  12.333  1.00  0.00     0.000 C 
ENDROOT
BRANCH   1   2
ATOM      2  C   UNL     1      17.589  -4.252  13.440  1.00  0.00     0.000 C 
BRANCH   2   3
ATOM      3  C   UNL     1      18.366  -3.285  14.352  1.00  0.00     0.000 C 
BRANCH   3   4
ATOM      4  C   UNL     1      18.869  -3.967  15.636  1.00  0.00    -0.000 C 
BRANCH   4   5
ATOM      5  C   UNL     1      18.618  -3.114  16.892  1.00  0.00    -0.000 C 
BRANCH   5   6
ATOM      6  C   UNL     1      17.432  -3.626  17.724  1.00  0.00    -0.000 C 
BRANCH   6   7
ATOM      7  C   UNL     1      16.242  -2.651  17.726  1.00  0.00    -0.000 C 
BRANCH   7   8
ATOM      8  C   UNL     1      15.306  -2.849  16.519  1.00  0.00    -0.000 C 
BRANCH   8   9
ATOM      9  C   UNL     1      14.483  -4.149  16.544  1.00  0.00    -0.000 C 
BRANCH   9  10
ATOM     10  C   UNL     1      14.800  -5.084  15.368  1.00  0.00    -0.000 C 
BRANCH  10  11
ATOM     11  C   UNL     1      15.205  -6.476  15.866  1.00  0.00    -0.003 C 
ATOM     12  C   UNL     1      15.599  -7.384  14.705  1.00  0.00     0.004 C 
ENDBRANCH  10  11
ENDBRANCH   9  10
ENDBRANCH   8   9
ENDBRANCH   7   8
ENDBRANCH   6   7
ENDBRANCH   5   6
ENDBRANCH   4   5
ENDBRANCH   3   4
ENDBRANCH   2   3
ENDBRANCH   1   2
BRANCH   1  13
ATOM     13  C   UNL     1      17.699  -5.853  11.445  1.00  0.00     0.000 C 
BRANCH  13  14
ATOM     14  C   UNL     1      16.174  -5.757  11.623  1.00  0.00     0.000 C 
BRANCH  14  15
ATOM     15  C   UNL     1      15.402  -5.185  10.416  1.00  0.00     0.000 C 
BRANCH  15  16
ATOM     16  C   UNL     1      13.872  -5.153  10.569  1.00  0.00     0.000 C 
BRANCH  16  17
ATOM     17  C   UNL     1      13.410  -5.437  12.010  1.00  0.00     0.000 C 
BRANCH  17  18
ATOM     18  C   UNL     1      12.324  -4.456  12.481  1.00  0.00     0.000 C 
BRANCH  18  19
ATOM     19  C   UNL     1      12.489  -3.054  11.868  1.00  0.00     0.000 C 
BRANCH  19  20
ATOM     20  C   UNL     1      13.100  -2.041  12.854  1.00  0.00     0.006 C 
BRANCH  20  21
ATOM     21  C   UNL     1      14.624  -2.151  13.015  1.00  0.00     0.053 C 
BRANCH  21  22
ATOM     22  C   UNL     1      15.339  -0.973  12.428  1.00  0.00     0.041 C 
ATOM     23  O   UNL     1      14.766  -0.246  11.576  1.00  0.00    -0.550 OA
ATOM     24  O   UNL     1      16.650  -0.700  12.797  1.00  0.00    -0.550 OA
ENDBRANCH  21  22
ENDBRANCH  20  21
ENDBRANCH  19  20
ENDBRANCH  18  19
ENDBRANCH  17  18
ENDBRANCH  16  17
ENDBRANCH  15  16
ENDBRANCH  14  15
ENDBRANCH  13  14
ENDBRANCH   1  13
TORSDOF 20
ENDMDL
MODEL 4
REMARK VINA RESULT:    -5.897      2.122      4.993
REMARK INTER + INTRA:         -16.160
REMARK INTER:                 -12.367
REMARK INTRA:                  -3.794
REMARK UNBOUND:                -3.368
REMARK SMILES CCCCCCCCCCCCCCCCCCCCCC(=O)[O-]
REMARK SMILES IDX 12 1 11 2 10 3 9 4 8 5 7 6 6 7 5 8 4 9 3 10 2 11 1 12 13 13
REMARK SMILES IDX 14 14 15 15 16 16 17 17 18 18 19 19 20 20 21 21 22 22 23 23
REMARK SMILES IDX 24 24
REMARK H PARENT
REMARK Flexibility Score: inf
ROOT
ATOM      1  C   UNL     1      13.745  -3.280  14.625  1.00  0.00     0.000 C 
ENDROOT
BRANCH   1   2
ATOM      2  C   UNL     1      13.382  -3.532  16.099  1.00  0.00     0.000 C 
BRANCH   2   3
ATOM      3  C   UNL     1      14.545  -3.222  17.058  1.00  0.00     0.000 C 
BRANCH   3   4
ATOM      4  C   UNL     1      15.915  -3.564  16.448  1.00  0.00    -0.000 C 
BRANCH   4   5
ATOM      5  C   UNL     1      17.084  -2.972  17.255  1.00  0.00    -0.000 C 
BRANCH   5   6
ATOM      6  C   UNL     1      18.450  -3.267  16.616  1.00  0.00    -0.000 C 
BRANCH   6   7
ATOM      7  C   UNL     1      18.352  -4.247  15.433  1.00  0.00    -0.000 C 
BRANCH   7   8
ATOM      8  C   UNL     1      19.273  -3.861  14.261  1.00  0.00    -0.000 C 
BRANCH   8   9
ATOM      9  C   UNL     1      18.805  -2.645  13.443  1.00  0.00    -0.000 C 
BRANCH   9  10
ATOM     10  C   UNL     1      17.293  -2.647  13.176  1.00  0.00    -0.000 C 
BRANCH  10  11
ATOM     11  C   UNL     1      16.717  -1.229  13.269  1.00  0.00    -0.003 C 
ATOM     12  C   UNL     1      15.658  -0.992  12.197  1.00  0.00     0.004 C 
ENDBRANCH  10  11
ENDBRANCH   9  10
ENDBRANCH   8   9
ENDBRANCH   7   8
ENDBRANCH   6   7
ENDBRANCH   5   6
ENDBRANCH   4   5
ENDBRANCH   3   4
ENDBRANCH   2   3
ENDBRANCH   1   2
BRANCH   1  13
ATOM     13  C   UNL     1      12.713  -2.395  13.905  1.00  0.00     0.000 C 
BRANCH  13  14
ATOM     14  C   UNL     1      12.460  -2.836  12.451  1.00  0.00     0.000 C 
BRANCH  14  15
ATOM     15  C   UNL     1      12.809  -4.305  12.136  1.00  0.00     0.000 C 
BRANCH  15  16
ATOM     16  C   UNL     1      12.934  -4.644  10.641  1.00  0.00     0.000 C 
BRANCH  16  17
ATOM     17  C   UNL     1      14.256  -5.351  10.297  1.00  0.00     0.000 C 
BRANCH  17  18
ATOM     18  C   UNL     1      15.455  -4.751  11.050  1.00  0.00     0.000 C 
BRANCH  18  19
ATOM     19  C   UNL     1      16.661  -5.707  11.094  1.00  0.00     0.000 C 
BRANCH  19  20
ATOM     20  C   UNL     1      16.831  -6.389  12.464  1.00  0.00     0.006 C 
BRANCH  20  21
ATOM     21  C   UNL     1      15.763  -6.006  13.501  1.00  0.00     0.053 C 
BRANCH  21  22
ATOM     22  C   UNL     1      15.556  -7.084  14.520  1.00  0.00     0.041 C 
ATOM     23  O   UNL     1      15.934  -8.261  14.282  1.00  0.00    -0.550 OA
ATOM     24  O   UNL     1      14.914  -6.796  15.718  1.00  0.00    -0.550 OA
ENDBRANCH  21  22
ENDBRANCH  20  21
ENDBRANCH  19  20
ENDBRANCH  18  19
ENDBRANCH  17  18
ENDBRANCH  16  17
ENDBRANCH  15  16
ENDBRANCH  14  15
ENDBRANCH  13  14
ENDBRANCH   1  13
TORSDOF 20
ENDMDL
MODEL 5
REMARK VINA RESULT:    -5.896      1.068      3.712
REMARK INTER + INTRA:         -16.159
REMARK INTER:                 -12.609
REMARK INTRA:                  -3.550
REMARK UNBOUND:                -3.368
REMARK SMILES CCCCCCCCCCCCCCCCCCCCCC(=O)[O-]
REMARK SMILES IDX 12 1 11 2 10 3 9 4 8 5 7 6 6 7 5 8 4 9 3 10 2 11 1 12 13 13
REMARK SMILES IDX 14 14 15 15 16 16 17 17 18 18 19 19 20 20 21 21 22 22 23 23
REMARK SMILES IDX 24 24
REMARK H PARENT
REMARK Flexibility Score: inf
ROOT
ATOM      1  C   UNL     1      16.718  -5.622  10.865  1.00  0.00     0.000 C 
ENDROOT
BRANCH   1   2
ATOM      2  C   UNL     1      17.979  -5.926  11.691  1.00  0.00     0.000 C 
BRANCH   2   3
ATOM      3  C   UNL     1      18.166  -4.953  12.869  1.00  0.00     0.000 C 
BRANCH   3   4
ATOM      4  C   UNL     1      19.245  -3.892  12.588  1.00  0.00    -0.000 C 
BRANCH   4   5
ATOM      5  C   UNL     1      18.872  -2.510  13.152  1.00  0.00    -0.000 C 
BRANCH   5   6
ATOM      6  C   UNL     1      17.366  -2.374  13.427  1.00  0.00    -0.000 C 
BRANCH   6   7
ATOM      7  C   UNL     1      16.785  -1.046  12.909  1.00  0.00    -0.000 C 
BRANCH   7   8
ATOM      8  C   UNL     1      15.521  -1.243  12.052  1.00  0.00    -0.000 C 
BRANCH   8   9
ATOM      9  C   UNL     1      14.198  -1.236  12.838  1.00  0.00    -0.000 C 
BRANCH   9  10
ATOM     10  C   UNL     1      13.053  -1.937  12.092  1.00  0.00    -0.000 C 
BRANCH  10  11
ATOM     11  C   UNL     1      12.433  -3.044  12.953  1.00  0.00    -0.003 C 
ATOM     12  C   UNL     1      12.255  -2.585  14.397  1.00  0.00     0.004 C 
ENDBRANCH  10  11
ENDBRANCH   9  10
ENDBRANCH   8   9
ENDBRANCH   7   8
ENDBRANCH   6   7
ENDBRANCH   5   6
ENDBRANCH   4   5
ENDBRANCH   3   4
ENDBRANCH   2   3
ENDBRANCH   1   2
BRANCH   1  13
ATOM     13  C   UNL     1      15.592  -5.003  11.711  1.00  0.00     0.000 C 
BRANCH  13  14
ATOM     14  C   UNL     1      14.316  -5.864  11.729  1.00  0.00     0.000 C 
BRANCH  14  15
ATOM     15  C   UNL     1      13.949  -6.474  13.098  1.00  0.00     0.000 C 
BRANCH  15  16
ATOM     16  C   UNL     1      15.093  -7.208  13.817  1.00  0.00     0.000 C 
BRANCH  16  17
ATOM     17  C   UNL     1      15.167  -6.873  15.317  1.00  0.00     0.000 C 
BRANCH  17  18
ATOM     18  C   UNL     1      15.770  -5.483  15.579  1.00  0.00     0.000 C 
BRANCH  18  19
ATOM     19  C   UNL     1      14.774  -4.528  16.260  1.00  0.00     0.000 C 
BRANCH  19  20
ATOM     20  C   UNL     1      15.305  -3.086  16.359  1.00  0.00     0.006 C 
BRANCH  20  21
ATOM     21  C   UNL     1      15.849  -2.703  17.745  1.00  0.00     0.053 C 
BRANCH  21  22
ATOM     22  C   UNL     1      17.328  -2.913  17.846  1.00  0.00     0.041 C 
ATOM     23  O   UNL     1      18.016  -3.079  16.806  1.00  0.00    -0.550 OA
ATOM     24  O   UNL     1      17.940  -2.959  19.093  1.00  0.00    -0.550 OA
ENDBRANCH  21  22
ENDBRANCH  20  21
ENDBRANCH  19  20
ENDBRANCH  18  19
ENDBRANCH  17  18
ENDBRANCH  16  17
ENDBRANCH  15  16
ENDBRANCH  14  15
ENDBRANCH  13  14
ENDBRANCH   1  13
TORSDOF 20
ENDMDL
MODEL 6
REMARK VINA RESULT:    -5.896      2.446      4.958
REMARK INTER + INTRA:         -16.159
REMARK INTER:                 -12.505
REMARK INTRA:                  -3.654
REMARK UNBOUND:                -3.368
REMARK SMILES CCCCCCCCCCCCCCCCCCCCCC(=O)[O-]
REMARK SMILES IDX 12 1 11 2 10 3 9 4 8 5 7 6 6 7 5 8 4 9 3 10 2 11 1 12 13 13
REMARK SMILES IDX 14 14 15 15 16 16 17 17 18 18 19 19 20 20 21 21 22 22 23 23
REMARK SMILES IDX 24 24
REMARK H PARENT
REMARK Flexibility Score: inf
ROOT
ATOM      1  C   UNL     1      14.311  -3.499  16.275  1.00  0.00     0.000 C 
ENDROOT
BRANCH   1   2
ATOM      2  C   UNL     1      14.784  -4.393  15.116  1.00  0.00     0.000 C 
BRANCH   2   3
ATOM      3  C   UNL     1      14.978  -5.860  15.539  1.00  0.00     0.000 C 
BRANCH   3   4
ATOM      4  C   UNL     1      16.119  -6.547  14.769  1.00  0.00    -0.000 C 
BRANCH   4   5
ATOM      5  C   UNL     1      15.867  -6.581  13.251  1.00  0.00    -0.000 C 
BRANCH   5   6
ATOM      6  C   UNL     1      17.171  -6.609  12.439  1.00  0.00    -0.000 C 
BRANCH   6   7
ATOM      7  C   UNL     1      17.136  -5.661  11.227  1.00  0.00    -0.000 C 
BRANCH   7   8
ATOM      8  C   UNL     1      15.741  -5.056  10.983  1.00  0.00    -0.000 C 
BRANCH   8   9
ATOM      9  C   UNL     1      15.024  -5.569   9.721  1.00  0.00    -0.000 C 
BRANCH   9  10
ATOM     10  C   UNL     1      13.496  -5.443   9.807  1.00  0.00    -0.000 C 
BRANCH  10  11
ATOM     11  C   UNL     1      13.072  -4.786  11.126  1.00  0.00    -0.003 C 
ATOM     12  C   UNL     1      12.065  -3.666  10.885  1.00  0.00     0.004 C 
ENDBRANCH  10  11
ENDBRANCH   9  10
ENDBRANCH   8   9
ENDBRANCH   7   8
ENDBRANCH   6   7
ENDBRANCH   5   6
ENDBRANCH   4   5
ENDBRANCH   3   4
ENDBRANCH   2   3
ENDBRANCH   1   2
BRANCH   1  13
ATOM     13  C   UNL     1      15.440  -3.168  17.266  1.00  0.00     0.000 C 
BRANCH  13  14
ATOM     14  C   UNL     1      16.680  -2.565  16.581  1.00  0.00     0.000 C 
BRANCH  14  15
ATOM     15  C   UNL     1      18.014  -3.281  16.880  1.00  0.00     0.000 C 
BRANCH  15  16
ATOM     16  C   UNL     1      19.096  -3.133  15.797  1.00  0.00     0.000 C 
BRANCH  16  17
ATOM     17  C   UNL     1      18.788  -3.951  14.530  1.00  0.00     0.000 C 
BRANCH  17  18
ATOM     18  C   UNL     1      18.691  -3.071  13.273  1.00  0.00     0.000 C 
BRANCH  18  19
ATOM     19  C   UNL     1      18.649  -1.569  13.607  1.00  0.00     0.000 C 
BRANCH  19  20
ATOM     20  C   UNL     1      17.276  -0.934  13.319  1.00  0.00     0.006 C 
BRANCH  20  21
ATOM     21  C   UNL     1      16.190  -1.933  12.891  1.00  0.00     0.053 C 
BRANCH  21  22
ATOM     22  C   UNL     1      14.910  -1.249  12.522  1.00  0.00     0.041 C 
ATOM     23  O   UNL     1      14.900  -0.367  11.624  1.00  0.00    -0.550 OA
ATOM     24  O   UNL     1      13.734  -1.561  13.194  1.00  0.00    -0.550 OA
ENDBRANCH  21  22
ENDBRANCH  20  21
ENDBRANCH  19  20
ENDBRANCH  18  19
ENDBRANCH  17  18
ENDBRANCH  16  17
ENDBRANCH  15  16
ENDBRANCH  14  15
ENDBRANCH  13  14
ENDBRANCH   1  13
TORSDOF 20
ENDMDL
MODEL 7
REMARK VINA RESULT:    -5.873      2.412      5.381
REMARK INTER + INTRA:         -16.108
REMARK INTER:                 -12.369
REMARK INTRA:                  -3.739
REMARK UNBOUND:                -3.368
REMARK SMILES CCCCCCCCCCCCCCCCCCCCCC(=O)[O-]
REMARK SMILES IDX 12 1 11 2 10 3 9 4 8 5 7 6 6 7 5 8 4 9 3 10 2 11 1 12 13 13
REMARK SMILES IDX 14 14 15 15 16 16 17 17 18 18 19 19 20 20 21 21 22 22 23 23
REMARK SMILES IDX 24 24
REMARK H PARENT
REMARK Flexibility Score: inf
ROOT
ATOM      1  C   UNL     1      18.001  -2.454  13.784  1.00  0.00     0.000 C 
ENDROOT
BRANCH   1   2
ATOM      2  C   UNL     1      19.017  -2.772  14.894  1.00  0.00     0.000 C 
BRANCH   2   3
ATOM      3  C   UNL     1      18.433  -3.678  15.993  1.00  0.00     0.000 C 
BRANCH   3   4
ATOM      4  C   UNL     1      18.568  -3.061  17.395  1.00  0.00    -0.000 C 
BRANCH   4   5
ATOM      5  C   UNL     1      17.232  -3.039  18.160  1.00  0.00    -0.000 C 
BRANCH   5   6
ATOM      6  C   UNL     1      16.109  -2.358  17.362  1.00  0.00    -0.000 C 
BRANCH   6   7
ATOM      7  C   UNL     1      14.834  -3.217  17.281  1.00  0.00    -0.000 C 
BRANCH   7   8
ATOM      8  C   UNL     1      14.258  -3.297  15.856  1.00  0.00    -0.000 C 
BRANCH   8   9
ATOM      9  C   UNL     1      14.557  -4.609  15.109  1.00  0.00    -0.000 C 
BRANCH   9  10
ATOM     10  C   UNL     1      15.087  -5.717  16.031  1.00  0.00    -0.000 C 
BRANCH  10  11
ATOM     11  C   UNL     1      16.236  -6.483  15.364  1.00  0.00    -0.003 C 
ATOM     12  C   UNL     1      15.708  -7.587  14.455  1.00  0.00     0.004 C 
ENDBRANCH  10  11
ENDBRANCH   9  10
ENDBRANCH   8   9
ENDBRANCH   7   8
ENDBRANCH   6   7
ENDBRANCH   5   6
ENDBRANCH   4   5
ENDBRANCH   3   4
ENDBRANCH   2   3
ENDBRANCH   1   2
BRANCH   1  13
ATOM     13  C   UNL     1      17.423  -3.721  13.130  1.00  0.00     0.000 C 
BRANCH  13  14
ATOM     14  C   UNL     1      18.508  -4.633  12.531  1.00  0.00     0.000 C 
BRANCH  14  15
ATOM     15  C   UNL     1      17.989  -5.793  11.657  1.00  0.00     0.000 C 
BRANCH  15  16
ATOM     16  C   UNL     1      16.459  -5.872  11.512  1.00  0.00     0.000 C 
BRANCH  16  17
ATOM     17  C   UNL     1      15.983  -5.631  10.069  1.00  0.00     0.000 C 
BRANCH  17  18
ATOM     18  C   UNL     1      14.461  -5.429   9.978  1.00  0.00     0.000 C 
BRANCH  18  19
ATOM     19  C   UNL     1      13.798  -5.331  11.364  1.00  0.00     0.000 C 
BRANCH  19  20
ATOM     20  C   UNL     1      13.252  -3.922  11.663  1.00  0.00     0.006 C 
BRANCH  20  21
ATOM     21  C   UNL     1      14.314  -2.811  11.644  1.00  0.00     0.053 C 
BRANCH  21  22
ATOM     22  C   UNL     1      13.959  -1.678  12.556  1.00  0.00     0.041 C 
ATOM     23  O   UNL     1      14.801  -0.773  12.798  1.00  0.00    -0.550 OA
ATOM     24  O   UNL     1      12.711  -1.639  13.165  1.00  0.00    -0.550 OA
ENDBRANCH  21  22
ENDBRANCH  20  21
ENDBRANCH  19  20
ENDBRANCH  18  19
ENDBRANCH  17  18
ENDBRANCH  16  17
ENDBRANCH  15  16
ENDBRANCH  14  15
ENDBRANCH  13  14
ENDBRANCH   1  13
TORSDOF 20
ENDMDL
MODEL 8
REMARK VINA RESULT:    -5.861      1.265      3.763
REMARK INTER + INTRA:         -16.082
REMARK INTER:                 -12.605
REMARK INTRA:                  -3.477
REMARK UNBOUND:                -3.368
REMARK SMILES CCCCCCCCCCCCCCCCCCCCCC(=O)[O-]
REMARK SMILES IDX 12 1 11 2 10 3 9 4 8 5 7 6 6 7 5 8 4 9 3 10 2 11 1 12 13 13
REMARK SMILES IDX 14 14 15 15 16 16 17 17 18 18 19 19 20 20 21 21 22 22 23 23
REMARK SMILES IDX 24 24
REMARK H PARENT
REMARK Flexibility Score: inf
ROOT
ATOM      1  C   UNL     1      13.037  -3.009  15.501  1.00  0.00     0.000 C 
ENDROOT
BRANCH   1   2
ATOM      2  C   UNL     1      14.025  -3.701  16.455  1.00  0.00     0.000 C 
BRANCH   2   3
ATOM      3  C   UNL     1      14.974  -4.670  15.727  1.00  0.00     0.000 C 
BRANCH   3   4
ATOM      4  C   UNL     1      14.827  -6.119  16.223  1.00  0.00    -0.000 C 
BRANCH   4   5
ATOM      5  C   UNL     1      14.942  -7.146  15.083  1.00  0.00    -0.000 C 
BRANCH   5   6
ATOM      6  C   UNL     1      15.122  -6.483  13.709  1.00  0.00    -0.000 C 
BRANCH   6   7
ATOM      7  C   UNL     1      16.336  -7.031  12.939  1.00  0.00    -0.000 C 
BRANCH   7   8
ATOM      8  C   UNL     1      16.957  -5.993  11.987  1.00  0.00    -0.000 C 
BRANCH   8   9
ATOM      9  C   UNL     1      15.946  -5.055  11.302  1.00  0.00    -0.000 C 
BRANCH   9  10
ATOM     10  C   UNL     1      15.672  -5.433   9.839  1.00  0.00    -0.000 C 
BRANCH  10  11
ATOM     11  C   UNL     1      14.183  -5.722   9.616  1.00  0.00    -0.003 C 
ATOM     12  C   UNL     1      13.315  -4.904  10.567  1.00  0.00     0.004 C 
ENDBRANCH  10  11
ENDBRANCH   9  10
ENDBRANCH   8   9
ENDBRANCH   7   8
ENDBRANCH   6   7
ENDBRANCH   5   6
ENDBRANCH   4   5
ENDBRANCH   3   4
ENDBRANCH   2   3
ENDBRANCH   1   2
BRANCH   1  13
ATOM     13  C   UNL     1      13.377  -3.249  14.020  1.00  0.00     0.000 C 
BRANCH  13  14
ATOM     14  C   UNL     1      13.399  -1.951  13.194  1.00  0.00     0.000 C 
BRANCH  14  15
ATOM     15  C   UNL     1      14.723  -1.660  12.456  1.00  0.00     0.000 C 
BRANCH  15  16
ATOM     16  C   UNL     1      16.001  -2.029  13.229  1.00  0.00     0.000 C 
BRANCH  16  17
ATOM     17  C   UNL     1      17.109  -0.970  13.090  1.00  0.00     0.000 C 
BRANCH  17  18
ATOM     18  C   UNL     1      18.486  -1.502  13.520  1.00  0.00     0.000 C 
BRANCH  18  19
ATOM     19  C   UNL     1      18.761  -2.921  12.992  1.00  0.00     0.000 C 
BRANCH  19  20
ATOM     20  C   UNL     1      19.335  -3.857  14.071  1.00  0.00     0.006 C 
BRANCH  20  21
ATOM     21  C   UNL     1      18.392  -4.113  15.258  1.00  0.00     0.053 C 
BRANCH  21  22
ATOM     22  C   UNL     1      18.796  -3.338  16.474  1.00  0.00     0.041 C 
ATOM     23  O   UNL     1      18.022  -3.265  17.463  1.00  0.00    -0.550 OA
ATOM     24  O   UNL     1      20.013  -2.668  16.500  1.00  0.00    -0.550 OA
ENDBRANCH  21  22
ENDBRANCH  20  21
ENDBRANCH  19  20
ENDBRANCH  18  19
ENDBRANCH  17  18
ENDBRANCH  16  17
ENDBRANCH  15  16
ENDBRANCH  14  15
ENDBRANCH  13  14
ENDBRANCH   1  13
TORSDOF 20
ENDMDL
MODEL 9
REMARK VINA RESULT:    -5.831      3.054      5.911
REMARK INTER + INTRA:         -16.016
REMARK INTER:                 -12.523
REMARK INTRA:                  -3.493
REMARK UNBOUND:                -3.368
REMARK SMILES CCCCCCCCCCCCCCCCCCCCCC(=O)[O-]
REMARK SMILES IDX 12 1 11 2 10 3 9 4 8 5 7 6 6 7 5 8 4 9 3 10 2 11 1 12 13 13
REMARK SMILES IDX 14 14 15 15 16 16 17 17 18 18 19 19 20 20 21 21 22 22 23 23
REMARK SMILES IDX 24 24
REMARK H PARENT
REMARK Flexibility Score: inf
ROOT
ATOM      1  C   UNL     1      13.396  -2.934  13.436  1.00  0.00     0.000 C 
ENDROOT
BRANCH   1   2
ATOM      2  C   UNL     1      13.271  -1.619  12.648  1.00  0.00     0.000 C 
BRANCH   2   3
ATOM      3  C   UNL     1      14.638  -1.034  12.249  1.00  0.00     0.000 C 
BRANCH   3   4
ATOM      4  C   UNL     1      15.812  -1.886  12.760  1.00  0.00    -0.000 C 
BRANCH   4   5
ATOM      5  C   UNL     1      16.952  -1.029  13.341  1.00  0.00    -0.000 C 
BRANCH   5   6
ATOM      6  C   UNL     1      18.317  -1.730  13.255  1.00  0.00    -0.000 C 
BRANCH   6   7
ATOM      7  C   UNL     1      18.197  -3.265  13.259  1.00  0.00    -0.000 C 
BRANCH   7   8
ATOM      8  C   UNL     1      19.264  -3.944  14.138  1.00  0.00    -0.000 C 
BRANCH   8   9
ATOM      9  C   UNL     1      18.802  -4.290  15.565  1.00  0.00    -0.000 C 
BRANCH   9  10
ATOM     10  C   UNL     1      18.900  -3.102  16.533  1.00  0.00    -0.000 C 
BRANCH  10  11
ATOM     11  C   UNL     1      17.605  -2.941  17.338  1.00  0.00    -0.003 C 
ATOM     12  C   UNL     1      17.862  -3.098  18.833  1.00  0.00     0.004 C 
ENDBRANCH  10  11
ENDBRANCH   9  10
ENDBRANCH   8   9
ENDBRANCH   7   8
ENDBRANCH   6   7
ENDBRANCH   5   6
ENDBRANCH   4   5
ENDBRANCH   3   4
ENDBRANCH   2   3
ENDBRANCH   1   2
BRANCH   1  13
ATOM     13  C   UNL     1      12.574  -2.927  14.736  1.00  0.00     0.000 C 
BRANCH  13  14
ATOM     14  C   UNL     1      13.357  -3.475  15.942  1.00  0.00     0.000 C 
BRANCH  14  15
ATOM     15  C   UNL     1      14.763  -4.024  15.622  1.00  0.00     0.000 C 
BRANCH  15  16
ATOM     16  C   UNL     1      14.909  -5.552  15.716  1.00  0.00     0.000 C 
BRANCH  16  17
ATOM     17  C   UNL     1      15.957  -6.113  14.739  1.00  0.00     0.000 C 
BRANCH  17  18
ATOM     18  C   UNL     1      15.561  -5.901  13.269  1.00  0.00     0.000 C 
BRANCH  18  19
ATOM     19  C   UNL     1      16.633  -6.415  12.291  1.00  0.00     0.000 C 
BRANCH  19  20
ATOM     20  C   UNL     1      16.566  -5.723  10.917  1.00  0.00     0.006 C 
BRANCH  20  21
ATOM     21  C   UNL     1      15.409  -4.723  10.764  1.00  0.00     0.053 C 
BRANCH  21  22
ATOM     22  C   UNL     1      14.288  -5.281   9.943  1.00  0.00     0.041 C 
ATOM     23  O   UNL     1      14.533  -6.032   8.964  1.00  0.00    -0.550 OA
ATOM     24  O   UNL     1      12.973  -4.943  10.239  1.00  0.00    -0.550 OA
ENDBRANCH  21  22
ENDBRANCH  20  21
ENDBRANCH  19  20
ENDBRANCH  18  19
ENDBRANCH  17  18
ENDBRANCH  16  17
ENDBRANCH  15  16
ENDBRANCH  14  15
ENDBRANCH  13  14
ENDBRANCH   1  13
TORSDOF 20
ENDMDL
