MODEL 1
REMARK VINA RESULT:    -5.450      0.000      0.000
REMARK INTER + INTRA:          -6.571
REMARK INTER:                  -6.565
REMARK INTRA:                  -0.006
REMARK UNBOUND:                -0.006
REMARK SMILES O=c1c(O)c(-c2ccc(O)c(O)c2)oc2cc(O)cc(O)c12
REMARK SMILES IDX 5 1 3 2 2 3 1 4 22 5 20 6 19 7 17 8 16 9 15 10 14 11 6 12
REMARK SMILES IDX 7 13 8 14 9 15 13 16 11 17 10 18 12 20 4 22 21 24 18 26
REMARK H PARENT 10 19 12 21 4 23 21 25 18 27
REMARK Flexibility Score: inf
ROOT
ATOM      1  C   UNL     1      15.614  12.086  14.913  1.00  0.00     0.180 A 
ATOM      2  C   UNL     1      16.950  12.209  14.495  1.00  0.00     0.208 A 
ATOM      3  C   UNL     1      17.961  12.312  15.464  1.00  0.00     0.238 A 
ATOM      4  O   UNL     1      19.159  12.367  15.084  1.00  0.00    -0.285 OA
ATOM      5  C   UNL     1      17.621  12.306  16.839  1.00  0.00     0.111 A 
ATOM      6  C   UNL     1      18.560  12.444  17.906  1.00  0.00     0.134 A 
ATOM      7  C   UNL     1      18.128  12.293  19.229  1.00  0.00     0.093 A 
ATOM      8  C   UNL     1      16.784  12.074  19.528  1.00  0.00     0.123 A 
ATOM      9  C   UNL     1      15.849  11.996  18.495  1.00  0.00     0.094 A 
ATOM     10  C   UNL     1      16.254  12.107  17.163  1.00  0.00     0.146 A 
ATOM     11  O   UNL     1      15.334  12.018  16.210  1.00  0.00    -0.452 OA
ENDROOT
BRANCH   1  12
ATOM     12  C   UNL     1      14.492  11.998  13.951  1.00  0.00     0.025 A 
ATOM     13  C   UNL     1      13.571  10.938  13.995  1.00  0.00     0.016 A 
ATOM     14  C   UNL     1      12.533  10.863  13.062  1.00  0.00     0.051 A 
ATOM     15  C   UNL     1      12.410  11.838  12.063  1.00  0.00     0.157 A 
ATOM     16  C   UNL     1      14.376  12.961  12.934  1.00  0.00     0.062 A 
ATOM     17  C   UNL     1      13.336  12.888  11.997  1.00  0.00     0.158 A 
BRANCH  15  18
ATOM     18  O   UNL     1      11.377  11.768  11.132  1.00  0.00    -0.504 OA
ATOM     19  H   UNL     1      10.648  12.471  11.094  1.00  0.00     0.293 HD
ENDBRANCH  15  18
BRANCH  17  20
ATOM     20  O   UNL     1      13.215  13.852  10.999  1.00  0.00    -0.504 OA
ATOM     21  H   UNL     1      12.427  14.488  10.968  1.00  0.00     0.293 HD
ENDBRANCH  17  20
ENDBRANCH   1  12
BRANCH   2  22
ATOM     22  O   UNL     1      17.265  12.191  13.133  1.00  0.00    -0.502 OA
ATOM     23  H   UNL     1      17.557  11.348  12.653  1.00  0.00     0.293 HD
ENDBRANCH   2  22
BRANCH   6  24
ATOM     24  O   UNL     1      19.910  12.754  17.722  1.00  0.00    -0.507 OA
ATOM     25  H   UNL     1      20.255  13.491  17.124  1.00  0.00     0.293 HD
ENDBRANCH   6  24
BRANCH   8  26
ATOM     26  O   UNL     1      16.387  11.944  20.856  1.00  0.00    -0.508 OA
ATOM     27  H   UNL     1      15.414  12.014  21.129  1.00  0.00     0.293 HD
ENDBRANCH   8  26
TORSDOF 6
ENDMDL
MODEL 2
REMARK VINA RESULT:    -5.286      2.905      5.556
REMARK INTER + INTRA:          -6.374
REMARK INTER:                  -6.389
REMARK INTRA:                   0.015
REMARK UNBOUND:                -0.006
REMARK SMILES O=c1c(O)c(-c2ccc(O)c(O)c2)oc2cc(O)cc(O)c12
REMARK SMILES IDX 5 1 3 2 2 3 1 4 22 5 20 6 19 7 17 8 16 9 15 10 14 11 6 12
REMARK SMILES IDX 7 13 8 14 9 15 13 16 11 17 10 18 12 20 4 22 21 24 18 26
REMARK H PARENT 10 19 12 21 4 23 21 25 18 27
REMARK Flexibility Score: inf
ROOT
ATOM      1  C   UNL     1      15.150  11.945  17.946  1.00  0.00     0.180 A 
ATOM      2  C   UNL     1      16.228  11.981  18.846  1.00  0.00     0.208 A 
ATOM      3  C   UNL     1      17.537  12.041  18.340  1.00  0.00     0.238 A 
ATOM      4  O   UNL     1      18.496  12.128  19.150  1.00  0.00    -0.285 OA
ATOM      5  C   UNL     1      17.751  12.048  16.940  1.00  0.00     0.111 A 
ATOM      6  C   UNL     1      19.034  12.067  16.316  1.00  0.00     0.134 A 
ATOM      7  C   UNL     1      19.125  12.204  14.925  1.00  0.00     0.093 A 
ATOM      8  C   UNL     1      17.980  12.257  14.131  1.00  0.00     0.123 A 
ATOM      9  C   UNL     1      16.720  12.180  14.726  1.00  0.00     0.094 A 
ATOM     10  C   UNL     1      16.597  12.079  16.113  1.00  0.00     0.146 A 
ATOM     11  O   UNL     1      15.380  12.018  16.640  1.00  0.00    -0.452 OA
ENDROOT
BRANCH   1  12
ATOM     12  C   UNL     1      13.744  11.855  18.404  1.00  0.00     0.025 A 
ATOM     13  C   UNL     1      12.772  12.769  17.964  1.00  0.00     0.016 A 
ATOM     14  C   UNL     1      11.457  12.680  18.427  1.00  0.00     0.051 A 
ATOM     15  C   UNL     1      11.099  11.687  19.348  1.00  0.00     0.157 A 
ATOM     16  C   UNL     1      13.384  10.875  19.343  1.00  0.00     0.062 A 
ATOM     17  C   UNL     1      12.065  10.784  19.809  1.00  0.00     0.158 A 
BRANCH  15  18
ATOM     18  O   UNL     1       9.788  11.594  19.812  1.00  0.00    -0.504 OA
ATOM     19  H   UNL     1       9.086  12.279  19.558  1.00  0.00     0.293 HD
ENDBRANCH  15  18
BRANCH  17  20
ATOM     20  O   UNL     1      11.708   9.802  20.730  1.00  0.00    -0.504 OA
ATOM     21  H   UNL     1      10.806   9.341  20.691  1.00  0.00     0.293 HD
ENDBRANCH  17  20
ENDBRANCH   1  12
BRANCH   2  22
ATOM     22  O   UNL     1      15.995  11.995  20.224  1.00  0.00    -0.502 OA
ATOM     23  H   UNL     1      15.136  11.649  20.634  1.00  0.00     0.293 HD
ENDBRANCH   2  22
BRANCH   6  24
ATOM     24  O   UNL     1      20.241  11.928  17.009  1.00  0.00    -0.507 OA
ATOM     25  H   UNL     1      20.983  12.611  17.013  1.00  0.00     0.293 HD
ENDBRANCH   6  24
BRANCH   8  26
ATOM     26  O   UNL     1      18.108  12.378  12.750  1.00  0.00    -0.508 OA
ATOM     27  H   UNL     1      18.895  12.858  12.329  1.00  0.00     0.293 HD
ENDBRANCH   8  26
TORSDOF 6
ENDMDL
MODEL 3
REMARK VINA RESULT:    -5.093      5.516      8.534
REMARK INTER + INTRA:          -6.141
REMARK INTER:                  -5.818
REMARK INTRA:                  -0.323
REMARK UNBOUND:                -0.006
REMARK SMILES O=c1c(O)c(-c2ccc(O)c(O)c2)oc2cc(O)cc(O)c12
REMARK SMILES IDX 5 1 3 2 2 3 1 4 22 5 20 6 19 7 17 8 16 9 15 10 14 11 6 12
REMARK SMILES IDX 7 13 8 14 9 15 13 16 11 17 10 18 12 20 4 22 21 24 18 26
REMARK H PARENT 10 19 12 21 4 23 21 25 18 27
REMARK Flexibility Score: inf
ROOT
ATOM      1  C   UNL     1      10.384  12.141  13.283  1.00  0.00     0.180 A 
ATOM      2  C   UNL     1       9.785  13.320  12.809  1.00  0.00     0.208 A 
ATOM      3  C   UNL     1      10.077  13.756  11.506  1.00  0.00     0.238 A 
ATOM      4  O   UNL     1       9.495  14.783  11.068  1.00  0.00    -0.285 OA
ATOM      5  C   UNL     1      10.976  13.016  10.700  1.00  0.00     0.111 A 
ATOM      6  C   UNL     1      11.374  13.386   9.381  1.00  0.00     0.134 A 
ATOM      7  C   UNL     1      12.167  12.511   8.627  1.00  0.00     0.093 A 
ATOM      8  C   UNL     1      12.629  11.312   9.168  1.00  0.00     0.123 A 
ATOM      9  C   UNL     1      12.294  10.968  10.479  1.00  0.00     0.094 A 
ATOM     10  C   UNL     1      11.475  11.803  11.242  1.00  0.00     0.146 A 
ATOM     11  O   UNL     1      11.172  11.434  12.481  1.00  0.00    -0.452 OA
ENDROOT
BRANCH   1  12
ATOM     12  C   UNL     1      10.146  11.633  14.654  1.00  0.00     0.025 A 
ATOM     13  C   UNL     1       9.097  10.740  14.930  1.00  0.00     0.016 A 
ATOM     14  C   UNL     1       8.875  10.291  16.235  1.00  0.00     0.051 A 
ATOM     15  C   UNL     1       9.689  10.740  17.283  1.00  0.00     0.157 A 
ATOM     16  C   UNL     1      10.945  12.096  15.712  1.00  0.00     0.062 A 
ATOM     17  C   UNL     1      10.725  11.647  17.022  1.00  0.00     0.158 A 
BRANCH  15  18
ATOM     18  O   UNL     1       9.473  10.295  18.586  1.00  0.00    -0.504 OA
ATOM     19  H   UNL     1       8.548  10.043  18.913  1.00  0.00     0.293 HD
ENDBRANCH  15  18
BRANCH  17  20
ATOM     20  O   UNL     1      11.528  12.097  18.067  1.00  0.00    -0.504 OA
ATOM     21  H   UNL     1      11.131  12.405  18.946  1.00  0.00     0.293 HD
ENDBRANCH  17  20
ENDBRANCH   1  12
BRANCH   2  22
ATOM     22  O   UNL     1       8.884  14.024  13.612  1.00  0.00    -0.502 OA
ATOM     23  H   UNL     1       8.986  15.013  13.807  1.00  0.00     0.293 HD
ENDBRANCH   2  22
BRANCH   6  24
ATOM     24  O   UNL     1      11.044  14.603   8.778  1.00  0.00    -0.507 OA
ATOM     25  H   UNL     1      10.759  15.433   9.277  1.00  0.00     0.293 HD
ENDBRANCH   6  24
BRANCH   8  26
ATOM     26  O   UNL     1      13.428  10.473   8.396  1.00  0.00    -0.508 OA
ATOM     27  H   UNL     1      14.137   9.882   8.815  1.00  0.00     0.293 HD
ENDBRANCH   8  26
TORSDOF 6
ENDMDL
MODEL 4
REMARK VINA RESULT:    -4.995      1.428      3.279
REMARK INTER + INTRA:          -6.023
REMARK INTER:                  -5.880
REMARK INTRA:                  -0.143
REMARK UNBOUND:                -0.006
REMARK SMILES O=c1c(O)c(-c2ccc(O)c(O)c2)oc2cc(O)cc(O)c12
REMARK SMILES IDX 5 1 3 2 2 3 1 4 22 5 20 6 19 7 17 8 16 9 15 10 14 11 6 12
REMARK SMILES IDX 7 13 8 14 9 15 13 16 11 17 10 18 12 20 4 22 21 24 18 26
REMARK H PARENT 10 19 12 21 4 23 21 25 18 27
REMARK Flexibility Score: inf
ROOT
ATOM      1  C   UNL     1      14.488  11.906  14.778  1.00  0.00     0.180 A 
ATOM      2  C   UNL     1      13.870  11.953  16.039  1.00  0.00     0.208 A 
ATOM      3  C   UNL     1      14.672  12.053  17.188  1.00  0.00     0.238 A 
ATOM      4  O   UNL     1      14.110  12.149  18.310  1.00  0.00    -0.285 OA
ATOM      5  C   UNL     1      16.082  12.088  17.062  1.00  0.00     0.111 A 
ATOM      6  C   UNL     1      16.992  12.149  18.159  1.00  0.00     0.134 A 
ATOM      7  C   UNL     1      18.361  12.311  17.913  1.00  0.00     0.093 A 
ATOM      8  C   UNL     1      18.859  12.351  16.611  1.00  0.00     0.123 A 
ATOM      9  C   UNL     1      17.983  12.234  15.531  1.00  0.00     0.094 A 
ATOM     10  C   UNL     1      16.609  12.107  15.744  1.00  0.00     0.146 A 
ATOM     11  O   UNL     1      15.810  12.008  14.689  1.00  0.00    -0.452 OA
ENDROOT
BRANCH   1  12
ATOM     12  C   UNL     1      13.711  11.776  13.524  1.00  0.00     0.025 A 
ATOM     13  C   UNL     1      13.695  12.802  12.564  1.00  0.00     0.016 A 
ATOM     14  C   UNL     1      12.935  12.667  11.398  1.00  0.00     0.051 A 
ATOM     15  C   UNL     1      12.171  11.512  11.184  1.00  0.00     0.157 A 
ATOM     16  C   UNL     1      12.926  10.631  13.313  1.00  0.00     0.062 A 
ATOM     17  C   UNL     1      12.164  10.493  12.144  1.00  0.00     0.158 A 
BRANCH  15  18
ATOM     18  O   UNL     1      11.413  11.373  10.023  1.00  0.00    -0.504 OA
ATOM     19  H   UNL     1      10.649  12.004   9.809  1.00  0.00     0.293 HD
ENDBRANCH  15  18
BRANCH  17  20
ATOM     20  O   UNL     1      11.397   9.350  11.932  1.00  0.00    -0.504 OA
ATOM     21  H   UNL     1      10.448   9.275  12.278  1.00  0.00     0.293 HD
ENDBRANCH  17  20
ENDBRANCH   1  12
BRANCH   2  22
ATOM     22  O   UNL     1      12.476  11.939  16.140  1.00  0.00    -0.502 OA
ATOM     23  H   UNL     1      11.954  12.686  16.583  1.00  0.00     0.293 HD
ENDBRANCH   2  22
BRANCH   6  24
ATOM     24  O   UNL     1      16.610  12.026  19.498  1.00  0.00    -0.507 OA
ATOM     25  H   UNL     1      16.643  12.773  20.176  1.00  0.00     0.293 HD
ENDBRANCH   6  24
BRANCH   8  26
ATOM     26  O   UNL     1      20.228  12.498  16.403  1.00  0.00    -0.508 OA
ATOM     27  H   UNL     1      20.666  12.213  15.535  1.00  0.00     0.293 HD
ENDBRANCH   8  26
TORSDOF 6
ENDMDL
MODEL 5
REMARK VINA RESULT:    -4.832      3.353      5.316
REMARK INTER + INTRA:          -5.827
REMARK INTER:                  -5.717
REMARK INTRA:                  -0.110
REMARK UNBOUND:                -0.006
REMARK SMILES O=c1c(O)c(-c2ccc(O)c(O)c2)oc2cc(O)cc(O)c12
REMARK SMILES IDX 5 1 3 2 2 3 1 4 22 5 20 6 19 7 17 8 16 9 15 10 14 11 6 12
REMARK SMILES IDX 7 13 8 14 9 15 13 16 11 17 10 18 12 20 4 22 21 24 18 26
REMARK H PARENT 10 19 12 21 4 23 21 25 18 27
REMARK Flexibility Score: inf
ROOT
ATOM      1  C   UNL     1      13.943  11.956  17.653  1.00  0.00     0.180 A 
ATOM      2  C   UNL     1      13.792  11.866  16.259  1.00  0.00     0.208 A 
ATOM      3  C   UNL     1      14.934  11.927  15.444  1.00  0.00     0.238 A 
ATOM      4  O   UNL     1      14.797  11.792  14.200  1.00  0.00    -0.285 OA
ATOM      5  C   UNL     1      16.211  12.093  16.033  1.00  0.00     0.111 A 
ATOM      6  C   UNL     1      17.431  12.207  15.302  1.00  0.00     0.134 A 
ATOM      7  C   UNL     1      18.650  12.237  15.992  1.00  0.00     0.093 A 
ATOM      8  C   UNL     1      18.689  12.222  17.386  1.00  0.00     0.123 A 
ATOM      9  C   UNL     1      17.497  12.170  18.111  1.00  0.00     0.094 A 
ATOM     10  C   UNL     1      16.269  12.103  17.451  1.00  0.00     0.146 A 
ATOM     11  O   UNL     1      15.160  12.045  18.178  1.00  0.00    -0.452 OA
ENDROOT
BRANCH   1  12
ATOM     12  C   UNL     1      12.785  11.924  18.575  1.00  0.00     0.025 A 
ATOM     13  C   UNL     1      12.634  10.901  19.526  1.00  0.00     0.016 A 
ATOM     14  C   UNL     1      11.520  10.879  20.370  1.00  0.00     0.051 A 
ATOM     15  C   UNL     1      10.535  11.869  20.265  1.00  0.00     0.157 A 
ATOM     16  C   UNL     1      11.783  12.902  18.460  1.00  0.00     0.062 A 
ATOM     17  C   UNL     1      10.665  12.882  19.306  1.00  0.00     0.158 A 
BRANCH  15  18
ATOM     18  O   UNL     1       9.424  11.851  21.105  1.00  0.00    -0.504 OA
ATOM     19  H   UNL     1       8.481  11.923  20.739  1.00  0.00     0.293 HD
ENDBRANCH  15  18
BRANCH  17  20
ATOM     20  O   UNL     1       9.681  13.862  19.199  1.00  0.00    -0.504 OA
ATOM     21  H   UNL     1       8.777  13.757  19.646  1.00  0.00     0.293 HD
ENDBRANCH  17  20
ENDBRANCH   1  12
BRANCH   2  22
ATOM     22  O   UNL     1      12.524  11.681  15.699  1.00  0.00    -0.502 OA
ATOM     23  H   UNL     1      11.713  11.440  16.256  1.00  0.00     0.293 HD
ENDBRANCH   2  22
BRANCH   6  24
ATOM     24  O   UNL     1      17.500  12.323  13.910  1.00  0.00    -0.507 OA
ATOM     25  H   UNL     1      17.642  11.550  13.276  1.00  0.00     0.293 HD
ENDBRANCH   6  24
BRANCH   8  26
ATOM     26  O   UNL     1      19.917  12.269  18.039  1.00  0.00    -0.508 OA
ATOM     27  H   UNL     1      20.655  12.896  17.739  1.00  0.00     0.293 HD
ENDBRANCH   8  26
TORSDOF 6
ENDMDL
MODEL 6
REMARK VINA RESULT:    -4.616      5.587      8.851
REMARK INTER + INTRA:          -5.567
REMARK INTER:                  -5.827
REMARK INTRA:                   0.260
REMARK UNBOUND:                -0.006
REMARK SMILES O=c1c(O)c(-c2ccc(O)c(O)c2)oc2cc(O)cc(O)c12
REMARK SMILES IDX 5 1 3 2 2 3 1 4 22 5 20 6 19 7 17 8 16 9 15 10 14 11 6 12
REMARK SMILES IDX 7 13 8 14 9 15 13 16 11 17 10 18 12 20 4 22 21 24 18 26
REMARK H PARENT 10 19 12 21 4 23 21 25 18 27
REMARK Flexibility Score: inf
ROOT
ATOM      1  C   UNL     1       9.865  11.560  14.040  1.00  0.00     0.180 A 
ATOM      2  C   UNL     1       9.357  10.609  13.139  1.00  0.00     0.208 A 
ATOM      3  C   UNL     1       9.377  10.895  11.764  1.00  0.00     0.238 A 
ATOM      4  O   UNL     1       8.971  10.017  10.958  1.00  0.00    -0.285 OA
ATOM      5  C   UNL     1       9.890  12.134  11.309  1.00  0.00     0.111 A 
ATOM      6  C   UNL     1       9.923  12.545   9.943  1.00  0.00     0.134 A 
ATOM      7  C   UNL     1      10.572  13.736   9.595  1.00  0.00     0.093 A 
ATOM      8  C   UNL     1      11.132  14.562  10.569  1.00  0.00     0.123 A 
ATOM      9  C   UNL     1      11.053  14.198  11.914  1.00  0.00     0.094 A 
ATOM     10  C   UNL     1      10.444  12.999  12.288  1.00  0.00     0.146 A 
ATOM     11  O   UNL     1      10.399  12.685  13.578  1.00  0.00    -0.452 OA
ENDROOT
BRANCH   1  12
ATOM     12  C   UNL     1       9.855  11.341  15.505  1.00  0.00     0.025 A 
ATOM     13  C   UNL     1       8.881  10.535  16.117  1.00  0.00     0.016 A 
ATOM     14  C   UNL     1       8.876  10.362  17.504  1.00  0.00     0.051 A 
ATOM     15  C   UNL     1       9.835  11.003  18.298  1.00  0.00     0.157 A 
ATOM     16  C   UNL     1      10.800  11.999  16.308  1.00  0.00     0.062 A 
ATOM     17  C   UNL     1      10.798  11.826  17.700  1.00  0.00     0.158 A 
BRANCH  15  18
ATOM     18  O   UNL     1       9.835  10.833  19.681  1.00  0.00    -0.504 OA
ATOM     19  H   UNL     1       9.132  11.267  20.269  1.00  0.00     0.293 HD
ENDBRANCH  15  18
BRANCH  17  20
ATOM     20  O   UNL     1      11.746  12.469  18.493  1.00  0.00    -0.504 OA
ATOM     21  H   UNL     1      12.674  12.084  18.626  1.00  0.00     0.293 HD
ENDBRANCH  17  20
ENDBRANCH   1  12
BRANCH   2  22
ATOM     22  O   UNL     1       8.875   9.383  13.606  1.00  0.00    -0.502 OA
ATOM     23  H   UNL     1       7.912   9.250  13.892  1.00  0.00     0.293 HD
ENDBRANCH   2  22
BRANCH   6  24
ATOM     24  O   UNL     1       9.314  11.840   8.900  1.00  0.00    -0.507 OA
ATOM     25  H   UNL     1       8.955  10.899   8.975  1.00  0.00     0.293 HD
ENDBRANCH   6  24
BRANCH   8  26
ATOM     26  O   UNL     1      11.756  15.747  10.189  1.00  0.00    -0.508 OA
ATOM     27  H   UNL     1      11.835  16.532  10.825  1.00  0.00     0.293 HD
ENDBRANCH   8  26
TORSDOF 6
ENDMDL
MODEL 7
REMARK VINA RESULT:    -4.334      1.874      7.366
REMARK INTER + INTRA:          -5.227
REMARK INTER:                  -5.276
REMARK INTRA:                   0.049
REMARK UNBOUND:                -0.006
REMARK SMILES O=c1c(O)c(-c2ccc(O)c(O)c2)oc2cc(O)cc(O)c12
REMARK SMILES IDX 5 1 3 2 2 3 1 4 22 5 20 6 19 7 17 8 16 9 15 10 14 11 6 12
REMARK SMILES IDX 7 13 8 14 9 15 13 16 11 17 10 18 12 20 4 22 21 24 18 26
REMARK H PARENT 10 19 12 21 4 23 21 25 18 27
REMARK Flexibility Score: inf
ROOT
ATOM      1  C   UNL     1      13.960  11.915  13.701  1.00  0.00     0.180 A 
ATOM      2  C   UNL     1      14.042  12.700  12.539  1.00  0.00     0.208 A 
ATOM      3  C   UNL     1      13.066  12.543  11.541  1.00  0.00     0.238 A 
ATOM      4  O   UNL     1      13.114  13.287  10.526  1.00  0.00    -0.285 OA
ATOM      5  C   UNL     1      12.029  11.594  11.712  1.00  0.00     0.111 A 
ATOM      6  C   UNL     1      11.010  11.324  10.750  1.00  0.00     0.134 A 
ATOM      7  C   UNL     1       9.960  10.458  11.079  1.00  0.00     0.093 A 
ATOM      8  C   UNL     1       9.927   9.802  12.310  1.00  0.00     0.123 A 
ATOM      9  C   UNL     1      10.950  10.014  13.235  1.00  0.00     0.094 A 
ATOM     10  C   UNL     1      11.991  10.900  12.949  1.00  0.00     0.146 A 
ATOM     11  O   UNL     1      12.939  11.080  13.861  1.00  0.00    -0.452 OA
ENDROOT
BRANCH   1  12
ATOM     12  C   UNL     1      14.965  12.005  14.785  1.00  0.00     0.025 A 
ATOM     13  C   UNL     1      16.341  12.047  14.504  1.00  0.00     0.016 A 
ATOM     14  C   UNL     1      17.273  12.108  15.544  1.00  0.00     0.051 A 
ATOM     15  C   UNL     1      16.844  12.113  16.877  1.00  0.00     0.157 A 
ATOM     16  C   UNL     1      14.542  11.989  16.124  1.00  0.00     0.062 A 
ATOM     17  C   UNL     1      15.475  12.050  17.169  1.00  0.00     0.158 A 
BRANCH  15  18
ATOM     18  O   UNL     1      17.769  12.175  17.917  1.00  0.00    -0.504 OA
ATOM     19  H   UNL     1      17.590  11.736  18.813  1.00  0.00     0.293 HD
ENDBRANCH  15  18
BRANCH  17  20
ATOM     20  O   UNL     1      15.051  12.048  18.495  1.00  0.00    -0.504 OA
ATOM     21  H   UNL     1      15.445  12.685  19.179  1.00  0.00     0.293 HD
ENDBRANCH  17  20
ENDBRANCH   1  12
BRANCH   2  22
ATOM     22  O   UNL     1      15.060  13.646  12.399  1.00  0.00    -0.502 OA
ATOM     23  H   UNL     1      15.052  14.352  11.671  1.00  0.00     0.293 HD
ENDBRANCH   2  22
BRANCH   6  24
ATOM     24  O   UNL     1      10.998  11.854   9.456  1.00  0.00    -0.507 OA
ATOM     25  H   UNL     1      10.304  11.641   8.754  1.00  0.00     0.293 HD
ENDBRANCH   6  24
BRANCH   8  26
ATOM     26  O   UNL     1       8.876   8.935  12.598  1.00  0.00    -0.508 OA
ATOM     27  H   UNL     1       8.808   8.022  12.164  1.00  0.00     0.293 HD
ENDBRANCH   8  26
TORSDOF 6
ENDMDL
MODEL 8
REMARK VINA RESULT:    -4.060      6.759      7.429
REMARK INTER + INTRA:          -4.897
REMARK INTER:                  -5.205
REMARK INTRA:                   0.308
REMARK UNBOUND:                -0.006
REMARK SMILES O=c1c(O)c(-c2ccc(O)c(O)c2)oc2cc(O)cc(O)c12
REMARK SMILES IDX 5 1 3 2 2 3 1 4 22 5 20 6 19 7 17 8 16 9 15 10 14 11 6 12
REMARK SMILES IDX 7 13 8 14 9 15 13 16 11 17 10 18 12 20 4 22 21 24 18 26
REMARK H PARENT 10 19 12 21 4 23 21 25 18 27
REMARK Flexibility Score: inf
ROOT
ATOM      1  C   UNL     1       9.301  11.096  16.919  1.00  0.00     0.180 A 
ATOM      2  C   UNL     1       9.077  12.296  17.615  1.00  0.00     0.208 A 
ATOM      3  C   UNL     1       9.097  12.283  19.020  1.00  0.00     0.238 A 
ATOM      4  O   UNL     1       8.950  13.371  19.636  1.00  0.00    -0.285 OA
ATOM      5  C   UNL     1       9.325  11.068  19.710  1.00  0.00     0.111 A 
ATOM      6  C   UNL     1       9.328  10.931  21.130  1.00  0.00     0.134 A 
ATOM      7  C   UNL     1       9.694   9.708  21.706  1.00  0.00     0.093 A 
ATOM      8  C   UNL     1       9.994   8.601  20.914  1.00  0.00     0.123 A 
ATOM      9  C   UNL     1       9.937   8.708  19.523  1.00  0.00     0.094 A 
ATOM     10  C   UNL     1       9.610   9.924  18.920  1.00  0.00     0.146 A 
ATOM     11  O   UNL     1       9.577   9.986  17.594  1.00  0.00    -0.452 OA
ENDROOT
BRANCH   1  12
ATOM     12  C   UNL     1       9.270  11.026  15.441  1.00  0.00     0.025 A 
ATOM     13  C   UNL     1       8.875   9.854  14.772  1.00  0.00     0.016 A 
ATOM     14  C   UNL     1       8.876   9.803  13.376  1.00  0.00     0.051 A 
ATOM     15  C   UNL     1       9.285  10.915  12.629  1.00  0.00     0.157 A 
ATOM     16  C   UNL     1       9.699  12.130  14.686  1.00  0.00     0.062 A 
ATOM     17  C   UNL     1       9.701  12.081  13.285  1.00  0.00     0.158 A 
BRANCH  15  18
ATOM     18  O   UNL     1       9.287  10.868  11.236  1.00  0.00    -0.504 OA
ATOM     19  H   UNL     1       8.545  11.292  10.690  1.00  0.00     0.293 HD
ENDBRANCH  15  18
BRANCH  17  20
ATOM     20  O   UNL     1      10.114  13.183  12.540  1.00  0.00    -0.504 OA
ATOM     21  H   UNL     1      10.705  13.902  12.940  1.00  0.00     0.293 HD
ENDBRANCH  17  20
ENDBRANCH   1  12
BRANCH   2  22
ATOM     22  O   UNL     1       8.875  13.489  16.915  1.00  0.00    -0.502 OA
ATOM     23  H   UNL     1       8.344  14.262  17.298  1.00  0.00     0.293 HD
ENDBRANCH   2  22
BRANCH   6  24
ATOM     24  O   UNL     1       8.955  11.949  22.014  1.00  0.00    -0.507 OA
ATOM     25  H   UNL     1       8.047  12.391  22.031  1.00  0.00     0.293 HD
ENDBRANCH   6  24
BRANCH   8  26
ATOM     26  O   UNL     1      10.339   7.396  21.520  1.00  0.00    -0.508 OA
ATOM     27  H   UNL     1      10.632   6.593  20.976  1.00  0.00     0.293 HD
ENDBRANCH   8  26
TORSDOF 6
ENDMDL
