MODEL 1
REMARK VINA RESULT:    -7.090      0.000      0.000
REMARK INTER + INTRA:          -8.617
REMARK INTER:                  -8.333
REMARK INTRA:                  -0.283
REMARK UNBOUND:                -0.283
REMARK SMILES O=c1cc(-c2ccc(O)c(O)c2)oc2cc(O)cc(O)c12
REMARK SMILES IDX 4 1 3 2 2 3 1 4 21 5 19 6 18 7 16 8 15 9 14 10 13 11 5 12
REMARK SMILES IDX 6 13 7 14 8 15 12 16 10 17 9 18 11 20 20 22 17 24
REMARK H PARENT 9 19 11 21 20 23 17 25
REMARK Flexibility Score: inf
ROOT
ATOM      1  C   UNL     1      20.808 -36.967  -7.547  1.00  0.00     0.138 A 
ATOM      2  C   UNL     1      21.459 -35.808  -7.096  1.00  0.00     0.100 A 
ATOM      3  C   UNL     1      22.578 -35.335  -7.783  1.00  0.00     0.197 A 
ATOM      4  O   UNL     1      23.154 -34.293  -7.372  1.00  0.00    -0.289 OA
ATOM      5  C   UNL     1      23.037 -36.027  -8.921  1.00  0.00     0.107 A 
ATOM      6  C   UNL     1      24.163 -35.618  -9.674  1.00  0.00     0.134 A 
ATOM      7  C   UNL     1      24.553 -36.359 -10.800  1.00  0.00     0.093 A 
ATOM      8  C   UNL     1      23.839 -37.500 -11.186  1.00  0.00     0.123 A 
ATOM      9  C   UNL     1      22.727 -37.907 -10.445  1.00  0.00     0.094 A 
ATOM     10  C   UNL     1      22.322 -37.182  -9.320  1.00  0.00     0.146 A 
ATOM     11  O   UNL     1      21.262 -37.592  -8.632  1.00  0.00    -0.456 OA
ENDROOT
BRANCH   1  12
ATOM     12  C   UNL     1      19.613 -37.515  -6.856  1.00  0.00     0.021 A 
ATOM     13  C   UNL     1      19.466 -38.905  -6.729  1.00  0.00     0.016 A 
ATOM     14  C   UNL     1      18.355 -39.444  -6.079  1.00  0.00     0.051 A 
ATOM     15  C   UNL     1      17.373 -38.611  -5.534  1.00  0.00     0.157 A 
ATOM     16  C   UNL     1      18.632 -36.676  -6.295  1.00  0.00     0.062 A 
ATOM     17  C   UNL     1      17.516 -37.209  -5.639  1.00  0.00     0.158 A 
BRANCH  15  18
ATOM     18  O   UNL     1      16.284 -39.215  -4.901  1.00  0.00    -0.504 OA
ATOM     19  H   UNL     1      15.322 -39.072  -5.175  1.00  0.00     0.293 HD
ENDBRANCH  15  18
BRANCH  17  20
ATOM     20  O   UNL     1      16.585 -36.314  -5.107  1.00  0.00    -0.504 OA
ATOM     21  H   UNL     1      16.029 -35.681  -5.662  1.00  0.00     0.293 HD
ENDBRANCH  17  20
ENDBRANCH   1  12
BRANCH   6  22
ATOM     22  O   UNL     1      24.895 -34.486  -9.314  1.00  0.00    -0.507 OA
ATOM     23  H   UNL     1      24.479 -33.562  -9.304  1.00  0.00     0.293 HD
ENDBRANCH   6  22
BRANCH   8  24
ATOM     24  O   UNL     1      24.226 -38.235 -12.303  1.00  0.00    -0.508 OA
ATOM     25  H   UNL     1      24.823 -39.049 -12.222  1.00  0.00     0.293 HD
ENDBRANCH   8  24
TORSDOF 5
ENDMDL
MODEL 2
REMARK VINA RESULT:    -6.829      3.882      6.817
REMARK INTER + INTRA:          -8.309
REMARK INTER:                  -8.045
REMARK INTRA:                  -0.265
REMARK UNBOUND:                -0.283
REMARK SMILES O=c1cc(-c2ccc(O)c(O)c2)oc2cc(O)cc(O)c12
REMARK SMILES IDX 4 1 3 2 2 3 1 4 21 5 19 6 18 7 16 8 15 9 14 10 13 11 5 12
REMARK SMILES IDX 6 13 7 14 8 15 12 16 10 17 9 18 11 20 20 22 17 24
REMARK H PARENT 9 19 11 21 20 23 17 25
REMARK Flexibility Score: inf
ROOT
ATOM      1  C   UNL     1      21.986 -34.120  -9.415  1.00  0.00     0.138 A 
ATOM      2  C   UNL     1      21.877 -33.977  -8.022  1.00  0.00     0.100 A 
ATOM      3  C   UNL     1      21.302 -32.821  -7.493  1.00  0.00     0.197 A 
ATOM      4  O   UNL     1      21.206 -32.702  -6.242  1.00  0.00    -0.289 OA
ATOM      5  C   UNL     1      20.837 -31.815  -8.364  1.00  0.00     0.107 A 
ATOM      6  C   UNL     1      20.244 -30.612  -7.911  1.00  0.00     0.134 A 
ATOM      7  C   UNL     1      19.800 -29.662  -8.844  1.00  0.00     0.093 A 
ATOM      8  C   UNL     1      19.940 -29.892 -10.218  1.00  0.00     0.123 A 
ATOM      9  C   UNL     1      20.525 -31.078 -10.669  1.00  0.00     0.094 A 
ATOM     10  C   UNL     1      20.973 -32.037  -9.755  1.00  0.00     0.146 A 
ATOM     11  O   UNL     1      21.528 -33.155 -10.210  1.00  0.00    -0.456 OA
ENDROOT
BRANCH   1  12
ATOM     12  C   UNL     1      22.588 -35.329 -10.033  1.00  0.00     0.021 A 
ATOM     13  C   UNL     1      23.788 -35.212 -10.751  1.00  0.00     0.016 A 
ATOM     14  C   UNL     1      24.377 -36.334 -11.337  1.00  0.00     0.051 A 
ATOM     15  C   UNL     1      23.789 -37.596 -11.212  1.00  0.00     0.157 A 
ATOM     16  C   UNL     1      22.002 -36.601  -9.896  1.00  0.00     0.062 A 
ATOM     17  C   UNL     1      22.588 -37.732 -10.478  1.00  0.00     0.158 A 
BRANCH  15  18
ATOM     18  O   UNL     1      24.426 -38.676 -11.827  1.00  0.00    -0.504 OA
ATOM     19  H   UNL     1      24.268 -39.641 -11.577  1.00  0.00     0.293 HD
ENDBRANCH  15  18
BRANCH  17  20
ATOM     20  O   UNL     1      21.950 -38.962 -10.298  1.00  0.00    -0.504 OA
ATOM     21  H   UNL     1      21.510 -39.249  -9.436  1.00  0.00     0.293 HD
ENDBRANCH  17  20
ENDBRANCH   1  12
BRANCH   6  22
ATOM     22  O   UNL     1      20.091 -30.355  -6.549  1.00  0.00    -0.507 OA
ATOM     23  H   UNL     1      20.718 -29.735  -6.049  1.00  0.00     0.293 HD
ENDBRANCH   6  22
BRANCH   8  24
ATOM     24  O   UNL     1      19.500 -28.950 -11.143  1.00  0.00    -0.508 OA
ATOM     25  H   UNL     1      20.070 -28.678 -11.936  1.00  0.00     0.293 HD
ENDBRANCH   8  24
TORSDOF 5
ENDMDL
MODEL 3
REMARK VINA RESULT:    -6.811      3.825      8.038
REMARK INTER + INTRA:          -8.288
REMARK INTER:                  -8.017
REMARK INTRA:                  -0.272
REMARK UNBOUND:                -0.283
REMARK SMILES O=c1cc(-c2ccc(O)c(O)c2)oc2cc(O)cc(O)c12
REMARK SMILES IDX 4 1 3 2 2 3 1 4 21 5 19 6 18 7 16 8 15 9 14 10 13 11 5 12
REMARK SMILES IDX 6 13 7 14 8 15 12 16 10 17 9 18 11 20 20 22 17 24
REMARK H PARENT 9 19 11 21 20 23 17 25
REMARK Flexibility Score: inf
ROOT
ATOM      1  C   UNL     1      23.502 -32.540  -9.110  1.00  0.00     0.138 A 
ATOM      2  C   UNL     1      22.668 -32.265  -8.014  1.00  0.00     0.100 A 
ATOM      3  C   UNL     1      21.860 -33.276  -7.494  1.00  0.00     0.197 A 
ATOM      4  O   UNL     1      21.117 -33.021  -6.508  1.00  0.00    -0.289 OA
ATOM      5  C   UNL     1      21.893 -34.560  -8.074  1.00  0.00     0.107 A 
ATOM      6  C   UNL     1      21.106 -35.640  -7.610  1.00  0.00     0.134 A 
ATOM      7  C   UNL     1      21.201 -36.890  -8.239  1.00  0.00     0.093 A 
ATOM      8  C   UNL     1      22.068 -37.080  -9.323  1.00  0.00     0.123 A 
ATOM      9  C   UNL     1      22.847 -36.016  -9.783  1.00  0.00     0.094 A 
ATOM     10  C   UNL     1      22.766 -34.762  -9.170  1.00  0.00     0.146 A 
ATOM     11  O   UNL     1      23.517 -33.766  -9.629  1.00  0.00    -0.456 OA
ENDROOT
BRANCH   1  12
ATOM     12  C   UNL     1      24.383 -31.503  -9.704  1.00  0.00     0.021 A 
ATOM     13  C   UNL     1      25.478 -31.025  -8.969  1.00  0.00     0.016 A 
ATOM     14  C   UNL     1      26.326 -30.054  -9.508  1.00  0.00     0.051 A 
ATOM     15  C   UNL     1      26.105 -29.548 -10.792  1.00  0.00     0.157 A 
ATOM     16  C   UNL     1      24.169 -31.004 -11.003  1.00  0.00     0.062 A 
ATOM     17  C   UNL     1      25.016 -30.033 -11.552  1.00  0.00     0.158 A 
BRANCH  15  18
ATOM     18  O   UNL     1      26.986 -28.575 -11.269  1.00  0.00    -0.504 OA
ATOM     19  H   UNL     1      27.255 -27.753 -10.747  1.00  0.00     0.293 HD
ENDBRANCH  15  18
BRANCH  17  20
ATOM     20  O   UNL     1      24.742 -29.586 -12.846  1.00  0.00    -0.504 OA
ATOM     21  H   UNL     1      24.916 -28.645 -13.167  1.00  0.00     0.293 HD
ENDBRANCH  17  20
ENDBRANCH   1  12
BRANCH   6  22
ATOM     22  O   UNL     1      20.233 -35.482  -6.533  1.00  0.00    -0.507 OA
ATOM     23  H   UNL     1      19.458 -34.829  -6.565  1.00  0.00     0.293 HD
ENDBRANCH   6  22
BRANCH   8  24
ATOM     24  O   UNL     1      22.163 -38.321  -9.947  1.00  0.00    -0.508 OA
ATOM     25  H   UNL     1      22.210 -38.405 -10.955  1.00  0.00     0.293 HD
ENDBRANCH   8  24
TORSDOF 5
ENDMDL
MODEL 4
REMARK VINA RESULT:    -6.662      3.070      4.404
REMARK INTER + INTRA:          -8.113
REMARK INTER:                  -7.815
REMARK INTRA:                  -0.298
REMARK UNBOUND:                -0.283
REMARK SMILES O=c1cc(-c2ccc(O)c(O)c2)oc2cc(O)cc(O)c12
REMARK SMILES IDX 4 1 3 2 2 3 1 4 21 5 19 6 18 7 16 8 15 9 14 10 13 11 5 12
REMARK SMILES IDX 6 13 7 14 8 15 12 16 10 17 9 18 11 20 20 22 17 24
REMARK H PARENT 9 19 11 21 20 23 17 25
REMARK Flexibility Score: inf
ROOT
ATOM      1  C   UNL     1      20.910 -34.598  -7.532  1.00  0.00     0.138 A 
ATOM      2  C   UNL     1      22.266 -34.894  -7.745  1.00  0.00     0.100 A 
ATOM      3  C   UNL     1      23.092 -33.940  -8.342  1.00  0.00     0.197 A 
ATOM      4  O   UNL     1      24.308 -34.213  -8.527  1.00  0.00    -0.289 OA
ATOM      5  C   UNL     1      22.554 -32.694  -8.719  1.00  0.00     0.107 A 
ATOM      6  C   UNL     1      23.320 -31.673  -9.331  1.00  0.00     0.134 A 
ATOM      7  C   UNL     1      22.710 -30.456  -9.671  1.00  0.00     0.093 A 
ATOM      8  C   UNL     1      21.351 -30.242  -9.413  1.00  0.00     0.123 A 
ATOM      9  C   UNL     1      20.591 -31.247  -8.810  1.00  0.00     0.094 A 
ATOM     10  C   UNL     1      21.180 -32.467  -8.463  1.00  0.00     0.146 A 
ATOM     11  O   UNL     1      20.435 -33.407  -7.892  1.00  0.00    -0.456 OA
ENDROOT
BRANCH   1  12
ATOM     12  C   UNL     1      19.985 -35.573  -6.901  1.00  0.00     0.021 A 
ATOM     13  C   UNL     1      18.631 -35.239  -6.745  1.00  0.00     0.016 A 
ATOM     14  C   UNL     1      17.740 -36.141  -6.160  1.00  0.00     0.051 A 
ATOM     15  C   UNL     1      18.177 -37.397  -5.728  1.00  0.00     0.157 A 
ATOM     16  C   UNL     1      20.422 -36.843  -6.479  1.00  0.00     0.062 A 
ATOM     17  C   UNL     1      19.535 -37.755  -5.895  1.00  0.00     0.158 A 
BRANCH  15  18
ATOM     18  O   UNL     1      17.236 -38.250  -5.146  1.00  0.00    -0.504 OA
ATOM     19  H   UNL     1      17.473 -39.093  -4.643  1.00  0.00     0.293 HD
ENDBRANCH  15  18
BRANCH  17  20
ATOM     20  O   UNL     1      20.041 -38.996  -5.501  1.00  0.00    -0.504 OA
ATOM     21  H   UNL     1      21.024 -39.196  -5.391  1.00  0.00     0.293 HD
ENDBRANCH  17  20
ENDBRANCH   1  12
BRANCH   6  22
ATOM     22  O   UNL     1      24.676 -31.857  -9.601  1.00  0.00    -0.507 OA
ATOM     23  H   UNL     1      25.394 -31.579  -8.942  1.00  0.00     0.293 HD
ENDBRANCH   6  22
BRANCH   8  24
ATOM     24  O   UNL     1      20.746 -29.034  -9.750  1.00  0.00    -0.508 OA
ATOM     25  H   UNL     1      20.234 -28.488  -9.067  1.00  0.00     0.293 HD
ENDBRANCH   8  24
TORSDOF 5
ENDMDL
MODEL 5
REMARK VINA RESULT:    -6.505      2.742      4.201
REMARK INTER + INTRA:          -7.929
REMARK INTER:                  -7.634
REMARK INTRA:                  -0.295
REMARK UNBOUND:                -0.283
REMARK SMILES O=c1cc(-c2ccc(O)c(O)c2)oc2cc(O)cc(O)c12
REMARK SMILES IDX 4 1 3 2 2 3 1 4 21 5 19 6 18 7 16 8 15 9 14 10 13 11 5 12
REMARK SMILES IDX 6 13 7 14 8 15 12 16 10 17 9 18 11 20 20 22 17 24
REMARK H PARENT 9 19 11 21 20 23 17 25
REMARK Flexibility Score: inf
ROOT
ATOM      1  C   UNL     1      21.826 -34.265  -7.812  1.00  0.00     0.138 A 
ATOM      2  C   UNL     1      21.454 -33.140  -8.566  1.00  0.00     0.100 A 
ATOM      3  C   UNL     1      22.431 -32.231  -8.973  1.00  0.00     0.197 A 
ATOM      4  O   UNL     1      22.087 -31.226  -9.652  1.00  0.00    -0.289 OA
ATOM      5  C   UNL     1      23.777 -32.455  -8.624  1.00  0.00     0.107 A 
ATOM      6  C   UNL     1      24.829 -31.583  -8.995  1.00  0.00     0.134 A 
ATOM      7  C   UNL     1      26.146 -31.881  -8.612  1.00  0.00     0.093 A 
ATOM      8  C   UNL     1      26.429 -33.033  -7.868  1.00  0.00     0.123 A 
ATOM      9  C   UNL     1      25.394 -33.896  -7.501  1.00  0.00     0.094 A 
ATOM     10  C   UNL     1      24.075 -33.616  -7.871  1.00  0.00     0.146 A 
ATOM     11  O   UNL     1      23.109 -34.453  -7.507  1.00  0.00    -0.456 OA
ENDROOT
BRANCH   1  12
ATOM     12  C   UNL     1      20.830 -35.265  -7.353  1.00  0.00     0.021 A 
ATOM     13  C   UNL     1      19.600 -34.828  -6.838  1.00  0.00     0.016 A 
ATOM     14  C   UNL     1      18.644 -35.749  -6.405  1.00  0.00     0.051 A 
ATOM     15  C   UNL     1      18.890 -37.123  -6.484  1.00  0.00     0.157 A 
ATOM     16  C   UNL     1      21.072 -36.649  -7.446  1.00  0.00     0.062 A 
ATOM     17  C   UNL     1      20.118 -37.579  -7.017  1.00  0.00     0.158 A 
BRANCH  15  18
ATOM     18  O   UNL     1      17.894 -37.990  -6.028  1.00  0.00    -0.504 OA
ATOM     19  H   UNL     1      17.487 -38.727  -6.587  1.00  0.00     0.293 HD
ENDBRANCH  15  18
BRANCH  17  20
ATOM     20  O   UNL     1      20.427 -38.935  -7.141  1.00  0.00    -0.504 OA
ATOM     21  H   UNL     1      21.210 -39.380  -6.683  1.00  0.00     0.293 HD
ENDBRANCH  17  20
ENDBRANCH   1  12
BRANCH   6  22
ATOM     22  O   UNL     1      24.577 -30.429  -9.736  1.00  0.00    -0.507 OA
ATOM     23  H   UNL     1      24.905 -29.519  -9.434  1.00  0.00     0.293 HD
ENDBRANCH   6  22
BRANCH   8  24
ATOM     24  O   UNL     1      27.736 -33.329  -7.489  1.00  0.00    -0.508 OA
ATOM     25  H   UNL     1      28.022 -34.274  -7.264  1.00  0.00     0.293 HD
ENDBRANCH   8  24
TORSDOF 5
ENDMDL
MODEL 6
REMARK VINA RESULT:    -6.460      5.797     10.000
REMARK INTER + INTRA:          -7.876
REMARK INTER:                  -7.612
REMARK INTRA:                  -0.265
REMARK UNBOUND:                -0.283
REMARK SMILES O=c1cc(-c2ccc(O)c(O)c2)oc2cc(O)cc(O)c12
REMARK SMILES IDX 4 1 3 2 2 3 1 4 21 5 19 6 18 7 16 8 15 9 14 10 13 11 5 12
REMARK SMILES IDX 6 13 7 14 8 15 12 16 10 17 9 18 11 20 20 22 17 24
REMARK H PARENT 9 19 11 21 20 23 17 25
REMARK Flexibility Score: inf
ROOT
ATOM      1  C   UNL     1      23.720 -30.604  -9.740  1.00  0.00     0.138 A 
ATOM      2  C   UNL     1      23.735 -31.910  -9.225  1.00  0.00     0.100 A 
ATOM      3  C   UNL     1      22.529 -32.559  -8.959  1.00  0.00     0.197 A 
ATOM      4  O   UNL     1      22.553 -33.732  -8.499  1.00  0.00    -0.289 OA
ATOM      5  C   UNL     1      21.312 -31.895  -9.214  1.00  0.00     0.107 A 
ATOM      6  C   UNL     1      20.046 -32.479  -8.971  1.00  0.00     0.134 A 
ATOM      7  C   UNL     1      18.880 -31.753  -9.257  1.00  0.00     0.093 A 
ATOM      8  C   UNL     1      18.957 -30.456  -9.780  1.00  0.00     0.123 A 
ATOM      9  C   UNL     1      20.205 -29.877 -10.020  1.00  0.00     0.094 A 
ATOM     10  C   UNL     1      21.379 -30.584  -9.741  1.00  0.00     0.146 A 
ATOM     11  O   UNL     1      22.553 -30.008  -9.978  1.00  0.00    -0.456 OA
ENDROOT
BRANCH   1  12
ATOM     12  C   UNL     1      24.972 -29.866 -10.042  1.00  0.00     0.021 A 
ATOM     13  C   UNL     1      25.544 -29.045  -9.057  1.00  0.00     0.016 A 
ATOM     14  C   UNL     1      26.725 -28.345  -9.315  1.00  0.00     0.051 A 
ATOM     15  C   UNL     1      27.364 -28.455 -10.553  1.00  0.00     0.157 A 
ATOM     16  C   UNL     1      25.623 -29.988 -11.284  1.00  0.00     0.062 A 
ATOM     17  C   UNL     1      26.808 -29.292 -11.549  1.00  0.00     0.158 A 
BRANCH  15  18
ATOM     18  O   UNL     1      28.538 -27.724 -10.748  1.00  0.00    -0.504 OA
ATOM     19  H   UNL     1      29.049 -27.697 -11.619  1.00  0.00     0.293 HD
ENDBRANCH  15  18
BRANCH  17  20
ATOM     20  O   UNL     1      27.398 -29.463 -12.804  1.00  0.00    -0.504 OA
ATOM     21  H   UNL     1      28.043 -28.805 -13.219  1.00  0.00     0.293 HD
ENDBRANCH  17  20
ENDBRANCH   1  12
BRANCH   6  22
ATOM     22  O   UNL     1      19.938 -33.769  -8.451  1.00  0.00    -0.507 OA
ATOM     23  H   UNL     1      20.248 -33.994  -7.513  1.00  0.00     0.293 HD
ENDBRANCH   6  22
BRANCH   8  24
ATOM     24  O   UNL     1      17.800 -29.736 -10.064  1.00  0.00    -0.508 OA
ATOM     25  H   UNL     1      17.526 -29.526 -11.017  1.00  0.00     0.293 HD
ENDBRANCH   8  24
TORSDOF 5
ENDMDL
MODEL 7
REMARK VINA RESULT:    -6.381      5.948      7.397
REMARK INTER + INTRA:          -7.783
REMARK INTER:                  -7.519
REMARK INTRA:                  -0.264
REMARK UNBOUND:                -0.283
REMARK SMILES O=c1cc(-c2ccc(O)c(O)c2)oc2cc(O)cc(O)c12
REMARK SMILES IDX 4 1 3 2 2 3 1 4 21 5 19 6 18 7 16 8 15 9 14 10 13 11 5 12
REMARK SMILES IDX 6 13 7 14 8 15 12 16 10 17 9 18 11 20 20 22 17 24
REMARK H PARENT 9 19 11 21 20 23 17 25
REMARK Flexibility Score: inf
ROOT
ATOM      1  C   UNL     1      21.861 -31.450  -9.922  1.00  0.00     0.138 A 
ATOM      2  C   UNL     1      22.134 -32.433  -8.957  1.00  0.00     0.100 A 
ATOM      3  C   UNL     1      23.431 -32.570  -8.462  1.00  0.00     0.197 A 
ATOM      4  O   UNL     1      23.666 -33.454  -7.595  1.00  0.00    -0.289 OA
ATOM      5  C   UNL     1      24.449 -31.718  -8.936  1.00  0.00     0.107 A 
ATOM      6  C   UNL     1      25.790 -31.791  -8.489  1.00  0.00     0.134 A 
ATOM      7  C   UNL     1      26.744 -30.901  -9.006  1.00  0.00     0.093 A 
ATOM      8  C   UNL     1      26.382 -29.942  -9.960  1.00  0.00     0.123 A 
ATOM      9  C   UNL     1      25.060 -29.868 -10.404  1.00  0.00     0.094 A 
ATOM     10  C   UNL     1      24.094 -30.746  -9.901  1.00  0.00     0.146 A 
ATOM     11  O   UNL     1      22.844 -30.654 -10.341  1.00  0.00    -0.456 OA
ENDROOT
BRANCH   1  12
ATOM     12  C   UNL     1      20.500 -31.258 -10.483  1.00  0.00     0.021 A 
ATOM     13  C   UNL     1      19.676 -30.248  -9.964  1.00  0.00     0.016 A 
ATOM     14  C   UNL     1      18.394 -30.044 -10.479  1.00  0.00     0.051 A 
ATOM     15  C   UNL     1      17.910 -30.835 -11.525  1.00  0.00     0.157 A 
ATOM     16  C   UNL     1      20.019 -32.046 -11.546  1.00  0.00     0.062 A 
ATOM     17  C   UNL     1      18.736 -31.846 -12.070  1.00  0.00     0.158 A 
BRANCH  15  18
ATOM     18  O   UNL     1      16.618 -30.583 -11.989  1.00  0.00    -0.504 OA
ATOM     19  H   UNL     1      16.348 -29.742 -12.480  1.00  0.00     0.293 HD
ENDBRANCH  15  18
BRANCH  17  20
ATOM     20  O   UNL     1      18.328 -32.665 -13.125  1.00  0.00    -0.504 OA
ATOM     21  H   UNL     1      17.642 -32.396 -13.816  1.00  0.00     0.293 HD
ENDBRANCH  17  20
ENDBRANCH   1  12
BRANCH   6  22
ATOM     22  O   UNL     1      26.180 -32.735  -7.539  1.00  0.00    -0.507 OA
ATOM     23  H   UNL     1      25.521 -33.391  -7.136  1.00  0.00     0.293 HD
ENDBRANCH   6  22
BRANCH   8  24
ATOM     24  O   UNL     1      27.328 -29.059 -10.473  1.00  0.00    -0.508 OA
ATOM     25  H   UNL     1      27.082 -28.113 -10.738  1.00  0.00     0.293 HD
ENDBRANCH   8  24
TORSDOF 5
ENDMDL
MODEL 8
REMARK VINA RESULT:    -6.325      2.882      6.800
REMARK INTER + INTRA:          -7.717
REMARK INTER:                  -7.406
REMARK INTRA:                  -0.311
REMARK UNBOUND:                -0.283
REMARK SMILES O=c1cc(-c2ccc(O)c(O)c2)oc2cc(O)cc(O)c12
REMARK SMILES IDX 4 1 3 2 2 3 1 4 21 5 19 6 18 7 16 8 15 9 14 10 13 11 5 12
REMARK SMILES IDX 6 13 7 14 8 15 12 16 10 17 9 18 11 20 20 22 17 24
REMARK H PARENT 9 19 11 21 20 23 17 25
REMARK Flexibility Score: inf
ROOT
ATOM      1  C   UNL     1      20.688 -34.925  -7.912  1.00  0.00     0.138 A 
ATOM      2  C   UNL     1      21.469 -35.983  -8.407  1.00  0.00     0.100 A 
ATOM      3  C   UNL     1      21.155 -37.295  -8.049  1.00  0.00     0.197 A 
ATOM      4  O   UNL     1      21.859 -38.238  -8.499  1.00  0.00    -0.289 OA
ATOM      5  C   UNL     1      20.059 -37.539  -7.198  1.00  0.00     0.107 A 
ATOM      6  C   UNL     1      19.674 -38.837  -6.784  1.00  0.00     0.134 A 
ATOM      7  C   UNL     1      18.565 -38.997  -5.939  1.00  0.00     0.093 A 
ATOM      8  C   UNL     1      17.836 -37.884  -5.500  1.00  0.00     0.123 A 
ATOM      9  C   UNL     1      18.213 -36.602  -5.907  1.00  0.00     0.094 A 
ATOM     10  C   UNL     1      19.315 -36.422  -6.748  1.00  0.00     0.146 A 
ATOM     11  O   UNL     1      19.654 -35.191  -7.118  1.00  0.00    -0.456 OA
ENDROOT
BRANCH   1  12
ATOM     12  C   UNL     1      20.975 -33.511  -8.261  1.00  0.00     0.021 A 
ATOM     13  C   UNL     1      22.267 -33.150  -8.673  1.00  0.00     0.016 A 
ATOM     14  C   UNL     1      22.560 -31.827  -9.012  1.00  0.00     0.051 A 
ATOM     15  C   UNL     1      21.572 -30.840  -8.956  1.00  0.00     0.157 A 
ATOM     16  C   UNL     1      19.976 -32.520  -8.218  1.00  0.00     0.062 A 
ATOM     17  C   UNL     1      20.261 -31.192  -8.559  1.00  0.00     0.158 A 
BRANCH  15  18
ATOM     18  O   UNL     1      21.933 -29.536  -9.302  1.00  0.00    -0.504 OA
ATOM     19  H   UNL     1      22.646 -29.309  -9.981  1.00  0.00     0.293 HD
ENDBRANCH  15  18
BRANCH  17  20
ATOM     20  O   UNL     1      19.219 -30.264  -8.494  1.00  0.00    -0.504 OA
ATOM     21  H   UNL     1      19.342 -29.295  -8.239  1.00  0.00     0.293 HD
ENDBRANCH  17  20
ENDBRANCH   1  12
BRANCH   6  22
ATOM     22  O   UNL     1      20.381 -39.964  -7.204  1.00  0.00    -0.507 OA
ATOM     23  H   UNL     1      20.243 -40.369  -8.123  1.00  0.00     0.293 HD
ENDBRANCH   6  22
BRANCH   8  24
ATOM     24  O   UNL     1      16.736 -38.043  -4.663  1.00  0.00    -0.508 OA
ATOM     25  H   UNL     1      15.992 -38.695  -4.882  1.00  0.00     0.293 HD
ENDBRANCH   8  24
TORSDOF 5
ENDMDL
MODEL 9
REMARK VINA RESULT:    -6.196      3.115      4.223
REMARK INTER + INTRA:          -7.566
REMARK INTER:                  -7.299
REMARK INTRA:                  -0.266
REMARK UNBOUND:                -0.283
REMARK SMILES O=c1cc(-c2ccc(O)c(O)c2)oc2cc(O)cc(O)c12
REMARK SMILES IDX 4 1 3 2 2 3 1 4 21 5 19 6 18 7 16 8 15 9 14 10 13 11 5 12
REMARK SMILES IDX 6 13 7 14 8 15 12 16 10 17 9 18 11 20 20 22 17 24
REMARK H PARENT 9 19 11 21 20 23 17 25
REMARK Flexibility Score: inf
ROOT
ATOM      1  C   UNL     1      21.657 -34.255  -8.074  1.00  0.00     0.138 A 
ATOM      2  C   UNL     1      22.908 -34.003  -7.489  1.00  0.00     0.100 A 
ATOM      3  C   UNL     1      23.757 -33.056  -8.061  1.00  0.00     0.197 A 
ATOM      4  O   UNL     1      24.877 -32.834  -7.528  1.00  0.00    -0.289 OA
ATOM      5  C   UNL     1      23.346 -32.364  -9.218  1.00  0.00     0.107 A 
ATOM      6  C   UNL     1      24.145 -31.390  -9.863  1.00  0.00     0.134 A 
ATOM      7  C   UNL     1      23.661 -30.740 -11.008  1.00  0.00     0.093 A 
ATOM      8  C   UNL     1      22.394 -31.047 -11.520  1.00  0.00     0.123 A 
ATOM      9  C   UNL     1      21.602 -32.007 -10.887  1.00  0.00     0.094 A 
ATOM     10  C   UNL     1      22.067 -32.666  -9.744  1.00  0.00     0.146 A 
ATOM     11  O   UNL     1      21.295 -33.577  -9.162  1.00  0.00    -0.456 OA
ENDROOT
BRANCH   1  12
ATOM     12  C   UNL     1      20.713 -35.251  -7.508  1.00  0.00     0.021 A 
ATOM     13  C   UNL     1      19.512 -34.812  -6.929  1.00  0.00     0.016 A 
ATOM     14  C   UNL     1      18.604 -35.729  -6.395  1.00  0.00     0.051 A 
ATOM     15  C   UNL     1      18.870 -37.101  -6.434  1.00  0.00     0.157 A 
ATOM     16  C   UNL     1      20.974 -36.633  -7.560  1.00  0.00     0.062 A 
ATOM     17  C   UNL     1      20.068 -37.560  -7.029  1.00  0.00     0.158 A 
BRANCH  15  18
ATOM     18  O   UNL     1      17.924 -37.964  -5.876  1.00  0.00    -0.504 OA
ATOM     19  H   UNL     1      17.417 -37.771  -5.024  1.00  0.00     0.293 HD
ENDBRANCH  15  18
BRANCH  17  20
ATOM     20  O   UNL     1      20.394 -38.915  -7.118  1.00  0.00    -0.504 OA
ATOM     21  H   UNL     1      21.255 -39.264  -7.514  1.00  0.00     0.293 HD
ENDBRANCH  17  20
ENDBRANCH   1  12
BRANCH   6  22
ATOM     22  O   UNL     1      25.412 -31.064  -9.377  1.00  0.00    -0.507 OA
ATOM     23  H   UNL     1      26.238 -31.120  -9.960  1.00  0.00     0.293 HD
ENDBRANCH   6  22
BRANCH   8  24
ATOM     24  O   UNL     1      21.913 -30.402 -12.656  1.00  0.00    -0.508 OA
ATOM     25  H   UNL     1      21.379 -30.897 -13.361  1.00  0.00     0.293 HD
ENDBRANCH   8  24
TORSDOF 5
ENDMDL
