MODEL 1
REMARK VINA RESULT:    -6.661      0.000      0.000
REMARK INTER + INTRA:         -11.459
REMARK INTER:                  -9.777
REMARK INTRA:                  -1.683
REMARK UNBOUND:                -1.683
REMARK SMILES O=c1c(O[C@@H]2O[C@H](CO)[C@@H](O)[C@@H](O)[C@H]2O)c(-c2ccc(O)c(O)c2)oc2cc(O)cc(O)c12
REMARK SMILES IDX 4 1 3 2 16 3 25 4 2 5 26 6 1 7 33 8 27 9 31 10 28 11 30 12
REMARK SMILES IDX 17 13 20 14 19 15 22 16 18 17 24 18 21 19 23 21 32 23 29 25
REMARK SMILES IDX 5 27 14 28 6 29 12 30 7 31 10 32 15 33 13 35 8 37 9 38 11 40
REMARK H PARENT 21 20 23 22 32 24 29 26 15 34 13 36 9 39 11 41
REMARK Flexibility Score: inf
ROOT
ATOM      1  O   UNL     1      -5.948   7.348  14.319  1.00  0.00    -0.454 OA
ENDROOT
BRANCH   1   2
ATOM      2  C   UNL     1      -4.966   6.434  14.754  1.00  0.00     0.214 A 
ATOM      3  C   UNL     1      -3.639   6.662  14.351  1.00  0.00     0.180 A 
ATOM      4  O   UNL     1      -2.672   5.834  14.725  1.00  0.00    -0.452 OA
ATOM      5  C   UNL     1      -5.238   5.304  15.558  1.00  0.00     0.239 A 
ATOM      6  C   UNL     1      -2.881   4.760  15.474  1.00  0.00     0.146 A 
ATOM      7  O   UNL     1      -6.398   5.121  16.011  1.00  0.00    -0.285 OA
ATOM      8  C   UNL     1      -4.190   4.409  15.890  1.00  0.00     0.111 A 
ATOM      9  C   UNL     1      -1.781   3.985  15.854  1.00  0.00     0.094 A 
ATOM     10  C   UNL     1      -4.364   3.207  16.639  1.00  0.00     0.134 A 
ATOM     11  C   UNL     1      -1.954   2.856  16.650  1.00  0.00     0.123 A 
ATOM     12  C   UNL     1      -3.240   2.472  17.039  1.00  0.00     0.093 A 
BRANCH   3  13
ATOM     13  C   UNL     1      -3.282   7.815  13.501  1.00  0.00     0.025 A 
ATOM     14  C   UNL     1      -2.573  10.021  11.907  1.00  0.00     0.157 A 
ATOM     15  C   UNL     1      -2.481  10.099  13.302  1.00  0.00     0.051 A 
ATOM     16  C   UNL     1      -3.035   8.837  11.303  1.00  0.00     0.158 A 
ATOM     17  C   UNL     1      -2.841   9.006  14.095  1.00  0.00     0.016 A 
ATOM     18  C   UNL     1      -3.388   7.740  12.102  1.00  0.00     0.062 A 
BRANCH  14  19
ATOM     19  O   UNL     1      -2.208  11.125  11.139  1.00  0.00    -0.504 OA
ATOM     20  H   UNL     1      -1.292  11.202  10.714  1.00  0.00     0.293 HD
ENDBRANCH  14  19
BRANCH  16  21
ATOM     21  O   UNL     1      -3.139   8.753   9.915  1.00  0.00    -0.504 OA
ATOM     22  H   UNL     1      -2.982   9.560   9.323  1.00  0.00     0.293 HD
ENDBRANCH  16  21
ENDBRANCH   3  13
BRANCH  10  23
ATOM     23  O   UNL     1      -5.612   2.676  16.978  1.00  0.00    -0.507 OA
ATOM     24  H   UNL     1      -6.377   3.216  17.356  1.00  0.00     0.293 HD
ENDBRANCH  10  23
BRANCH  11  25
ATOM     25  O   UNL     1      -0.842   2.114  17.043  1.00  0.00    -0.508 OA
ATOM     26  H   UNL     1      -0.659   1.912  18.018  1.00  0.00     0.293 HD
ENDBRANCH  11  25
ENDBRANCH   1   2
BRANCH   1  27
ATOM     27  C   UNL     1      -7.005   7.114  13.391  1.00  0.00     0.339 C 
ATOM     28  C   UNL     1      -8.328   7.561  14.049  1.00  0.00     0.214 C 
ATOM     29  O   UNL     1      -6.766   7.877  12.220  1.00  0.00    -0.332 OA
ATOM     30  C   UNL     1      -9.511   7.454  13.064  1.00  0.00     0.180 C 
ATOM     31  C   UNL     1      -7.745   7.597  11.232  1.00  0.00     0.179 C 
ATOM     32  C   UNL     1      -9.143   8.080  11.702  1.00  0.00     0.177 C 
BRANCH  28  33
ATOM     33  O   UNL     1      -8.589   6.848  15.234  1.00  0.00    -0.384 OA
ATOM     34  H   UNL     1      -9.017   5.988  14.987  1.00  0.00     0.211 HD
ENDBRANCH  28  33
BRANCH  30  35
ATOM     35  O   UNL     1      -9.967   6.127  12.927  1.00  0.00    -0.387 OA
ATOM     36  H   UNL     1     -10.462   6.054  12.072  1.00  0.00     0.211 HD
ENDBRANCH  30  35
BRANCH  31  37
ATOM     37  C   UNL     1      -7.320   8.272   9.918  1.00  0.00     0.191 C 
BRANCH  37  38
ATOM     38  O   UNL     1      -6.090   8.932  10.061  1.00  0.00    -0.394 OA
ATOM     39  H   UNL     1      -5.752   9.114   9.144  1.00  0.00     0.210 HD
ENDBRANCH  37  38
ENDBRANCH  31  37
BRANCH  32  40
ATOM     40  O   UNL     1     -10.125   7.740  10.753  1.00  0.00    -0.387 OA
ATOM     41  H   UNL     1      -9.900   8.216   9.912  1.00  0.00     0.211 HD
ENDBRANCH  32  40
ENDBRANCH   1  27
TORSDOF 12
ENDMDL
MODEL 2
REMARK VINA RESULT:    -6.302      1.873      5.896
REMARK INTER + INTRA:         -10.932
REMARK INTER:                  -9.967
REMARK INTRA:                  -0.965
REMARK UNBOUND:                -1.683
REMARK SMILES O=c1c(O[C@@H]2O[C@H](CO)[C@@H](O)[C@@H](O)[C@H]2O)c(-c2ccc(O)c(O)c2)oc2cc(O)cc(O)c12
REMARK SMILES IDX 4 1 3 2 16 3 25 4 2 5 26 6 1 7 33 8 27 9 31 10 28 11 30 12
REMARK SMILES IDX 17 13 20 14 19 15 22 16 18 17 24 18 21 19 23 21 32 23 29 25
REMARK SMILES IDX 5 27 14 28 6 29 12 30 7 31 10 32 15 33 13 35 8 37 9 38 11 40
REMARK H PARENT 21 20 23 22 32 24 29 26 15 34 13 36 9 39 11 41
REMARK Flexibility Score: inf
ROOT
ATOM      1  O   UNL     1      -5.353   6.137  12.480  1.00  0.00    -0.454 OA
ENDROOT
BRANCH   1   2
ATOM      2  C   UNL     1      -4.264   6.987  12.761  1.00  0.00     0.214 A 
ATOM      3  C   UNL     1      -3.654   6.870  14.022  1.00  0.00     0.180 A 
ATOM      4  O   UNL     1      -2.627   7.645  14.346  1.00  0.00    -0.452 OA
ATOM      5  C   UNL     1      -3.759   7.951  11.859  1.00  0.00     0.239 A 
ATOM      6  C   UNL     1      -2.124   8.565  13.535  1.00  0.00     0.146 A 
ATOM      7  O   UNL     1      -4.222   8.019  10.690  1.00  0.00    -0.285 OA
ATOM      8  C   UNL     1      -2.699   8.802  12.260  1.00  0.00     0.111 A 
ATOM      9  C   UNL     1      -1.007   9.291  13.957  1.00  0.00     0.094 A 
ATOM     10  C   UNL     1      -2.157   9.848  11.456  1.00  0.00     0.134 A 
ATOM     11  C   UNL     1      -0.438  10.258  13.132  1.00  0.00     0.123 A 
ATOM     12  C   UNL     1      -1.013  10.532  11.888  1.00  0.00     0.093 A 
BRANCH   3  13
ATOM     13  C   UNL     1      -4.135   5.894  15.020  1.00  0.00     0.025 A 
ATOM     14  C   UNL     1      -5.018   4.015  16.916  1.00  0.00     0.157 A 
ATOM     15  C   UNL     1      -4.264   3.602  15.812  1.00  0.00     0.051 A 
ATOM     16  C   UNL     1      -5.346   5.375  17.070  1.00  0.00     0.158 A 
ATOM     17  C   UNL     1      -3.832   4.534  14.864  1.00  0.00     0.016 A 
ATOM     18  C   UNL     1      -4.905   6.308  16.121  1.00  0.00     0.062 A 
BRANCH  14  19
ATOM     19  O   UNL     1      -5.437   3.065  17.846  1.00  0.00    -0.504 OA
ATOM     20  H   UNL     1      -5.406   3.242  18.844  1.00  0.00     0.293 HD
ENDBRANCH  14  19
BRANCH  16  21
ATOM     21  O   UNL     1      -6.105   5.794  18.161  1.00  0.00    -0.504 OA
ATOM     22  H   UNL     1      -5.669   6.124  19.014  1.00  0.00     0.293 HD
ENDBRANCH  16  21
ENDBRANCH   3  13
BRANCH  10  23
ATOM     23  O   UNL     1      -2.725  10.277  10.252  1.00  0.00    -0.507 OA
ATOM     24  H   UNL     1      -3.033   9.659   9.515  1.00  0.00     0.293 HD
ENDBRANCH  10  23
BRANCH  11  25
ATOM     25  O   UNL     1       0.693  10.949  13.560  1.00  0.00    -0.508 OA
ATOM     26  H   UNL     1       1.339  11.363  12.900  1.00  0.00     0.293 HD
ENDBRANCH  11  25
ENDBRANCH   1   2
BRANCH   1  27
ATOM     27  C   UNL     1      -6.720   6.326  12.839  1.00  0.00     0.339 C 
ATOM     28  C   UNL     1      -7.083   5.277  13.912  1.00  0.00     0.214 C 
ATOM     29  O   UNL     1      -6.881   7.632  13.367  1.00  0.00    -0.332 OA
ATOM     30  C   UNL     1      -8.515   5.488  14.446  1.00  0.00     0.180 C 
ATOM     31  C   UNL     1      -8.247   7.894  13.647  1.00  0.00     0.179 C 
ATOM     32  C   UNL     1      -8.752   6.975  14.790  1.00  0.00     0.177 C 
BRANCH  28  33
ATOM     33  O   UNL     1      -6.908   3.963  13.438  1.00  0.00    -0.384 OA
ATOM     34  H   UNL     1      -6.756   3.372  14.220  1.00  0.00     0.211 HD
ENDBRANCH  28  33
BRANCH  30  35
ATOM     35  O   UNL     1      -9.490   4.993  13.557  1.00  0.00    -0.387 OA
ATOM     36  H   UNL     1     -10.381   5.284  13.877  1.00  0.00     0.211 HD
ENDBRANCH  30  35
BRANCH  31  37
ATOM     37  C   UNL     1      -8.396   9.382  14.003  1.00  0.00     0.191 C 
BRANCH  37  38
ATOM     38  O   UNL     1      -9.677   9.855  13.681  1.00  0.00    -0.394 OA
ATOM     39  H   UNL     1      -9.554  10.723  13.212  1.00  0.00     0.210 HD
ENDBRANCH  37  38
ENDBRANCH  31  37
BRANCH  32  40
ATOM     40  O   UNL     1     -10.124   7.185  15.021  1.00  0.00    -0.387 OA
ATOM     41  H   UNL     1     -10.361   6.706  15.857  1.00  0.00     0.211 HD
ENDBRANCH  32  40
ENDBRANCH   1  27
TORSDOF 12
ENDMDL
MODEL 3
REMARK VINA RESULT:    -6.162      1.473      6.678
REMARK INTER + INTRA:         -10.726
REMARK INTER:                  -9.829
REMARK INTRA:                  -0.897
REMARK UNBOUND:                -1.683
REMARK SMILES O=c1c(O[C@@H]2O[C@H](CO)[C@@H](O)[C@@H](O)[C@H]2O)c(-c2ccc(O)c(O)c2)oc2cc(O)cc(O)c12
REMARK SMILES IDX 4 1 3 2 16 3 25 4 2 5 26 6 1 7 33 8 27 9 31 10 28 11 30 12
REMARK SMILES IDX 17 13 20 14 19 15 22 16 18 17 24 18 21 19 23 21 32 23 29 25
REMARK SMILES IDX 5 27 14 28 6 29 12 30 7 31 10 32 15 33 13 35 8 37 9 38 11 40
REMARK H PARENT 21 20 23 22 32 24 29 26 15 34 13 36 9 39 11 41
REMARK Flexibility Score: inf
ROOT
ATOM      1  O   UNL     1      -4.637   6.802  15.093  1.00  0.00    -0.454 OA
ENDROOT
BRANCH   1   2
ATOM      2  C   UNL     1      -5.586   7.222  14.139  1.00  0.00     0.214 A 
ATOM      3  C   UNL     1      -5.270   8.345  13.355  1.00  0.00     0.180 A 
ATOM      4  O   UNL     1      -6.126   8.789  12.443  1.00  0.00    -0.452 OA
ATOM      5  C   UNL     1      -6.833   6.589  13.933  1.00  0.00     0.239 A 
ATOM      6  C   UNL     1      -7.307   8.232  12.219  1.00  0.00     0.146 A 
ATOM      7  O   UNL     1      -7.109   5.529  14.553  1.00  0.00    -0.285 OA
ATOM      8  C   UNL     1      -7.746   7.126  12.991  1.00  0.00     0.111 A 
ATOM      9  C   UNL     1      -8.108   8.749  11.197  1.00  0.00     0.094 A 
ATOM     10  C   UNL     1      -9.054   6.608  12.750  1.00  0.00     0.134 A 
ATOM     11  C   UNL     1      -9.351   8.186  10.919  1.00  0.00     0.123 A 
ATOM     12  C   UNL     1      -9.818   7.120  11.694  1.00  0.00     0.093 A 
BRANCH   3  13
ATOM     13  C   UNL     1      -3.992   9.064  13.523  1.00  0.00     0.025 A 
ATOM     14  C   UNL     1      -1.564  10.436  13.882  1.00  0.00     0.157 A 
ATOM     15  C   UNL     1      -2.679  10.760  14.662  1.00  0.00     0.051 A 
ATOM     16  C   UNL     1      -1.663   9.427  12.906  1.00  0.00     0.158 A 
ATOM     17  C   UNL     1      -3.890  10.085  14.478  1.00  0.00     0.016 A 
ATOM     18  C   UNL     1      -2.876   8.747  12.730  1.00  0.00     0.062 A 
BRANCH  14  19
ATOM     19  O   UNL     1      -0.369  11.125  14.084  1.00  0.00    -0.504 OA
ATOM     20  H   UNL     1      -0.354  12.103  14.349  1.00  0.00     0.293 HD
ENDBRANCH  14  19
BRANCH  16  21
ATOM     21  O   UNL     1      -0.559   9.104  12.118  1.00  0.00    -0.504 OA
ATOM     22  H   UNL     1       0.328   9.579  12.229  1.00  0.00     0.293 HD
ENDBRANCH  16  21
ENDBRANCH   3  13
BRANCH  10  23
ATOM     23  O   UNL     1      -9.658   5.624  13.539  1.00  0.00    -0.507 OA
ATOM     24  H   UNL     1      -9.917   4.706  13.206  1.00  0.00     0.293 HD
ENDBRANCH  10  23
BRANCH  11  25
ATOM     25  O   UNL     1     -10.121   8.697   9.876  1.00  0.00    -0.508 OA
ATOM     26  H   UNL     1     -10.225   8.197   9.003  1.00  0.00     0.293 HD
ENDBRANCH  11  25
ENDBRANCH   1   2
BRANCH   1  27
ATOM     27  C   UNL     1      -4.099   5.493  15.268  1.00  0.00     0.339 C 
ATOM     28  C   UNL     1      -2.597   5.632  15.597  1.00  0.00     0.214 C 
ATOM     29  O   UNL     1      -4.772   4.858  16.342  1.00  0.00    -0.332 OA
ATOM     30  C   UNL     1      -1.962   4.263  15.922  1.00  0.00     0.180 C 
ATOM     31  C   UNL     1      -4.333   3.517  16.486  1.00  0.00     0.179 C 
ATOM     32  C   UNL     1      -2.843   3.478  16.917  1.00  0.00     0.177 C 
BRANCH  28  33
ATOM     33  O   UNL     1      -1.895   6.285  14.568  1.00  0.00    -0.384 OA
ATOM     34  H   UNL     1      -1.427   5.595  14.029  1.00  0.00     0.211 HD
ENDBRANCH  28  33
BRANCH  30  35
ATOM     35  O   UNL     1      -1.691   3.517  14.758  1.00  0.00    -0.387 OA
ATOM     36  H   UNL     1      -1.637   4.142  13.991  1.00  0.00     0.211 HD
ENDBRANCH  30  35
BRANCH  31  37
ATOM     37  C   UNL     1      -5.241   2.812  17.507  1.00  0.00     0.191 C 
BRANCH  37  38
ATOM     38  O   UNL     1      -5.631   1.544  17.050  1.00  0.00    -0.394 OA
ATOM     39  H   UNL     1      -6.017   1.671  16.143  1.00  0.00     0.210 HD
ENDBRANCH  37  38
ENDBRANCH  31  37
BRANCH  32  40
ATOM     40  O   UNL     1      -2.388   2.149  16.992  1.00  0.00    -0.387 OA
ATOM     41  H   UNL     1      -1.418   2.156  16.778  1.00  0.00     0.211 HD
ENDBRANCH  32  40
ENDBRANCH   1  27
TORSDOF 12
ENDMDL
MODEL 4
REMARK VINA RESULT:    -6.158      1.959      6.758
REMARK INTER + INTRA:         -10.720
REMARK INTER:                 -10.048
REMARK INTRA:                  -0.672
REMARK UNBOUND:                -1.683
REMARK SMILES O=c1c(O[C@@H]2O[C@H](CO)[C@@H](O)[C@@H](O)[C@H]2O)c(-c2ccc(O)c(O)c2)oc2cc(O)cc(O)c12
REMARK SMILES IDX 4 1 3 2 16 3 25 4 2 5 26 6 1 7 33 8 27 9 31 10 28 11 30 12
REMARK SMILES IDX 17 13 20 14 19 15 22 16 18 17 24 18 21 19 23 21 32 23 29 25
REMARK SMILES IDX 5 27 14 28 6 29 12 30 7 31 10 32 15 33 13 35 8 37 9 38 11 40
REMARK H PARENT 21 20 23 22 32 24 29 26 15 34 13 36 9 39 11 41
REMARK Flexibility Score: inf
ROOT
ATOM      1  O   UNL     1      -3.226   6.439  14.289  1.00  0.00    -0.454 OA
ENDROOT
BRANCH   1   2
ATOM      2  C   UNL     1      -4.430   7.145  14.085  1.00  0.00     0.214 A 
ATOM      3  C   UNL     1      -4.367   8.341  13.349  1.00  0.00     0.180 A 
ATOM      4  O   UNL     1      -5.465   9.052  13.127  1.00  0.00    -0.452 OA
ATOM      5  C   UNL     1      -5.685   6.729  14.583  1.00  0.00     0.239 A 
ATOM      6  C   UNL     1      -6.662   8.704  13.579  1.00  0.00     0.146 A 
ATOM      7  O   UNL     1      -5.792   5.620  15.167  1.00  0.00    -0.285 OA
ATOM      8  C   UNL     1      -6.827   7.543  14.377  1.00  0.00     0.111 A 
ATOM      9  C   UNL     1      -7.761   9.498  13.242  1.00  0.00     0.094 A 
ATOM     10  C   UNL     1      -8.127   7.253  14.890  1.00  0.00     0.134 A 
ATOM     11  C   UNL     1      -9.038   9.162  13.684  1.00  0.00     0.123 A 
ATOM     12  C   UNL     1      -9.216   8.044  14.504  1.00  0.00     0.093 A 
BRANCH   3  13
ATOM     13  C   UNL     1      -3.088   8.844  12.808  1.00  0.00     0.025 A 
ATOM     14  C   UNL     1      -0.673   9.823  11.752  1.00  0.00     0.157 A 
ATOM     15  C   UNL     1      -1.775   9.614  10.916  1.00  0.00     0.051 A 
ATOM     16  C   UNL     1      -0.772   9.530  13.125  1.00  0.00     0.158 A 
ATOM     17  C   UNL     1      -2.974   9.118  11.437  1.00  0.00     0.016 A 
ATOM     18  C   UNL     1      -1.978   9.040  13.646  1.00  0.00     0.062 A 
BRANCH  14  19
ATOM     19  O   UNL     1       0.510  10.317  11.206  1.00  0.00    -0.504 OA
ATOM     20  H   UNL     1       0.527  11.150  10.629  1.00  0.00     0.293 HD
ENDBRANCH  14  19
BRANCH  16  21
ATOM     21  O   UNL     1       0.323   9.727  13.964  1.00  0.00    -0.504 OA
ATOM     22  H   UNL     1       1.172   9.183  13.863  1.00  0.00     0.293 HD
ENDBRANCH  16  21
ENDBRANCH   3  13
BRANCH  10  23
ATOM     23  O   UNL     1      -8.391   6.230  15.806  1.00  0.00    -0.507 OA
ATOM     24  H   UNL     1      -8.504   6.370  16.800  1.00  0.00     0.293 HD
ENDBRANCH  10  23
BRANCH  11  25
ATOM     25  O   UNL     1     -10.125   9.951  13.312  1.00  0.00    -0.508 OA
ATOM     26  H   UNL     1     -10.225  10.902  13.643  1.00  0.00     0.293 HD
ENDBRANCH  11  25
ENDBRANCH   1   2
BRANCH   1  27
ATOM     27  C   UNL     1      -2.900   5.570  15.372  1.00  0.00     0.339 C 
ATOM     28  C   UNL     1      -2.857   4.125  14.831  1.00  0.00     0.214 C 
ATOM     29  O   UNL     1      -1.629   5.932  15.885  1.00  0.00    -0.332 OA
ATOM     30  C   UNL     1      -2.391   3.131  15.915  1.00  0.00     0.180 C 
ATOM     31  C   UNL     1      -1.310   5.153  17.027  1.00  0.00     0.179 C 
ATOM     32  C   UNL     1      -1.133   3.662  16.635  1.00  0.00     0.177 C 
BRANCH  28  33
ATOM     33  O   UNL     1      -4.093   3.735  14.283  1.00  0.00    -0.384 OA
ATOM     34  H   UNL     1      -3.913   3.173  13.486  1.00  0.00     0.211 HD
ENDBRANCH  28  33
BRANCH  30  35
ATOM     35  O   UNL     1      -3.422   2.815  16.822  1.00  0.00    -0.387 OA
ATOM     36  H   UNL     1      -3.718   1.886  16.648  1.00  0.00     0.211 HD
ENDBRANCH  30  35
BRANCH  31  37
ATOM     37  C   UNL     1      -0.039   5.729  17.672  1.00  0.00     0.191 C 
BRANCH  37  38
ATOM     38  O   UNL     1      -0.033   5.519  19.059  1.00  0.00    -0.394 OA
ATOM     39  H   UNL     1      -0.549   6.264  19.466  1.00  0.00     0.210 HD
ENDBRANCH  37  38
ENDBRANCH  31  37
BRANCH  32  40
ATOM     40  O   UNL     1      -0.887   2.879  17.778  1.00  0.00    -0.387 OA
ATOM     41  H   UNL     1      -0.499   2.019  17.468  1.00  0.00     0.211 HD
ENDBRANCH  32  40
ENDBRANCH   1  27
TORSDOF 12
ENDMDL
MODEL 5
REMARK VINA RESULT:    -5.568     10.506     16.132
REMARK INTER + INTRA:          -9.855
REMARK INTER:                  -8.652
REMARK INTRA:                  -1.203
REMARK UNBOUND:                -1.683
REMARK SMILES O=c1c(O[C@@H]2O[C@H](CO)[C@@H](O)[C@@H](O)[C@H]2O)c(-c2ccc(O)c(O)c2)oc2cc(O)cc(O)c12
REMARK SMILES IDX 4 1 3 2 16 3 25 4 2 5 26 6 1 7 33 8 27 9 31 10 28 11 30 12
REMARK SMILES IDX 17 13 20 14 19 15 22 16 18 17 24 18 21 19 23 21 32 23 29 25
REMARK SMILES IDX 5 27 14 28 6 29 12 30 7 31 10 32 15 33 13 35 8 37 9 38 11 40
REMARK H PARENT 21 20 23 22 32 24 29 26 15 34 13 36 9 39 11 41
REMARK Flexibility Score: inf
ROOT
ATOM      1  O   UNL     1      -7.982  -5.802  22.349  1.00  0.00    -0.454 OA
ENDROOT
BRANCH   1   2
ATOM      2  C   UNL     1      -7.603  -4.781  21.452  1.00  0.00     0.214 A 
ATOM      3  C   UNL     1      -6.253  -4.718  21.068  1.00  0.00     0.180 A 
ATOM      4  O   UNL     1      -5.836  -3.778  20.230  1.00  0.00    -0.452 OA
ATOM      5  C   UNL     1      -8.495  -3.818  20.927  1.00  0.00     0.239 A 
ATOM      6  C   UNL     1      -6.634  -2.852  19.718  1.00  0.00     0.146 A 
ATOM      7  O   UNL     1      -9.726  -3.900  21.179  1.00  0.00    -0.285 OA
ATOM      8  C   UNL     1      -8.004  -2.793  20.081  1.00  0.00     0.111 A 
ATOM      9  C   UNL     1      -6.100  -1.941  18.802  1.00  0.00     0.094 A 
ATOM     10  C   UNL     1      -8.800  -1.736  19.549  1.00  0.00     0.134 A 
ATOM     11  C   UNL     1      -6.906  -0.960  18.230  1.00  0.00     0.123 A 
ATOM     12  C   UNL     1      -8.249  -0.861  18.604  1.00  0.00     0.093 A 
BRANCH   3  13
ATOM     13  C   UNL     1      -5.262  -5.683  21.586  1.00  0.00     0.025 A 
ATOM     14  C   UNL     1      -3.390  -7.516  22.607  1.00  0.00     0.157 A 
ATOM     15  C   UNL     1      -3.793  -6.418  23.375  1.00  0.00     0.051 A 
ATOM     16  C   UNL     1      -3.914  -7.695  21.313  1.00  0.00     0.158 A 
ATOM     17  C   UNL     1      -4.717  -5.501  22.865  1.00  0.00     0.016 A 
ATOM     18  C   UNL     1      -4.846  -6.778  20.808  1.00  0.00     0.062 A 
BRANCH  14  19
ATOM     19  O   UNL     1      -2.466  -8.415  23.139  1.00  0.00    -0.504 OA
ATOM     20  H   UNL     1      -1.600  -8.637  22.662  1.00  0.00     0.293 HD
ENDBRANCH  14  19
BRANCH  16  21
ATOM     21  O   UNL     1      -3.511  -8.781  20.538  1.00  0.00    -0.504 OA
ATOM     22  H   UNL     1      -2.691  -8.733  19.946  1.00  0.00     0.293 HD
ENDBRANCH  16  21
ENDBRANCH   3  13
BRANCH  10  23
ATOM     23  O   UNL     1     -10.117  -1.480  19.944  1.00  0.00    -0.507 OA
ATOM     24  H   UNL     1     -10.902  -2.081  19.733  1.00  0.00     0.293 HD
ENDBRANCH  10  23
BRANCH  11  25
ATOM     25  O   UNL     1      -6.361  -0.080  17.297  1.00  0.00    -0.508 OA
ATOM     26  H   UNL     1      -5.474   0.379  17.460  1.00  0.00     0.293 HD
ENDBRANCH  11  25
ENDBRANCH   1   2
BRANCH   1  27
ATOM     27  C   UNL     1      -7.928  -5.772  23.774  1.00  0.00     0.339 C 
ATOM     28  C   UNL     1      -9.376  -5.793  24.309  1.00  0.00     0.214 C 
ATOM     29  O   UNL     1      -7.227  -6.916  24.232  1.00  0.00    -0.332 OA
ATOM     30  C   UNL     1      -9.407  -5.885  25.849  1.00  0.00     0.180 C 
ATOM     31  C   UNL     1      -7.067  -6.875  25.641  1.00  0.00     0.179 C 
ATOM     32  C   UNL     1      -8.444  -6.985  26.347  1.00  0.00     0.177 C 
BRANCH  28  33
ATOM     33  O   UNL     1     -10.118  -4.688  23.853  1.00  0.00    -0.384 OA
ATOM     34  H   UNL     1      -9.754  -3.873  24.286  1.00  0.00     0.211 HD
ENDBRANCH  28  33
BRANCH  30  35
ATOM     35  O   UNL     1      -9.144  -4.642  26.459  1.00  0.00    -0.387 OA
ATOM     36  H   UNL     1      -9.668  -4.589  27.298  1.00  0.00     0.211 HD
ENDBRANCH  30  35
BRANCH  31  37
ATOM     37  C   UNL     1      -6.118  -8.010  26.058  1.00  0.00     0.191 C 
BRANCH  37  38
ATOM     38  O   UNL     1      -4.943  -7.504  26.633  1.00  0.00    -0.394 OA
ATOM     39  H   UNL     1      -4.430  -7.068  25.903  1.00  0.00     0.210 HD
ENDBRANCH  37  38
ENDBRANCH  31  37
BRANCH  32  40
ATOM     40  O   UNL     1      -8.292  -6.873  27.741  1.00  0.00    -0.387 OA
ATOM     41  H   UNL     1      -8.531  -5.943  27.991  1.00  0.00     0.211 HD
ENDBRANCH  32  40
ENDBRANCH   1  27
TORSDOF 12
ENDMDL
MODEL 6
REMARK VINA RESULT:    -5.466      1.799      5.993
REMARK INTER + INTRA:          -9.705
REMARK INTER:                  -8.183
REMARK INTRA:                  -1.522
REMARK UNBOUND:                -1.683
REMARK SMILES O=c1c(O[C@@H]2O[C@H](CO)[C@@H](O)[C@@H](O)[C@H]2O)c(-c2ccc(O)c(O)c2)oc2cc(O)cc(O)c12
REMARK SMILES IDX 4 1 3 2 16 3 25 4 2 5 26 6 1 7 33 8 27 9 31 10 28 11 30 12
REMARK SMILES IDX 17 13 20 14 19 15 22 16 18 17 24 18 21 19 23 21 32 23 29 25
REMARK SMILES IDX 5 27 14 28 6 29 12 30 7 31 10 32 15 33 13 35 8 37 9 38 11 40
REMARK H PARENT 21 20 23 22 32 24 29 26 15 34 13 36 9 39 11 41
REMARK Flexibility Score: inf
ROOT
ATOM      1  O   UNL     1      -4.649   6.959  12.095  1.00  0.00    -0.454 OA
ENDROOT
BRANCH   1   2
ATOM      2  C   UNL     1      -3.586   7.685  12.671  1.00  0.00     0.214 A 
ATOM      3  C   UNL     1      -3.253   7.403  14.007  1.00  0.00     0.180 A 
ATOM      4  O   UNL     1      -2.264   8.056  14.605  1.00  0.00    -0.452 OA
ATOM      5  C   UNL     1      -2.846   8.679  11.991  1.00  0.00     0.239 A 
ATOM      6  C   UNL     1      -1.548   8.999  14.009  1.00  0.00     0.146 A 
ATOM      7  O   UNL     1      -3.059   8.892  10.769  1.00  0.00    -0.285 OA
ATOM      8  C   UNL     1      -1.836   9.397  12.679  1.00  0.00     0.111 A 
ATOM      9  C   UNL     1      -0.495   9.586  14.715  1.00  0.00     0.094 A 
ATOM     10  C   UNL     1      -1.076  10.462  12.110  1.00  0.00     0.134 A 
ATOM     11  C   UNL     1       0.291  10.571  14.123  1.00  0.00     0.123 A 
ATOM     12  C   UNL     1      -0.001  11.004  12.827  1.00  0.00     0.093 A 
BRANCH   3  13
ATOM     13  C   UNL     1      -3.989   6.386  14.785  1.00  0.00     0.025 A 
ATOM     14  C   UNL     1      -5.357   4.429  16.268  1.00  0.00     0.157 A 
ATOM     15  C   UNL     1      -4.306   4.064  15.420  1.00  0.00     0.051 A 
ATOM     16  C   UNL     1      -5.738   5.780  16.368  1.00  0.00     0.158 A 
ATOM     17  C   UNL     1      -3.631   5.035  14.675  1.00  0.00     0.016 A 
ATOM     18  C   UNL     1      -5.054   6.751  15.625  1.00  0.00     0.062 A 
BRANCH  14  19
ATOM     19  O   UNL     1      -6.015   3.440  16.999  1.00  0.00    -0.504 OA
ATOM     20  H   UNL     1      -6.889   3.035  16.686  1.00  0.00     0.293 HD
ENDBRANCH  14  19
BRANCH  16  21
ATOM     21  O   UNL     1      -6.790   6.151  17.204  1.00  0.00    -0.504 OA
ATOM     22  H   UNL     1      -6.657   6.277  18.200  1.00  0.00     0.293 HD
ENDBRANCH  16  21
ENDBRANCH   3  13
BRANCH  10  23
ATOM     23  O   UNL     1      -1.359  11.045  10.871  1.00  0.00    -0.507 OA
ATOM     24  H   UNL     1      -1.986  10.648  10.185  1.00  0.00     0.293 HD
ENDBRANCH  10  23
BRANCH  11  25
ATOM     25  O   UNL     1       1.355  11.122  14.834  1.00  0.00    -0.508 OA
ATOM     26  H   UNL     1       1.312  11.247  15.837  1.00  0.00     0.293 HD
ENDBRANCH  11  25
ENDBRANCH   1   2
BRANCH   1  27
ATOM     27  C   UNL     1      -6.039   7.277  12.129  1.00  0.00     0.339 C 
ATOM     28  C   UNL     1      -6.497   7.576  10.686  1.00  0.00     0.214 C 
ATOM     29  O   UNL     1      -6.753   6.165  12.642  1.00  0.00    -0.332 OA
ATOM     30  C   UNL     1      -8.020   7.813  10.615  1.00  0.00     0.180 C 
ATOM     31  C   UNL     1      -8.130   6.476  12.783  1.00  0.00     0.179 C 
ATOM     32  C   UNL     1      -8.777   6.715  11.393  1.00  0.00     0.177 C 
BRANCH  28  33
ATOM     33  O   UNL     1      -5.791   8.657  10.127  1.00  0.00    -0.384 OA
ATOM     34  H   UNL     1      -6.236   8.909   9.277  1.00  0.00     0.211 HD
ENDBRANCH  28  33
BRANCH  30  35
ATOM     35  O   UNL     1      -8.376   9.105  11.052  1.00  0.00    -0.387 OA
ATOM     36  H   UNL     1      -8.501   9.080  12.034  1.00  0.00     0.211 HD
ENDBRANCH  30  35
BRANCH  31  37
ATOM     37  C   UNL     1      -8.815   5.328  13.542  1.00  0.00     0.191 C 
BRANCH  37  38
ATOM     38  O   UNL     1      -8.089   4.134  13.420  1.00  0.00    -0.394 OA
ATOM     39  H   UNL     1      -8.490   3.486  14.058  1.00  0.00     0.210 HD
ENDBRANCH  37  38
ENDBRANCH  31  37
BRANCH  32  40
ATOM     40  O   UNL     1     -10.125   7.091  11.536  1.00  0.00    -0.387 OA
ATOM     41  H   UNL     1     -10.367   7.633  10.740  1.00  0.00     0.211 HD
ENDBRANCH  32  40
ENDBRANCH   1  27
TORSDOF 12
ENDMDL
MODEL 7
REMARK VINA RESULT:    -5.322      1.799      5.317
REMARK INTER + INTRA:          -9.493
REMARK INTER:                  -8.574
REMARK INTRA:                  -0.919
REMARK UNBOUND:                -1.683
REMARK SMILES O=c1c(O[C@@H]2O[C@H](CO)[C@@H](O)[C@@H](O)[C@H]2O)c(-c2ccc(O)c(O)c2)oc2cc(O)cc(O)c12
REMARK SMILES IDX 4 1 3 2 16 3 25 4 2 5 26 6 1 7 33 8 27 9 31 10 28 11 30 12
REMARK SMILES IDX 17 13 20 14 19 15 22 16 18 17 24 18 21 19 23 21 32 23 29 25
REMARK SMILES IDX 5 27 14 28 6 29 12 30 7 31 10 32 15 33 13 35 8 37 9 38 11 40
REMARK H PARENT 21 20 23 22 32 24 29 26 15 34 13 36 9 39 11 41
REMARK Flexibility Score: inf
ROOT
ATOM      1  O   UNL     1      -4.245   7.373  14.173  1.00  0.00    -0.454 OA
ENDROOT
BRANCH   1   2
ATOM      2  C   UNL     1      -3.762   6.254  14.882  1.00  0.00     0.214 A 
ATOM      3  C   UNL     1      -4.676   5.231  15.188  1.00  0.00     0.180 A 
ATOM      4  O   UNL     1      -4.282   4.156  15.857  1.00  0.00    -0.452 OA
ATOM      5  C   UNL     1      -2.422   6.105  15.308  1.00  0.00     0.239 A 
ATOM      6  C   UNL     1      -3.039   3.976  16.280  1.00  0.00     0.146 A 
ATOM      7  O   UNL     1      -1.559   6.958  14.972  1.00  0.00    -0.285 OA
ATOM      8  C   UNL     1      -2.049   4.970  16.071  1.00  0.00     0.111 A 
ATOM      9  C   UNL     1      -2.719   2.780  16.929  1.00  0.00     0.094 A 
ATOM     10  C   UNL     1      -0.745   4.752  16.606  1.00  0.00     0.134 A 
ATOM     11  C   UNL     1      -1.423   2.545  17.380  1.00  0.00     0.123 A 
ATOM     12  C   UNL     1      -0.443   3.528  17.216  1.00  0.00     0.093 A 
BRANCH   3  13
ATOM     13  C   UNL     1      -6.094   5.323  14.786  1.00  0.00     0.025 A 
ATOM     14  C   UNL     1      -8.792   5.462  14.005  1.00  0.00     0.157 A 
ATOM     15  C   UNL     1      -7.868   4.754  13.228  1.00  0.00     0.051 A 
ATOM     16  C   UNL     1      -8.365   6.117  15.175  1.00  0.00     0.158 A 
ATOM     17  C   UNL     1      -6.525   4.692  13.610  1.00  0.00     0.016 A 
ATOM     18  C   UNL     1      -7.018   6.046  15.559  1.00  0.00     0.062 A 
BRANCH  14  19
ATOM     19  O   UNL     1     -10.125   5.509  13.601  1.00  0.00    -0.504 OA
ATOM     20  H   UNL     1     -10.730   6.285  13.841  1.00  0.00     0.293 HD
ENDBRANCH  14  19
BRANCH  16  21
ATOM     21  O   UNL     1      -9.276   6.832  15.950  1.00  0.00    -0.504 OA
ATOM     22  H   UNL     1      -9.261   7.844  15.987  1.00  0.00     0.293 HD
ENDBRANCH  16  21
ENDBRANCH   3  13
BRANCH  10  23
ATOM     23  O   UNL     1       0.270   5.714  16.597  1.00  0.00    -0.507 OA
ATOM     24  H   UNL     1       0.334   6.480  17.252  1.00  0.00     0.293 HD
ENDBRANCH  10  23
BRANCH  11  25
ATOM     25  O   UNL     1      -1.118   1.334  17.998  1.00  0.00    -0.508 OA
ATOM     26  H   UNL     1      -1.728   0.530  17.913  1.00  0.00     0.293 HD
ENDBRANCH  11  25
ENDBRANCH   1   2
BRANCH   1  27
ATOM     27  C   UNL     1      -3.789   7.870  12.916  1.00  0.00     0.339 C 
ATOM     28  C   UNL     1      -4.949   8.648  12.259  1.00  0.00     0.214 C 
ATOM     29  O   UNL     1      -2.690   8.738  13.136  1.00  0.00    -0.332 OA
ATOM     30  C   UNL     1      -4.503   9.324  10.946  1.00  0.00     0.180 C 
ATOM     31  C   UNL     1      -2.145   9.179  11.903  1.00  0.00     0.179 C 
ATOM     32  C   UNL     1      -3.165  10.069  11.146  1.00  0.00     0.177 C 
BRANCH  28  33
ATOM     33  O   UNL     1      -6.074   7.829  12.050  1.00  0.00    -0.384 OA
ATOM     34  H   UNL     1      -6.647   7.880  12.858  1.00  0.00     0.211 HD
ENDBRANCH  28  33
BRANCH  30  35
ATOM     35  O   UNL     1      -4.439   8.410   9.875  1.00  0.00    -0.387 OA
ATOM     36  H   UNL     1      -3.517   8.052   9.823  1.00  0.00     0.211 HD
ENDBRANCH  30  35
BRANCH  31  37
ATOM     37  C   UNL     1      -0.833   9.929  12.188  1.00  0.00     0.191 C 
BRANCH  37  38
ATOM     38  O   UNL     1      -0.205   9.432  13.339  1.00  0.00    -0.394 OA
ATOM     39  H   UNL     1      -0.788   9.665  14.109  1.00  0.00     0.210 HD
ENDBRANCH  37  38
ENDBRANCH  31  37
BRANCH  32  40
ATOM     40  O   UNL     1      -2.652  10.448   9.892  1.00  0.00    -0.387 OA
ATOM     41  H   UNL     1      -3.419  10.749   9.338  1.00  0.00     0.211 HD
ENDBRANCH  32  40
ENDBRANCH   1  27
TORSDOF 12
ENDMDL
MODEL 8
REMARK VINA RESULT:    -5.209     11.834     17.473
REMARK INTER + INTRA:          -9.328
REMARK INTER:                  -7.887
REMARK INTRA:                  -1.441
REMARK UNBOUND:                -1.683
REMARK SMILES O=c1c(O[C@@H]2O[C@H](CO)[C@@H](O)[C@@H](O)[C@H]2O)c(-c2ccc(O)c(O)c2)oc2cc(O)cc(O)c12
REMARK SMILES IDX 4 1 3 2 16 3 25 4 2 5 26 6 1 7 33 8 27 9 31 10 28 11 30 12
REMARK SMILES IDX 17 13 20 14 19 15 22 16 18 17 24 18 21 19 23 21 32 23 29 25
REMARK SMILES IDX 5 27 14 28 6 29 12 30 7 31 10 32 15 33 13 35 8 37 9 38 11 40
REMARK H PARENT 21 20 23 22 32 24 29 26 15 34 13 36 9 39 11 41
REMARK Flexibility Score: inf
ROOT
ATOM      1  O   UNL     1      -7.488  -7.249  23.148  1.00  0.00    -0.454 OA
ENDROOT
BRANCH   1   2
ATOM      2  C   UNL     1      -7.215  -6.155  22.301  1.00  0.00     0.214 A 
ATOM      3  C   UNL     1      -5.962  -5.531  22.425  1.00  0.00     0.180 A 
ATOM      4  O   UNL     1      -5.649  -4.495  21.658  1.00  0.00    -0.452 OA
ATOM      5  C   UNL     1      -8.126  -5.647  21.347  1.00  0.00     0.239 A 
ATOM      6  C   UNL     1      -6.473  -3.981  20.755  1.00  0.00     0.146 A 
ATOM      7  O   UNL     1      -9.220  -6.238  21.147  1.00  0.00    -0.285 OA
ATOM      8  C   UNL     1      -7.781  -4.503  20.586  1.00  0.00     0.111 A 
ATOM      9  C   UNL     1      -6.021  -2.922  19.963  1.00  0.00     0.094 A 
ATOM     10  C   UNL     1      -8.647  -3.869  19.645  1.00  0.00     0.134 A 
ATOM     11  C   UNL     1      -6.849  -2.361  18.994  1.00  0.00     0.123 A 
ATOM     12  C   UNL     1      -8.154  -2.835  18.838  1.00  0.00     0.093 A 
BRANCH   3  13
ATOM     13  C   UNL     1      -4.965  -6.000  23.407  1.00  0.00     0.025 A 
ATOM     14  C   UNL     1      -3.043  -6.905  25.250  1.00  0.00     0.157 A 
ATOM     15  C   UNL     1      -3.284  -7.622  24.072  1.00  0.00     0.051 A 
ATOM     16  C   UNL     1      -3.775  -5.734  25.517  1.00  0.00     0.158 A 
ATOM     17  C   UNL     1      -4.245  -7.178  23.159  1.00  0.00     0.016 A 
ATOM     18  C   UNL     1      -4.733  -5.288  24.596  1.00  0.00     0.062 A 
BRANCH  14  19
ATOM     19  O   UNL     1      -2.079  -7.370  26.143  1.00  0.00    -0.504 OA
ATOM     20  H   UNL     1      -1.525  -6.739  26.710  1.00  0.00     0.293 HD
ENDBRANCH  14  19
BRANCH  16  21
ATOM     21  O   UNL     1      -3.548  -5.019  26.692  1.00  0.00    -0.504 OA
ATOM     22  H   UNL     1      -2.631  -4.979  27.119  1.00  0.00     0.293 HD
ENDBRANCH  16  21
ENDBRANCH   3  13
BRANCH  10  23
ATOM     23  O   UNL     1      -9.999  -4.191  19.494  1.00  0.00    -0.507 OA
ATOM     24  H   UNL     1     -10.557  -4.653  20.199  1.00  0.00     0.293 HD
ENDBRANCH  10  23
BRANCH  11  25
ATOM     25  O   UNL     1      -6.369  -1.325  18.195  1.00  0.00    -0.508 OA
ATOM     26  H   UNL     1      -6.734  -1.163  17.265  1.00  0.00     0.293 HD
ENDBRANCH  11  25
ENDBRANCH   1   2
BRANCH   1  27
ATOM     27  C   UNL     1      -7.841  -7.214  24.529  1.00  0.00     0.339 C 
ATOM     28  C   UNL     1      -9.352  -7.509  24.645  1.00  0.00     0.214 C 
ATOM     29  O   UNL     1      -7.101  -8.205  25.220  1.00  0.00    -0.332 OA
ATOM     30  C   UNL     1      -9.796  -7.609  26.119  1.00  0.00     0.180 C 
ATOM     31  C   UNL     1      -7.352  -8.138  26.615  1.00  0.00     0.179 C 
ATOM     32  C   UNL     1      -8.828  -8.508  26.918  1.00  0.00     0.177 C 
BRANCH  28  33
ATOM     33  O   UNL     1     -10.125  -6.563  23.946  1.00  0.00    -0.384 OA
ATOM     34  H   UNL     1      -9.849  -6.584  22.994  1.00  0.00     0.211 HD
ENDBRANCH  28  33
BRANCH  30  35
ATOM     35  O   UNL     1      -9.946  -6.340  26.713  1.00  0.00    -0.387 OA
ATOM     36  H   UNL     1     -10.695  -5.872  26.265  1.00  0.00     0.211 HD
ENDBRANCH  30  35
BRANCH  31  37
ATOM     37  C   UNL     1      -6.368  -9.074  27.335  1.00  0.00     0.191 C 
BRANCH  37  38
ATOM     38  O   UNL     1      -6.145  -8.657  28.656  1.00  0.00    -0.394 OA
ATOM     39  H   UNL     1      -6.477  -9.384  29.247  1.00  0.00     0.210 HD
ENDBRANCH  37  38
ENDBRANCH  31  37
BRANCH  32  40
ATOM     40  O   UNL     1      -9.096  -8.373  28.293  1.00  0.00    -0.387 OA
ATOM     41  H   UNL     1      -9.324  -9.275  28.640  1.00  0.00     0.211 HD
ENDBRANCH  32  40
ENDBRANCH   1  27
TORSDOF 12
ENDMDL
