MODEL 1
REMARK VINA RESULT:    -6.932      0.000      0.000
REMARK INTER + INTRA:          -8.782
REMARK INTER:                  -8.351
REMARK INTRA:                  -0.431
REMARK UNBOUND:                -0.431
REMARK SMILES O=c1c(O)c(-c2ccc(O)cc2O)oc2cc(O)cc(O)c12
REMARK SMILES IDX 5 1 3 2 2 3 1 4 22 5 20 6 19 7 17 8 16 9 15 10 14 11 6 12
REMARK SMILES IDX 8 13 7 14 9 15 11 16 12 17 10 18 13 20 4 22 21 24 18 26
REMARK H PARENT 10 19 13 21 4 23 21 25 18 27
REMARK Flexibility Score: inf
ROOT
ATOM      1  C   UNL     1     100.843 117.575 121.694  1.00  0.00     0.184 A 
ATOM      2  C   UNL     1      99.991 118.497 122.328  1.00  0.00     0.208 A 
ATOM      3  C   UNL     1     100.035 118.609 123.725  1.00  0.00     0.238 A 
ATOM      4  O   UNL     1      99.284 119.441 124.305  1.00  0.00    -0.285 OA
ATOM      5  C   UNL     1     100.912 117.788 124.463  1.00  0.00     0.111 A 
ATOM      6  C   UNL     1     101.015 117.837 125.874  1.00  0.00     0.134 A 
ATOM      7  C   UNL     1     101.906 116.978 126.537  1.00  0.00     0.093 A 
ATOM      8  C   UNL     1     102.694 116.075 125.815  1.00  0.00     0.123 A 
ATOM      9  C   UNL     1     102.596 116.023 124.424  1.00  0.00     0.094 A 
ATOM     10  C   UNL     1     101.716 116.870 123.745  1.00  0.00     0.146 A 
ATOM     11  O   UNL     1     101.646 116.804 122.420  1.00  0.00    -0.451 OA
ENDROOT
BRANCH   1  12
ATOM     12  C   UNL     1     100.855 117.413 120.225  1.00  0.00     0.063 A 
ATOM     13  C   UNL     1      99.804 116.516 118.225  1.00  0.00     0.047 A 
ATOM     14  C   UNL     1      99.819 116.692 119.610  1.00  0.00     0.020 A 
ATOM     15  C   UNL     1     100.830 117.044 117.437  1.00  0.00     0.119 A 
ATOM     16  C   UNL     1     101.881 117.744 118.043  1.00  0.00     0.093 A 
ATOM     17  C   UNL     1     101.907 117.921 119.434  1.00  0.00     0.130 A 
BRANCH  15  18
ATOM     18  O   UNL     1     100.799 116.864 116.056  1.00  0.00    -0.508 OA
ATOM     19  H   UNL     1     101.641 116.669 115.528  1.00  0.00     0.293 HD
ENDBRANCH  15  18
BRANCH  17  20
ATOM     20  O   UNL     1     102.983 118.578 120.031  1.00  0.00    -0.507 OA
ATOM     21  H   UNL     1     102.851 119.228 120.796  1.00  0.00     0.293 HD
ENDBRANCH  17  20
ENDBRANCH   1  12
BRANCH   2  22
ATOM     22  O   UNL     1      99.101 119.264 121.572  1.00  0.00    -0.502 OA
ATOM     23  H   UNL     1      98.841 119.015 120.625  1.00  0.00     0.293 HD
ENDBRANCH   2  22
BRANCH   6  24
ATOM     24  O   UNL     1     100.242 118.726 126.620  1.00  0.00    -0.507 OA
ATOM     25  H   UNL     1      99.449 119.212 126.217  1.00  0.00     0.293 HD
ENDBRANCH   6  24
BRANCH   8  26
ATOM     26  O   UNL     1     103.578 115.221 126.473  1.00  0.00    -0.508 OA
ATOM     27  H   UNL     1     103.251 114.527 127.135  1.00  0.00     0.293 HD
ENDBRANCH   8  26
TORSDOF 6
ENDMDL
MODEL 2
REMARK VINA RESULT:    -6.720      1.764      6.508
REMARK INTER + INTRA:          -8.526
REMARK INTER:                  -8.462
REMARK INTRA:                  -0.063
REMARK UNBOUND:                -0.431
REMARK SMILES O=c1c(O)c(-c2ccc(O)cc2O)oc2cc(O)cc(O)c12
REMARK SMILES IDX 5 1 3 2 2 3 1 4 22 5 20 6 19 7 17 8 16 9 15 10 14 11 6 12
REMARK SMILES IDX 8 13 7 14 9 15 11 16 12 17 10 18 13 20 4 22 21 24 18 26
REMARK H PARENT 10 19 13 21 4 23 21 25 18 27
REMARK Flexibility Score: inf
ROOT
ATOM      1  C   UNL     1     101.085 115.989 122.855  1.00  0.00     0.184 A 
ATOM      2  C   UNL     1     100.336 117.161 123.061  1.00  0.00     0.208 A 
ATOM      3  C   UNL     1      99.802 117.827 121.947  1.00  0.00     0.238 A 
ATOM      4  O   UNL     1      99.119 118.873 122.118  1.00  0.00    -0.285 OA
ATOM      5  C   UNL     1     100.043 117.322 120.652  1.00  0.00     0.111 A 
ATOM      6  C   UNL     1      99.545 117.936 119.478  1.00  0.00     0.134 A 
ATOM      7  C   UNL     1      99.836 117.377 118.224  1.00  0.00     0.093 A 
ATOM      8  C   UNL     1     100.615 116.219 118.124  1.00  0.00     0.123 A 
ATOM      9  C   UNL     1     101.109 115.611 119.280  1.00  0.00     0.094 A 
ATOM     10  C   UNL     1     100.829 116.151 120.537  1.00  0.00     0.146 A 
ATOM     11  O   UNL     1     101.306 115.549 121.621  1.00  0.00    -0.451 OA
ENDROOT
BRANCH   1  12
ATOM     12  C   UNL     1     101.666 115.232 123.984  1.00  0.00     0.063 A 
ATOM     13  C   UNL     1     102.856 115.250 126.104  1.00  0.00     0.047 A 
ATOM     14  C   UNL     1     102.292 115.936 125.025  1.00  0.00     0.020 A 
ATOM     15  C   UNL     1     102.815 113.855 126.150  1.00  0.00     0.119 A 
ATOM     16  C   UNL     1     102.213 113.142 125.105  1.00  0.00     0.093 A 
ATOM     17  C   UNL     1     101.649 113.822 124.015  1.00  0.00     0.130 A 
BRANCH  15  18
ATOM     18  O   UNL     1     103.377 113.186 127.235  1.00  0.00    -0.508 OA
ATOM     19  H   UNL     1     104.376 113.035 127.304  1.00  0.00     0.293 HD
ENDBRANCH  15  18
BRANCH  17  20
ATOM     20  O   UNL     1     101.096 113.100 122.957  1.00  0.00    -0.507 OA
ATOM     21  H   UNL     1     101.189 112.093 122.895  1.00  0.00     0.293 HD
ENDBRANCH  17  20
ENDBRANCH   1  12
BRANCH   2  22
ATOM     22  O   UNL     1     100.153 117.661 124.353  1.00  0.00    -0.502 OA
ATOM     23  H   UNL     1      99.944 117.059 125.141  1.00  0.00     0.293 HD
ENDBRANCH   2  22
BRANCH   6  24
ATOM     24  O   UNL     1      98.766 119.091 119.545  1.00  0.00    -0.507 OA
ATOM     25  H   UNL     1      99.080 119.970 119.151  1.00  0.00     0.293 HD
ENDBRANCH   6  24
BRANCH   8  26
ATOM     26  O   UNL     1     100.906 115.664 116.879  1.00  0.00    -0.508 OA
ATOM     27  H   UNL     1     101.575 116.094 116.250  1.00  0.00     0.293 HD
ENDBRANCH   8  26
TORSDOF 6
ENDMDL
MODEL 3
REMARK VINA RESULT:    -6.699     10.045     11.745
REMARK INTER + INTRA:          -8.501
REMARK INTER:                  -8.073
REMARK INTRA:                  -0.428
REMARK UNBOUND:                -0.431
REMARK SMILES O=c1c(O)c(-c2ccc(O)cc2O)oc2cc(O)cc(O)c12
REMARK SMILES IDX 5 1 3 2 2 3 1 4 22 5 20 6 19 7 17 8 16 9 15 10 14 11 6 12
REMARK SMILES IDX 8 13 7 14 9 15 11 16 12 17 10 18 13 20 4 22 21 24 18 26
REMARK H PARENT 10 19 13 21 4 23 21 25 18 27
REMARK Flexibility Score: inf
ROOT
ATOM      1  C   UNL     1     100.418 107.926 115.675  1.00  0.00     0.184 A 
ATOM      2  C   UNL     1     100.239 108.902 116.670  1.00  0.00     0.208 A 
ATOM      3  C   UNL     1     100.608 108.600 117.989  1.00  0.00     0.238 A 
ATOM      4  O   UNL     1     100.464 109.471 118.890  1.00  0.00    -0.285 OA
ATOM      5  C   UNL     1     101.130 107.324 118.291  1.00  0.00     0.111 A 
ATOM      6  C   UNL     1     101.523 106.939 119.596  1.00  0.00     0.134 A 
ATOM      7  C   UNL     1     102.025 105.647 119.817  1.00  0.00     0.093 A 
ATOM      8  C   UNL     1     102.139 104.737 118.761  1.00  0.00     0.123 A 
ATOM      9  C   UNL     1     101.753 105.113 117.473  1.00  0.00     0.094 A 
ATOM     10  C   UNL     1     101.252 106.395 117.232  1.00  0.00     0.146 A 
ATOM     11  O   UNL     1     100.897 106.729 115.996  1.00  0.00    -0.451 OA
ENDROOT
BRANCH   1  12
ATOM     12  C   UNL     1     100.060 108.182 114.263  1.00  0.00     0.063 A 
ATOM     13  C   UNL     1      98.335 108.394 112.563  1.00  0.00     0.047 A 
ATOM     14  C   UNL     1      98.707 108.162 113.890  1.00  0.00     0.020 A 
ATOM     15  C   UNL     1      99.309 108.635 111.592  1.00  0.00     0.119 A 
ATOM     16  C   UNL     1     100.664 108.635 111.949  1.00  0.00     0.093 A 
ATOM     17  C   UNL     1     101.046 108.396 113.278  1.00  0.00     0.130 A 
BRANCH  15  18
ATOM     18  O   UNL     1      98.923 108.871 110.274  1.00  0.00    -0.508 OA
ATOM     19  H   UNL     1      99.539 108.666 109.497  1.00  0.00     0.293 HD
ENDBRANCH  15  18
BRANCH  17  20
ATOM     20  O   UNL     1     102.400 108.350 113.613  1.00  0.00    -0.507 OA
ATOM     21  H   UNL     1     102.957 107.519 113.455  1.00  0.00     0.293 HD
ENDBRANCH  17  20
ENDBRANCH   1  12
BRANCH   2  22
ATOM     22  O   UNL     1      99.677 110.141 116.346  1.00  0.00    -0.502 OA
ATOM     23  H   UNL     1      99.245 110.320 115.448  1.00  0.00     0.293 HD
ENDBRANCH   2  22
BRANCH   6  24
ATOM     24  O   UNL     1     101.420 107.824 120.669  1.00  0.00    -0.507 OA
ATOM     25  H   UNL     1     102.236 108.144 121.176  1.00  0.00     0.293 HD
ENDBRANCH   6  24
BRANCH   8  26
ATOM     26  O   UNL     1     102.636 103.453 118.981  1.00  0.00    -0.508 OA
ATOM     27  H   UNL     1     102.775 103.092 119.918  1.00  0.00     0.293 HD
ENDBRANCH   8  26
TORSDOF 6
ENDMDL
MODEL 4
REMARK VINA RESULT:    -6.521     10.776     12.019
REMARK INTER + INTRA:          -8.286
REMARK INTER:                  -7.984
REMARK INTRA:                  -0.303
REMARK UNBOUND:                -0.431
REMARK SMILES O=c1c(O)c(-c2ccc(O)cc2O)oc2cc(O)cc(O)c12
REMARK SMILES IDX 5 1 3 2 2 3 1 4 22 5 20 6 19 7 17 8 16 9 15 10 14 11 6 12
REMARK SMILES IDX 8 13 7 14 9 15 11 16 12 17 10 18 13 20 4 22 21 24 18 26
REMARK H PARENT 10 19 13 21 4 23 21 25 18 27
REMARK Flexibility Score: inf
ROOT
ATOM      1  C   UNL     1      99.674 108.647 114.866  1.00  0.00     0.184 A 
ATOM      2  C   UNL     1     100.769 109.498 115.097  1.00  0.00     0.208 A 
ATOM      3  C   UNL     1     101.825 109.039 115.899  1.00  0.00     0.238 A 
ATOM      4  O   UNL     1     102.819 109.788 116.104  1.00  0.00    -0.285 OA
ATOM      5  C   UNL     1     101.758 107.751 116.469  1.00  0.00     0.111 A 
ATOM      6  C   UNL     1     102.778 107.215 117.291  1.00  0.00     0.134 A 
ATOM      7  C   UNL     1     102.633 105.927 117.829  1.00  0.00     0.093 A 
ATOM      8  C   UNL     1     101.488 105.168 117.560  1.00  0.00     0.123 A 
ATOM      9  C   UNL     1     100.480 105.693 116.750  1.00  0.00     0.094 A 
ATOM     10  C   UNL     1     100.606 106.972 116.204  1.00  0.00     0.146 A 
ATOM     11  O   UNL     1      99.634 107.445 115.431  1.00  0.00    -0.451 OA
ENDROOT
BRANCH   1  12
ATOM     12  C   UNL     1      98.533 109.063 114.023  1.00  0.00     0.063 A 
ATOM     13  C   UNL     1      97.285 108.821 111.951  1.00  0.00     0.047 A 
ATOM     14  C   UNL     1      98.349 108.448 112.774  1.00  0.00     0.020 A 
ATOM     15  C   UNL     1      96.399 109.823 112.356  1.00  0.00     0.119 A 
ATOM     16  C   UNL     1      96.586 110.459 113.590  1.00  0.00     0.093 A 
ATOM     17  C   UNL     1      97.657 110.095 114.421  1.00  0.00     0.130 A 
BRANCH  15  18
ATOM     18  O   UNL     1      95.339 110.181 111.526  1.00  0.00    -0.508 OA
ATOM     19  H   UNL     1      95.473 110.794 110.731  1.00  0.00     0.293 HD
ENDBRANCH  15  18
BRANCH  17  20
ATOM     20  O   UNL     1      97.862 110.769 115.625  1.00  0.00    -0.507 OA
ATOM     21  H   UNL     1      98.557 111.501 115.711  1.00  0.00     0.293 HD
ENDBRANCH  17  20
ENDBRANCH   1  12
BRANCH   2  22
ATOM     22  O   UNL     1     100.785 110.786 114.554  1.00  0.00    -0.502 OA
ATOM     23  H   UNL     1     100.675 111.615 115.126  1.00  0.00     0.293 HD
ENDBRANCH   2  22
BRANCH   6  24
ATOM     24  O   UNL     1     103.930 107.948 117.577  1.00  0.00    -0.507 OA
ATOM     25  H   UNL     1     103.900 108.949 117.729  1.00  0.00     0.293 HD
ENDBRANCH   6  24
BRANCH   8  26
ATOM     26  O   UNL     1     101.342 103.889 118.096  1.00  0.00    -0.508 OA
ATOM     27  H   UNL     1     102.095 103.438 118.602  1.00  0.00     0.293 HD
ENDBRANCH   8  26
TORSDOF 6
ENDMDL
MODEL 5
REMARK VINA RESULT:    -6.426      2.871      5.199
REMARK INTER + INTRA:          -8.172
REMARK INTER:                  -7.778
REMARK INTRA:                  -0.395
REMARK UNBOUND:                -0.431
REMARK SMILES O=c1c(O)c(-c2ccc(O)cc2O)oc2cc(O)cc(O)c12
REMARK SMILES IDX 5 1 3 2 2 3 1 4 22 5 20 6 19 7 17 8 16 9 15 10 14 11 6 12
REMARK SMILES IDX 8 13 7 14 9 15 11 16 12 17 10 18 13 20 4 22 21 24 18 26
REMARK H PARENT 10 19 13 21 4 23 21 25 18 27
REMARK Flexibility Score: inf
ROOT
ATOM      1  C   UNL     1     101.888 115.430 123.460  1.00  0.00     0.184 A 
ATOM      2  C   UNL     1     102.238 115.778 124.776  1.00  0.00     0.208 A 
ATOM      3  C   UNL     1     101.725 116.965 125.322  1.00  0.00     0.238 A 
ATOM      4  O   UNL     1     102.022 117.283 126.506  1.00  0.00    -0.285 OA
ATOM      5  C   UNL     1     100.890 117.788 124.538  1.00  0.00     0.111 A 
ATOM      6  C   UNL     1     100.335 119.001 125.012  1.00  0.00     0.134 A 
ATOM      7  C   UNL     1      99.520 119.770 124.166  1.00  0.00     0.093 A 
ATOM      8  C   UNL     1      99.252 119.348 122.859  1.00  0.00     0.123 A 
ATOM      9  C   UNL     1      99.797 118.152 122.388  1.00  0.00     0.094 A 
ATOM     10  C   UNL     1     100.610 117.372 123.215  1.00  0.00     0.146 A 
ATOM     11  O   UNL     1     101.112 116.236 122.743  1.00  0.00    -0.451 OA
ENDROOT
BRANCH   1  12
ATOM     12  C   UNL     1     102.384 114.189 122.827  1.00  0.00     0.063 A 
ATOM     13  C   UNL     1     103.966 113.110 121.331  1.00  0.00     0.047 A 
ATOM     14  C   UNL     1     103.476 114.263 121.949  1.00  0.00     0.020 A 
ATOM     15  C   UNL     1     103.363 111.873 121.570  1.00  0.00     0.119 A 
ATOM     16  C   UNL     1     102.258 111.792 122.426  1.00  0.00     0.093 A 
ATOM     17  C   UNL     1     101.755 112.945 123.047  1.00  0.00     0.130 A 
BRANCH  15  18
ATOM     18  O   UNL     1     103.866 110.731 120.949  1.00  0.00    -0.508 OA
ATOM     19  H   UNL     1     104.808 110.701 120.579  1.00  0.00     0.293 HD
ENDBRANCH  15  18
BRANCH  17  20
ATOM     20  O   UNL     1     100.625 112.860 123.859  1.00  0.00    -0.507 OA
ATOM     21  H   UNL     1     100.271 113.665 124.364  1.00  0.00     0.293 HD
ENDBRANCH  17  20
ENDBRANCH   1  12
BRANCH   2  22
ATOM     22  O   UNL     1     103.104 114.964 125.511  1.00  0.00    -0.502 OA
ATOM     23  H   UNL     1     102.789 114.122 125.978  1.00  0.00     0.293 HD
ENDBRANCH   2  22
BRANCH   6  24
ATOM     24  O   UNL     1     100.585 119.447 126.309  1.00  0.00    -0.507 OA
ATOM     25  H   UNL     1      99.900 119.982 126.830  1.00  0.00     0.293 HD
ENDBRANCH   6  24
BRANCH   8  26
ATOM     26  O   UNL     1      98.444 120.112 122.018  1.00  0.00    -0.508 OA
ATOM     27  H   UNL     1      97.508 119.814 121.769  1.00  0.00     0.293 HD
ENDBRANCH   8  26
TORSDOF 6
ENDMDL
MODEL 6
REMARK VINA RESULT:    -6.419     10.039     11.790
REMARK INTER + INTRA:          -8.163
REMARK INTER:                  -7.969
REMARK INTRA:                  -0.194
REMARK UNBOUND:                -0.431
REMARK SMILES O=c1c(O)c(-c2ccc(O)cc2O)oc2cc(O)cc(O)c12
REMARK SMILES IDX 5 1 3 2 2 3 1 4 22 5 20 6 19 7 17 8 16 9 15 10 14 11 6 12
REMARK SMILES IDX 8 13 7 14 9 15 11 16 12 17 10 18 13 20 4 22 21 24 18 26
REMARK H PARENT 10 19 13 21 4 23 21 25 18 27
REMARK Flexibility Score: inf
ROOT
ATOM      1  C   UNL     1     100.445 107.948 115.625  1.00  0.00     0.184 A 
ATOM      2  C   UNL     1     100.267 108.930 116.615  1.00  0.00     0.208 A 
ATOM      3  C   UNL     1     100.622 108.629 117.938  1.00  0.00     0.238 A 
ATOM      4  O   UNL     1     100.478 109.505 118.835  1.00  0.00    -0.285 OA
ATOM      5  C   UNL     1     101.130 107.350 118.249  1.00  0.00     0.111 A 
ATOM      6  C   UNL     1     101.509 106.966 119.558  1.00  0.00     0.134 A 
ATOM      7  C   UNL     1     101.997 105.670 119.788  1.00  0.00     0.093 A 
ATOM      8  C   UNL     1     102.112 104.755 118.736  1.00  0.00     0.123 A 
ATOM      9  C   UNL     1     101.740 105.130 117.444  1.00  0.00     0.094 A 
ATOM     10  C   UNL     1     101.253 106.416 117.194  1.00  0.00     0.146 A 
ATOM     11  O   UNL     1     100.911 106.748 115.954  1.00  0.00    -0.451 OA
ENDROOT
BRANCH   1  12
ATOM     12  C   UNL     1     100.101 108.203 114.210  1.00  0.00     0.063 A 
ATOM     13  C   UNL     1     100.832 108.424 111.902  1.00  0.00     0.047 A 
ATOM     14  C   UNL     1     101.122 108.182 113.246  1.00  0.00     0.020 A 
ATOM     15  C   UNL     1      99.523 108.703 111.504  1.00  0.00     0.119 A 
ATOM     16  C   UNL     1      98.500 108.749 112.460  1.00  0.00     0.093 A 
ATOM     17  C   UNL     1      98.783 108.513 113.813  1.00  0.00     0.130 A 
BRANCH  15  18
ATOM     18  O   UNL     1      99.248 108.937 110.158  1.00  0.00    -0.508 OA
ATOM     19  H   UNL     1      99.665 108.374 109.426  1.00  0.00     0.293 HD
ENDBRANCH  15  18
BRANCH  17  20
ATOM     20  O   UNL     1      97.766 108.609 114.763  1.00  0.00    -0.507 OA
ATOM     21  H   UNL     1      97.285 107.788 115.111  1.00  0.00     0.293 HD
ENDBRANCH  17  20
ENDBRANCH   1  12
BRANCH   2  22
ATOM     22  O   UNL     1      99.719 110.172 116.282  1.00  0.00    -0.502 OA
ATOM     23  H   UNL     1     100.107 111.043 116.624  1.00  0.00     0.293 HD
ENDBRANCH   2  22
BRANCH   6  24
ATOM     24  O   UNL     1     101.405 107.856 120.627  1.00  0.00    -0.507 OA
ATOM     25  H   UNL     1     102.033 108.644 120.728  1.00  0.00     0.293 HD
ENDBRANCH   6  24
BRANCH   8  26
ATOM     26  O   UNL     1     102.596 103.468 118.965  1.00  0.00    -0.508 OA
ATOM     27  H   UNL     1     101.970 102.688 119.130  1.00  0.00     0.293 HD
ENDBRANCH   8  26
TORSDOF 6
ENDMDL
MODEL 7
REMARK VINA RESULT:    -6.412      2.598      5.354
REMARK INTER + INTRA:          -8.155
REMARK INTER:                  -7.794
REMARK INTRA:                  -0.361
REMARK UNBOUND:                -0.431
REMARK SMILES O=c1c(O)c(-c2ccc(O)cc2O)oc2cc(O)cc(O)c12
REMARK SMILES IDX 5 1 3 2 2 3 1 4 22 5 20 6 19 7 17 8 16 9 15 10 14 11 6 12
REMARK SMILES IDX 8 13 7 14 9 15 11 16 12 17 10 18 13 20 4 22 21 24 18 26
REMARK H PARENT 10 19 13 21 4 23 21 25 18 27
REMARK Flexibility Score: inf
ROOT
ATOM      1  C   UNL     1     101.475 116.238 123.742  1.00  0.00     0.184 A 
ATOM      2  C   UNL     1     101.577 116.979 124.932  1.00  0.00     0.208 A 
ATOM      3  C   UNL     1     100.937 118.225 125.011  1.00  0.00     0.238 A 
ATOM      4  O   UNL     1     101.011 118.894 126.077  1.00  0.00    -0.285 OA
ATOM      5  C   UNL     1     100.227 118.715 123.895  1.00  0.00     0.111 A 
ATOM      6  C   UNL     1      99.558 119.962 123.891  1.00  0.00     0.134 A 
ATOM      7  C   UNL     1      98.879 120.384 122.736  1.00  0.00     0.093 A 
ATOM      8  C   UNL     1      98.860 119.583 121.590  1.00  0.00     0.123 A 
ATOM      9  C   UNL     1      99.518 118.352 121.589  1.00  0.00     0.094 A 
ATOM     10  C   UNL     1     100.198 117.913 122.729  1.00  0.00     0.146 A 
ATOM     11  O   UNL     1     100.812 116.735 122.703  1.00  0.00    -0.451 OA
ENDROOT
BRANCH   1  12
ATOM     12  C   UNL     1     102.116 114.914 123.595  1.00  0.00     0.063 A 
ATOM     13  C   UNL     1     101.918 112.492 123.666  1.00  0.00     0.047 A 
ATOM     14  C   UNL     1     101.343 113.758 123.791  1.00  0.00     0.020 A 
ATOM     15  C   UNL     1     103.274 112.362 123.357  1.00  0.00     0.119 A 
ATOM     16  C   UNL     1     104.060 113.509 123.182  1.00  0.00     0.093 A 
ATOM     17  C   UNL     1     103.492 114.785 123.312  1.00  0.00     0.130 A 
BRANCH  15  18
ATOM     18  O   UNL     1     103.833 111.092 123.230  1.00  0.00    -0.508 OA
ATOM     19  H   UNL     1     103.450 110.294 123.722  1.00  0.00     0.293 HD
ENDBRANCH  15  18
BRANCH  17  20
ATOM     20  O   UNL     1     104.294 115.919 123.183  1.00  0.00    -0.507 OA
ATOM     21  H   UNL     1     104.642 116.224 122.282  1.00  0.00     0.293 HD
ENDBRANCH  17  20
ENDBRANCH   1  12
BRANCH   2  22
ATOM     22  O   UNL     1     102.326 116.486 126.004  1.00  0.00    -0.502 OA
ATOM     23  H   UNL     1     103.097 115.842 125.875  1.00  0.00     0.293 HD
ENDBRANCH   2  22
BRANCH   6  24
ATOM     24  O   UNL     1      99.560 120.783 125.019  1.00  0.00    -0.507 OA
ATOM     25  H   UNL     1      99.051 121.658 125.042  1.00  0.00     0.293 HD
ENDBRANCH   6  24
BRANCH   8  26
ATOM     26  O   UNL     1      98.188 120.002 120.442  1.00  0.00    -0.508 OA
ATOM     27  H   UNL     1      98.637 119.998 119.534  1.00  0.00     0.293 HD
ENDBRANCH   8  26
TORSDOF 6
ENDMDL
MODEL 8
REMARK VINA RESULT:    -6.325      3.069      4.920
REMARK INTER + INTRA:          -8.050
REMARK INTER:                  -7.672
REMARK INTRA:                  -0.377
REMARK UNBOUND:                -0.431
REMARK SMILES O=c1c(O)c(-c2ccc(O)cc2O)oc2cc(O)cc(O)c12
REMARK SMILES IDX 5 1 3 2 2 3 1 4 22 5 20 6 19 7 17 8 16 9 15 10 14 11 6 12
REMARK SMILES IDX 8 13 7 14 9 15 11 16 12 17 10 18 13 20 4 22 21 24 18 26
REMARK H PARENT 10 19 13 21 4 23 21 25 18 27
REMARK Flexibility Score: inf
ROOT
ATOM      1  C   UNL     1     101.525 115.272 122.350  1.00  0.00     0.184 A 
ATOM      2  C   UNL     1     100.808 115.859 121.293  1.00  0.00     0.208 A 
ATOM      3  C   UNL     1     100.180 117.096 121.505  1.00  0.00     0.238 A 
ATOM      4  O   UNL     1      99.544 117.639 120.562  1.00  0.00    -0.285 OA
ATOM      5  C   UNL     1     100.265 117.711 122.772  1.00  0.00     0.111 A 
ATOM      6  C   UNL     1      99.658 118.955 123.069  1.00  0.00     0.134 A 
ATOM      7  C   UNL     1      99.780 119.498 124.358  1.00  0.00     0.093 A 
ATOM      8  C   UNL     1     100.495 118.821 125.351  1.00  0.00     0.123 A 
ATOM      9  C   UNL     1     101.095 117.594 125.062  1.00  0.00     0.094 A 
ATOM     10  C   UNL     1     100.987 117.037 123.785  1.00  0.00     0.146 A 
ATOM     11  O   UNL     1     101.572 115.870 123.535  1.00  0.00    -0.451 OA
ENDROOT
BRANCH   1  12
ATOM     12  C   UNL     1     102.219 113.976 122.191  1.00  0.00     0.063 A 
ATOM     13  C   UNL     1     103.966 112.674 121.113  1.00  0.00     0.047 A 
ATOM     14  C   UNL     1     103.292 113.884 121.291  1.00  0.00     0.020 A 
ATOM     15  C   UNL     1     103.568 111.537 121.820  1.00  0.00     0.119 A 
ATOM     16  C   UNL     1     102.484 111.612 122.704  1.00  0.00     0.093 A 
ATOM     17  C   UNL     1     101.798 112.822 122.884  1.00  0.00     0.130 A 
BRANCH  15  18
ATOM     18  O   UNL     1     104.252 110.337 121.636  1.00  0.00    -0.508 OA
ATOM     19  H   UNL     1     104.014 109.505 122.163  1.00  0.00     0.293 HD
ENDBRANCH  15  18
BRANCH  17  20
ATOM     20  O   UNL     1     100.689 112.873 123.730  1.00  0.00    -0.507 OA
ATOM     21  H   UNL     1     100.041 113.651 123.709  1.00  0.00     0.293 HD
ENDBRANCH  17  20
ENDBRANCH   1  12
BRANCH   2  22
ATOM     22  O   UNL     1     100.706 115.202 120.063  1.00  0.00    -0.502 OA
ATOM     23  H   UNL     1     100.443 114.227 119.992  1.00  0.00     0.293 HD
ENDBRANCH   2  22
BRANCH   6  24
ATOM     24  O   UNL     1      98.938 119.654 122.100  1.00  0.00    -0.507 OA
ATOM     25  H   UNL     1      98.174 120.272 122.346  1.00  0.00     0.293 HD
ENDBRANCH   6  24
BRANCH   8  26
ATOM     26  O   UNL     1     100.616 119.359 126.631  1.00  0.00    -0.508 OA
ATOM     27  H   UNL     1     101.299 119.007 127.292  1.00  0.00     0.293 HD
ENDBRANCH   8  26
TORSDOF 6
ENDMDL
MODEL 9
REMARK VINA RESULT:    -6.185      1.567      3.364
REMARK INTER + INTRA:          -7.882
REMARK INTER:                  -7.470
REMARK INTRA:                  -0.412
REMARK UNBOUND:                -0.431
REMARK SMILES O=c1c(O)c(-c2ccc(O)cc2O)oc2cc(O)cc(O)c12
REMARK SMILES IDX 5 1 3 2 2 3 1 4 22 5 20 6 19 7 17 8 16 9 15 10 14 11 6 12
REMARK SMILES IDX 8 13 7 14 9 15 11 16 12 17 10 18 13 20 4 22 21 24 18 26
REMARK H PARENT 10 19 13 21 4 23 21 25 18 27
REMARK Flexibility Score: inf
ROOT
ATOM      1  C   UNL     1     101.924 116.426 121.188  1.00  0.00     0.184 A 
ATOM      2  C   UNL     1     102.743 115.389 121.667  1.00  0.00     0.208 A 
ATOM      3  C   UNL     1     102.916 115.248 123.052  1.00  0.00     0.238 A 
ATOM      4  O   UNL     1     103.639 114.314 123.495  1.00  0.00    -0.285 OA
ATOM      5  C   UNL     1     102.285 116.155 123.929  1.00  0.00     0.111 A 
ATOM      6  C   UNL     1     102.412 116.084 125.337  1.00  0.00     0.134 A 
ATOM      7  C   UNL     1     101.760 117.031 126.142  1.00  0.00     0.093 A 
ATOM      8  C   UNL     1     100.987 118.045 125.566  1.00  0.00     0.123 A 
ATOM      9  C   UNL     1     100.859 118.118 124.177  1.00  0.00     0.094 A 
ATOM     10  C   UNL     1     101.499 117.184 123.358  1.00  0.00     0.146 A 
ATOM     11  O   UNL     1     101.357 117.274 122.040  1.00  0.00    -0.451 OA
ENDROOT
BRANCH   1  12
ATOM     12  C   UNL     1     101.689 116.625 119.742  1.00  0.00     0.063 A 
ATOM     13  C   UNL     1     102.547 117.313 117.574  1.00  0.00     0.047 A 
ATOM     14  C   UNL     1     102.737 117.109 118.943  1.00  0.00     0.020 A 
ATOM     15  C   UNL     1     101.306 117.051 116.989  1.00  0.00     0.119 A 
ATOM     16  C   UNL     1     100.247 116.590 117.782  1.00  0.00     0.093 A 
ATOM     17  C   UNL     1     100.427 116.387 119.158  1.00  0.00     0.130 A 
BRANCH  15  18
ATOM     18  O   UNL     1     101.133 117.255 115.622  1.00  0.00    -0.508 OA
ATOM     19  H   UNL     1     100.250 117.060 115.165  1.00  0.00     0.293 HD
ENDBRANCH  15  18
BRANCH  17  20
ATOM     20  O   UNL     1      99.352 115.975 119.946  1.00  0.00    -0.507 OA
ATOM     21  H   UNL     1      98.405 116.276 119.751  1.00  0.00     0.293 HD
ENDBRANCH  17  20
ENDBRANCH   1  12
BRANCH   2  22
ATOM     22  O   UNL     1     103.390 114.534 120.770  1.00  0.00    -0.502 OA
ATOM     23  H   UNL     1     103.470 113.538 120.935  1.00  0.00     0.293 HD
ENDBRANCH   2  22
BRANCH   6  24
ATOM     24  O   UNL     1     103.177 115.086 125.941  1.00  0.00    -0.507 OA
ATOM     25  H   UNL     1     102.849 114.585 126.758  1.00  0.00     0.293 HD
ENDBRANCH   6  24
BRANCH   8  26
ATOM     26  O   UNL     1     100.340 118.986 126.365  1.00  0.00    -0.508 OA
ATOM     27  H   UNL     1     100.407 119.979 126.173  1.00  0.00     0.293 HD
ENDBRANCH   8  26
TORSDOF 6
ENDMDL
