MODEL 1
REMARK VINA RESULT:    -6.021      0.000      0.000
REMARK INTER + INTRA:          -7.366
REMARK INTER:                  -7.077
REMARK INTRA:                  -0.288
REMARK UNBOUND:                -0.288
REMARK SMILES O=c1c(O)c(-c2ccc(O)cc2)oc2cc(O)cc(O)c12
REMARK SMILES IDX 5 1 3 2 2 3 1 4 21 5 19 6 18 7 16 8 15 9 14 10 13 11 6 12
REMARK SMILES IDX 7 13 8 14 9 15 12 16 11 17 10 18 4 20 20 22 17 24
REMARK H PARENT 10 19 4 21 20 23 17 25
REMARK Flexibility Score: inf
ROOT
ATOM      1  C   UNL     1     -16.479  -1.489   3.763  1.00  0.00     0.180 A 
ATOM      2  C   UNL     1     -16.060  -1.038   5.026  1.00  0.00     0.208 A 
ATOM      3  C   UNL     1     -14.748  -1.309   5.446  1.00  0.00     0.238 A 
ATOM      4  O   UNL     1     -14.361  -0.856   6.554  1.00  0.00    -0.285 OA
ATOM      5  C   UNL     1     -13.877  -2.042   4.604  1.00  0.00     0.111 A 
ATOM      6  C   UNL     1     -12.540  -2.409   4.944  1.00  0.00     0.134 A 
ATOM      7  C   UNL     1     -11.726  -3.019   3.982  1.00  0.00     0.093 A 
ATOM      8  C   UNL     1     -12.220  -3.337   2.717  1.00  0.00     0.123 A 
ATOM      9  C   UNL     1     -13.544  -3.037   2.394  1.00  0.00     0.094 A 
ATOM     10  C   UNL     1     -14.369  -2.394   3.320  1.00  0.00     0.146 A 
ATOM     11  O   UNL     1     -15.619  -2.116   2.970  1.00  0.00    -0.452 OA
ENDROOT
BRANCH   1  12
ATOM     12  C   UNL     1     -17.855  -1.264   3.263  1.00  0.00     0.021 A 
ATOM     13  C   UNL     1     -18.199  -0.092   2.563  1.00  0.00     0.016 A 
ATOM     14  C   UNL     1     -19.510   0.109   2.123  1.00  0.00     0.047 A 
ATOM     15  C   UNL     1     -20.497  -0.851   2.384  1.00  0.00     0.115 A 
ATOM     16  C   UNL     1     -18.856  -2.210   3.540  1.00  0.00     0.016 A 
ATOM     17  C   UNL     1     -20.166  -2.008   3.096  1.00  0.00     0.047 A 
BRANCH  15  18
ATOM     18  O   UNL     1     -21.806  -0.662   1.948  1.00  0.00    -0.508 OA
ATOM     19  H   UNL     1     -22.537  -0.363   2.582  1.00  0.00     0.293 HD
ENDBRANCH  15  18
ENDBRANCH   1  12
BRANCH   2  20
ATOM     20  O   UNL     1     -16.929  -0.298   5.833  1.00  0.00    -0.502 OA
ATOM     21  H   UNL     1     -16.766   0.676   6.057  1.00  0.00     0.293 HD
ENDBRANCH   2  20
BRANCH   6  22
ATOM     22  O   UNL     1     -11.977  -2.221   6.210  1.00  0.00    -0.507 OA
ATOM     23  H   UNL     1     -11.860  -2.947   6.900  1.00  0.00     0.293 HD
ENDBRANCH   6  22
BRANCH   8  24
ATOM     24  O   UNL     1     -11.387  -3.960   1.791  1.00  0.00    -0.508 OA
ATOM     25  H   UNL     1     -11.377  -4.967   1.678  1.00  0.00     0.293 HD
ENDBRANCH   8  24
TORSDOF 5
ENDMDL
MODEL 2
REMARK VINA RESULT:    -5.816      2.251      3.087
REMARK INTER + INTRA:          -7.125
REMARK INTER:                  -6.840
REMARK INTRA:                  -0.285
REMARK UNBOUND:                -0.288
REMARK SMILES O=c1c(O)c(-c2ccc(O)cc2)oc2cc(O)cc(O)c12
REMARK SMILES IDX 5 1 3 2 2 3 1 4 21 5 19 6 18 7 16 8 15 9 14 10 13 11 6 12
REMARK SMILES IDX 7 13 8 14 9 15 12 16 11 17 10 18 4 20 20 22 17 24
REMARK H PARENT 10 19 4 21 20 23 17 25
REMARK Flexibility Score: inf
ROOT
ATOM      1  C   UNL     1     -17.686  -1.693   3.201  1.00  0.00     0.180 A 
ATOM      2  C   UNL     1     -16.764  -0.759   2.698  1.00  0.00     0.208 A 
ATOM      3  C   UNL     1     -15.523  -0.613   3.339  1.00  0.00     0.238 A 
ATOM      4  O   UNL     1     -14.681   0.185   2.852  1.00  0.00    -0.285 OA
ATOM      5  C   UNL     1     -15.226  -1.390   4.484  1.00  0.00     0.111 A 
ATOM      6  C   UNL     1     -14.017  -1.296   5.237  1.00  0.00     0.134 A 
ATOM      7  C   UNL     1     -13.776  -2.206   6.274  1.00  0.00     0.093 A 
ATOM      8  C   UNL     1     -14.727  -3.161   6.628  1.00  0.00     0.123 A 
ATOM      9  C   UNL     1     -15.939  -3.224   5.938  1.00  0.00     0.094 A 
ATOM     10  C   UNL     1     -16.192  -2.354   4.876  1.00  0.00     0.146 A 
ATOM     11  O   UNL     1     -17.352  -2.453   4.238  1.00  0.00    -0.452 OA
ENDROOT
BRANCH   1  12
ATOM     12  C   UNL     1     -19.023  -1.885   2.596  1.00  0.00     0.021 A 
ATOM     13  C   UNL     1     -19.219  -2.759   1.511  1.00  0.00     0.016 A 
ATOM     14  C   UNL     1     -20.486  -2.905   0.940  1.00  0.00     0.047 A 
ATOM     15  C   UNL     1     -21.572  -2.171   1.436  1.00  0.00     0.115 A 
ATOM     16  C   UNL     1     -20.113  -1.137   3.073  1.00  0.00     0.016 A 
ATOM     17  C   UNL     1     -21.380  -1.286   2.501  1.00  0.00     0.047 A 
BRANCH  15  18
ATOM     18  O   UNL     1     -22.839  -2.310   0.876  1.00  0.00    -0.508 OA
ATOM     19  H   UNL     1     -23.023  -2.984   0.143  1.00  0.00     0.293 HD
ENDBRANCH  15  18
ENDBRANCH   1  12
BRANCH   2  20
ATOM     20  O   UNL     1     -17.068  -0.017   1.553  1.00  0.00    -0.502 OA
ATOM     21  H   UNL     1     -16.479  -0.022   0.730  1.00  0.00     0.293 HD
ENDBRANCH   2  20
BRANCH   6  22
ATOM     22  O   UNL     1     -13.040  -0.318   5.025  1.00  0.00    -0.507 OA
ATOM     23  H   UNL     1     -12.408  -0.299   4.239  1.00  0.00     0.293 HD
ENDBRANCH   6  22
BRANCH   8  24
ATOM     24  O   UNL     1     -14.461  -4.040   7.676  1.00  0.00    -0.508 OA
ATOM     25  H   UNL     1     -15.193  -4.361   8.298  1.00  0.00     0.293 HD
ENDBRANCH   8  24
TORSDOF 5
ENDMDL
MODEL 3
REMARK VINA RESULT:    -5.441      1.759      6.931
REMARK INTER + INTRA:          -6.684
REMARK INTER:                  -6.397
REMARK INTRA:                  -0.287
REMARK UNBOUND:                -0.288
REMARK SMILES O=c1c(O)c(-c2ccc(O)cc2)oc2cc(O)cc(O)c12
REMARK SMILES IDX 5 1 3 2 2 3 1 4 21 5 19 6 18 7 16 8 15 9 14 10 13 11 6 12
REMARK SMILES IDX 7 13 8 14 9 15 12 16 11 17 10 18 4 20 20 22 17 24
REMARK H PARENT 10 19 4 21 20 23 17 25
REMARK Flexibility Score: inf
ROOT
ATOM      1  C   UNL     1     -16.482  -1.829   3.659  1.00  0.00     0.180 A 
ATOM      2  C   UNL     1     -16.703  -0.709   2.840  1.00  0.00     0.208 A 
ATOM      3  C   UNL     1     -17.984  -0.497   2.306  1.00  0.00     0.238 A 
ATOM      4  O   UNL     1     -18.190   0.537   1.619  1.00  0.00    -0.285 OA
ATOM      5  C   UNL     1     -19.023  -1.418   2.582  1.00  0.00     0.111 A 
ATOM      6  C   UNL     1     -20.349  -1.326   2.060  1.00  0.00     0.134 A 
ATOM      7  C   UNL     1     -21.330  -2.220   2.505  1.00  0.00     0.093 A 
ATOM      8  C   UNL     1     -21.020  -3.243   3.400  1.00  0.00     0.123 A 
ATOM      9  C   UNL     1     -19.713  -3.380   3.870  1.00  0.00     0.094 A 
ATOM     10  C   UNL     1     -18.720  -2.481   3.473  1.00  0.00     0.146 A 
ATOM     11  O   UNL     1     -17.493  -2.639   3.953  1.00  0.00    -0.452 OA
ENDROOT
BRANCH   1  12
ATOM     12  C   UNL     1     -15.153  -2.132   4.238  1.00  0.00     0.021 A 
ATOM     13  C   UNL     1     -14.780  -1.655   5.508  1.00  0.00     0.016 A 
ATOM     14  C   UNL     1     -13.511  -1.933   6.023  1.00  0.00     0.047 A 
ATOM     15  C   UNL     1     -12.594  -2.681   5.272  1.00  0.00     0.115 A 
ATOM     16  C   UNL     1     -14.219  -2.862   3.483  1.00  0.00     0.016 A 
ATOM     17  C   UNL     1     -12.951  -3.141   4.001  1.00  0.00     0.047 A 
BRANCH  15  18
ATOM     18  O   UNL     1     -11.327  -2.966   5.776  1.00  0.00    -0.508 OA
ATOM     19  H   UNL     1     -11.022  -2.609   6.673  1.00  0.00     0.293 HD
ENDBRANCH  15  18
ENDBRANCH   1  12
BRANCH   2  20
ATOM     20  O   UNL     1     -15.669   0.200   2.598  1.00  0.00    -0.502 OA
ATOM     21  H   UNL     1     -14.907   0.344   3.249  1.00  0.00     0.293 HD
ENDBRANCH   2  20
BRANCH   6  22
ATOM     22  O   UNL     1     -20.743  -0.398   1.091  1.00  0.00    -0.507 OA
ATOM     23  H   UNL     1     -20.111   0.186   0.565  1.00  0.00     0.293 HD
ENDBRANCH   6  22
BRANCH   8  24
ATOM     24  O   UNL     1     -22.018  -4.125   3.808  1.00  0.00    -0.508 OA
ATOM     25  H   UNL     1     -22.467  -4.036   4.712  1.00  0.00     0.293 HD
ENDBRANCH   8  24
TORSDOF 5
ENDMDL
MODEL 4
REMARK VINA RESULT:    -5.376      1.443      3.040
REMARK INTER + INTRA:          -6.607
REMARK INTER:                  -6.331
REMARK INTRA:                  -0.277
REMARK UNBOUND:                -0.288
REMARK SMILES O=c1c(O)c(-c2ccc(O)cc2)oc2cc(O)cc(O)c12
REMARK SMILES IDX 5 1 3 2 2 3 1 4 21 5 19 6 18 7 16 8 15 9 14 10 13 11 6 12
REMARK SMILES IDX 7 13 8 14 9 15 12 16 11 17 10 18 4 20 20 22 17 24
REMARK H PARENT 10 19 4 21 20 23 17 25
REMARK Flexibility Score: inf
ROOT
ATOM      1  C   UNL     1     -17.304  -2.167   3.218  1.00  0.00     0.180 A 
ATOM      2  C   UNL     1     -16.487  -2.544   2.138  1.00  0.00     0.208 A 
ATOM      3  C   UNL     1     -15.112  -2.725   2.356  1.00  0.00     0.238 A 
ATOM      4  O   UNL     1     -14.395  -3.116   1.399  1.00  0.00    -0.285 OA
ATOM      5  C   UNL     1     -14.569  -2.512   3.646  1.00  0.00     0.111 A 
ATOM      6  C   UNL     1     -13.183  -2.628   3.971  1.00  0.00     0.134 A 
ATOM      7  C   UNL     1     -12.777  -2.522   5.307  1.00  0.00     0.093 A 
ATOM      8  C   UNL     1     -13.694  -2.239   6.318  1.00  0.00     0.123 A 
ATOM      9  C   UNL     1     -15.042  -2.065   6.003  1.00  0.00     0.094 A 
ATOM     10  C   UNL     1     -15.484  -2.200   4.685  1.00  0.00     0.146 A 
ATOM     11  O   UNL     1     -16.776  -2.038   4.429  1.00  0.00    -0.452 OA
ENDROOT
BRANCH   1  12
ATOM     12  C   UNL     1     -18.758  -1.932   3.061  1.00  0.00     0.021 A 
ATOM     13  C   UNL     1     -19.254  -0.722   2.541  1.00  0.00     0.016 A 
ATOM     14  C   UNL     1     -20.631  -0.513   2.426  1.00  0.00     0.047 A 
ATOM     15  C   UNL     1     -21.531  -1.505   2.839  1.00  0.00     0.115 A 
ATOM     16  C   UNL     1     -19.668  -2.911   3.493  1.00  0.00     0.016 A 
ATOM     17  C   UNL     1     -21.045  -2.701   3.375  1.00  0.00     0.047 A 
BRANCH  15  18
ATOM     18  O   UNL     1     -22.906  -1.309   2.727  1.00  0.00    -0.508 OA
ATOM     19  H   UNL     1     -23.490  -1.947   2.201  1.00  0.00     0.293 HD
ENDBRANCH  15  18
ENDBRANCH   1  12
BRANCH   2  20
ATOM     20  O   UNL     1     -17.047  -2.770   0.878  1.00  0.00    -0.502 OA
ATOM     21  H   UNL     1     -18.032  -2.966   0.748  1.00  0.00     0.293 HD
ENDBRANCH   2  20
BRANCH   6  22
ATOM     22  O   UNL     1     -12.172  -2.818   3.024  1.00  0.00    -0.507 OA
ATOM     23  H   UNL     1     -12.049  -3.656   2.476  1.00  0.00     0.293 HD
ENDBRANCH   6  22
BRANCH   8  24
ATOM     24  O   UNL     1     -13.251  -2.125   7.634  1.00  0.00    -0.508 OA
ATOM     25  H   UNL     1     -12.289  -1.893   7.853  1.00  0.00     0.293 HD
ENDBRANCH   8  24
TORSDOF 5
ENDMDL
MODEL 5
REMARK VINA RESULT:    -4.936      2.408      4.372
REMARK INTER + INTRA:          -6.089
REMARK INTER:                  -5.802
REMARK INTRA:                  -0.287
REMARK UNBOUND:                -0.288
REMARK SMILES O=c1c(O)c(-c2ccc(O)cc2)oc2cc(O)cc(O)c12
REMARK SMILES IDX 5 1 3 2 2 3 1 4 21 5 19 6 18 7 16 8 15 9 14 10 13 11 6 12
REMARK SMILES IDX 7 13 8 14 9 15 12 16 11 17 10 18 4 20 20 22 17 24
REMARK H PARENT 10 19 4 21 20 23 17 25
REMARK Flexibility Score: inf
ROOT
ATOM      1  C   UNL     1     -19.699  -1.780   3.254  1.00  0.00     0.180 A 
ATOM      2  C   UNL     1     -19.399  -0.863   2.234  1.00  0.00     0.208 A 
ATOM      3  C   UNL     1     -18.066  -0.464   2.046  1.00  0.00     0.238 A 
ATOM      4  O   UNL     1     -17.795   0.315   1.096  1.00  0.00    -0.285 OA
ATOM      5  C   UNL     1     -17.053  -0.976   2.893  1.00  0.00     0.111 A 
ATOM      6  C   UNL     1     -15.674  -0.610   2.820  1.00  0.00     0.134 A 
ATOM      7  C   UNL     1     -14.740  -1.277   3.622  1.00  0.00     0.093 A 
ATOM      8  C   UNL     1     -15.140  -2.247   4.539  1.00  0.00     0.123 A 
ATOM      9  C   UNL     1     -16.493  -2.570   4.661  1.00  0.00     0.094 A 
ATOM     10  C   UNL     1     -17.444  -1.948   3.850  1.00  0.00     0.146 A 
ATOM     11  O   UNL     1     -18.719  -2.292   3.989  1.00  0.00    -0.452 OA
ENDROOT
BRANCH   1  12
ATOM     12  C   UNL     1     -21.084  -2.228   3.529  1.00  0.00     0.021 A 
ATOM     13  C   UNL     1     -21.621  -3.374   2.913  1.00  0.00     0.016 A 
ATOM     14  C   UNL     1     -22.939  -3.762   3.169  1.00  0.00     0.047 A 
ATOM     15  C   UNL     1     -23.742  -3.005   4.033  1.00  0.00     0.115 A 
ATOM     16  C   UNL     1     -21.904  -1.463   4.377  1.00  0.00     0.016 A 
ATOM     17  C   UNL     1     -23.221  -1.855   4.633  1.00  0.00     0.047 A 
BRANCH  15  18
ATOM     18  O   UNL     1     -25.056  -3.385   4.297  1.00  0.00    -0.508 OA
ATOM     19  H   UNL     1     -25.444  -4.242   3.924  1.00  0.00     0.293 HD
ENDBRANCH  15  18
ENDBRANCH   1  12
BRANCH   2  20
ATOM     20  O   UNL     1     -20.411  -0.387   1.395  1.00  0.00    -0.502 OA
ATOM     21  H   UNL     1     -20.372  -0.481   0.388  1.00  0.00     0.293 HD
ENDBRANCH   2  20
BRANCH   6  22
ATOM     22  O   UNL     1     -15.180   0.412   2.003  1.00  0.00    -0.507 OA
ATOM     23  H   UNL     1     -14.266   0.414   1.575  1.00  0.00     0.293 HD
ENDBRANCH   6  22
BRANCH   8  24
ATOM     24  O   UNL     1     -14.185  -2.879   5.332  1.00  0.00    -0.508 OA
ATOM     25  H   UNL     1     -13.204  -2.626   5.284  1.00  0.00     0.293 HD
ENDBRANCH   8  24
TORSDOF 5
ENDMDL
MODEL 6
REMARK VINA RESULT:    -4.895      1.888      3.839
REMARK INTER + INTRA:          -6.042
REMARK INTER:                  -5.753
REMARK INTRA:                  -0.289
REMARK UNBOUND:                -0.288
REMARK SMILES O=c1c(O)c(-c2ccc(O)cc2)oc2cc(O)cc(O)c12
REMARK SMILES IDX 5 1 3 2 2 3 1 4 21 5 19 6 18 7 16 8 15 9 14 10 13 11 6 12
REMARK SMILES IDX 7 13 8 14 9 15 12 16 11 17 10 18 4 20 20 22 17 24
REMARK H PARENT 10 19 4 21 20 23 17 25
REMARK Flexibility Score: inf
ROOT
ATOM      1  C   UNL     1     -18.679  -2.016   3.306  1.00  0.00     0.180 A 
ATOM      2  C   UNL     1     -18.181  -2.714   2.193  1.00  0.00     0.208 A 
ATOM      3  C   UNL     1     -16.792  -2.836   2.029  1.00  0.00     0.238 A 
ATOM      4  O   UNL     1     -16.354  -3.508   1.060  1.00  0.00    -0.285 OA
ATOM      5  C   UNL     1     -15.918  -2.243   2.972  1.00  0.00     0.111 A 
ATOM      6  C   UNL     1     -14.493  -2.268   2.883  1.00  0.00     0.134 A 
ATOM      7  C   UNL     1     -13.727  -1.763   3.941  1.00  0.00     0.093 A 
ATOM      8  C   UNL     1     -14.331  -1.174   5.050  1.00  0.00     0.123 A 
ATOM      9  C   UNL     1     -15.722  -1.089   5.120  1.00  0.00     0.094 A 
ATOM     10  C   UNL     1     -16.514  -1.618   4.098  1.00  0.00     0.146 A 
ATOM     11  O   UNL     1     -17.834  -1.527   4.207  1.00  0.00    -0.452 OA
ENDROOT
BRANCH   1  12
ATOM     12  C   UNL     1     -20.130  -1.824   3.533  1.00  0.00     0.021 A 
ATOM     13  C   UNL     1     -20.885  -2.749   4.278  1.00  0.00     0.016 A 
ATOM     14  C   UNL     1     -22.257  -2.559   4.457  1.00  0.00     0.047 A 
ATOM     15  C   UNL     1     -22.897  -1.451   3.885  1.00  0.00     0.115 A 
ATOM     16  C   UNL     1     -20.783  -0.728   2.944  1.00  0.00     0.016 A 
ATOM     17  C   UNL     1     -22.157  -0.540   3.126  1.00  0.00     0.047 A 
BRANCH  15  18
ATOM     18  O   UNL     1     -24.265  -1.252   4.059  1.00  0.00    -0.508 OA
ATOM     19  H   UNL     1     -24.896  -1.196   3.269  1.00  0.00     0.293 HD
ENDBRANCH  15  18
ENDBRANCH   1  12
BRANCH   2  20
ATOM     20  O   UNL     1     -19.063  -3.310   1.286  1.00  0.00    -0.502 OA
ATOM     21  H   UNL     1     -20.067  -3.189   1.343  1.00  0.00     0.293 HD
ENDBRANCH   2  20
BRANCH   6  22
ATOM     22  O   UNL     1     -13.788  -2.751   1.776  1.00  0.00    -0.507 OA
ATOM     23  H   UNL     1     -12.782  -2.773   1.701  1.00  0.00     0.293 HD
ENDBRANCH   6  22
BRANCH   8  24
ATOM     24  O   UNL     1     -13.537  -0.666   6.076  1.00  0.00    -0.508 OA
ATOM     25  H   UNL     1     -12.548  -0.880   6.138  1.00  0.00     0.293 HD
ENDBRANCH   8  24
TORSDOF 5
ENDMDL
MODEL 7
REMARK VINA RESULT:    -4.893      2.114      7.221
REMARK INTER + INTRA:          -6.039
REMARK INTER:                  -5.928
REMARK INTRA:                  -0.111
REMARK UNBOUND:                -0.288
REMARK SMILES O=c1c(O)c(-c2ccc(O)cc2)oc2cc(O)cc(O)c12
REMARK SMILES IDX 5 1 3 2 2 3 1 4 21 5 19 6 18 7 16 8 15 9 14 10 13 11 6 12
REMARK SMILES IDX 7 13 8 14 9 15 12 16 11 17 10 18 4 20 20 22 17 24
REMARK H PARENT 10 19 4 21 20 23 17 25
REMARK Flexibility Score: inf
ROOT
ATOM      1  C   UNL     1     -17.242  -2.150   3.703  1.00  0.00     0.180 A 
ATOM      2  C   UNL     1     -17.248  -3.065   2.636  1.00  0.00     0.208 A 
ATOM      3  C   UNL     1     -18.457  -3.332   1.975  1.00  0.00     0.238 A 
ATOM      4  O   UNL     1     -18.446  -4.109   0.986  1.00  0.00    -0.285 OA
ATOM      5  C   UNL     1     -19.647  -2.694   2.399  1.00  0.00     0.111 A 
ATOM      6  C   UNL     1     -20.936  -2.920   1.827  1.00  0.00     0.134 A 
ATOM      7  C   UNL     1     -22.021  -2.136   2.239  1.00  0.00     0.093 A 
ATOM      8  C   UNL     1     -21.880  -1.183   3.247  1.00  0.00     0.123 A 
ATOM      9  C   UNL     1     -20.637  -0.996   3.854  1.00  0.00     0.094 A 
ATOM     10  C   UNL     1     -19.528  -1.736   3.440  1.00  0.00     0.146 A 
ATOM     11  O   UNL     1     -18.362  -1.519   4.035  1.00  0.00    -0.452 OA
ENDROOT
BRANCH   1  12
ATOM     12  C   UNL     1     -16.011  -1.837   4.466  1.00  0.00     0.021 A 
ATOM     13  C   UNL     1     -14.899  -1.234   3.849  1.00  0.00     0.016 A 
ATOM     14  C   UNL     1     -13.740  -0.971   4.583  1.00  0.00     0.047 A 
ATOM     15  C   UNL     1     -13.671  -1.317   5.940  1.00  0.00     0.115 A 
ATOM     16  C   UNL     1     -15.925  -2.200   5.821  1.00  0.00     0.016 A 
ATOM     17  C   UNL     1     -14.765  -1.934   6.554  1.00  0.00     0.047 A 
BRANCH  15  18
ATOM     18  O   UNL     1     -12.521  -1.057   6.682  1.00  0.00    -0.508 OA
ATOM     19  H   UNL     1     -12.572  -0.725   7.637  1.00  0.00     0.293 HD
ENDBRANCH  15  18
ENDBRANCH   1  12
BRANCH   2  20
ATOM     20  O   UNL     1     -16.057  -3.667   2.220  1.00  0.00    -0.502 OA
ATOM     21  H   UNL     1     -15.595  -4.389   2.759  1.00  0.00     0.293 HD
ENDBRANCH   2  20
BRANCH   6  22
ATOM     22  O   UNL     1     -21.206  -3.912   0.879  1.00  0.00    -0.507 OA
ATOM     23  H   UNL     1     -21.380  -3.738  -0.099  1.00  0.00     0.293 HD
ENDBRANCH   6  22
BRANCH   8  24
ATOM     24  O   UNL     1     -22.985  -0.433   3.643  1.00  0.00    -0.508 OA
ATOM     25  H   UNL     1     -23.704  -0.158   2.984  1.00  0.00     0.293 HD
ENDBRANCH   8  24
TORSDOF 5
ENDMDL
MODEL 8
REMARK VINA RESULT:    -4.755      2.555      7.968
REMARK INTER + INTRA:          -5.877
REMARK INTER:                  -5.589
REMARK INTRA:                  -0.288
REMARK UNBOUND:                -0.288
REMARK SMILES O=c1c(O)c(-c2ccc(O)cc2)oc2cc(O)cc(O)c12
REMARK SMILES IDX 5 1 3 2 2 3 1 4 21 5 19 6 18 7 16 8 15 9 14 10 13 11 6 12
REMARK SMILES IDX 7 13 8 14 9 15 12 16 11 17 10 18 4 20 20 22 17 24
REMARK H PARENT 10 19 4 21 20 23 17 25
REMARK Flexibility Score: inf
ROOT
ATOM      1  C   UNL     1     -19.071  -2.070   3.116  1.00  0.00     0.180 A 
ATOM      2  C   UNL     1     -19.358  -2.976   2.081  1.00  0.00     0.208 A 
ATOM      3  C   UNL     1     -20.694  -3.333   1.838  1.00  0.00     0.238 A 
ATOM      4  O   UNL     1     -20.950  -4.102   0.876  1.00  0.00    -0.285 OA
ATOM      5  C   UNL     1     -21.725  -2.793   2.645  1.00  0.00     0.111 A 
ATOM      6  C   UNL     1     -23.109  -3.117   2.515  1.00  0.00     0.134 A 
ATOM      7  C   UNL     1     -24.055  -2.423   3.280  1.00  0.00     0.093 A 
ATOM      8  C   UNL     1     -23.663  -1.467   4.216  1.00  0.00     0.123 A 
ATOM      9  C   UNL     1     -22.307  -1.186   4.394  1.00  0.00     0.094 A 
ATOM     10  C   UNL     1     -21.343  -1.835   3.620  1.00  0.00     0.146 A 
ATOM     11  O   UNL     1     -20.065  -1.531   3.812  1.00  0.00    -0.452 OA
ENDROOT
BRANCH   1  12
ATOM     12  C   UNL     1     -17.686  -1.666   3.448  1.00  0.00     0.021 A 
ATOM     13  C   UNL     1     -17.063  -0.581   2.803  1.00  0.00     0.016 A 
ATOM     14  C   UNL     1     -15.747  -0.234   3.116  1.00  0.00     0.047 A 
ATOM     15  C   UNL     1     -15.030  -0.972   4.067  1.00  0.00     0.115 A 
ATOM     16  C   UNL     1     -16.952  -2.414   4.384  1.00  0.00     0.016 A 
ATOM     17  C   UNL     1     -15.635  -2.064   4.697  1.00  0.00     0.047 A 
BRANCH  15  18
ATOM     18  O   UNL     1     -13.717  -0.634   4.388  1.00  0.00    -0.508 OA
ATOM     19  H   UNL     1     -13.481   0.280   4.756  1.00  0.00     0.293 HD
ENDBRANCH  15  18
ENDBRANCH   1  12
BRANCH   2  20
ATOM     20  O   UNL     1     -18.328  -3.481   1.283  1.00  0.00    -0.502 OA
ATOM     21  H   UNL     1     -17.683  -2.881   0.783  1.00  0.00     0.293 HD
ENDBRANCH   2  20
BRANCH   6  22
ATOM     22  O   UNL     1     -23.601  -4.121   1.675  1.00  0.00    -0.507 OA
ATOM     23  H   UNL     1     -23.233  -4.336   0.760  1.00  0.00     0.293 HD
ENDBRANCH   6  22
BRANCH   8  24
ATOM     24  O   UNL     1     -24.630  -0.808   4.972  1.00  0.00    -0.508 OA
ATOM     25  H   UNL     1     -25.167  -1.291   5.683  1.00  0.00     0.293 HD
ENDBRANCH   8  24
TORSDOF 5
ENDMDL
MODEL 9
REMARK VINA RESULT:    -4.676      5.876     10.744
REMARK INTER + INTRA:          -5.784
REMARK INTER:                  -5.617
REMARK INTRA:                  -0.167
REMARK UNBOUND:                -0.288
REMARK SMILES O=c1c(O)c(-c2ccc(O)cc2)oc2cc(O)cc(O)c12
REMARK SMILES IDX 5 1 3 2 2 3 1 4 21 5 19 6 18 7 16 8 15 9 14 10 13 11 6 12
REMARK SMILES IDX 7 13 8 14 9 15 12 16 11 17 10 18 4 20 20 22 17 24
REMARK H PARENT 10 19 4 21 20 23 17 25
REMARK Flexibility Score: inf
ROOT
ATOM      1  C   UNL     1     -24.002  -2.290   2.997  1.00  0.00     0.180 A 
ATOM      2  C   UNL     1     -25.176  -2.292   2.225  1.00  0.00     0.208 A 
ATOM      3  C   UNL     1     -26.395  -2.622   2.837  1.00  0.00     0.238 A 
ATOM      4  O   UNL     1     -27.450  -2.569   2.154  1.00  0.00    -0.285 OA
ATOM      5  C   UNL     1     -26.423  -2.964   4.211  1.00  0.00     0.111 A 
ATOM      6  C   UNL     1     -27.595  -3.356   4.925  1.00  0.00     0.134 A 
ATOM      7  C   UNL     1     -27.528  -3.545   6.311  1.00  0.00     0.093 A 
ATOM      8  C   UNL     1     -26.321  -3.423   6.997  1.00  0.00     0.123 A 
ATOM      9  C   UNL     1     -25.156  -3.099   6.299  1.00  0.00     0.094 A 
ATOM     10  C   UNL     1     -25.198  -2.869   4.922  1.00  0.00     0.146 A 
ATOM     11  O   UNL     1     -24.070  -2.552   4.298  1.00  0.00    -0.452 OA
ENDROOT
BRANCH   1  12
ATOM     12  C   UNL     1     -22.677  -1.977   2.416  1.00  0.00     0.021 A 
ATOM     13  C   UNL     1     -22.082  -2.812   1.452  1.00  0.00     0.016 A 
ATOM     14  C   UNL     1     -20.819  -2.509   0.937  1.00  0.00     0.047 A 
ATOM     15  C   UNL     1     -20.128  -1.375   1.386  1.00  0.00     0.115 A 
ATOM     16  C   UNL     1     -21.967  -0.855   2.876  1.00  0.00     0.016 A 
ATOM     17  C   UNL     1     -20.704  -0.552   2.358  1.00  0.00     0.047 A 
BRANCH  15  18
ATOM     18  O   UNL     1     -18.869  -1.062   0.877  1.00  0.00    -0.508 OA
ATOM     19  H   UNL     1     -18.160  -1.773   0.746  1.00  0.00     0.293 HD
ENDBRANCH  15  18
ENDBRANCH   1  12
BRANCH   2  20
ATOM     20  O   UNL     1     -25.130  -1.930   0.875  1.00  0.00    -0.502 OA
ATOM     21  H   UNL     1     -24.905  -2.591   0.142  1.00  0.00     0.293 HD
ENDBRANCH   2  20
BRANCH   6  22
ATOM     22  O   UNL     1     -28.834  -3.596   4.321  1.00  0.00    -0.507 OA
ATOM     23  H   UNL     1     -29.709  -3.201   4.630  1.00  0.00     0.293 HD
ENDBRANCH   6  22
BRANCH   8  24
ATOM     24  O   UNL     1     -26.288  -3.634   8.374  1.00  0.00    -0.508 OA
ATOM     25  H   UNL     1     -26.083  -2.882   9.021  1.00  0.00     0.293 HD
ENDBRANCH   8  24
TORSDOF 5
ENDMDL
