MODEL 1
REMARK VINA RESULT:    -3.790      0.000      0.000
REMARK INTER + INTRA:          -8.723
REMARK INTER:                  -6.892
REMARK INTRA:                  -1.831
REMARK UNBOUND:                -1.831
REMARK SMILES CCCCCCCCCCCCCCCC(=O)[O-]
REMARK SMILES IDX 9 1 10 2 11 3 12 4 13 5 14 6 15 7 16 8 17 9 18 10 8 11 7 12
REMARK SMILES IDX 6 13 5 14 4 15 3 16 2 17 1 18
REMARK H PARENT
REMARK Flexibility Score: inf
ROOT
ATOM      1  C   UNL     1     -21.055  30.873 -40.541  1.00  0.00     0.000 C 
ENDROOT
BRANCH   1   2
ATOM      2  C   UNL     1     -20.697  30.393 -41.959  1.00  0.00     0.000 C 
BRANCH   2   3
ATOM      3  C   UNL     1     -21.904  29.835 -42.729  1.00  0.00     0.000 C 
BRANCH   3   4
ATOM      4  C   UNL     1     -22.852  29.076 -41.789  1.00  0.00     0.000 C 
BRANCH   4   5
ATOM      5  C   UNL     1     -24.306  29.564 -41.895  1.00  0.00     0.000 C 
BRANCH   5   6
ATOM      6  C   UNL     1     -25.322  28.410 -41.860  1.00  0.00     0.006 C 
BRANCH   6   7
ATOM      7  C   UNL     1     -26.752  28.905 -41.601  1.00  0.00     0.053 C 
BRANCH   7   8
ATOM      8  C   UNL     1     -27.766  27.836 -41.871  1.00  0.00     0.041 C 
ATOM      9  O   UNL     1     -27.778  27.240 -42.981  1.00  0.00    -0.550 OA
ATOM     10  O   UNL     1     -28.677  27.474 -40.886  1.00  0.00    -0.550 OA
ENDBRANCH   7   8
ENDBRANCH   6   7
ENDBRANCH   5   6
ENDBRANCH   4   5
ENDBRANCH   3   4
ENDBRANCH   2   3
ENDBRANCH   1   2
BRANCH   1  11
ATOM     11  C   UNL     1     -20.736  32.350 -40.245  1.00  0.00     0.000 C 
BRANCH  11  12
ATOM     12  C   UNL     1     -20.279  32.588 -38.796  1.00  0.00    -0.000 C 
BRANCH  12  13
ATOM     13  C   UNL     1     -21.203  33.546 -38.023  1.00  0.00    -0.000 C 
BRANCH  13  14
ATOM     14  C   UNL     1     -22.527  33.902 -38.724  1.00  0.00    -0.000 C 
BRANCH  14  15
ATOM     15  C   UNL     1     -23.741  33.171 -38.127  1.00  0.00    -0.000 C 
BRANCH  15  16
ATOM     16  C   UNL     1     -24.306  32.085 -39.061  1.00  0.00    -0.000 C 
BRANCH  16  17
ATOM     17  C   UNL     1     -24.539  30.713 -38.401  1.00  0.00    -0.003 C 
ATOM     18  C   UNL     1     -23.289  30.153 -37.724  1.00  0.00     0.004 C 
ENDBRANCH  16  17
ENDBRANCH  15  16
ENDBRANCH  14  15
ENDBRANCH  13  14
ENDBRANCH  12  13
ENDBRANCH  11  12
ENDBRANCH   1  11
TORSDOF 14
ENDMDL
MODEL 2
REMARK VINA RESULT:    -3.745      1.236      2.439
REMARK INTER + INTRA:          -8.641
REMARK INTER:                  -6.626
REMARK INTRA:                  -2.014
REMARK UNBOUND:                -1.831
REMARK SMILES CCCCCCCCCCCCCCCC(=O)[O-]
REMARK SMILES IDX 9 1 10 2 11 3 12 4 13 5 14 6 15 7 16 8 17 9 18 10 8 11 7 12
REMARK SMILES IDX 6 13 5 14 4 15 3 16 2 17 1 18
REMARK H PARENT
REMARK Flexibility Score: inf
ROOT
ATOM      1  C   UNL     1     -21.582  29.951 -39.183  1.00  0.00     0.000 C 
ENDROOT
BRANCH   1   2
ATOM      2  C   UNL     1     -23.062  30.358 -39.302  1.00  0.00     0.000 C 
BRANCH   2   3
ATOM      3  C   UNL     1     -23.342  31.267 -40.510  1.00  0.00     0.000 C 
BRANCH   3   4
ATOM      4  C   UNL     1     -24.367  30.623 -41.455  1.00  0.00     0.000 C 
BRANCH   4   5
ATOM      5  C   UNL     1     -23.930  29.233 -41.943  1.00  0.00     0.000 C 
BRANCH   5   6
ATOM      6  C   UNL     1     -25.090  28.223 -41.973  1.00  0.00     0.006 C 
BRANCH   6   7
ATOM      7  C   UNL     1     -26.269  28.670 -41.098  1.00  0.00     0.053 C 
BRANCH   7   8
ATOM      8  C   UNL     1     -27.560  28.059 -41.553  1.00  0.00     0.041 C 
ATOM      9  O   UNL     1     -28.611  28.223 -40.877  1.00  0.00    -0.550 OA
ATOM     10  O   UNL     1     -27.610  27.340 -42.740  1.00  0.00    -0.550 OA
ENDBRANCH   7   8
ENDBRANCH   6   7
ENDBRANCH   5   6
ENDBRANCH   4   5
ENDBRANCH   3   4
ENDBRANCH   2   3
ENDBRANCH   1   2
BRANCH   1  11
ATOM     11  C   UNL     1     -20.679  30.404 -40.345  1.00  0.00     0.000 C 
BRANCH  11  12
ATOM     12  C   UNL     1     -19.388  31.091 -39.870  1.00  0.00    -0.000 C 
BRANCH  12  13
ATOM     13  C   UNL     1     -19.288  32.561 -40.317  1.00  0.00    -0.000 C 
BRANCH  13  14
ATOM     14  C   UNL     1     -20.524  33.430 -40.021  1.00  0.00    -0.000 C 
BRANCH  14  15
ATOM     15  C   UNL     1     -20.632  33.841 -38.543  1.00  0.00    -0.000 C 
BRANCH  15  16
ATOM     16  C   UNL     1     -22.073  34.173 -38.116  1.00  0.00    -0.000 C 
BRANCH  16  17
ATOM     17  C   UNL     1     -22.646  33.284 -36.997  1.00  0.00    -0.003 C 
ATOM     18  C   UNL     1     -21.611  32.332 -36.400  1.00  0.00     0.004 C 
ENDBRANCH  16  17
ENDBRANCH  15  16
ENDBRANCH  14  15
ENDBRANCH  13  14
ENDBRANCH  12  13
ENDBRANCH  11  12
ENDBRANCH   1  11
TORSDOF 14
ENDMDL
MODEL 3
REMARK VINA RESULT:    -3.738      1.546      2.773
REMARK INTER + INTRA:          -8.628
REMARK INTER:                  -6.132
REMARK INTRA:                  -2.497
REMARK UNBOUND:                -1.831
REMARK SMILES CCCCCCCCCCCCCCCC(=O)[O-]
REMARK SMILES IDX 9 1 10 2 11 3 12 4 13 5 14 6 15 7 16 8 17 9 18 10 8 11 7 12
REMARK SMILES IDX 6 13 5 14 4 15 3 16 2 17 1 18
REMARK H PARENT
REMARK Flexibility Score: inf
ROOT
ATOM      1  C   UNL     1     -19.494  31.860 -38.834  1.00  0.00     0.000 C 
ENDROOT
BRANCH   1   2
ATOM      2  C   UNL     1     -19.139  32.642 -40.111  1.00  0.00     0.000 C 
BRANCH   2   3
ATOM      3  C   UNL     1     -19.807  32.072 -41.373  1.00  0.00     0.000 C 
BRANCH   3   4
ATOM      4  C   UNL     1     -20.252  30.619 -41.149  1.00  0.00     0.000 C 
BRANCH   4   5
ATOM      5  C   UNL     1     -21.018  30.043 -42.351  1.00  0.00     0.000 C 
BRANCH   5   6
ATOM      6  C   UNL     1     -22.536  30.271 -42.250  1.00  0.00     0.006 C 
BRANCH   6   7
ATOM      7  C   UNL     1     -23.310  28.956 -42.090  1.00  0.00     0.053 C 
BRANCH   7   8
ATOM      8  C   UNL     1     -24.773  29.196 -41.874  1.00  0.00     0.041 C 
ATOM      9  O   UNL     1     -25.198  30.361 -41.650  1.00  0.00    -0.550 OA
ATOM     10  O   UNL     1     -25.672  28.139 -41.954  1.00  0.00    -0.550 OA
ENDBRANCH   7   8
ENDBRANCH   6   7
ENDBRANCH   5   6
ENDBRANCH   4   5
ENDBRANCH   3   4
ENDBRANCH   2   3
ENDBRANCH   1   2
BRANCH   1  11
ATOM     11  C   UNL     1     -20.391  32.610 -37.831  1.00  0.00     0.000 C 
BRANCH  11  12
ATOM     12  C   UNL     1     -20.960  33.921 -38.397  1.00  0.00    -0.000 C 
BRANCH  12  13
ATOM     13  C   UNL     1     -22.487  33.879 -38.593  1.00  0.00    -0.000 C 
BRANCH  13  14
ATOM     14  C   UNL     1     -23.017  32.701 -39.431  1.00  0.00    -0.000 C 
BRANCH  14  15
ATOM     15  C   UNL     1     -24.153  31.931 -38.737  1.00  0.00    -0.000 C 
BRANCH  15  16
ATOM     16  C   UNL     1     -23.645  30.767 -37.867  1.00  0.00    -0.000 C 
BRANCH  16  17
ATOM     17  C   UNL     1     -22.730  29.761 -38.591  1.00  0.00    -0.003 C 
ATOM     18  C   UNL     1     -21.724  29.087 -37.659  1.00  0.00     0.004 C 
ENDBRANCH  16  17
ENDBRANCH  15  16
ENDBRANCH  14  15
ENDBRANCH  13  14
ENDBRANCH  12  13
ENDBRANCH  11  12
ENDBRANCH   1  11
TORSDOF 14
ENDMDL
MODEL 4
REMARK VINA RESULT:    -3.723      1.067      3.198
REMARK INTER + INTRA:          -8.601
REMARK INTER:                  -6.597
REMARK INTRA:                  -2.004
REMARK UNBOUND:                -1.831
REMARK SMILES CCCCCCCCCCCCCCCC(=O)[O-]
REMARK SMILES IDX 9 1 10 2 11 3 12 4 13 5 14 6 15 7 16 8 17 9 18 10 8 11 7 12
REMARK SMILES IDX 6 13 5 14 4 15 3 16 2 17 1 18
REMARK H PARENT
REMARK Flexibility Score: inf
ROOT
ATOM      1  C   UNL     1     -23.189  32.623 -37.545  1.00  0.00     0.000 C 
ENDROOT
BRANCH   1   2
ATOM      2  C   UNL     1     -23.661  31.465 -38.443  1.00  0.00     0.000 C 
BRANCH   2   3
ATOM      3  C   UNL     1     -23.989  31.909 -39.878  1.00  0.00     0.000 C 
BRANCH   3   4
ATOM      4  C   UNL     1     -25.278  31.240 -40.379  1.00  0.00     0.000 C 
BRANCH   4   5
ATOM      5  C   UNL     1     -25.040  30.345 -41.606  1.00  0.00     0.000 C 
BRANCH   5   6
ATOM      6  C   UNL     1     -25.156  28.847 -41.278  1.00  0.00     0.006 C 
BRANCH   6   7
ATOM      7  C   UNL     1     -26.563  28.465 -40.800  1.00  0.00     0.053 C 
BRANCH   7   8
ATOM      8  C   UNL     1     -27.529  28.364 -41.941  1.00  0.00     0.041 C 
ATOM      9  O   UNL     1     -27.492  27.372 -42.716  1.00  0.00    -0.550 OA
ATOM     10  O   UNL     1     -28.492  29.348 -42.128  1.00  0.00    -0.550 OA
ENDBRANCH   7   8
ENDBRANCH   6   7
ENDBRANCH   5   6
ENDBRANCH   4   5
ENDBRANCH   3   4
ENDBRANCH   2   3
ENDBRANCH   1   2
BRANCH   1  11
ATOM     11  C   UNL     1     -22.865  33.937 -38.281  1.00  0.00     0.000 C 
BRANCH  11  12
ATOM     12  C   UNL     1     -21.391  34.352 -38.148  1.00  0.00    -0.000 C 
BRANCH  12  13
ATOM     13  C   UNL     1     -20.413  33.188 -38.391  1.00  0.00    -0.000 C 
BRANCH  13  14
ATOM     14  C   UNL     1     -19.757  33.152 -39.784  1.00  0.00    -0.000 C 
BRANCH  14  15
ATOM     15  C   UNL     1     -20.448  32.176 -40.750  1.00  0.00    -0.000 C 
BRANCH  15  16
ATOM     16  C   UNL     1     -20.414  30.718 -40.256  1.00  0.00    -0.000 C 
BRANCH  16  17
ATOM     17  C   UNL     1     -21.322  29.744 -41.031  1.00  0.00    -0.003 C 
ATOM     18  C   UNL     1     -21.443  30.089 -42.515  1.00  0.00     0.004 C 
ENDBRANCH  16  17
ENDBRANCH  15  16
ENDBRANCH  14  15
ENDBRANCH  13  14
ENDBRANCH  12  13
ENDBRANCH  11  12
ENDBRANCH   1  11
TORSDOF 14
ENDMDL
MODEL 5
REMARK VINA RESULT:    -3.721      1.425      2.670
REMARK INTER + INTRA:          -8.596
REMARK INTER:                  -6.546
REMARK INTRA:                  -2.050
REMARK UNBOUND:                -1.831
REMARK SMILES CCCCCCCCCCCCCCCC(=O)[O-]
REMARK SMILES IDX 9 1 10 2 11 3 12 4 13 5 14 6 15 7 16 8 17 9 18 10 8 11 7 12
REMARK SMILES IDX 6 13 5 14 4 15 3 16 2 17 1 18
REMARK H PARENT
REMARK Flexibility Score: inf
ROOT
ATOM      1  C   UNL     1     -19.886  30.458 -42.226  1.00  0.00     0.000 C 
ENDROOT
BRANCH   1   2
ATOM      2  C   UNL     1     -21.342  30.709 -42.658  1.00  0.00     0.000 C 
BRANCH   2   3
ATOM      3  C   UNL     1     -22.272  31.037 -41.479  1.00  0.00     0.000 C 
BRANCH   3   4
ATOM      4  C   UNL     1     -22.073  30.039 -40.328  1.00  0.00     0.000 C 
BRANCH   4   5
ATOM      5  C   UNL     1     -23.016  28.829 -40.426  1.00  0.00     0.000 C 
BRANCH   5   6
ATOM      6  C   UNL     1     -24.473  29.234 -40.709  1.00  0.00     0.006 C 
BRANCH   6   7
ATOM      7  C   UNL     1     -25.075  28.449 -41.883  1.00  0.00     0.053 C 
BRANCH   7   8
ATOM      8  C   UNL     1     -26.527  28.153 -41.665  1.00  0.00     0.041 C 
ATOM      9  O   UNL     1     -27.103  28.543 -40.615  1.00  0.00    -0.550 OA
ATOM     10  O   UNL     1     -27.254  27.477 -42.637  1.00  0.00    -0.550 OA
ENDBRANCH   7   8
ENDBRANCH   6   7
ENDBRANCH   5   6
ENDBRANCH   4   5
ENDBRANCH   3   4
ENDBRANCH   2   3
ENDBRANCH   1   2
BRANCH   1  11
ATOM     11  C   UNL     1     -18.891  31.579 -42.583  1.00  0.00     0.000 C 
BRANCH  11  12
ATOM     12  C   UNL     1     -18.269  32.245 -41.345  1.00  0.00    -0.000 C 
BRANCH  12  13
ATOM     13  C   UNL     1     -18.628  31.529 -40.030  1.00  0.00    -0.000 C 
BRANCH  13  14
ATOM     14  C   UNL     1     -19.431  32.365 -39.017  1.00  0.00    -0.000 C 
BRANCH  14  15
ATOM     15  C   UNL     1     -20.207  33.521 -39.670  1.00  0.00    -0.000 C 
BRANCH  15  16
ATOM     16  C   UNL     1     -21.459  33.929 -38.874  1.00  0.00    -0.000 C 
BRANCH  16  17
ATOM     17  C   UNL     1     -21.992  32.860 -37.901  1.00  0.00    -0.003 C 
ATOM     18  C   UNL     1     -23.512  32.712 -37.947  1.00  0.00     0.004 C 
ENDBRANCH  16  17
ENDBRANCH  15  16
ENDBRANCH  14  15
ENDBRANCH  13  14
ENDBRANCH  12  13
ENDBRANCH  11  12
ENDBRANCH   1  11
TORSDOF 14
ENDMDL
MODEL 6
REMARK VINA RESULT:    -3.692      3.767      6.800
REMARK INTER + INTRA:          -8.544
REMARK INTER:                  -6.307
REMARK INTRA:                  -2.236
REMARK UNBOUND:                -1.831
REMARK SMILES CCCCCCCCCCCCCCCC(=O)[O-]
REMARK SMILES IDX 9 1 10 2 11 3 12 4 13 5 14 6 15 7 16 8 17 9 18 10 8 11 7 12
REMARK SMILES IDX 6 13 5 14 4 15 3 16 2 17 1 18
REMARK H PARENT
REMARK Flexibility Score: inf
ROOT
ATOM      1  C   UNL     1     -26.232  28.818 -39.193  1.00  0.00     0.000 C 
ENDROOT
BRANCH   1   2
ATOM      2  C   UNL     1     -25.567  30.025 -38.508  1.00  0.00     0.000 C 
BRANCH   2   3
ATOM      3  C   UNL     1     -24.219  29.680 -37.856  1.00  0.00     0.000 C 
BRANCH   3   4
ATOM      4  C   UNL     1     -23.235  30.854 -37.973  1.00  0.00     0.000 C 
BRANCH   4   5
ATOM      5  C   UNL     1     -23.724  31.939 -38.946  1.00  0.00     0.000 C 
BRANCH   5   6
ATOM      6  C   UNL     1     -22.581  32.553 -39.772  1.00  0.00     0.006 C 
BRANCH   6   7
ATOM      7  C   UNL     1     -21.878  33.697 -39.028  1.00  0.00     0.053 C 
BRANCH   7   8
ATOM      8  C   UNL     1     -20.464  33.346 -38.680  1.00  0.00     0.041 C 
ATOM      9  O   UNL     1     -19.520  33.699 -39.437  1.00  0.00    -0.550 OA
ATOM     10  O   UNL     1     -20.184  32.661 -37.504  1.00  0.00    -0.550 OA
ENDBRANCH   7   8
ENDBRANCH   6   7
ENDBRANCH   5   6
ENDBRANCH   4   5
ENDBRANCH   3   4
ENDBRANCH   2   3
ENDBRANCH   1   2
BRANCH   1  11
ATOM     11  C   UNL     1     -26.818  29.094 -40.591  1.00  0.00     0.000 C 
BRANCH  11  12
ATOM     12  C   UNL     1     -25.777  29.641 -41.581  1.00  0.00    -0.000 C 
BRANCH  12  13
ATOM     13  C   UNL     1     -24.605  28.671 -41.820  1.00  0.00    -0.000 C 
BRANCH  13  14
ATOM     14  C   UNL     1     -23.221  29.328 -41.973  1.00  0.00    -0.000 C 
BRANCH  14  15
ATOM     15  C   UNL     1     -22.220  28.884 -40.892  1.00  0.00    -0.000 C 
BRANCH  15  16
ATOM     16  C   UNL     1     -20.872  29.622 -40.984  1.00  0.00    -0.000 C 
BRANCH  16  17
ATOM     17  C   UNL     1     -20.607  30.337 -42.323  1.00  0.00    -0.003 C 
ATOM     18  C   UNL     1     -19.529  31.415 -42.223  1.00  0.00     0.004 C 
ENDBRANCH  16  17
ENDBRANCH  15  16
ENDBRANCH  14  15
ENDBRANCH  13  14
ENDBRANCH  12  13
ENDBRANCH  11  12
ENDBRANCH   1  11
TORSDOF 14
ENDMDL
MODEL 7
REMARK VINA RESULT:    -3.687      1.247      2.655
REMARK INTER + INTRA:          -8.536
REMARK INTER:                  -6.598
REMARK INTRA:                  -1.937
REMARK UNBOUND:                -1.831
REMARK SMILES CCCCCCCCCCCCCCCC(=O)[O-]
REMARK SMILES IDX 9 1 10 2 11 3 12 4 13 5 14 6 15 7 16 8 17 9 18 10 8 11 7 12
REMARK SMILES IDX 6 13 5 14 4 15 3 16 2 17 1 18
REMARK H PARENT
REMARK Flexibility Score: inf
ROOT
ATOM      1  C   UNL     1     -23.391  31.876 -40.424  1.00  0.00     0.000 C 
ENDROOT
BRANCH   1   2
ATOM      2  C   UNL     1     -22.039  31.386 -40.975  1.00  0.00     0.000 C 
BRANCH   2   3
ATOM      3  C   UNL     1     -21.965  29.858 -41.117  1.00  0.00     0.000 C 
BRANCH   3   4
ATOM      4  C   UNL     1     -22.912  29.362 -42.219  1.00  0.00     0.000 C 
BRANCH   4   5
ATOM      5  C   UNL     1     -23.991  28.405 -41.686  1.00  0.00     0.000 C 
BRANCH   5   6
ATOM      6  C   UNL     1     -25.413  28.972 -41.836  1.00  0.00     0.006 C 
BRANCH   6   7
ATOM      7  C   UNL     1     -26.285  28.680 -40.608  1.00  0.00     0.053 C 
BRANCH   7   8
ATOM      8  C   UNL     1     -27.729  28.522 -40.977  1.00  0.00     0.041 C 
ATOM      9  O   UNL     1     -28.230  29.229 -41.891  1.00  0.00    -0.550 OA
ATOM     10  O   UNL     1     -28.511  27.569 -40.337  1.00  0.00    -0.550 OA
ENDBRANCH   7   8
ENDBRANCH   6   7
ENDBRANCH   5   6
ENDBRANCH   4   5
ENDBRANCH   3   4
ENDBRANCH   2   3
ENDBRANCH   1   2
BRANCH   1  11
ATOM     11  C   UNL     1     -23.845  31.214 -39.109  1.00  0.00     0.000 C 
BRANCH  11  12
ATOM     12  C   UNL     1     -24.695  32.146 -38.230  1.00  0.00    -0.000 C 
BRANCH  12  13
ATOM     13  C   UNL     1     -24.105  33.563 -38.109  1.00  0.00    -0.000 C 
BRANCH  13  14
ATOM     14  C   UNL     1     -22.835  33.682 -37.246  1.00  0.00    -0.000 C 
BRANCH  14  15
ATOM     15  C   UNL     1     -21.686  34.410 -37.963  1.00  0.00    -0.000 C 
BRANCH  15  16
ATOM     16  C   UNL     1     -20.514  33.477 -38.319  1.00  0.00    -0.000 C 
BRANCH  16  17
ATOM     17  C   UNL     1     -20.543  32.099 -37.631  1.00  0.00    -0.003 C 
ATOM     18  C   UNL     1     -19.294  31.820 -36.797  1.00  0.00     0.004 C 
ENDBRANCH  16  17
ENDBRANCH  15  16
ENDBRANCH  14  15
ENDBRANCH  13  14
ENDBRANCH  12  13
ENDBRANCH  11  12
ENDBRANCH   1  11
TORSDOF 14
ENDMDL
MODEL 8
REMARK VINA RESULT:    -3.660      1.918      2.418
REMARK INTER + INTRA:          -8.486
REMARK INTER:                  -6.237
REMARK INTRA:                  -2.249
REMARK UNBOUND:                -1.831
REMARK SMILES CCCCCCCCCCCCCCCC(=O)[O-]
REMARK SMILES IDX 9 1 10 2 11 3 12 4 13 5 14 6 15 7 16 8 17 9 18 10 8 11 7 12
REMARK SMILES IDX 6 13 5 14 4 15 3 16 2 17 1 18
REMARK H PARENT
REMARK Flexibility Score: inf
ROOT
ATOM      1  C   UNL     1     -19.430  30.808 -39.742  1.00  0.00     0.000 C 
ENDROOT
BRANCH   1   2
ATOM      2  C   UNL     1     -20.229  29.857 -40.653  1.00  0.00     0.000 C 
BRANCH   2   3
ATOM      3  C   UNL     1     -20.419  30.405 -42.076  1.00  0.00     0.000 C 
BRANCH   3   4
ATOM      4  C   UNL     1     -21.789  30.000 -42.641  1.00  0.00     0.000 C 
BRANCH   4   5
ATOM      5  C   UNL     1     -22.617  29.170 -41.646  1.00  0.00     0.000 C 
BRANCH   5   6
ATOM      6  C   UNL     1     -24.126  29.448 -41.754  1.00  0.00     0.006 C 
BRANCH   6   7
ATOM      7  C   UNL     1     -24.463  30.924 -41.504  1.00  0.00     0.053 C 
BRANCH   7   8
ATOM      8  C   UNL     1     -25.878  31.100 -41.044  1.00  0.00     0.041 C 
ATOM      9  O   UNL     1     -26.120  31.627 -39.926  1.00  0.00    -0.550 OA
ATOM     10  O   UNL     1     -26.930  30.714 -41.865  1.00  0.00    -0.550 OA
ENDBRANCH   7   8
ENDBRANCH   6   7
ENDBRANCH   5   6
ENDBRANCH   4   5
ENDBRANCH   3   4
ENDBRANCH   2   3
ENDBRANCH   1   2
BRANCH   1  11
ATOM     11  C   UNL     1     -19.014  32.143 -40.387  1.00  0.00     0.000 C 
BRANCH  11  12
ATOM     12  C   UNL     1     -19.490  33.369 -39.591  1.00  0.00    -0.000 C 
BRANCH  12  13
ATOM     13  C   UNL     1     -21.010  33.594 -39.683  1.00  0.00    -0.000 C 
BRANCH  13  14
ATOM     14  C   UNL     1     -21.681  34.124 -38.402  1.00  0.00    -0.000 C 
BRANCH  14  15
ATOM     15  C   UNL     1     -22.199  33.003 -37.486  1.00  0.00    -0.000 C 
BRANCH  15  16
ATOM     16  C   UNL     1     -23.003  31.932 -38.244  1.00  0.00    -0.000 C 
BRANCH  16  17
ATOM     17  C   UNL     1     -22.671  30.476 -37.868  1.00  0.00    -0.003 C 
ATOM     18  C   UNL     1     -23.845  29.520 -38.073  1.00  0.00     0.004 C 
ENDBRANCH  16  17
ENDBRANCH  15  16
ENDBRANCH  14  15
ENDBRANCH  13  14
ENDBRANCH  12  13
ENDBRANCH  11  12
ENDBRANCH   1  11
TORSDOF 14
ENDMDL
MODEL 9
REMARK VINA RESULT:    -3.624      1.219      2.380
REMARK INTER + INTRA:          -8.421
REMARK INTER:                  -6.222
REMARK INTRA:                  -2.199
REMARK UNBOUND:                -1.831
REMARK SMILES CCCCCCCCCCCCCCCC(=O)[O-]
REMARK SMILES IDX 9 1 10 2 11 3 12 4 13 5 14 6 15 7 16 8 17 9 18 10 8 11 7 12
REMARK SMILES IDX 6 13 5 14 4 15 3 16 2 17 1 18
REMARK H PARENT
REMARK Flexibility Score: inf
ROOT
ATOM      1  C   UNL     1     -19.825  30.643 -40.523  1.00  0.00     0.000 C 
ENDROOT
BRANCH   1   2
ATOM      2  C   UNL     1     -20.510  30.753 -41.897  1.00  0.00     0.000 C 
BRANCH   2   3
ATOM      3  C   UNL     1     -21.520  29.625 -42.160  1.00  0.00     0.000 C 
BRANCH   3   4
ATOM      4  C   UNL     1     -22.951  30.177 -42.237  1.00  0.00     0.000 C 
BRANCH   4   5
ATOM      5  C   UNL     1     -24.015  29.102 -41.963  1.00  0.00     0.000 C 
BRANCH   5   6
ATOM      6  C   UNL     1     -25.298  29.682 -41.343  1.00  0.00     0.006 C 
BRANCH   6   7
ATOM      7  C   UNL     1     -26.282  28.585 -40.916  1.00  0.00     0.053 C 
BRANCH   7   8
ATOM      8  C   UNL     1     -27.423  28.457 -41.879  1.00  0.00     0.041 C 
ATOM      9  O   UNL     1     -27.583  27.392 -42.533  1.00  0.00    -0.550 OA
ATOM     10  O   UNL     1     -28.329  29.499 -42.028  1.00  0.00    -0.550 OA
ENDBRANCH   7   8
ENDBRANCH   6   7
ENDBRANCH   5   6
ENDBRANCH   4   5
ENDBRANCH   3   4
ENDBRANCH   2   3
ENDBRANCH   1   2
BRANCH   1  11
ATOM     11  C   UNL     1     -20.399  29.562 -39.586  1.00  0.00     0.000 C 
BRANCH  11  12
ATOM     12  C   UNL     1     -21.190  30.149 -38.406  1.00  0.00    -0.000 C 
BRANCH  12  13
ATOM     13  C   UNL     1     -22.708  29.922 -38.525  1.00  0.00    -0.000 C 
BRANCH  13  14
ATOM     14  C   UNL     1     -23.584  31.172 -38.322  1.00  0.00    -0.000 C 
BRANCH  14  15
ATOM     15  C   UNL     1     -23.193  32.339 -39.244  1.00  0.00    -0.000 C 
BRANCH  15  16
ATOM     16  C   UNL     1     -23.110  33.686 -38.503  1.00  0.00    -0.000 C 
BRANCH  16  17
ATOM     17  C   UNL     1     -21.683  34.159 -38.165  1.00  0.00    -0.003 C 
ATOM     18  C   UNL     1     -20.668  33.834 -39.259  1.00  0.00     0.004 C 
ENDBRANCH  16  17
ENDBRANCH  15  16
ENDBRANCH  14  15
ENDBRANCH  13  14
ENDBRANCH  12  13
ENDBRANCH  11  12
ENDBRANCH   1  11
TORSDOF 14
ENDMDL
