MODEL 1
REMARK VINA RESULT:    -6.758      0.000      0.000
REMARK INTER + INTRA:         -14.386
REMARK INTER:                 -11.104
REMARK INTRA:                  -3.282
REMARK UNBOUND:                -3.282
REMARK SMILES C[C@H]1O[C@@H](OC[C@H]2O[C@@H](Oc3c(-c4ccc(O)c(O)c4)oc4cc(O)cc(O)c4c3=O)[C@@H](O)[C@@H](O)[C@@H]2O)[C@@H](O)[C@H](O)[C@@H]1O
REMARK SMILES IDX 7 1 36 2 34 3 32 4 9 5 8 6 6 7 5 8 4 9 1 10 2 11 42 12 3 13
REMARK SMILES IDX 40 14 38 15 43 16 41 18 39 20 37 22 35 24 10 26 11 27 12 28
REMARK SMILES IDX 30 29 21 30 29 31 31 32 22 33 27 34 23 35 26 36 24 37 13 38
REMARK SMILES IDX 20 39 14 40 18 41 15 42 16 43 19 44 17 46 28 48 25 50 33 52
REMARK H PARENT 43 17 41 19 39 21 37 23 35 25 19 45 17 47 28 49 25 51 33 53
REMARK Flexibility Score: inf
ROOT
ATOM      1  C   UNL     1       9.229  21.434  29.123  1.00  0.00     0.180 C 
ATOM      2  C   UNL     1       8.896  21.882  27.689  1.00  0.00     0.177 C 
ATOM      3  C   UNL     1      10.317  21.691  27.054  1.00  0.00     0.180 C 
ATOM      4  C   UNL     1      10.289  20.139  26.703  1.00  0.00     0.214 C 
ATOM      5  C   UNL     1      10.283  19.398  28.139  1.00  0.00     0.339 C 
ATOM      6  O   UNL     1      10.154  20.321  29.190  1.00  0.00    -0.332 OA
ENDROOT
BRANCH   1   7
ATOM      7  C   UNL     1       8.042  20.819  29.728  1.00  0.00     0.198 C 
BRANCH   7   8
ATOM      8  O   UNL     1       7.160  20.093  28.766  1.00  0.00    -0.347 OA
BRANCH   8   9
ATOM      9  C   UNL     1       6.462  18.795  28.854  1.00  0.00     0.281 C 
ATOM     10  C   UNL     1       4.593  17.314  31.218  1.00  0.00     0.041 C 
ATOM     11  C   UNL     1       4.329  17.894  29.781  1.00  0.00     0.150 C 
ATOM     12  C   UNL     1       4.446  16.825  28.595  1.00  0.00     0.174 C 
ATOM     13  O   UNL     1       5.288  18.998  29.671  1.00  0.00    -0.344 OA
ATOM     14  C   UNL     1       5.906  16.214  28.412  1.00  0.00     0.179 C 
ATOM     15  C   UNL     1       6.985  17.220  29.069  1.00  0.00     0.202 C 
BRANCH  12  16
ATOM     16  O   UNL     1       3.748  17.289  27.375  1.00  0.00    -0.388 OA
ATOM     17  H   UNL     1       3.172  16.599  26.912  1.00  0.00     0.211 HD
ENDBRANCH  12  16
BRANCH  14  18
ATOM     18  O   UNL     1       6.343  15.938  27.134  1.00  0.00    -0.387 OA
ATOM     19  H   UNL     1       7.166  16.560  26.954  1.00  0.00     0.211 HD
ENDBRANCH  14  18
BRANCH  15  20
ATOM     20  O   UNL     1       8.057  16.771  29.956  1.00  0.00    -0.385 OA
ATOM     21  H   UNL     1       8.906  16.303  29.577  1.00  0.00     0.211 HD
ENDBRANCH  15  20
ENDBRANCH   8   9
ENDBRANCH   7   8
ENDBRANCH   1   7
BRANCH   2  22
ATOM     22  O   UNL     1       8.433  23.255  27.678  1.00  0.00    -0.387 OA
ATOM     23  H   UNL     1       8.513  23.542  26.660  1.00  0.00     0.211 HD
ENDBRANCH   2  22
BRANCH   3  24
ATOM     24  O   UNL     1      10.738  22.920  26.478  1.00  0.00    -0.387 OA
ATOM     25  H   UNL     1      10.734  22.616  25.460  1.00  0.00     0.211 HD
ENDBRANCH   3  24
BRANCH   5  26
ATOM     26  O   UNL     1      10.177  17.969  28.534  1.00  0.00    -0.454 OA
BRANCH  26  27
ATOM     27  C   UNL     1      11.065  16.910  27.946  1.00  0.00     0.214 A 
ATOM     28  C   UNL     1      12.489  17.062  27.725  1.00  0.00     0.180 A 
ATOM     29  C   UNL     1      10.392  16.032  27.126  1.00  0.00     0.239 A 
ATOM     30  O   UNL     1      12.939  16.783  26.468  1.00  0.00    -0.452 OA
ATOM     31  C   UNL     1      10.780  16.065  25.795  1.00  0.00     0.111 A 
ATOM     32  O   UNL     1       9.410  15.299  27.558  1.00  0.00    -0.285 OA
ATOM     33  C   UNL     1      12.147  16.383  25.445  1.00  0.00     0.146 A 
ATOM     34  C   UNL     1       9.831  15.954  24.730  1.00  0.00     0.134 A 
ATOM     35  C   UNL     1      12.595  16.334  24.064  1.00  0.00     0.094 A 
ATOM     36  C   UNL     1      10.271  15.182  23.610  1.00  0.00     0.093 A 
ATOM     37  C   UNL     1      11.601  15.663  23.190  1.00  0.00     0.123 A 
BRANCH  28  38
ATOM     38  C   UNL     1      13.495  17.214  28.905  1.00  0.00     0.025 A 
ATOM     39  C   UNL     1      13.910  16.112  29.696  1.00  0.00     0.062 A 
ATOM     40  C   UNL     1      13.580  18.533  29.466  1.00  0.00     0.016 A 
ATOM     41  C   UNL     1      14.589  16.412  30.918  1.00  0.00     0.158 A 
ATOM     42  C   UNL     1      14.244  18.713  30.690  1.00  0.00     0.051 A 
ATOM     43  C   UNL     1      15.005  17.674  31.183  1.00  0.00     0.157 A 
BRANCH  41  44
ATOM     44  O   UNL     1      14.708  15.455  31.892  1.00  0.00    -0.504 OA
ATOM     45  H   UNL     1      14.052  14.672  31.873  1.00  0.00     0.293 HD
ENDBRANCH  41  44
BRANCH  43  46
ATOM     46  O   UNL     1      16.400  17.876  31.631  1.00  0.00    -0.504 OA
ATOM     47  H   UNL     1      16.623  17.936  32.639  1.00  0.00     0.293 HD
ENDBRANCH  43  46
ENDBRANCH  28  38
BRANCH  34  48
ATOM     48  O   UNL     1       9.252  17.196  24.356  1.00  0.00    -0.507 OA
ATOM     49  H   UNL     1       9.707  18.105  24.433  1.00  0.00     0.293 HD
ENDBRANCH  34  48
BRANCH  37  50
ATOM     50  O   UNL     1      12.060  15.407  21.889  1.00  0.00    -0.508 OA
ATOM     51  H   UNL     1      11.396  15.191  21.189  1.00  0.00     0.293 HD
ENDBRANCH  37  50
ENDBRANCH  26  27
ENDBRANCH   5  26
BRANCH   4  52
ATOM     52  O   UNL     1       9.105  19.826  25.886  1.00  0.00    -0.384 OA
ATOM     53  H   UNL     1       8.599  19.033  26.240  1.00  0.00     0.211 HD
ENDBRANCH   4  52
TORSDOF 16
ENDMDL
MODEL 2
REMARK VINA RESULT:    -6.559      5.670      9.410
REMARK INTER + INTRA:         -14.059
REMARK INTER:                 -10.424
REMARK INTRA:                  -3.634
REMARK UNBOUND:                -3.282
REMARK SMILES C[C@H]1O[C@@H](OC[C@H]2O[C@@H](Oc3c(-c4ccc(O)c(O)c4)oc4cc(O)cc(O)c4c3=O)[C@@H](O)[C@@H](O)[C@@H]2O)[C@@H](O)[C@H](O)[C@@H]1O
REMARK SMILES IDX 7 1 36 2 34 3 32 4 9 5 8 6 6 7 5 8 4 9 1 10 2 11 42 12 3 13
REMARK SMILES IDX 40 14 38 15 43 16 41 18 39 20 37 22 35 24 10 26 11 27 12 28
REMARK SMILES IDX 30 29 21 30 29 31 31 32 22 33 27 34 23 35 26 36 24 37 13 38
REMARK SMILES IDX 20 39 14 40 18 41 15 42 16 43 19 44 17 46 28 48 25 50 33 52
REMARK H PARENT 43 17 41 19 39 21 37 23 35 25 19 45 17 47 28 49 25 51 33 53
REMARK Flexibility Score: inf
ROOT
ATOM      1  C   UNL     1      13.648   9.739  28.598  1.00  0.00     0.180 C 
ATOM      2  C   UNL     1      12.346   9.732  27.779  1.00  0.00     0.177 C 
ATOM      3  C   UNL     1      11.767  11.109  28.256  1.00  0.00     0.180 C 
ATOM      4  C   UNL     1      12.519  12.112  27.275  1.00  0.00     0.214 C 
ATOM      5  C   UNL     1      14.069  12.039  27.729  1.00  0.00     0.339 C 
ATOM      6  O   UNL     1      14.271  11.043  28.698  1.00  0.00    -0.332 OA
ENDROOT
BRANCH   1   7
ATOM      7  C   UNL     1      14.689   9.013  27.862  1.00  0.00     0.198 C 
BRANCH   7   8
ATOM      8  O   UNL     1      14.191   8.227  26.694  1.00  0.00    -0.347 OA
BRANCH   8   9
ATOM      9  C   UNL     1      14.417   8.368  25.242  1.00  0.00     0.281 C 
ATOM     10  C   UNL     1      17.018   7.722  23.219  1.00  0.00     0.041 C 
ATOM     11  C   UNL     1      15.577   7.126  23.416  1.00  0.00     0.150 C 
ATOM     12  C   UNL     1      14.452   7.770  22.476  1.00  0.00     0.174 C 
ATOM     13  O   UNL     1      15.318   7.310  24.847  1.00  0.00    -0.344 OA
ATOM     14  C   UNL     1      14.181   9.316  22.750  1.00  0.00     0.179 C 
ATOM     15  C   UNL     1      14.681   9.682  24.242  1.00  0.00     0.202 C 
BRANCH  12  16
ATOM     16  O   UNL     1      13.270   6.886  22.359  1.00  0.00    -0.388 OA
ATOM     17  H   UNL     1      12.667   6.853  23.171  1.00  0.00     0.211 HD
ENDBRANCH  12  16
BRANCH  14  18
ATOM     18  O   UNL     1      12.890   9.783  22.635  1.00  0.00    -0.387 OA
ATOM     19  H   UNL     1      12.880  10.454  21.832  1.00  0.00     0.211 HD
ENDBRANCH  14  18
BRANCH  15  20
ATOM     20  O   UNL     1      15.498  10.856  24.542  1.00  0.00    -0.385 OA
ATOM     21  H   UNL     1      16.460  10.758  24.929  1.00  0.00     0.211 HD
ENDBRANCH  15  20
ENDBRANCH   8   9
ENDBRANCH   7   8
ENDBRANCH   1   7
BRANCH   2  22
ATOM     22  O   UNL     1      11.521   8.597  28.142  1.00  0.00    -0.387 OA
ATOM     23  H   UNL     1      12.148   7.760  27.964  1.00  0.00     0.211 HD
ENDBRANCH   2  22
BRANCH   3  24
ATOM     24  O   UNL     1      10.474  10.906  28.806  1.00  0.00    -0.387 OA
ATOM     25  H   UNL     1      10.237  11.920  29.010  1.00  0.00     0.211 HD
ENDBRANCH   3  24
BRANCH   5  26
ATOM     26  O   UNL     1      15.307  12.654  27.184  1.00  0.00    -0.454 OA
BRANCH  26  27
ATOM     27  C   UNL     1      15.310  14.015  26.549  1.00  0.00     0.214 A 
ATOM     28  C   UNL     1      14.636  15.177  27.092  1.00  0.00     0.180 A 
ATOM     29  C   UNL     1      15.494  13.977  25.185  1.00  0.00     0.239 A 
ATOM     30  O   UNL     1      13.794  15.838  26.247  1.00  0.00    -0.452 OA
ATOM     31  C   UNL     1      14.417  14.433  24.439  1.00  0.00     0.111 A 
ATOM     32  O   UNL     1      16.560  13.466  24.646  1.00  0.00    -0.285 OA
ATOM     33  C   UNL     1      13.562  15.475  24.963  1.00  0.00     0.146 A 
ATOM     34  C   UNL     1      14.017  13.794  23.224  1.00  0.00     0.134 A 
ATOM     35  C   UNL     1      12.485  16.031  24.162  1.00  0.00     0.094 A 
ATOM     36  C   UNL     1      13.591  14.683  22.188  1.00  0.00     0.093 A 
ATOM     37  C   UNL     1      12.592  15.618  22.740  1.00  0.00     0.123 A 
BRANCH  28  38
ATOM     38  C   UNL     1      15.075  15.831  28.437  1.00  0.00     0.025 A 
ATOM     39  C   UNL     1      15.950  15.184  29.346  1.00  0.00     0.062 A 
ATOM     40  C   UNL     1      14.190  16.844  28.937  1.00  0.00     0.016 A 
ATOM     41  C   UNL     1      16.042  15.738  30.661  1.00  0.00     0.158 A 
ATOM     42  C   UNL     1      14.348  17.298  30.257  1.00  0.00     0.051 A 
ATOM     43  C   UNL     1      15.494  16.946  30.939  1.00  0.00     0.157 A 
BRANCH  41  44
ATOM     44  O   UNL     1      16.571  14.996  31.685  1.00  0.00    -0.504 OA
ATOM     45  H   UNL     1      17.147  15.481  32.376  1.00  0.00     0.293 HD
ENDBRANCH  41  44
BRANCH  43  46
ATOM     46  O   UNL     1      16.323  17.951  31.640  1.00  0.00    -0.504 OA
ATOM     47  H   UNL     1      16.097  18.233  32.608  1.00  0.00     0.293 HD
ENDBRANCH  43  46
ENDBRANCH  28  38
BRANCH  34  48
ATOM     48  O   UNL     1      13.124  12.706  23.424  1.00  0.00    -0.507 OA
ATOM     49  H   UNL     1      12.167  12.785  23.762  1.00  0.00     0.293 HD
ENDBRANCH  34  48
BRANCH  37  50
ATOM     50  O   UNL     1      11.702  16.279  21.881  1.00  0.00    -0.508 OA
ATOM     51  H   UNL     1      10.879  16.670  22.267  1.00  0.00     0.293 HD
ENDBRANCH  37  50
ENDBRANCH  26  27
ENDBRANCH   5  26
BRANCH   4  52
ATOM     52  O   UNL     1      12.307  11.706  25.877  1.00  0.00    -0.384 OA
ATOM     53  H   UNL     1      13.091  11.197  25.506  1.00  0.00     0.211 HD
ENDBRANCH   4  52
TORSDOF 16
ENDMDL
MODEL 3
REMARK VINA RESULT:    -6.409      6.699     12.840
REMARK INTER + INTRA:         -13.812
REMARK INTER:                 -11.685
REMARK INTRA:                  -2.127
REMARK UNBOUND:                -3.282
REMARK SMILES C[C@H]1O[C@@H](OC[C@H]2O[C@@H](Oc3c(-c4ccc(O)c(O)c4)oc4cc(O)cc(O)c4c3=O)[C@@H](O)[C@@H](O)[C@@H]2O)[C@@H](O)[C@H](O)[C@@H]1O
REMARK SMILES IDX 7 1 36 2 34 3 32 4 9 5 8 6 6 7 5 8 4 9 1 10 2 11 42 12 3 13
REMARK SMILES IDX 40 14 38 15 43 16 41 18 39 20 37 22 35 24 10 26 11 27 12 28
REMARK SMILES IDX 30 29 21 30 29 31 31 32 22 33 27 34 23 35 26 36 24 37 13 38
REMARK SMILES IDX 20 39 14 40 18 41 15 42 16 43 19 44 17 46 28 48 25 50 33 52
REMARK H PARENT 43 17 41 19 39 21 37 23 35 25 19 45 17 47 28 49 25 51 33 53
REMARK Flexibility Score: inf
ROOT
ATOM      1  C   UNL     1      13.764  17.559  18.261  1.00  0.00     0.180 C 
ATOM      2  C   UNL     1      15.104  17.747  17.527  1.00  0.00     0.177 C 
ATOM      3  C   UNL     1      16.064  17.310  18.688  1.00  0.00     0.180 C 
ATOM      4  C   UNL     1      16.053  15.728  18.513  1.00  0.00     0.214 C 
ATOM      5  C   UNL     1      14.552  15.285  18.917  1.00  0.00     0.339 C 
ATOM      6  O   UNL     1      13.730  16.403  19.133  1.00  0.00    -0.332 OA
ENDROOT
BRANCH   1   7
ATOM      7  C   UNL     1      12.728  17.182  17.294  1.00  0.00     0.198 C 
BRANCH   7   8
ATOM      8  O   UNL     1      12.223  18.309  16.453  1.00  0.00    -0.347 OA
BRANCH   8   9
ATOM      9  C   UNL     1      12.606  18.786  15.109  1.00  0.00     0.281 C 
ATOM     10  C   UNL     1      11.744  17.892  11.990  1.00  0.00     0.041 C 
ATOM     11  C   UNL     1      11.522  19.158  12.894  1.00  0.00     0.150 C 
ATOM     12  C   UNL     1      12.626  20.306  12.722  1.00  0.00     0.174 C 
ATOM     13  O   UNL     1      11.458  18.608  14.252  1.00  0.00    -0.344 OA
ATOM     14  C   UNL     1      14.093  19.869  13.166  1.00  0.00     0.179 C 
ATOM     15  C   UNL     1      13.987  18.617  14.180  1.00  0.00     0.202 C 
BRANCH  12  16
ATOM     16  O   UNL     1      12.131  21.613  13.211  1.00  0.00    -0.388 OA
ATOM     17  H   UNL     1      11.133  21.757  13.139  1.00  0.00     0.211 HD
ENDBRANCH  12  16
BRANCH  14  18
ATOM     18  O   UNL     1      14.897  20.809  13.773  1.00  0.00    -0.387 OA
ATOM     19  H   UNL     1      14.262  21.475  14.273  1.00  0.00     0.211 HD
ENDBRANCH  14  18
BRANCH  15  20
ATOM     20  O   UNL     1      14.811  17.418  14.053  1.00  0.00    -0.385 OA
ATOM     21  H   UNL     1      15.043  16.834  14.883  1.00  0.00     0.211 HD
ENDBRANCH  15  20
ENDBRANCH   8   9
ENDBRANCH   7   8
ENDBRANCH   1   7
BRANCH   2  22
ATOM     22  O   UNL     1      15.273  19.127  17.120  1.00  0.00    -0.387 OA
ATOM     23  H   UNL     1      14.720  19.195  16.217  1.00  0.00     0.211 HD
ENDBRANCH   2  22
BRANCH   3  24
ATOM     24  O   UNL     1      16.984  18.360  18.951  1.00  0.00    -0.387 OA
ATOM     25  H   UNL     1      17.798  17.765  19.283  1.00  0.00     0.211 HD
ENDBRANCH   3  24
BRANCH   5  26
ATOM     26  O   UNL     1      13.849  13.976  18.895  1.00  0.00    -0.454 OA
BRANCH  26  27
ATOM     27  C   UNL     1      12.661  13.692  19.769  1.00  0.00     0.214 A 
ATOM     28  C   UNL     1      11.375  14.349  19.645  1.00  0.00     0.180 A 
ATOM     29  C   UNL     1      13.004  13.215  21.014  1.00  0.00     0.239 A 
ATOM     30  O   UNL     1      10.870  14.909  20.780  1.00  0.00    -0.452 OA
ATOM     31  C   UNL     1      12.664  14.047  22.071  1.00  0.00     0.111 A 
ATOM     32  O   UNL     1      13.675  12.114  21.169  1.00  0.00    -0.285 OA
ATOM     33  C   UNL     1      11.490  14.886  21.984  1.00  0.00     0.146 A 
ATOM     34  C   UNL     1      13.531  14.230  23.194  1.00  0.00     0.134 A 
ATOM     35  C   UNL     1      11.065  15.695  23.113  1.00  0.00     0.094 A 
ATOM     36  C   UNL     1      12.866  14.322  24.457  1.00  0.00     0.093 A 
ATOM     37  C   UNL     1      11.782  15.317  24.357  1.00  0.00     0.123 A 
BRANCH  28  38
ATOM     38  C   UNL     1      10.468  14.155  18.392  1.00  0.00     0.025 A 
ATOM     39  C   UNL     1      10.905  13.453  17.239  1.00  0.00     0.062 A 
ATOM     40  C   UNL     1       9.411  15.116  18.252  1.00  0.00     0.016 A 
ATOM     41  C   UNL     1      10.114  13.595  16.057  1.00  0.00     0.158 A 
ATOM     42  C   UNL     1       8.716  15.194  17.034  1.00  0.00     0.051 A 
ATOM     43  C   UNL     1       8.896  14.186  16.110  1.00  0.00     0.157 A 
BRANCH  41  44
ATOM     44  O   UNL     1      10.635  13.255  14.835  1.00  0.00    -0.504 OA
ATOM     45  H   UNL     1      10.870  14.012  14.190  1.00  0.00     0.293 HD
ENDBRANCH  41  44
BRANCH  43  46
ATOM     46  O   UNL     1       7.750  13.495  15.478  1.00  0.00    -0.504 OA
ATOM     47  H   UNL     1       7.058  14.027  14.926  1.00  0.00     0.293 HD
ENDBRANCH  43  46
ENDBRANCH  28  38
BRANCH  34  48
ATOM     48  O   UNL     1      14.500  15.251  23.001  1.00  0.00    -0.507 OA
ATOM     49  H   UNL     1      14.933  15.800  23.741  1.00  0.00     0.293 HD
ENDBRANCH  34  48
BRANCH  37  50
ATOM     50  O   UNL     1      11.277  15.923  25.518  1.00  0.00    -0.508 OA
ATOM     51  H   UNL     1      10.315  15.817  25.724  1.00  0.00     0.293 HD
ENDBRANCH  37  50
ENDBRANCH  26  27
ENDBRANCH   5  26
BRANCH   4  52
ATOM     52  O   UNL     1      16.410  15.369  17.132  1.00  0.00    -0.384 OA
ATOM     53  H   UNL     1      17.404  15.370  16.984  1.00  0.00     0.211 HD
ENDBRANCH   4  52
TORSDOF 16
ENDMDL
MODEL 4
REMARK VINA RESULT:    -6.386      8.501     13.595
REMARK INTER + INTRA:         -13.774
REMARK INTER:                 -10.114
REMARK INTRA:                  -3.660
REMARK UNBOUND:                -3.282
REMARK SMILES C[C@H]1O[C@@H](OC[C@H]2O[C@@H](Oc3c(-c4ccc(O)c(O)c4)oc4cc(O)cc(O)c4c3=O)[C@@H](O)[C@@H](O)[C@@H]2O)[C@@H](O)[C@H](O)[C@@H]1O
REMARK SMILES IDX 7 1 36 2 34 3 32 4 9 5 8 6 6 7 5 8 4 9 1 10 2 11 42 12 3 13
REMARK SMILES IDX 40 14 38 15 43 16 41 18 39 20 37 22 35 24 10 26 11 27 12 28
REMARK SMILES IDX 30 29 21 30 29 31 31 32 22 33 27 34 23 35 26 36 24 37 13 38
REMARK SMILES IDX 20 39 14 40 18 41 15 42 16 43 19 44 17 46 28 48 25 50 33 52
REMARK H PARENT 43 17 41 19 39 21 37 23 35 25 19 45 17 47 28 49 25 51 33 53
REMARK Flexibility Score: inf
ROOT
ATOM      1  C   UNL     1       8.532  14.644  15.371  1.00  0.00     0.180 C 
ATOM      2  C   UNL     1       8.330  13.717  14.160  1.00  0.00     0.177 C 
ATOM      3  C   UNL     1       8.817  14.697  13.037  1.00  0.00     0.180 C 
ATOM      4  C   UNL     1      10.392  14.471  13.098  1.00  0.00     0.214 C 
ATOM      5  C   UNL     1      10.836  15.089  14.524  1.00  0.00     0.339 C 
ATOM      6  O   UNL     1       9.720  15.470  15.286  1.00  0.00    -0.332 OA
ENDROOT
BRANCH   1   7
ATOM      7  C   UNL     1       8.864  13.837  16.551  1.00  0.00     0.198 C 
BRANCH   7   8
ATOM      8  O   UNL     1       9.570  12.556  16.249  1.00  0.00    -0.347 OA
BRANCH   8   9
ATOM      9  C   UNL     1      10.887  12.033  16.665  1.00  0.00     0.281 C 
ATOM     10  C   UNL     1      13.580  13.408  18.124  1.00  0.00     0.041 C 
ATOM     11  C   UNL     1      12.499  12.346  18.542  1.00  0.00     0.150 C 
ATOM     12  C   UNL     1      12.902  10.825  18.242  1.00  0.00     0.174 C 
ATOM     13  O   UNL     1      11.292  12.781  17.831  1.00  0.00    -0.344 OA
ATOM     14  C   UNL     1      13.074  10.491  16.693  1.00  0.00     0.179 C 
ATOM     15  C   UNL     1      12.262  11.584  15.825  1.00  0.00     0.202 C 
BRANCH  12  16
ATOM     16  O   UNL     1      12.102   9.881  19.054  1.00  0.00    -0.388 OA
ATOM     17  H   UNL     1      11.985   8.957  18.661  1.00  0.00     0.211 HD
ENDBRANCH  12  16
BRANCH  14  18
ATOM     18  O   UNL     1      12.677   9.249  16.247  1.00  0.00    -0.387 OA
ATOM     19  H   UNL     1      12.001   9.410  15.463  1.00  0.00     0.211 HD
ENDBRANCH  14  18
BRANCH  15  20
ATOM     20  O   UNL     1      12.832  12.257  14.660  1.00  0.00    -0.385 OA
ATOM     21  H   UNL     1      13.127  13.255  14.706  1.00  0.00     0.211 HD
ENDBRANCH  15  20
ENDBRANCH   8   9
ENDBRANCH   7   8
ENDBRANCH   1   7
BRANCH   2  22
ATOM     22  O   UNL     1       6.938  13.336  14.036  1.00  0.00    -0.387 OA
ATOM     23  H   UNL     1       6.424  14.263  13.991  1.00  0.00     0.211 HD
ENDBRANCH   2  22
BRANCH   3  24
ATOM     24  O   UNL     1       7.786  14.850  12.072  1.00  0.00    -0.387 OA
ATOM     25  H   UNL     1       6.955  14.735  12.723  1.00  0.00     0.211 HD
ENDBRANCH   3  24
BRANCH   5  26
ATOM     26  O   UNL     1      12.137  15.131  15.241  1.00  0.00    -0.454 OA
BRANCH  26  27
ATOM     27  C   UNL     1      12.836  16.424  15.553  1.00  0.00     0.214 A 
ATOM     28  C   UNL     1      12.366  17.400  16.516  1.00  0.00     0.180 A 
ATOM     29  C   UNL     1      13.605  16.891  14.511  1.00  0.00     0.239 A 
ATOM     30  O   UNL     1      12.246  18.682  16.068  1.00  0.00    -0.452 OA
ATOM     31  C   UNL     1      13.182  18.095  13.968  1.00  0.00     0.111 A 
ATOM     32  O   UNL     1      14.593  16.204  14.022  1.00  0.00    -0.285 OA
ATOM     33  C   UNL     1      12.534  19.080  14.806  1.00  0.00     0.146 A 
ATOM     34  C   UNL     1      13.215  18.340  12.559  1.00  0.00     0.134 A 
ATOM     35  C   UNL     1      12.166  20.382  14.278  1.00  0.00     0.094 A 
ATOM     36  C   UNL     1      13.599  19.666  12.188  1.00  0.00     0.093 A 
ATOM     37  C   UNL     1      12.787  20.632  12.953  1.00  0.00     0.123 A 
BRANCH  28  38
ATOM     38  C   UNL     1      12.310  17.091  18.042  1.00  0.00     0.025 A 
ATOM     39  C   UNL     1      13.461  17.142  18.870  1.00  0.00     0.062 A 
ATOM     40  C   UNL     1      11.198  16.285  18.459  1.00  0.00     0.016 A 
ATOM     41  C   UNL     1      13.349  16.556  20.169  1.00  0.00     0.158 A 
ATOM     42  C   UNL     1      11.202  15.731  19.750  1.00  0.00     0.051 A 
ATOM     43  C   UNL     1      12.140  16.181  20.655  1.00  0.00     0.157 A 
BRANCH  41  44
ATOM     44  O   UNL     1      14.477  16.247  20.884  1.00  0.00    -0.504 OA
ATOM     45  H   UNL     1      15.129  15.575  20.477  1.00  0.00     0.293 HD
ENDBRANCH  41  44
BRANCH  43  46
ATOM     46  O   UNL     1      11.761  16.620  22.016  1.00  0.00    -0.504 OA
ATOM     47  H   UNL     1      11.797  15.958  22.808  1.00  0.00     0.293 HD
ENDBRANCH  43  46
ENDBRANCH  28  38
BRANCH  34  48
ATOM     48  O   UNL     1      12.054  17.886  11.878  1.00  0.00    -0.507 OA
ATOM     49  H   UNL     1      11.514  18.430  11.206  1.00  0.00     0.293 HD
ENDBRANCH  34  48
BRANCH  37  50
ATOM     50  O   UNL     1      12.631  21.945  12.484  1.00  0.00    -0.508 OA
ATOM     51  H   UNL     1      12.154  22.596  13.056  1.00  0.00     0.293 HD
ENDBRANCH  37  50
ENDBRANCH  26  27
ENDBRANCH   5  26
BRANCH   4  52
ATOM     52  O   UNL     1      10.703  13.040  12.966  1.00  0.00    -0.384 OA
ATOM     53  H   UNL     1      11.548  12.882  12.444  1.00  0.00     0.211 HD
ENDBRANCH   4  52
TORSDOF 16
ENDMDL
MODEL 5
REMARK VINA RESULT:    -6.371      5.361      9.672
REMARK INTER + INTRA:         -13.750
REMARK INTER:                 -10.812
REMARK INTRA:                  -2.938
REMARK UNBOUND:                -3.282
REMARK SMILES C[C@H]1O[C@@H](OC[C@H]2O[C@@H](Oc3c(-c4ccc(O)c(O)c4)oc4cc(O)cc(O)c4c3=O)[C@@H](O)[C@@H](O)[C@@H]2O)[C@@H](O)[C@H](O)[C@@H]1O
REMARK SMILES IDX 7 1 36 2 34 3 32 4 9 5 8 6 6 7 5 8 4 9 1 10 2 11 42 12 3 13
REMARK SMILES IDX 40 14 38 15 43 16 41 18 39 20 37 22 35 24 10 26 11 27 12 28
REMARK SMILES IDX 30 29 21 30 29 31 31 32 22 33 27 34 23 35 26 36 24 37 13 38
REMARK SMILES IDX 20 39 14 40 18 41 15 42 16 43 19 44 17 46 28 48 25 50 33 52
REMARK H PARENT 43 17 41 19 39 21 37 23 35 25 19 45 17 47 28 49 25 51 33 53
REMARK Flexibility Score: inf
ROOT
ATOM      1  C   UNL     1      15.978  14.530  25.202  1.00  0.00     0.180 C 
ATOM      2  C   UNL     1      14.520  14.995  25.038  1.00  0.00     0.177 C 
ATOM      3  C   UNL     1      14.124  14.081  23.827  1.00  0.00     0.180 C 
ATOM      4  C   UNL     1      13.735  12.732  24.578  1.00  0.00     0.214 C 
ATOM      5  C   UNL     1      15.132  12.184  25.178  1.00  0.00     0.339 C 
ATOM      6  O   UNL     1      16.169  13.111  24.986  1.00  0.00    -0.332 OA
ENDROOT
BRANCH   1   7
ATOM      7  C   UNL     1      16.364  14.629  26.614  1.00  0.00     0.198 C 
BRANCH   7   8
ATOM      8  O   UNL     1      16.043  15.939  27.256  1.00  0.00    -0.347 OA
BRANCH   8   9
ATOM      9  C   UNL     1      15.448  16.278  28.564  1.00  0.00     0.281 C 
ATOM     10  C   UNL     1      14.612  14.481  31.274  1.00  0.00     0.041 C 
ATOM     11  C   UNL     1      15.686  15.581  30.947  1.00  0.00     0.150 C 
ATOM     12  C   UNL     1      15.228  17.081  31.269  1.00  0.00     0.174 C 
ATOM     13  O   UNL     1      15.994  15.355  29.531  1.00  0.00    -0.344 OA
ATOM     14  C   UNL     1      13.997  17.587  30.392  1.00  0.00     0.179 C 
ATOM     15  C   UNL     1      13.903  16.694  29.050  1.00  0.00     0.202 C 
BRANCH  12  16
ATOM     16  O   UNL     1      16.390  17.990  31.393  1.00  0.00    -0.388 OA
ATOM     17  H   UNL     1      17.129  17.849  30.717  1.00  0.00     0.211 HD
ENDBRANCH  12  16
BRANCH  14  18
ATOM     18  O   UNL     1      13.978  18.908  29.996  1.00  0.00    -0.387 OA
ATOM     19  H   UNL     1      14.843  19.353  30.382  1.00  0.00     0.211 HD
ENDBRANCH  14  18
BRANCH  15  20
ATOM     20  O   UNL     1      12.650  16.119  28.563  1.00  0.00    -0.385 OA
ATOM     21  H   UNL     1      12.066  15.510  29.172  1.00  0.00     0.211 HD
ENDBRANCH  15  20
ENDBRANCH   8   9
ENDBRANCH   7   8
ENDBRANCH   1   7
BRANCH   2  22
ATOM     22  O   UNL     1      14.467  16.412  24.740  1.00  0.00    -0.387 OA
ATOM     23  H   UNL     1      14.835  16.871  25.622  1.00  0.00     0.211 HD
ENDBRANCH   2  22
BRANCH   3  24
ATOM     24  O   UNL     1      13.655  14.895  22.762  1.00  0.00    -0.387 OA
ATOM     25  H   UNL     1      12.627  14.637  22.818  1.00  0.00     0.211 HD
ENDBRANCH   3  24
BRANCH   5  26
ATOM     26  O   UNL     1      15.469  11.027  26.048  1.00  0.00    -0.454 OA
BRANCH  26  27
ATOM     27  C   UNL     1      14.411  10.172  26.685  1.00  0.00     0.214 A 
ATOM     28  C   UNL     1      13.348   9.505  25.961  1.00  0.00     0.180 A 
ATOM     29  C   UNL     1      14.165  10.502  27.999  1.00  0.00     0.239 A 
ATOM     30  O   UNL     1      12.079   9.730  26.407  1.00  0.00    -0.452 OA
ATOM     31  C   UNL     1      12.889  10.988  28.248  1.00  0.00     0.111 A 
ATOM     32  O   UNL     1      15.089  10.445  28.910  1.00  0.00    -0.285 OA
ATOM     33  C   UNL     1      11.769  10.522  27.461  1.00  0.00     0.146 A 
ATOM     34  C   UNL     1      12.659  12.068  29.158  1.00  0.00     0.134 A 
ATOM     35  C   UNL     1      10.414  10.949  27.765  1.00  0.00     0.094 A 
ATOM     36  C   UNL     1      11.482  11.937  29.960  1.00  0.00     0.093 A 
ATOM     37  C   UNL     1      10.337  11.627  29.083  1.00  0.00     0.123 A 
BRANCH  28  38
ATOM     38  C   UNL     1      13.634   8.354  24.950  1.00  0.00     0.025 A 
ATOM     39  C   UNL     1      13.700   8.572  23.550  1.00  0.00     0.062 A 
ATOM     40  C   UNL     1      13.326   7.035  25.427  1.00  0.00     0.016 A 
ATOM     41  C   UNL     1      13.668   7.413  22.713  1.00  0.00     0.158 A 
ATOM     42  C   UNL     1      13.291   5.970  24.513  1.00  0.00     0.051 A 
ATOM     43  C   UNL     1      13.797   6.174  23.247  1.00  0.00     0.157 A 
BRANCH  41  44
ATOM     44  O   UNL     1      13.375   7.535  21.379  1.00  0.00    -0.504 OA
ATOM     45  H   UNL     1      12.405   7.398  21.091  1.00  0.00     0.293 HD
ENDBRANCH  41  44
BRANCH  43  46
ATOM     46  O   UNL     1      14.775   5.244  22.639  1.00  0.00    -0.504 OA
ATOM     47  H   UNL     1      15.106   5.392  21.672  1.00  0.00     0.293 HD
ENDBRANCH  43  46
ENDBRANCH  28  38
BRANCH  34  48
ATOM     48  O   UNL     1      12.783  13.350  28.558  1.00  0.00    -0.507 OA
ATOM     49  H   UNL     1      12.120  13.760  27.903  1.00  0.00     0.293 HD
ENDBRANCH  34  48
BRANCH  37  50
ATOM     50  O   UNL     1       9.029  11.884  29.521  1.00  0.00    -0.508 OA
ATOM     51  H   UNL     1       8.290  11.352  29.134  1.00  0.00     0.293 HD
ENDBRANCH  37  50
ENDBRANCH  26  27
ENDBRANCH   5  26
BRANCH   4  52
ATOM     52  O   UNL     1      12.727  13.003  25.616  1.00  0.00    -0.384 OA
ATOM     53  H   UNL     1      11.823  13.202  25.224  1.00  0.00     0.211 HD
ENDBRANCH   4  52
TORSDOF 16
ENDMDL
MODEL 6
REMARK VINA RESULT:    -6.337      3.422      8.185
REMARK INTER + INTRA:         -13.694
REMARK INTER:                 -10.811
REMARK INTRA:                  -2.883
REMARK UNBOUND:                -3.282
REMARK SMILES C[C@H]1O[C@@H](OC[C@H]2O[C@@H](Oc3c(-c4ccc(O)c(O)c4)oc4cc(O)cc(O)c4c3=O)[C@@H](O)[C@@H](O)[C@@H]2O)[C@@H](O)[C@H](O)[C@@H]1O
REMARK SMILES IDX 7 1 36 2 34 3 32 4 9 5 8 6 6 7 5 8 4 9 1 10 2 11 42 12 3 13
REMARK SMILES IDX 40 14 38 15 43 16 41 18 39 20 37 22 35 24 10 26 11 27 12 28
REMARK SMILES IDX 30 29 21 30 29 31 31 32 22 33 27 34 23 35 26 36 24 37 13 38
REMARK SMILES IDX 20 39 14 40 18 41 15 42 16 43 19 44 17 46 28 48 25 50 33 52
REMARK H PARENT 43 17 41 19 39 21 37 23 35 25 19 45 17 47 28 49 25 51 33 53
REMARK Flexibility Score: inf
ROOT
ATOM      1  C   UNL     1      11.305  14.454  26.570  1.00  0.00     0.180 C 
ATOM      2  C   UNL     1      12.713  14.999  26.277  1.00  0.00     0.177 C 
ATOM      3  C   UNL     1      12.304  16.223  25.387  1.00  0.00     0.180 C 
ATOM      4  C   UNL     1      11.984  17.315  26.499  1.00  0.00     0.214 C 
ATOM      5  C   UNL     1      10.652  16.768  27.234  1.00  0.00     0.339 C 
ATOM      6  O   UNL     1      10.308  15.485  26.779  1.00  0.00    -0.332 OA
ENDROOT
BRANCH   1   7
ATOM      7  C   UNL     1      11.295  13.816  27.891  1.00  0.00     0.198 C 
BRANCH   7   8
ATOM      8  O   UNL     1      12.551  13.085  28.238  1.00  0.00    -0.347 OA
BRANCH   8   9
ATOM      9  C   UNL     1      12.899  11.651  28.205  1.00  0.00     0.281 C 
ATOM     10  C   UNL     1      13.486   9.457  25.732  1.00  0.00     0.041 C 
ATOM     11  C   UNL     1      14.347  10.124  26.866  1.00  0.00     0.150 C 
ATOM     12  C   UNL     1      14.440   9.277  28.223  1.00  0.00     0.174 C 
ATOM     13  O   UNL     1      13.728  11.442  27.041  1.00  0.00    -0.344 OA
ATOM     14  C   UNL     1      13.045   9.090  28.969  1.00  0.00     0.179 C 
ATOM     15  C   UNL     1      12.029  10.250  28.488  1.00  0.00     0.202 C 
BRANCH  12  16
ATOM     16  O   UNL     1      15.598   9.694  29.045  1.00  0.00    -0.388 OA
ATOM     17  H   UNL     1      15.640  10.678  29.274  1.00  0.00     0.211 HD
ENDBRANCH  12  16
BRANCH  14  18
ATOM     18  O   UNL     1      13.037   9.097  30.348  1.00  0.00    -0.387 OA
ATOM     19  H   UNL     1      12.297   9.777  30.644  1.00  0.00     0.211 HD
ENDBRANCH  14  18
BRANCH  15  20
ATOM     20  O   UNL     1      10.649   9.984  28.089  1.00  0.00    -0.385 OA
ATOM     21  H   UNL     1      10.141   9.144  28.436  1.00  0.00     0.211 HD
ENDBRANCH  15  20
ENDBRANCH   8   9
ENDBRANCH   7   8
ENDBRANCH   1   7
BRANCH   2  22
ATOM     22  O   UNL     1      13.507  14.009  25.577  1.00  0.00    -0.387 OA
ATOM     23  H   UNL     1      13.115  14.020  24.591  1.00  0.00     0.211 HD
ENDBRANCH   2  22
BRANCH   3  24
ATOM     24  O   UNL     1      12.958  16.124  24.130  1.00  0.00    -0.387 OA
ATOM     25  H   UNL     1      13.601  16.964  24.229  1.00  0.00     0.211 HD
ENDBRANCH   3  24
BRANCH   5  26
ATOM     26  O   UNL     1       9.876  17.255  28.404  1.00  0.00    -0.454 OA
BRANCH  26  27
ATOM     27  C   UNL     1      10.516  18.031  29.520  1.00  0.00     0.214 A 
ATOM     28  C   UNL     1      11.036  19.377  29.391  1.00  0.00     0.180 A 
ATOM     29  C   UNL     1      11.085  17.228  30.483  1.00  0.00     0.239 A 
ATOM     30  O   UNL     1      12.321  19.572  29.804  1.00  0.00    -0.452 OA
ATOM     31  C   UNL     1      12.463  17.339  30.594  1.00  0.00     0.111 A 
ATOM     32  O   UNL     1      10.388  16.370  31.166  1.00  0.00    -0.285 OA
ATOM     33  C   UNL     1      13.114  18.600  30.314  1.00  0.00     0.146 A 
ATOM     34  C   UNL     1      13.295  16.198  30.822  1.00  0.00     0.134 A 
ATOM     35  C   UNL     1      14.544  18.762  30.512  1.00  0.00     0.094 A 
ATOM     36  C   UNL     1      14.393  16.422  31.710  1.00  0.00     0.093 A 
ATOM     37  C   UNL     1      15.123  17.628  31.276  1.00  0.00     0.123 A 
BRANCH  28  38
ATOM     38  C   UNL     1      10.107  20.596  29.109  1.00  0.00     0.025 A 
ATOM     39  C   UNL     1       9.277  21.165  30.109  1.00  0.00     0.062 A 
ATOM     40  C   UNL     1       9.750  20.784  27.731  1.00  0.00     0.016 A 
ATOM     41  C   UNL     1       8.262  22.070  29.669  1.00  0.00     0.158 A 
ATOM     42  C   UNL     1       8.714  21.676  27.410  1.00  0.00     0.051 A 
ATOM     43  C   UNL     1       8.250  22.525  28.393  1.00  0.00     0.157 A 
BRANCH  41  44
ATOM     44  O   UNL     1       7.214  22.385  30.496  1.00  0.00    -0.504 OA
ATOM     45  H   UNL     1       7.090  21.824  31.341  1.00  0.00     0.293 HD
ENDBRANCH  41  44
BRANCH  43  46
ATOM     46  O   UNL     1       8.115  23.981  28.165  1.00  0.00    -0.504 OA
ATOM     47  H   UNL     1       7.188  24.398  27.978  1.00  0.00     0.293 HD
ENDBRANCH  43  46
ENDBRANCH  28  38
BRANCH  34  48
ATOM     48  O   UNL     1      13.674  15.527  29.628  1.00  0.00    -0.507 OA
ATOM     49  H   UNL     1      13.619  15.918  28.689  1.00  0.00     0.293 HD
ENDBRANCH  34  48
BRANCH  37  50
ATOM     50  O   UNL     1      16.455  17.822  31.670  1.00  0.00    -0.508 OA
ATOM     51  H   UNL     1      16.630  18.273  32.533  1.00  0.00     0.293 HD
ENDBRANCH  37  50
ENDBRANCH  26  27
ENDBRANCH   5  26
BRANCH   4  52
ATOM     52  O   UNL     1      13.129  17.460  27.412  1.00  0.00    -0.384 OA
ATOM     53  H   UNL     1      13.667  16.613  27.482  1.00  0.00     0.211 HD
ENDBRANCH   4  52
TORSDOF 16
ENDMDL
MODEL 7
REMARK VINA RESULT:    -6.307      3.048      5.488
REMARK INTER + INTRA:         -13.646
REMARK INTER:                 -10.435
REMARK INTRA:                  -3.210
REMARK UNBOUND:                -3.282
REMARK SMILES C[C@H]1O[C@@H](OC[C@H]2O[C@@H](Oc3c(-c4ccc(O)c(O)c4)oc4cc(O)cc(O)c4c3=O)[C@@H](O)[C@@H](O)[C@@H]2O)[C@@H](O)[C@H](O)[C@@H]1O
REMARK SMILES IDX 7 1 36 2 34 3 32 4 9 5 8 6 6 7 5 8 4 9 1 10 2 11 42 12 3 13
REMARK SMILES IDX 40 14 38 15 43 16 41 18 39 20 37 22 35 24 10 26 11 27 12 28
REMARK SMILES IDX 30 29 21 30 29 31 31 32 22 33 27 34 23 35 26 36 24 37 13 38
REMARK SMILES IDX 20 39 14 40 18 41 15 42 16 43 19 44 17 46 28 48 25 50 33 52
REMARK H PARENT 43 17 41 19 39 21 37 23 35 25 19 45 17 47 28 49 25 51 33 53
REMARK Flexibility Score: inf
ROOT
ATOM      1  C   UNL     1      12.862  17.592  31.239  1.00  0.00     0.180 C 
ATOM      2  C   UNL     1      13.830  17.904  30.085  1.00  0.00     0.177 C 
ATOM      3  C   UNL     1      14.605  16.541  30.061  1.00  0.00     0.180 C 
ATOM      4  C   UNL     1      13.633  15.654  29.165  1.00  0.00     0.214 C 
ATOM      5  C   UNL     1      12.310  15.458  30.073  1.00  0.00     0.339 C 
ATOM      6  O   UNL     1      12.376  16.227  31.245  1.00  0.00    -0.332 OA
ENDROOT
BRANCH   1   7
ATOM      7  C   UNL     1      11.602  18.313  31.025  1.00  0.00     0.198 C 
BRANCH   7   8
ATOM      8  O   UNL     1      11.583  19.186  29.814  1.00  0.00    -0.347 OA
BRANCH   8   9
ATOM      9  C   UNL     1      10.479  19.855  29.096  1.00  0.00     0.281 C 
ATOM     10  C   UNL     1       7.844  21.689  30.076  1.00  0.00     0.041 C 
ATOM     11  C   UNL     1       9.165  21.967  29.271  1.00  0.00     0.150 C 
ATOM     12  C   UNL     1       9.023  21.826  27.682  1.00  0.00     0.174 C 
ATOM     13  O   UNL     1      10.131  21.032  29.856  1.00  0.00    -0.344 OA
ATOM     14  C   UNL     1       8.670  20.353  27.188  1.00  0.00     0.179 C 
ATOM     15  C   UNL     1       9.100  19.296  28.331  1.00  0.00     0.202 C 
BRANCH  12  16
ATOM     16  O   UNL     1      10.114  22.535  26.974  1.00  0.00    -0.388 OA
ATOM     17  H   UNL     1       9.822  23.150  26.227  1.00  0.00     0.211 HD
ENDBRANCH  12  16
BRANCH  14  18
ATOM     18  O   UNL     1       9.224  19.911  26.006  1.00  0.00    -0.387 OA
ATOM     19  H   UNL     1      10.225  20.219  26.005  1.00  0.00     0.211 HD
ENDBRANCH  14  18
BRANCH  15  20
ATOM     20  O   UNL     1       8.228  18.215  28.785  1.00  0.00    -0.385 OA
ATOM     21  H   UNL     1       7.849  18.201  29.755  1.00  0.00     0.211 HD
ENDBRANCH  15  20
ENDBRANCH   8   9
ENDBRANCH   7   8
ENDBRANCH   1   7
BRANCH   2  22
ATOM     22  O   UNL     1      14.665  19.042  30.413  1.00  0.00    -0.387 OA
ATOM     23  H   UNL     1      14.930  18.879  31.427  1.00  0.00     0.211 HD
ENDBRANCH   2  22
BRANCH   3  24
ATOM     24  O   UNL     1      15.994  16.791  30.223  1.00  0.00    -0.387 OA
ATOM     25  H   UNL     1      16.315  16.477  29.261  1.00  0.00     0.211 HD
ENDBRANCH   3  24
BRANCH   5  26
ATOM     26  O   UNL     1      10.997  14.811  29.811  1.00  0.00    -0.454 OA
BRANCH  26  27
ATOM     27  C   UNL     1      10.699  14.102  28.521  1.00  0.00     0.214 A 
ATOM     28  C   UNL     1      11.584  13.147  27.885  1.00  0.00     0.180 A 
ATOM     29  C   UNL     1       9.837  14.800  27.705  1.00  0.00     0.239 A 
ATOM     30  O   UNL     1      11.884  13.380  26.576  1.00  0.00    -0.452 OA
ATOM     31  C   UNL     1      10.386  15.218  26.501  1.00  0.00     0.111 A 
ATOM     32  O   UNL     1       8.635  15.116  28.081  1.00  0.00    -0.285 OA
ATOM     33  C   UNL     1      11.413  14.429  25.860  1.00  0.00     0.146 A 
ATOM     34  C   UNL     1      10.088  16.501  25.943  1.00  0.00     0.134 A 
ATOM     35  C   UNL     1      11.935  14.800  24.556  1.00  0.00     0.094 A 
ATOM     36  C   UNL     1       9.939  16.518  24.520  1.00  0.00     0.093 A 
ATOM     37  C   UNL     1      11.101  15.844  23.909  1.00  0.00     0.123 A 
BRANCH  28  38
ATOM     38  C   UNL     1      11.916  11.771  28.536  1.00  0.00     0.025 A 
ATOM     39  C   UNL     1      12.862  11.635  29.585  1.00  0.00     0.062 A 
ATOM     40  C   UNL     1      11.626  10.626  27.719  1.00  0.00     0.016 A 
ATOM     41  C   UNL     1      13.301  10.310  29.893  1.00  0.00     0.158 A 
ATOM     42  C   UNL     1      12.134   9.372  28.097  1.00  0.00     0.051 A 
ATOM     43  C   UNL     1      12.671   9.234  29.359  1.00  0.00     0.157 A 
BRANCH  41  44
ATOM     44  O   UNL     1      14.443  10.116  30.625  1.00  0.00    -0.504 OA
ATOM     45  H   UNL     1      14.980  10.941  30.898  1.00  0.00     0.293 HD
ENDBRANCH  41  44
BRANCH  43  46
ATOM     46  O   UNL     1      12.264   8.137  30.264  1.00  0.00    -0.504 OA
ATOM     47  H   UNL     1      12.591   8.118  31.244  1.00  0.00     0.293 HD
ENDBRANCH  43  46
ENDBRANCH  28  38
BRANCH  34  48
ATOM     48  O   UNL     1      10.930  17.539  26.425  1.00  0.00    -0.507 OA
ATOM     49  H   UNL     1      10.947  17.886  27.383  1.00  0.00     0.293 HD
ENDBRANCH  34  48
BRANCH  37  50
ATOM     50  O   UNL     1      11.437  16.101  22.572  1.00  0.00    -0.508 OA
ATOM     51  H   UNL     1      11.759  17.005  22.333  1.00  0.00     0.293 HD
ENDBRANCH  37  50
ENDBRANCH  26  27
ENDBRANCH   5  26
BRANCH   4  52
ATOM     52  O   UNL     1      13.363  16.332  27.888  1.00  0.00    -0.384 OA
ATOM     53  H   UNL     1      12.643  15.872  27.359  1.00  0.00     0.211 HD
ENDBRANCH   4  52
TORSDOF 16
ENDMDL
MODEL 8
REMARK VINA RESULT:    -6.240      3.290      5.920
REMARK INTER + INTRA:         -13.535
REMARK INTER:                  -9.743
REMARK INTRA:                  -3.792
REMARK UNBOUND:                -3.282
REMARK SMILES C[C@H]1O[C@@H](OC[C@H]2O[C@@H](Oc3c(-c4ccc(O)c(O)c4)oc4cc(O)cc(O)c4c3=O)[C@@H](O)[C@@H](O)[C@@H]2O)[C@@H](O)[C@H](O)[C@@H]1O
REMARK SMILES IDX 7 1 36 2 34 3 32 4 9 5 8 6 6 7 5 8 4 9 1 10 2 11 42 12 3 13
REMARK SMILES IDX 40 14 38 15 43 16 41 18 39 20 37 22 35 24 10 26 11 27 12 28
REMARK SMILES IDX 30 29 21 30 29 31 31 32 22 33 27 34 23 35 26 36 24 37 13 38
REMARK SMILES IDX 20 39 14 40 18 41 15 42 16 43 19 44 17 46 28 48 25 50 33 52
REMARK H PARENT 43 17 41 19 39 21 37 23 35 25 19 45 17 47 28 49 25 51 33 53
REMARK Flexibility Score: inf
ROOT
ATOM      1  C   UNL     1       3.980  18.637  31.303  1.00  0.00     0.180 C 
ATOM      2  C   UNL     1       2.625  18.885  30.617  1.00  0.00     0.177 C 
ATOM      3  C   UNL     1       3.075  20.010  29.620  1.00  0.00     0.180 C 
ATOM      4  C   UNL     1       3.658  19.139  28.421  1.00  0.00     0.214 C 
ATOM      5  C   UNL     1       4.988  18.451  29.028  1.00  0.00     0.339 C 
ATOM      6  O   UNL     1       5.114  18.707  30.404  1.00  0.00    -0.332 OA
ENDROOT
BRANCH   1   7
ATOM      7  C   UNL     1       4.066  17.233  31.717  1.00  0.00     0.198 C 
BRANCH   7   8
ATOM      8  O   UNL     1       3.087  16.326  31.045  1.00  0.00    -0.347 OA
BRANCH   8   9
ATOM      9  C   UNL     1       3.214  15.423  29.884  1.00  0.00     0.281 C 
ATOM     10  C   UNL     1       1.851  12.462  29.081  1.00  0.00     0.041 C 
ATOM     11  C   UNL     1       1.749  13.929  28.526  1.00  0.00     0.150 C 
ATOM     12  C   UNL     1       2.768  14.269  27.339  1.00  0.00     0.174 C 
ATOM     13  O   UNL     1       1.940  14.764  29.717  1.00  0.00    -0.344 OA
ATOM     14  C   UNL     1       4.303  14.209  27.762  1.00  0.00     0.179 C 
ATOM     15  C   UNL     1       4.416  14.382  29.364  1.00  0.00     0.202 C 
BRANCH  12  16
ATOM     16  O   UNL     1       2.325  15.449  26.563  1.00  0.00    -0.388 OA
ATOM     17  H   UNL     1       3.030  16.156  26.400  1.00  0.00     0.211 HD
ENDBRANCH  12  16
BRANCH  14  18
ATOM     18  O   UNL     1       5.171  15.120  27.199  1.00  0.00    -0.387 OA
ATOM     19  H   UNL     1       5.311  15.882  27.904  1.00  0.00     0.211 HD
ENDBRANCH  14  18
BRANCH  15  20
ATOM     20  O   UNL     1       5.244  13.517  30.201  1.00  0.00    -0.385 OA
ATOM     21  H   UNL     1       4.949  13.261  31.167  1.00  0.00     0.211 HD
ENDBRANCH  15  20
ENDBRANCH   8   9
ENDBRANCH   7   8
ENDBRANCH   1   7
BRANCH   2  22
ATOM     22  O   UNL     1       1.638  19.325  31.582  1.00  0.00    -0.387 OA
ATOM     23  H   UNL     1       2.126  20.105  32.108  1.00  0.00     0.211 HD
ENDBRANCH   2  22
BRANCH   3  24
ATOM     24  O   UNL     1       2.270  21.162  29.824  1.00  0.00    -0.387 OA
ATOM     25  H   UNL     1       1.626  20.764  30.568  1.00  0.00     0.211 HD
ENDBRANCH   3  24
BRANCH   5  26
ATOM     26  O   UNL     1       5.951  17.462  28.477  1.00  0.00    -0.454 OA
BRANCH  26  27
ATOM     27  C   UNL     1       7.384  17.406  28.924  1.00  0.00     0.214 A 
ATOM     28  C   UNL     1       8.484  18.051  28.236  1.00  0.00     0.180 A 
ATOM     29  C   UNL     1       7.678  16.284  29.666  1.00  0.00     0.239 A 
ATOM     30  O   UNL     1       9.551  17.259  27.927  1.00  0.00    -0.452 OA
ATOM     31  C   UNL     1       8.590  15.420  29.077  1.00  0.00     0.111 A 
ATOM     32  O   UNL     1       7.074  16.019  30.785  1.00  0.00    -0.285 OA
ATOM     33  C   UNL     1       9.632  15.940  28.220  1.00  0.00     0.146 A 
ATOM     34  C   UNL     1       8.441  13.999  29.156  1.00  0.00     0.134 A 
ATOM     35  C   UNL     1      10.652  15.064  27.669  1.00  0.00     0.094 A 
ATOM     36  C   UNL     1       9.662  13.275  29.330  1.00  0.00     0.093 A 
ATOM     37  C   UNL     1      10.636  13.729  28.319  1.00  0.00     0.123 A 
BRANCH  28  38
ATOM     38  C   UNL     1       8.601  19.602  28.139  1.00  0.00     0.025 A 
ATOM     39  C   UNL     1       9.332  20.245  27.108  1.00  0.00     0.062 A 
ATOM     40  C   UNL     1       8.385  20.307  29.371  1.00  0.00     0.016 A 
ATOM     41  C   UNL     1       9.618  21.634  27.287  1.00  0.00     0.158 A 
ATOM     42  C   UNL     1       8.730  21.666  29.450  1.00  0.00     0.051 A 
ATOM     43  C   UNL     1       9.023  22.337  28.281  1.00  0.00     0.157 A 
BRANCH  41  44
ATOM     44  O   UNL     1      10.595  22.238  26.539  1.00  0.00    -0.504 OA
ATOM     45  H   UNL     1      11.087  23.033  26.952  1.00  0.00     0.293 HD
ENDBRANCH  41  44
BRANCH  43  46
ATOM     46  O   UNL     1       8.387  23.630  27.946  1.00  0.00    -0.504 OA
ATOM     47  H   UNL     1       8.542  24.066  27.022  1.00  0.00     0.293 HD
ENDBRANCH  43  46
ENDBRANCH  28  38
BRANCH  34  48
ATOM     48  O   UNL     1       7.616  13.460  28.133  1.00  0.00    -0.507 OA
ATOM     49  H   UNL     1       6.802  13.920  27.728  1.00  0.00     0.293 HD
ENDBRANCH  34  48
BRANCH  37  50
ATOM     50  O   UNL     1      11.720  12.909  27.971  1.00  0.00    -0.508 OA
ATOM     51  H   UNL     1      11.872  12.710  27.014  1.00  0.00     0.293 HD
ENDBRANCH  37  50
ENDBRANCH  26  27
ENDBRANCH   5  26
BRANCH   4  52
ATOM     52  O   UNL     1       2.654  18.161  27.972  1.00  0.00    -0.384 OA
ATOM     53  H   UNL     1       2.959  17.651  27.161  1.00  0.00     0.211 HD
ENDBRANCH   4  52
TORSDOF 16
ENDMDL
