MODEL 1
REMARK VINA RESULT:    -4.186      0.000      0.000
REMARK INTER + INTRA:          -7.980
REMARK INTER:                  -7.123
REMARK INTRA:                  -0.857
REMARK UNBOUND:                -0.857
REMARK SMILES CCCCCCCCCCCCCC(=O)[O-]
REMARK SMILES IDX 8 1 9 2 10 3 11 4 12 5 13 6 14 7 15 8 16 9 7 10 6 11 5 12
REMARK SMILES IDX 4 13 3 14 2 15 1 16
REMARK H PARENT
REMARK Flexibility Score: inf
ROOT
ATOM      1  C   UNL     1     -13.662  -8.121  26.520  1.00  0.00     0.000 C 
ENDROOT
BRANCH   1   2
ATOM      2  C   UNL     1     -14.615  -7.859  25.344  1.00  0.00     0.000 C 
BRANCH   2   3
ATOM      3  C   UNL     1     -15.724  -6.878  25.744  1.00  0.00     0.000 C 
BRANCH   3   4
ATOM      4  C   UNL     1     -15.741  -5.657  24.816  1.00  0.00     0.000 C 
BRANCH   4   5
ATOM      5  C   UNL     1     -14.425  -5.535  24.041  1.00  0.00     0.006 C 
BRANCH   5   6
ATOM      6  C   UNL     1     -14.679  -5.482  22.532  1.00  0.00     0.053 C 
BRANCH   6   7
ATOM      7  C   UNL     1     -13.902  -6.552  21.832  1.00  0.00     0.041 C 
ATOM      8  O   UNL     1     -14.326  -7.039  20.751  1.00  0.00    -0.550 OA
ATOM      9  O   UNL     1     -12.733  -7.047  22.399  1.00  0.00    -0.550 OA
ENDBRANCH   6   7
ENDBRANCH   5   6
ENDBRANCH   4   5
ENDBRANCH   3   4
ENDBRANCH   2   3
ENDBRANCH   1   2
BRANCH   1  10
ATOM     10  C   UNL     1     -12.210  -8.343  26.067  1.00  0.00     0.000 C 
BRANCH  10  11
ATOM     11  C   UNL     1     -11.400  -9.184  27.066  1.00  0.00    -0.000 C 
BRANCH  11  12
ATOM     12  C   UNL     1     -12.192  -9.414  28.358  1.00  0.00    -0.000 C 
BRANCH  12  13
ATOM     13  C   UNL     1     -11.419  -8.898  29.580  1.00  0.00    -0.000 C 
BRANCH  13  14
ATOM     14  C   UNL     1     -11.342  -7.357  29.615  1.00  0.00    -0.000 C 
BRANCH  14  15
ATOM     15  C   UNL     1     -11.337  -6.773  31.039  1.00  0.00    -0.003 C 
ATOM     16  C   UNL     1     -11.892  -5.353  31.105  1.00  0.00     0.004 C 
ENDBRANCH  14  15
ENDBRANCH  13  14
ENDBRANCH  12  13
ENDBRANCH  11  12
ENDBRANCH  10  11
ENDBRANCH   1  10
TORSDOF 12
ENDMDL
MODEL 2
REMARK VINA RESULT:    -4.146      3.188      6.678
REMARK INTER + INTRA:          -7.911
REMARK INTER:                  -6.038
REMARK INTRA:                  -1.873
REMARK UNBOUND:                -0.857
REMARK SMILES CCCCCCCCCCCCCC(=O)[O-]
REMARK SMILES IDX 8 1 9 2 10 3 11 4 12 5 13 6 14 7 15 8 16 9 7 10 6 11 5 12
REMARK SMILES IDX 4 13 3 14 2 15 1 16
REMARK H PARENT
REMARK Flexibility Score: inf
ROOT
ATOM      1  C   UNL     1     -16.125  -7.130  25.849  1.00  0.00     0.000 C 
ENDROOT
BRANCH   1   2
ATOM      2  C   UNL     1     -14.777  -7.756  26.236  1.00  0.00     0.000 C 
BRANCH   2   3
ATOM      3  C   UNL     1     -14.553  -9.079  25.493  1.00  0.00     0.000 C 
BRANCH   3   4
ATOM      4  C   UNL     1     -13.060  -9.421  25.413  1.00  0.00     0.000 C 
BRANCH   4   5
ATOM      5  C   UNL     1     -12.201  -8.262  25.932  1.00  0.00     0.006 C 
BRANCH   5   6
ATOM      6  C   UNL     1     -11.149  -8.761  26.927  1.00  0.00     0.053 C 
BRANCH   6   7
ATOM      7  C   UNL     1     -11.661  -8.652  28.329  1.00  0.00     0.041 C 
ATOM      8  O   UNL     1     -12.420  -9.541  28.796  1.00  0.00    -0.550 OA
ATOM      9  O   UNL     1     -11.338  -7.544  29.102  1.00  0.00    -0.550 OA
ENDBRANCH   6   7
ENDBRANCH   5   6
ENDBRANCH   4   5
ENDBRANCH   3   4
ENDBRANCH   2   3
ENDBRANCH   1   2
BRANCH   1  10
ATOM     10  C   UNL     1     -15.964  -5.853  25.007  1.00  0.00     0.000 C 
BRANCH  10  11
ATOM     11  C   UNL     1     -14.514  -5.619  24.557  1.00  0.00    -0.000 C 
BRANCH  11  12
ATOM     12  C   UNL     1     -14.360  -5.864  23.052  1.00  0.00    -0.000 C 
BRANCH  12  13
ATOM     13  C   UNL     1     -13.127  -6.731  22.756  1.00  0.00    -0.000 C 
BRANCH  13  14
ATOM     14  C   UNL     1     -13.478  -7.980  21.920  1.00  0.00    -0.000 C 
BRANCH  14  15
ATOM     15  C   UNL     1     -14.975  -8.336  21.944  1.00  0.00    -0.003 C 
ATOM     16  C   UNL     1     -15.641  -8.214  20.577  1.00  0.00     0.004 C 
ENDBRANCH  14  15
ENDBRANCH  13  14
ENDBRANCH  12  13
ENDBRANCH  11  12
ENDBRANCH  10  11
ENDBRANCH   1  10
TORSDOF 12
ENDMDL
MODEL 3
REMARK VINA RESULT:    -4.141     13.684     16.212
REMARK INTER + INTRA:          -7.903
REMARK INTER:                  -6.497
REMARK INTRA:                  -1.405
REMARK UNBOUND:                -0.857
REMARK SMILES CCCCCCCCCCCCCC(=O)[O-]
REMARK SMILES IDX 8 1 9 2 10 3 11 4 12 5 13 6 14 7 15 8 16 9 7 10 6 11 5 12
REMARK SMILES IDX 4 13 3 14 2 15 1 16
REMARK H PARENT
REMARK Flexibility Score: inf
ROOT
ATOM      1  C   UNL     1       0.748 -16.424  29.502  1.00  0.00     0.000 C 
ENDROOT
BRANCH   1   2
ATOM      2  C   UNL     1       0.825 -17.258  28.214  1.00  0.00     0.000 C 
BRANCH   2   3
ATOM      3  C   UNL     1      -0.574 -17.685  27.752  1.00  0.00     0.000 C 
BRANCH   3   4
ATOM      4  C   UNL     1      -1.012 -16.890  26.516  1.00  0.00     0.000 C 
BRANCH   4   5
ATOM      5  C   UNL     1      -2.477 -16.456  26.632  1.00  0.00     0.006 C 
BRANCH   5   6
ATOM      6  C   UNL     1      -2.641 -14.976  26.274  1.00  0.00     0.053 C 
BRANCH   6   7
ATOM      7  C   UNL     1      -3.394 -14.828  24.989  1.00  0.00     0.041 C 
ATOM      8  O   UNL     1      -3.050 -13.954  24.151  1.00  0.00    -0.550 OA
ATOM      9  O   UNL     1      -4.505 -15.623  24.739  1.00  0.00    -0.550 OA
ENDBRANCH   6   7
ENDBRANCH   5   6
ENDBRANCH   4   5
ENDBRANCH   3   4
ENDBRANCH   2   3
ENDBRANCH   1   2
BRANCH   1  10
ATOM     10  C   UNL     1      -0.639 -16.485  30.164  1.00  0.00     0.000 C 
BRANCH  10  11
ATOM     11  C   UNL     1      -0.645 -17.326  31.449  1.00  0.00    -0.000 C 
BRANCH  11  12
ATOM     12  C   UNL     1      -1.980 -18.061  31.616  1.00  0.00    -0.000 C 
BRANCH  12  13
ATOM     13  C   UNL     1      -1.811 -19.572  31.398  1.00  0.00    -0.000 C 
BRANCH  13  14
ATOM     14  C   UNL     1      -0.327 -19.985  31.301  1.00  0.00    -0.000 C 
BRANCH  14  15
ATOM     15  C   UNL     1       0.048 -20.619  29.950  1.00  0.00    -0.003 C 
ATOM     16  C   UNL     1       1.533 -20.953  29.837  1.00  0.00     0.004 C 
ENDBRANCH  14  15
ENDBRANCH  13  14
ENDBRANCH  12  13
ENDBRANCH  11  12
ENDBRANCH  10  11
ENDBRANCH   1  10
TORSDOF 12
ENDMDL
MODEL 4
REMARK VINA RESULT:    -4.044      3.823      6.750
REMARK INTER + INTRA:          -7.738
REMARK INTER:                  -6.221
REMARK INTRA:                  -1.517
REMARK UNBOUND:                -0.857
REMARK SMILES CCCCCCCCCCCCCC(=O)[O-]
REMARK SMILES IDX 8 1 9 2 10 3 11 4 12 5 13 6 14 7 15 8 16 9 7 10 6 11 5 12
REMARK SMILES IDX 4 13 3 14 2 15 1 16
REMARK H PARENT
REMARK Flexibility Score: inf
ROOT
ATOM      1  C   UNL     1     -13.814 -10.097  25.180  1.00  0.00     0.000 C 
ENDROOT
BRANCH   1   2
ATOM      2  C   UNL     1     -14.506  -9.385  26.352  1.00  0.00     0.000 C 
BRANCH   2   3
ATOM      3  C   UNL     1     -13.642  -8.235  26.883  1.00  0.00     0.000 C 
BRANCH   3   4
ATOM      4  C   UNL     1     -12.149  -8.572  26.776  1.00  0.00     0.000 C 
BRANCH   4   5
ATOM      5  C   UNL     1     -11.470  -8.504  28.148  1.00  0.00     0.006 C 
BRANCH   5   6
ATOM      6  C   UNL     1     -12.023  -9.579  29.088  1.00  0.00     0.053 C 
BRANCH   6   7
ATOM      7  C   UNL     1     -11.401  -9.459  30.444  1.00  0.00     0.041 C 
ATOM      8  O   UNL     1     -10.897 -10.469  31.001  1.00  0.00    -0.550 OA
ATOM      9  O   UNL     1     -11.422  -8.241  31.113  1.00  0.00    -0.550 OA
ENDBRANCH   6   7
ENDBRANCH   5   6
ENDBRANCH   4   5
ENDBRANCH   3   4
ENDBRANCH   2   3
ENDBRANCH   1   2
BRANCH   1  10
ATOM     10  C   UNL     1     -14.291  -9.585  23.811  1.00  0.00     0.000 C 
BRANCH  10  11
ATOM     11  C   UNL     1     -13.148  -9.005  22.964  1.00  0.00    -0.000 C 
BRANCH  11  12
ATOM     12  C   UNL     1     -12.909  -7.529  23.301  1.00  0.00    -0.000 C 
BRANCH  12  13
ATOM     13  C   UNL     1     -13.556  -6.612  22.252  1.00  0.00    -0.000 C 
BRANCH  13  14
ATOM     14  C   UNL     1     -14.526  -5.592  22.886  1.00  0.00    -0.000 C 
BRANCH  14  15
ATOM     15  C   UNL     1     -14.468  -5.562  24.423  1.00  0.00    -0.003 C 
ATOM     16  C   UNL     1     -15.814  -5.863  25.078  1.00  0.00     0.004 C 
ENDBRANCH  14  15
ENDBRANCH  13  14
ENDBRANCH  12  13
ENDBRANCH  11  12
ENDBRANCH  10  11
ENDBRANCH   1  10
TORSDOF 12
ENDMDL
MODEL 5
REMARK VINA RESULT:    -4.030      4.432      7.101
REMARK INTER + INTRA:          -7.714
REMARK INTER:                  -5.598
REMARK INTRA:                  -2.117
REMARK UNBOUND:                -0.857
REMARK SMILES CCCCCCCCCCCCCC(=O)[O-]
REMARK SMILES IDX 8 1 9 2 10 3 11 4 12 5 13 6 14 7 15 8 16 9 7 10 6 11 5 12
REMARK SMILES IDX 4 13 3 14 2 15 1 16
REMARK H PARENT
REMARK Flexibility Score: inf
ROOT
ATOM      1  C   UNL     1     -13.611  -8.197  26.193  1.00  0.00     0.000 C 
ENDROOT
BRANCH   1   2
ATOM      2  C   UNL     1     -12.149  -8.408  25.772  1.00  0.00     0.000 C 
BRANCH   2   3
ATOM      3  C   UNL     1     -11.250  -8.616  26.997  1.00  0.00     0.000 C 
BRANCH   3   4
ATOM      4  C   UNL     1     -10.799 -10.078  27.108  1.00  0.00     0.000 C 
BRANCH   4   5
ATOM      5  C   UNL     1     -10.873 -10.568  28.559  1.00  0.00     0.006 C 
BRANCH   5   6
ATOM      6  C   UNL     1     -12.004  -9.867  29.318  1.00  0.00     0.053 C 
BRANCH   6   7
ATOM      7  C   UNL     1     -11.613  -9.636  30.744  1.00  0.00     0.041 C 
ATOM      8  O   UNL     1     -11.617 -10.591  31.564  1.00  0.00    -0.550 OA
ATOM      9  O   UNL     1     -11.292  -8.356  31.177  1.00  0.00    -0.550 OA
ENDBRANCH   6   7
ENDBRANCH   5   6
ENDBRANCH   4   5
ENDBRANCH   3   4
ENDBRANCH   2   3
ENDBRANCH   1   2
BRANCH   1  10
ATOM     10  C   UNL     1     -14.526  -9.351  25.751  1.00  0.00     0.000 C 
BRANCH  10  11
ATOM     11  C   UNL     1     -14.593 -10.484  26.786  1.00  0.00    -0.000 C 
BRANCH  11  12
ATOM     12  C   UNL     1     -14.534 -11.855  26.103  1.00  0.00    -0.000 C 
BRANCH  12  13
ATOM     13  C   UNL     1     -13.385 -12.705  26.667  1.00  0.00    -0.000 C 
BRANCH  13  14
ATOM     14  C   UNL     1     -12.349 -13.077  25.586  1.00  0.00    -0.000 C 
BRANCH  14  15
ATOM     15  C   UNL     1     -12.565 -12.347  24.249  1.00  0.00    -0.003 C 
ATOM     16  C   UNL     1     -11.324 -11.602  23.766  1.00  0.00     0.004 C 
ENDBRANCH  14  15
ENDBRANCH  13  14
ENDBRANCH  12  13
ENDBRANCH  11  12
ENDBRANCH  10  11
ENDBRANCH   1  10
TORSDOF 12
ENDMDL
MODEL 6
REMARK VINA RESULT:    -4.010      3.899      6.820
REMARK INTER + INTRA:          -7.680
REMARK INTER:                  -6.058
REMARK INTRA:                  -1.622
REMARK UNBOUND:                -0.857
REMARK SMILES CCCCCCCCCCCCCC(=O)[O-]
REMARK SMILES IDX 8 1 9 2 10 3 11 4 12 5 13 6 14 7 15 8 16 9 7 10 6 11 5 12
REMARK SMILES IDX 4 13 3 14 2 15 1 16
REMARK H PARENT
REMARK Flexibility Score: inf
ROOT
ATOM      1  C   UNL     1     -13.716 -10.557  26.360  1.00  0.00     0.000 C 
ENDROOT
BRANCH   1   2
ATOM      2  C   UNL     1     -12.471 -10.247  25.515  1.00  0.00     0.000 C 
BRANCH   2   3
ATOM      3  C   UNL     1     -11.317  -9.756  26.398  1.00  0.00     0.000 C 
BRANCH   3   4
ATOM      4  C   UNL     1     -11.556  -8.315  26.866  1.00  0.00     0.000 C 
BRANCH   4   5
ATOM      5  C   UNL     1     -11.597  -8.233  28.396  1.00  0.00     0.006 C 
BRANCH   5   6
ATOM      6  C   UNL     1     -11.380  -9.612  29.026  1.00  0.00     0.053 C 
BRANCH   6   7
ATOM      7  C   UNL     1     -11.661  -9.567  30.495  1.00  0.00     0.041 C 
ATOM      8  O   UNL     1     -11.330  -8.558  31.172  1.00  0.00    -0.550 OA
ATOM      9  O   UNL     1     -12.243 -10.660  31.125  1.00  0.00    -0.550 OA
ENDBRANCH   6   7
ENDBRANCH   5   6
ENDBRANCH   4   5
ENDBRANCH   3   4
ENDBRANCH   2   3
ENDBRANCH   1   2
BRANCH   1  10
ATOM     10  C   UNL     1     -14.945  -9.744  25.921  1.00  0.00     0.000 C 
BRANCH  10  11
ATOM     11  C   UNL     1     -15.294  -8.618  26.907  1.00  0.00    -0.000 C 
BRANCH  11  12
ATOM     12  C   UNL     1     -15.547  -7.300  26.166  1.00  0.00    -0.000 C 
BRANCH  12  13
ATOM     13  C   UNL     1     -15.034  -7.372  24.720  1.00  0.00    -0.000 C 
BRANCH  13  14
ATOM     14  C   UNL     1     -13.681  -6.651  24.543  1.00  0.00    -0.000 C 
BRANCH  14  15
ATOM     15  C   UNL     1     -12.976  -6.983  23.216  1.00  0.00    -0.003 C 
ATOM     16  C   UNL     1     -13.774  -6.549  21.990  1.00  0.00     0.004 C 
ENDBRANCH  14  15
ENDBRANCH  13  14
ENDBRANCH  12  13
ENDBRANCH  11  12
ENDBRANCH  10  11
ENDBRANCH   1  10
TORSDOF 12
ENDMDL
MODEL 7
REMARK VINA RESULT:    -3.977      2.733      5.368
REMARK INTER + INTRA:          -7.624
REMARK INTER:                  -5.567
REMARK INTRA:                  -2.056
REMARK UNBOUND:                -0.857
REMARK SMILES CCCCCCCCCCCCCC(=O)[O-]
REMARK SMILES IDX 8 1 9 2 10 3 11 4 12 5 13 6 14 7 15 8 16 9 7 10 6 11 5 12
REMARK SMILES IDX 4 13 3 14 2 15 1 16
REMARK H PARENT
REMARK Flexibility Score: inf
ROOT
ATOM      1  C   UNL     1     -11.128 -10.664  28.687  1.00  0.00     0.000 C 
ENDROOT
BRANCH   1   2
ATOM      2  C   UNL     1     -11.546  -9.330  29.324  1.00  0.00     0.000 C 
BRANCH   2   3
ATOM      3  C   UNL     1     -11.730  -8.246  28.254  1.00  0.00     0.000 C 
BRANCH   3   4
ATOM      4  C   UNL     1     -11.234  -8.731  26.886  1.00  0.00     0.000 C 
BRANCH   4   5
ATOM      5  C   UNL     1     -11.958  -8.005  25.748  1.00  0.00     0.006 C 
BRANCH   5   6
ATOM      6  C   UNL     1     -12.995  -8.918  25.085  1.00  0.00     0.053 C 
BRANCH   6   7
ATOM      7  C   UNL     1     -14.375  -8.374  25.284  1.00  0.00     0.041 C 
ATOM      8  O   UNL     1     -14.729  -7.944  26.413  1.00  0.00    -0.550 OA
ATOM      9  O   UNL     1     -15.285  -8.387  24.235  1.00  0.00    -0.550 OA
ENDBRANCH   6   7
ENDBRANCH   5   6
ENDBRANCH   4   5
ENDBRANCH   3   4
ENDBRANCH   2   3
ENDBRANCH   1   2
BRANCH   1  10
ATOM     10  C   UNL     1     -12.068 -11.820  29.066  1.00  0.00     0.000 C 
BRANCH  10  11
ATOM     11  C   UNL     1     -13.552 -11.450  28.916  1.00  0.00    -0.000 C 
BRANCH  11  12
ATOM     12  C   UNL     1     -14.001 -11.565  27.455  1.00  0.00    -0.000 C 
BRANCH  12  13
ATOM     13  C   UNL     1     -13.420 -12.825  26.796  1.00  0.00    -0.000 C 
BRANCH  13  14
ATOM     14  C   UNL     1     -12.651 -12.504  25.497  1.00  0.00    -0.000 C 
BRANCH  14  15
ATOM     15  C   UNL     1     -11.164 -12.894  25.550  1.00  0.00    -0.003 C 
ATOM     16  C   UNL     1     -10.230 -11.741  25.194  1.00  0.00     0.004 C 
ENDBRANCH  14  15
ENDBRANCH  13  14
ENDBRANCH  12  13
ENDBRANCH  11  12
ENDBRANCH  10  11
ENDBRANCH   1  10
TORSDOF 12
ENDMDL
MODEL 8
REMARK VINA RESULT:    -3.967      1.828      3.481
REMARK INTER + INTRA:          -7.607
REMARK INTER:                  -5.869
REMARK INTRA:                  -1.738
REMARK UNBOUND:                -0.857
REMARK SMILES CCCCCCCCCCCCCC(=O)[O-]
REMARK SMILES IDX 8 1 9 2 10 3 11 4 12 5 13 6 14 7 15 8 16 9 7 10 6 11 5 12
REMARK SMILES IDX 4 13 3 14 2 15 1 16
REMARK H PARENT
REMARK Flexibility Score: inf
ROOT
ATOM      1  C   UNL     1     -11.601  -8.494  26.165  1.00  0.00     0.000 C 
ENDROOT
BRANCH   1   2
ATOM      2  C   UNL     1     -12.684  -7.920  25.238  1.00  0.00     0.000 C 
BRANCH   2   3
ATOM      3  C   UNL     1     -14.046  -7.883  25.942  1.00  0.00     0.000 C 
BRANCH   3   4
ATOM      4  C   UNL     1     -14.970  -6.840  25.302  1.00  0.00     0.000 C 
BRANCH   4   5
ATOM      5  C   UNL     1     -14.169  -5.837  24.463  1.00  0.00     0.006 C 
BRANCH   5   6
ATOM      6  C   UNL     1     -14.815  -5.632  23.089  1.00  0.00     0.053 C 
BRANCH   6   7
ATOM      7  C   UNL     1     -14.263  -6.610  22.100  1.00  0.00     0.041 C 
ATOM      8  O   UNL     1     -15.038  -7.351  21.442  1.00  0.00    -0.550 OA
ATOM      9  O   UNL     1     -12.888  -6.736  21.940  1.00  0.00    -0.550 OA
ENDBRANCH   6   7
ENDBRANCH   5   6
ENDBRANCH   4   5
ENDBRANCH   3   4
ENDBRANCH   2   3
ENDBRANCH   1   2
BRANCH   1  10
ATOM     10  C   UNL     1     -12.033  -8.509  27.641  1.00  0.00     0.000 C 
BRANCH  10  11
ATOM     11  C   UNL     1     -11.437  -9.690  28.421  1.00  0.00    -0.000 C 
BRANCH  11  12
ATOM     12  C   UNL     1     -12.497 -10.354  29.307  1.00  0.00    -0.000 C 
BRANCH  12  13
ATOM     13  C   UNL     1     -13.802 -10.583  28.529  1.00  0.00    -0.000 C 
BRANCH  13  14
ATOM     14  C   UNL     1     -13.759 -11.875  27.686  1.00  0.00    -0.000 C 
BRANCH  14  15
ATOM     15  C   UNL     1     -13.948 -11.632  26.178  1.00  0.00    -0.003 C 
ATOM     16  C   UNL     1     -12.698 -11.943  25.360  1.00  0.00     0.004 C 
ENDBRANCH  14  15
ENDBRANCH  13  14
ENDBRANCH  12  13
ENDBRANCH  11  12
ENDBRANCH  10  11
ENDBRANCH   1  10
TORSDOF 12
ENDMDL
MODEL 9
REMARK VINA RESULT:    -3.967      3.627      6.541
REMARK INTER + INTRA:          -7.607
REMARK INTER:                  -5.760
REMARK INTRA:                  -1.847
REMARK UNBOUND:                -0.857
REMARK SMILES CCCCCCCCCCCCCC(=O)[O-]
REMARK SMILES IDX 8 1 9 2 10 3 11 4 12 5 13 6 14 7 15 8 16 9 7 10 6 11 5 12
REMARK SMILES IDX 4 13 3 14 2 15 1 16
REMARK H PARENT
REMARK Flexibility Score: inf
ROOT
ATOM      1  C   UNL     1     -11.258  -8.634  26.647  1.00  0.00     0.000 C 
ENDROOT
BRANCH   1   2
ATOM      2  C   UNL     1     -11.875  -8.714  28.052  1.00  0.00     0.000 C 
BRANCH   2   3
ATOM      3  C   UNL     1     -12.136 -10.171  28.455  1.00  0.00     0.000 C 
BRANCH   3   4
ATOM      4  C   UNL     1     -13.639 -10.472  28.493  1.00  0.00     0.000 C 
BRANCH   4   5
ATOM      5  C   UNL     1     -14.001 -11.595  27.516  1.00  0.00     0.006 C 
BRANCH   5   6
ATOM      6  C   UNL     1     -12.741 -12.247  26.937  1.00  0.00     0.053 C 
BRANCH   6   7
ATOM      7  C   UNL     1     -12.726 -13.713  27.235  1.00  0.00     0.041 C 
ATOM      8  O   UNL     1     -13.023 -14.544  26.337  1.00  0.00    -0.550 OA
ATOM      9  O   UNL     1     -12.430 -14.159  28.517  1.00  0.00    -0.550 OA
ENDBRANCH   6   7
ENDBRANCH   5   6
ENDBRANCH   4   5
ENDBRANCH   3   4
ENDBRANCH   2   3
ENDBRANCH   1   2
BRANCH   1  10
ATOM     10  C   UNL     1     -12.219  -8.029  25.612  1.00  0.00     0.000 C 
BRANCH  10  11
ATOM     11  C   UNL     1     -13.032  -9.097  24.864  1.00  0.00    -0.000 C 
BRANCH  11  12
ATOM     12  C   UNL     1     -14.537  -8.887  25.072  1.00  0.00    -0.000 C 
BRANCH  12  13
ATOM     13  C   UNL     1     -14.804  -7.704  26.015  1.00  0.00    -0.000 C 
BRANCH  13  14
ATOM     14  C   UNL     1     -15.600  -6.576  25.327  1.00  0.00    -0.000 C 
BRANCH  14  15
ATOM     15  C   UNL     1     -14.712  -5.548  24.604  1.00  0.00    -0.003 C 
ATOM     16  C   UNL     1     -14.707  -5.723  23.088  1.00  0.00     0.004 C 
ENDBRANCH  14  15
ENDBRANCH  13  14
ENDBRANCH  12  13
ENDBRANCH  11  12
ENDBRANCH  10  11
ENDBRANCH   1  10
TORSDOF 12
ENDMDL
