MODEL 1
REMARK VINA RESULT:    -1.875      0.000      0.000
REMARK INTER + INTRA:          -8.026
REMARK INTER:                  -4.068
REMARK INTRA:                  -3.958
REMARK UNBOUND:                -3.958
REMARK SMILES CCCCCCCCCCCCCCCCCCCCCC(=O)[O-]
REMARK SMILES IDX 12 1 11 2 10 3 9 4 8 5 7 6 6 7 5 8 4 9 3 10 2 11 1 12 13 13
REMARK SMILES IDX 14 14 15 15 16 16 17 17 18 18 19 19 20 20 21 21 22 22 23 23
REMARK SMILES IDX 24 24
REMARK H PARENT
REMARK Flexibility Score: inf
ROOT
ATOM      1  C   UNL     1     176.843 204.139 200.773  1.00  0.00     0.000 C 
ENDROOT
BRANCH   1   2
ATOM      2  C   UNL     1     176.713 204.302 199.245  1.00  0.00     0.000 C 
BRANCH   2   3
ATOM      3  C   UNL     1     177.994 204.755 198.523  1.00  0.00     0.000 C 
BRANCH   3   4
ATOM      4  C   UNL     1     179.189 204.927 199.474  1.00  0.00    -0.000 C 
BRANCH   4   5
ATOM      5  C   UNL     1     180.223 205.936 198.946  1.00  0.00    -0.000 C 
BRANCH   5   6
ATOM      6  C   UNL     1     179.585 207.042 198.085  1.00  0.00    -0.000 C 
BRANCH   6   7
ATOM      7  C   UNL     1     180.155 207.067 196.650  1.00  0.00    -0.000 C 
BRANCH   7   8
ATOM      8  C   UNL     1     179.140 207.528 195.590  1.00  0.00    -0.000 C 
BRANCH   8   9
ATOM      9  C   UNL     1     177.732 207.746 196.164  1.00  0.00    -0.000 C 
BRANCH   9  10
ATOM     10  C   UNL     1     176.686 208.065 195.082  1.00  0.00    -0.000 C 
BRANCH  10  11
ATOM     11  C   UNL     1     175.351 207.315 195.269  1.00  0.00    -0.003 C 
ATOM     12  C   UNL     1     175.522 205.998 196.026  1.00  0.00     0.004 C 
ENDBRANCH  10  11
ENDBRANCH   9  10
ENDBRANCH   8   9
ENDBRANCH   7   8
ENDBRANCH   6   7
ENDBRANCH   5   6
ENDBRANCH   4   5
ENDBRANCH   3   4
ENDBRANCH   2   3
ENDBRANCH   1   2
BRANCH   1  13
ATOM     13  C   UNL     1     175.542 204.355 201.571  1.00  0.00     0.000 C 
BRANCH  13  14
ATOM     14  C   UNL     1     175.545 205.582 202.499  1.00  0.00     0.000 C 
BRANCH  14  15
ATOM     15  C   UNL     1     176.749 206.507 202.262  1.00  0.00     0.000 C 
BRANCH  15  16
ATOM     16  C   UNL     1     176.307 207.814 201.592  1.00  0.00     0.000 C 
BRANCH  16  17
ATOM     17  C   UNL     1     176.923 207.955 200.195  1.00  0.00     0.000 C 
BRANCH  17  18
ATOM     18  C   UNL     1     175.827 208.122 199.131  1.00  0.00     0.000 C 
BRANCH  18  19
ATOM     19  C   UNL     1     174.417 207.834 199.673  1.00  0.00     0.000 C 
BRANCH  19  20
ATOM     20  C   UNL     1     173.800 206.497 199.221  1.00  0.00     0.006 C 
BRANCH  20  21
ATOM     21  C   UNL     1     172.291 206.571 198.923  1.00  0.00     0.053 C 
BRANCH  21  22
ATOM     22  C   UNL     1     171.549 205.364 199.410  1.00  0.00     0.041 C 
ATOM     23  O   UNL     1     171.945 204.747 200.435  1.00  0.00    -0.550 OA
ATOM     24  O   UNL     1     170.399 204.939 198.758  1.00  0.00    -0.550 OA
ENDBRANCH  21  22
ENDBRANCH  20  21
ENDBRANCH  19  20
ENDBRANCH  18  19
ENDBRANCH  17  18
ENDBRANCH  16  17
ENDBRANCH  15  16
ENDBRANCH  14  15
ENDBRANCH  13  14
ENDBRANCH   1  13
TORSDOF 20
ENDMDL
MODEL 2
REMARK VINA RESULT:    -1.837      3.094      5.228
REMARK INTER + INTRA:          -7.943
REMARK INTER:                  -3.609
REMARK INTRA:                  -4.334
REMARK UNBOUND:                -3.958
REMARK SMILES CCCCCCCCCCCCCCCCCCCCCC(=O)[O-]
REMARK SMILES IDX 12 1 11 2 10 3 9 4 8 5 7 6 6 7 5 8 4 9 3 10 2 11 1 12 13 13
REMARK SMILES IDX 14 14 15 15 16 16 17 17 18 18 19 19 20 20 21 21 22 22 23 23
REMARK SMILES IDX 24 24
REMARK H PARENT
REMARK Flexibility Score: inf
ROOT
ATOM      1  C   UNL     1     175.105 203.908 200.289  1.00  0.00     0.000 C 
ENDROOT
BRANCH   1   2
ATOM      2  C   UNL     1     174.290 205.159 199.903  1.00  0.00     0.000 C 
BRANCH   2   3
ATOM      3  C   UNL     1     172.826 204.894 199.513  1.00  0.00     0.000 C 
BRANCH   3   4
ATOM      4  C   UNL     1     172.303 205.872 198.448  1.00  0.00    -0.000 C 
BRANCH   4   5
ATOM      5  C   UNL     1     172.947 207.264 198.561  1.00  0.00    -0.000 C 
BRANCH   5   6
ATOM      6  C   UNL     1     173.462 207.791 197.209  1.00  0.00    -0.000 C 
BRANCH   6   7
ATOM      7  C   UNL     1     173.361 206.729 196.092  1.00  0.00    -0.000 C 
BRANCH   7   8
ATOM      8  C   UNL     1     174.713 206.379 195.448  1.00  0.00    -0.000 C 
BRANCH   8   9
ATOM      9  C   UNL     1     174.897 204.869 195.227  1.00  0.00    -0.000 C 
BRANCH   9  10
ATOM     10  C   UNL     1     175.268 204.116 196.515  1.00  0.00    -0.000 C 
BRANCH  10  11
ATOM     11  C   UNL     1     174.561 202.752 196.662  1.00  0.00    -0.003 C 
ATOM     12  C   UNL     1     173.057 202.844 196.407  1.00  0.00     0.004 C 
ENDBRANCH  10  11
ENDBRANCH   9  10
ENDBRANCH   8   9
ENDBRANCH   7   8
ENDBRANCH   6   7
ENDBRANCH   5   6
ENDBRANCH   4   5
ENDBRANCH   3   4
ENDBRANCH   2   3
ENDBRANCH   1   2
BRANCH   1  13
ATOM     13  C   UNL     1     176.013 204.069 201.524  1.00  0.00     0.000 C 
BRANCH  13  14
ATOM     14  C   UNL     1     177.465 204.470 201.213  1.00  0.00     0.000 C 
BRANCH  14  15
ATOM     15  C   UNL     1     177.847 205.837 201.801  1.00  0.00     0.000 C 
BRANCH  15  16
ATOM     16  C   UNL     1     176.620 206.533 202.402  1.00  0.00     0.000 C 
BRANCH  16  17
ATOM     17  C   UNL     1     176.253 207.792 201.607  1.00  0.00     0.000 C 
BRANCH  17  18
ATOM     18  C   UNL     1     177.255 208.026 200.466  1.00  0.00     0.000 C 
BRANCH  18  19
ATOM     19  C   UNL     1     176.622 207.877 199.073  1.00  0.00     0.000 C 
BRANCH  19  20
ATOM     20  C   UNL     1     177.182 206.725 198.217  1.00  0.00     0.006 C 
BRANCH  20  21
ATOM     21  C   UNL     1     178.035 207.188 197.022  1.00  0.00     0.053 C 
BRANCH  21  22
ATOM     22  C   UNL     1     179.506 207.072 197.286  1.00  0.00     0.041 C 
ATOM     23  O   UNL     1     180.337 207.405 196.401  1.00  0.00    -0.550 OA
ATOM     24  O   UNL     1     179.961 206.632 198.523  1.00  0.00    -0.550 OA
ENDBRANCH  21  22
ENDBRANCH  20  21
ENDBRANCH  19  20
ENDBRANCH  18  19
ENDBRANCH  17  18
ENDBRANCH  16  17
ENDBRANCH  15  16
ENDBRANCH  14  15
ENDBRANCH  13  14
ENDBRANCH   1  13
TORSDOF 20
ENDMDL
MODEL 3
REMARK VINA RESULT:    -1.807      1.996      3.904
REMARK INTER + INTRA:          -7.877
REMARK INTER:                  -3.810
REMARK INTRA:                  -4.067
REMARK UNBOUND:                -3.958
REMARK SMILES CCCCCCCCCCCCCCCCCCCCCC(=O)[O-]
REMARK SMILES IDX 12 1 11 2 10 3 9 4 8 5 7 6 6 7 5 8 4 9 3 10 2 11 1 12 13 13
REMARK SMILES IDX 14 14 15 15 16 16 17 17 18 18 19 19 20 20 21 21 22 22 23 23
REMARK SMILES IDX 24 24
REMARK H PARENT
REMARK Flexibility Score: inf
ROOT
ATOM      1  C   UNL     1     180.321 204.382 199.042  1.00  0.00     0.000 C 
ENDROOT
BRANCH   1   2
ATOM      2  C   UNL     1     179.267 203.793 198.082  1.00  0.00     0.000 C 
BRANCH   2   3
ATOM      3  C   UNL     1     178.595 204.810 197.142  1.00  0.00     0.000 C 
BRANCH   3   4
ATOM      4  C   UNL     1     179.598 205.777 196.491  1.00  0.00    -0.000 C 
BRANCH   4   5
ATOM      5  C   UNL     1     178.976 207.148 196.179  1.00  0.00    -0.000 C 
BRANCH   5   6
ATOM      6  C   UNL     1     177.483 207.053 195.815  1.00  0.00    -0.000 C 
BRANCH   6   7
ATOM      7  C   UNL     1     176.637 208.125 196.536  1.00  0.00    -0.000 C 
BRANCH   7   8
ATOM      8  C   UNL     1     175.255 207.622 196.987  1.00  0.00    -0.000 C 
BRANCH   8   9
ATOM      9  C   UNL     1     175.159 206.088 197.022  1.00  0.00    -0.000 C 
BRANCH   9  10
ATOM     10  C   UNL     1     174.783 205.543 198.410  1.00  0.00    -0.000 C 
BRANCH  10  11
ATOM     11  C   UNL     1     174.354 204.061 198.399  1.00  0.00    -0.003 C 
ATOM     12  C   UNL     1     175.534 203.112 198.193  1.00  0.00     0.004 C 
ENDBRANCH  10  11
ENDBRANCH   9  10
ENDBRANCH   8   9
ENDBRANCH   7   8
ENDBRANCH   6   7
ENDBRANCH   5   6
ENDBRANCH   4   5
ENDBRANCH   3   4
ENDBRANCH   2   3
ENDBRANCH   1   2
BRANCH   1  13
ATOM     13  C   UNL     1     179.759 205.255 200.180  1.00  0.00     0.000 C 
BRANCH  13  14
ATOM     14  C   UNL     1     180.222 206.722 200.162  1.00  0.00     0.000 C 
BRANCH  14  15
ATOM     15  C   UNL     1     179.100 207.698 199.775  1.00  0.00     0.000 C 
BRANCH  15  16
ATOM     16  C   UNL     1     177.726 207.031 199.913  1.00  0.00     0.000 C 
BRANCH  16  17
ATOM     17  C   UNL     1     176.686 208.016 200.462  1.00  0.00     0.000 C 
BRANCH  17  18
ATOM     18  C   UNL     1     176.142 207.535 201.816  1.00  0.00     0.000 C 
BRANCH  18  19
ATOM     19  C   UNL     1     176.895 206.311 202.364  1.00  0.00     0.000 C 
BRANCH  19  20
ATOM     20  C   UNL     1     176.014 205.253 203.054  1.00  0.00     0.006 C 
BRANCH  20  21
ATOM     21  C   UNL     1     174.862 204.727 202.178  1.00  0.00     0.053 C 
BRANCH  21  22
ATOM     22  C   UNL     1     174.980 203.261 201.892  1.00  0.00     0.041 C 
ATOM     23  O   UNL     1     173.946 202.564 201.715  1.00  0.00    -0.550 OA
ATOM     24  O   UNL     1     176.232 202.668 201.783  1.00  0.00    -0.550 OA
ENDBRANCH  21  22
ENDBRANCH  20  21
ENDBRANCH  19  20
ENDBRANCH  18  19
ENDBRANCH  17  18
ENDBRANCH  16  17
ENDBRANCH  15  16
ENDBRANCH  14  15
ENDBRANCH  13  14
ENDBRANCH   1  13
TORSDOF 20
ENDMDL
MODEL 4
REMARK VINA RESULT:    -1.774      3.410      5.725
REMARK INTER + INTRA:          -7.806
REMARK INTER:                  -3.460
REMARK INTRA:                  -4.346
REMARK UNBOUND:                -3.958
REMARK SMILES CCCCCCCCCCCCCCCCCCCCCC(=O)[O-]
REMARK SMILES IDX 12 1 11 2 10 3 9 4 8 5 7 6 6 7 5 8 4 9 3 10 2 11 1 12 13 13
REMARK SMILES IDX 14 14 15 15 16 16 17 17 18 18 19 19 20 20 21 21 22 22 23 23
REMARK SMILES IDX 24 24
REMARK H PARENT
REMARK Flexibility Score: inf
ROOT
ATOM      1  C   UNL     1     175.289 206.818 199.558  1.00  0.00     0.000 C 
ENDROOT
BRANCH   1   2
ATOM      2  C   UNL     1     175.099 207.104 201.062  1.00  0.00     0.000 C 
BRANCH   2   3
ATOM      3  C   UNL     1     176.399 207.198 201.880  1.00  0.00     0.000 C 
BRANCH   3   4
ATOM      4  C   UNL     1     176.636 205.967 202.771  1.00  0.00    -0.000 C 
BRANCH   4   5
ATOM      5  C   UNL     1     178.045 205.377 202.598  1.00  0.00    -0.000 C 
BRANCH   5   6
ATOM      6  C   UNL     1     178.543 205.446 201.143  1.00  0.00    -0.000 C 
BRANCH   6   7
ATOM      7  C   UNL     1     180.002 205.943 201.047  1.00  0.00    -0.000 C 
BRANCH   7   8
ATOM      8  C   UNL     1     180.188 207.135 200.093  1.00  0.00    -0.000 C 
BRANCH   8   9
ATOM      9  C   UNL     1     178.933 207.435 199.259  1.00  0.00    -0.000 C 
BRANCH   9  10
ATOM     10  C   UNL     1     179.060 206.970 197.798  1.00  0.00    -0.000 C 
BRANCH  10  11
ATOM     11  C   UNL     1     177.891 207.425 196.899  1.00  0.00    -0.003 C 
ATOM     12  C   UNL     1     177.350 206.292 196.027  1.00  0.00     0.004 C 
ENDBRANCH  10  11
ENDBRANCH   9  10
ENDBRANCH   8   9
ENDBRANCH   7   8
ENDBRANCH   6   7
ENDBRANCH   5   6
ENDBRANCH   4   5
ENDBRANCH   3   4
ENDBRANCH   2   3
ENDBRANCH   1   2
BRANCH   1  13
ATOM     13  C   UNL     1     175.536 205.341 199.196  1.00  0.00     0.000 C 
BRANCH  13  14
ATOM     14  C   UNL     1     174.423 204.371 199.631  1.00  0.00     0.000 C 
BRANCH  14  15
ATOM     15  C   UNL     1     174.828 203.496 200.827  1.00  0.00     0.000 C 
BRANCH  15  16
ATOM     16  C   UNL     1     175.381 202.146 200.352  1.00  0.00     0.000 C 
BRANCH  16  17
ATOM     17  C   UNL     1     176.630 201.749 201.148  1.00  0.00     0.000 C 
BRANCH  17  18
ATOM     18  C   UNL     1     177.902 201.990 200.321  1.00  0.00     0.000 C 
BRANCH  18  19
ATOM     19  C   UNL     1     177.625 202.102 198.813  1.00  0.00     0.000 C 
BRANCH  19  20
ATOM     20  C   UNL     1     178.296 203.296 198.108  1.00  0.00     0.006 C 
BRANCH  20  21
ATOM     21  C   UNL     1     179.835 203.287 198.188  1.00  0.00     0.053 C 
BRANCH  21  22
ATOM     22  C   UNL     1     180.434 202.051 197.588  1.00  0.00     0.041 C 
ATOM     23  O   UNL     1     180.344 201.840 196.349  1.00  0.00    -0.550 OA
ATOM     24  O   UNL     1     181.125 201.150 198.387  1.00  0.00    -0.550 OA
ENDBRANCH  21  22
ENDBRANCH  20  21
ENDBRANCH  19  20
ENDBRANCH  18  19
ENDBRANCH  17  18
ENDBRANCH  16  17
ENDBRANCH  15  16
ENDBRANCH  14  15
ENDBRANCH  13  14
ENDBRANCH   1  13
TORSDOF 20
ENDMDL
MODEL 5
REMARK VINA RESULT:    -1.763      3.185      5.593
REMARK INTER + INTRA:          -7.782
REMARK INTER:                  -3.835
REMARK INTRA:                  -3.947
REMARK UNBOUND:                -3.958
REMARK SMILES CCCCCCCCCCCCCCCCCCCCCC(=O)[O-]
REMARK SMILES IDX 12 1 11 2 10 3 9 4 8 5 7 6 6 7 5 8 4 9 3 10 2 11 1 12 13 13
REMARK SMILES IDX 14 14 15 15 16 16 17 17 18 18 19 19 20 20 21 21 22 22 23 23
REMARK SMILES IDX 24 24
REMARK H PARENT
REMARK Flexibility Score: inf
ROOT
ATOM      1  C   UNL     1     176.759 202.876 198.181  1.00  0.00     0.000 C 
ENDROOT
BRANCH   1   2
ATOM      2  C   UNL     1     175.418 202.132 198.349  1.00  0.00     0.000 C 
BRANCH   2   3
ATOM      3  C   UNL     1     174.447 202.755 199.367  1.00  0.00     0.000 C 
BRANCH   3   4
ATOM      4  C   UNL     1     174.135 204.231 199.072  1.00  0.00    -0.000 C 
BRANCH   4   5
ATOM      5  C   UNL     1     173.451 204.427 197.709  1.00  0.00    -0.000 C 
BRANCH   5   6
ATOM      6  C   UNL     1     173.853 205.748 197.028  1.00  0.00    -0.000 C 
BRANCH   6   7
ATOM      7  C   UNL     1     174.777 206.607 197.919  1.00  0.00    -0.000 C 
BRANCH   7   8
ATOM      8  C   UNL     1     174.275 208.046 198.125  1.00  0.00    -0.000 C 
BRANCH   8   9
ATOM      9  C   UNL     1     173.043 208.124 199.040  1.00  0.00    -0.000 C 
BRANCH   9  10
ATOM     10  C   UNL     1     173.405 208.105 200.535  1.00  0.00    -0.000 C 
BRANCH  10  11
ATOM     11  C   UNL     1     172.329 207.449 201.425  1.00  0.00    -0.003 C 
ATOM     12  C   UNL     1     172.810 206.144 202.057  1.00  0.00     0.004 C 
ENDBRANCH  10  11
ENDBRANCH   9  10
ENDBRANCH   8   9
ENDBRANCH   7   8
ENDBRANCH   6   7
ENDBRANCH   5   6
ENDBRANCH   4   5
ENDBRANCH   3   4
ENDBRANCH   2   3
ENDBRANCH   1   2
BRANCH   1  13
ATOM     13  C   UNL     1     177.744 202.728 199.358  1.00  0.00     0.000 C 
BRANCH  13  14
ATOM     14  C   UNL     1     178.052 204.031 200.114  1.00  0.00     0.000 C 
BRANCH  14  15
ATOM     15  C   UNL     1     177.923 203.882 201.638  1.00  0.00     0.000 C 
BRANCH  15  16
ATOM     16  C   UNL     1     176.764 204.733 202.172  1.00  0.00     0.000 C 
BRANCH  16  17
ATOM     17  C   UNL     1     176.333 205.787 201.146  1.00  0.00     0.000 C 
BRANCH  17  18
ATOM     18  C   UNL     1     176.677 207.201 201.640  1.00  0.00     0.000 C 
BRANCH  18  19
ATOM     19  C   UNL     1     177.189 208.120 200.519  1.00  0.00     0.000 C 
BRANCH  19  20
ATOM     20  C   UNL     1     178.526 207.697 199.883  1.00  0.00     0.006 C 
BRANCH  20  21
ATOM     21  C   UNL     1     178.421 207.318 198.394  1.00  0.00     0.053 C 
BRANCH  21  22
ATOM     22  C   UNL     1     179.726 206.845 197.828  1.00  0.00     0.041 C 
ATOM     23  O   UNL     1     180.813 207.228 198.336  1.00  0.00    -0.550 OA
ATOM     24  O   UNL     1     179.744 205.952 196.764  1.00  0.00    -0.550 OA
ENDBRANCH  21  22
ENDBRANCH  20  21
ENDBRANCH  19  20
ENDBRANCH  18  19
ENDBRANCH  17  18
ENDBRANCH  16  17
ENDBRANCH  15  16
ENDBRANCH  14  15
ENDBRANCH  13  14
ENDBRANCH   1  13
TORSDOF 20
ENDMDL
MODEL 6
REMARK VINA RESULT:    -1.759     17.967     20.165
REMARK INTER + INTRA:          -7.772
REMARK INTER:                  -4.129
REMARK INTRA:                  -3.643
REMARK UNBOUND:                -3.958
REMARK SMILES CCCCCCCCCCCCCCCCCCCCCC(=O)[O-]
REMARK SMILES IDX 12 1 11 2 10 3 9 4 8 5 7 6 6 7 5 8 4 9 3 10 2 11 1 12 13 13
REMARK SMILES IDX 14 14 15 15 16 16 17 17 18 18 19 19 20 20 21 21 22 22 23 23
REMARK SMILES IDX 24 24
REMARK H PARENT
REMARK Flexibility Score: inf
ROOT
ATOM      1  C   UNL     1     164.640 199.056 183.295  1.00  0.00     0.000 C 
ENDROOT
BRANCH   1   2
ATOM      2  C   UNL     1     164.340 197.572 182.998  1.00  0.00     0.000 C 
BRANCH   2   3
ATOM      3  C   UNL     1     162.852 197.182 183.047  1.00  0.00     0.000 C 
BRANCH   3   4
ATOM      4  C   UNL     1     162.548 196.113 184.109  1.00  0.00    -0.000 C 
BRANCH   4   5
ATOM      5  C   UNL     1     161.745 196.673 185.295  1.00  0.00    -0.000 C 
BRANCH   5   6
ATOM      6  C   UNL     1     162.597 197.557 186.224  1.00  0.00    -0.000 C 
BRANCH   6   7
ATOM      7  C   UNL     1     163.523 196.723 187.136  1.00  0.00    -0.000 C 
BRANCH   7   8
ATOM      8  C   UNL     1     164.960 197.263 187.218  1.00  0.00    -0.000 C 
BRANCH   8   9
ATOM      9  C   UNL     1     165.927 196.539 186.268  1.00  0.00    -0.000 C 
BRANCH   9  10
ATOM     10  C   UNL     1     165.506 195.089 185.977  1.00  0.00    -0.000 C 
BRANCH  10  11
ATOM     11  C   UNL     1     165.939 194.585 184.584  1.00  0.00    -0.003 C 
ATOM     12  C   UNL     1     167.105 195.388 184.009  1.00  0.00     0.004 C 
ENDBRANCH  10  11
ENDBRANCH   9  10
ENDBRANCH   8   9
ENDBRANCH   7   8
ENDBRANCH   6   7
ENDBRANCH   5   6
ENDBRANCH   4   5
ENDBRANCH   3   4
ENDBRANCH   2   3
ENDBRANCH   1   2
BRANCH   1  13
ATOM     13  C   UNL     1     166.015 199.334 183.932  1.00  0.00     0.000 C 
BRANCH  13  14
ATOM     14  C   UNL     1     165.979 200.197 185.204  1.00  0.00     0.000 C 
BRANCH  14  15
ATOM     15  C   UNL     1     164.571 200.714 185.535  1.00  0.00     0.000 C 
BRANCH  15  16
ATOM     16  C   UNL     1     164.412 200.933 187.045  1.00  0.00     0.000 C 
BRANCH  16  17
ATOM     17  C   UNL     1     162.932 200.973 187.445  1.00  0.00     0.000 C 
BRANCH  17  18
ATOM     18  C   UNL     1     162.471 202.420 187.681  1.00  0.00     0.000 C 
BRANCH  18  19
ATOM     19  C   UNL     1     161.099 202.720 187.056  1.00  0.00     0.000 C 
BRANCH  19  20
ATOM     20  C   UNL     1     161.120 203.696 185.864  1.00  0.00     0.006 C 
BRANCH  20  21
ATOM     21  C   UNL     1     161.941 204.975 186.115  1.00  0.00     0.053 C 
BRANCH  21  22
ATOM     22  C   UNL     1     163.054 205.146 185.127  1.00  0.00     0.041 C 
ATOM     23  O   UNL     1     163.109 206.177 184.406  1.00  0.00    -0.550 OA
ATOM     24  O   UNL     1     164.054 204.187 185.027  1.00  0.00    -0.550 OA
ENDBRANCH  21  22
ENDBRANCH  20  21
ENDBRANCH  19  20
ENDBRANCH  18  19
ENDBRANCH  17  18
ENDBRANCH  16  17
ENDBRANCH  15  16
ENDBRANCH  14  15
ENDBRANCH  13  14
ENDBRANCH   1  13
TORSDOF 20
ENDMDL
MODEL 7
REMARK VINA RESULT:    -1.737      1.941      3.034
REMARK INTER + INTRA:          -7.725
REMARK INTER:                  -3.862
REMARK INTRA:                  -3.863
REMARK UNBOUND:                -3.958
REMARK SMILES CCCCCCCCCCCCCCCCCCCCCC(=O)[O-]
REMARK SMILES IDX 12 1 11 2 10 3 9 4 8 5 7 6 6 7 5 8 4 9 3 10 2 11 1 12 13 13
REMARK SMILES IDX 14 14 15 15 16 16 17 17 18 18 19 19 20 20 21 21 22 22 23 23
REMARK SMILES IDX 24 24
REMARK H PARENT
REMARK Flexibility Score: inf
ROOT
ATOM      1  C   UNL     1     177.458 204.534 200.804  1.00  0.00     0.000 C 
ENDROOT
BRANCH   1   2
ATOM      2  C   UNL     1     178.793 204.096 201.441  1.00  0.00     0.000 C 
BRANCH   2   3
ATOM      3  C   UNL     1     179.727 205.245 201.861  1.00  0.00     0.000 C 
BRANCH   3   4
ATOM      4  C   UNL     1     180.960 205.377 200.951  1.00  0.00    -0.000 C 
BRANCH   4   5
ATOM      5  C   UNL     1     180.970 206.697 200.161  1.00  0.00    -0.000 C 
BRANCH   5   6
ATOM      6  C   UNL     1     179.574 207.337 200.057  1.00  0.00    -0.000 C 
BRANCH   6   7
ATOM      7  C   UNL     1     179.033 207.326 198.611  1.00  0.00    -0.000 C 
BRANCH   7   8
ATOM      8  C   UNL     1     179.540 206.143 197.770  1.00  0.00    -0.000 C 
BRANCH   8   9
ATOM      9  C   UNL     1     178.404 205.244 197.257  1.00  0.00    -0.000 C 
BRANCH   9  10
ATOM     10  C   UNL     1     178.704 203.744 197.425  1.00  0.00    -0.000 C 
BRANCH  10  11
ATOM     11  C   UNL     1     180.205 203.398 197.333  1.00  0.00    -0.003 C 
ATOM     12  C   UNL     1     180.708 202.648 198.566  1.00  0.00     0.004 C 
ENDBRANCH  10  11
ENDBRANCH   9  10
ENDBRANCH   8   9
ENDBRANCH   7   8
ENDBRANCH   6   7
ENDBRANCH   5   6
ENDBRANCH   4   5
ENDBRANCH   3   4
ENDBRANCH   2   3
ENDBRANCH   1   2
BRANCH   1  13
ATOM     13  C   UNL     1     176.220 204.393 201.711  1.00  0.00     0.000 C 
BRANCH  13  14
ATOM     14  C   UNL     1     175.624 205.722 202.206  1.00  0.00     0.000 C 
BRANCH  14  15
ATOM     15  C   UNL     1     176.649 206.866 202.226  1.00  0.00     0.000 C 
BRANCH  15  16
ATOM     16  C   UNL     1     176.073 208.125 201.565  1.00  0.00     0.000 C 
BRANCH  16  17
ATOM     17  C   UNL     1     174.631 207.894 201.098  1.00  0.00     0.000 C 
BRANCH  17  18
ATOM     18  C   UNL     1     174.511 208.093 199.579  1.00  0.00     0.000 C 
BRANCH  18  19
ATOM     19  C   UNL     1     175.482 207.208 198.780  1.00  0.00     0.000 C 
BRANCH  19  20
ATOM     20  C   UNL     1     174.822 206.085 197.959  1.00  0.00     0.006 C 
BRANCH  20  21
ATOM     21  C   UNL     1     173.347 205.828 198.319  1.00  0.00     0.053 C 
BRANCH  21  22
ATOM     22  C   UNL     1     172.409 206.237 197.225  1.00  0.00     0.041 C 
ATOM     23  O   UNL     1     172.545 207.352 196.656  1.00  0.00    -0.550 OA
ATOM     24  O   UNL     1     171.406 205.372 196.804  1.00  0.00    -0.550 OA
ENDBRANCH  21  22
ENDBRANCH  20  21
ENDBRANCH  19  20
ENDBRANCH  18  19
ENDBRANCH  17  18
ENDBRANCH  16  17
ENDBRANCH  15  16
ENDBRANCH  14  15
ENDBRANCH  13  14
ENDBRANCH   1  13
TORSDOF 20
ENDMDL
