MODEL 1
REMARK VINA RESULT:    -4.540      0.000      0.000
REMARK INTER + INTRA:          -5.692
REMARK INTER:                  -5.469
REMARK INTRA:                  -0.223
REMARK UNBOUND:                -0.223
REMARK SMILES O=c1c(O)c(-c2ccc(O)c(O)c2)oc2cc(O)cc(O)c12
REMARK SMILES IDX 5 1 3 2 2 3 1 4 22 5 20 6 19 7 17 8 16 9 15 10 14 11 6 12
REMARK SMILES IDX 7 13 8 14 9 15 13 16 11 17 10 18 12 20 4 22 21 24 18 26
REMARK H PARENT 10 19 12 21 4 23 21 25 18 27
REMARK Flexibility Score: inf
ROOT
ATOM      1  C   UNL     1      18.986  25.519  53.129  1.00  0.00     0.180 A 
ATOM      2  C   UNL     1      17.616  25.575  53.435  1.00  0.00     0.208 A 
ATOM      3  C   UNL     1      17.092  26.749  53.998  1.00  0.00     0.238 A 
ATOM      4  O   UNL     1      15.875  26.775  54.320  1.00  0.00    -0.285 OA
ATOM      5  C   UNL     1      17.941  27.858  54.232  1.00  0.00     0.111 A 
ATOM      6  C   UNL     1      17.508  29.112  54.760  1.00  0.00     0.134 A 
ATOM      7  C   UNL     1      18.457  30.093  55.073  1.00  0.00     0.093 A 
ATOM      8  C   UNL     1      19.812  29.892  54.816  1.00  0.00     0.123 A 
ATOM      9  C   UNL     1      20.239  28.693  54.244  1.00  0.00     0.094 A 
ATOM     10  C   UNL     1      19.320  27.680  53.955  1.00  0.00     0.146 A 
ATOM     11  O   UNL     1      19.768  26.551  53.421  1.00  0.00    -0.452 OA
ENDROOT
BRANCH   1  12
ATOM     12  C   UNL     1      19.608  24.324  52.510  1.00  0.00     0.025 A 
ATOM     13  C   UNL     1      20.066  24.343  51.182  1.00  0.00     0.016 A 
ATOM     14  C   UNL     1      20.671  23.212  50.627  1.00  0.00     0.051 A 
ATOM     15  C   UNL     1      20.838  22.052  51.394  1.00  0.00     0.157 A 
ATOM     16  C   UNL     1      19.797  23.166  53.281  1.00  0.00     0.062 A 
ATOM     17  C   UNL     1      20.400  22.031  52.729  1.00  0.00     0.158 A 
BRANCH  15  18
ATOM     18  O   UNL     1      21.439  20.925  50.837  1.00  0.00    -0.504 OA
ATOM     19  H   UNL     1      21.475  20.783  49.834  1.00  0.00     0.293 HD
ENDBRANCH  15  18
BRANCH  17  20
ATOM     20  O   UNL     1      20.559  20.894  53.521  1.00  0.00    -0.504 OA
ATOM     21  H   UNL     1      21.132  20.111  53.230  1.00  0.00     0.293 HD
ENDBRANCH  17  20
ENDBRANCH   1  12
BRANCH   2  22
ATOM     22  O   UNL     1      16.800  24.461  53.216  1.00  0.00    -0.502 OA
ATOM     23  H   UNL     1      15.902  24.347  53.670  1.00  0.00     0.293 HD
ENDBRANCH   2  22
BRANCH   6  24
ATOM     24  O   UNL     1      16.168  29.451  54.970  1.00  0.00    -0.507 OA
ATOM     25  H   UNL     1      15.717  29.482  55.872  1.00  0.00     0.293 HD
ENDBRANCH   6  24
BRANCH   8  26
ATOM     26  O   UNL     1      20.728  30.896  55.125  1.00  0.00    -0.508 OA
ATOM     27  H   UNL     1      21.015  31.077  56.079  1.00  0.00     0.293 HD
ENDBRANCH   8  26
TORSDOF 6
ENDMDL
MODEL 2
REMARK VINA RESULT:    -4.414      1.376      6.716
REMARK INTER + INTRA:          -5.541
REMARK INTER:                  -5.872
REMARK INTRA:                   0.331
REMARK UNBOUND:                -0.223
REMARK SMILES O=c1c(O)c(-c2ccc(O)c(O)c2)oc2cc(O)cc(O)c12
REMARK SMILES IDX 5 1 3 2 2 3 1 4 22 5 20 6 19 7 17 8 16 9 15 10 14 11 6 12
REMARK SMILES IDX 7 13 8 14 9 15 13 16 11 17 10 18 12 20 4 22 21 24 18 26
REMARK H PARENT 10 19 12 21 4 23 21 25 18 27
REMARK Flexibility Score: inf
ROOT
ATOM      1  C   UNL     1      19.118  25.704  53.349  1.00  0.00     0.180 A 
ATOM      2  C   UNL     1      17.957  25.028  53.761  1.00  0.00     0.208 A 
ATOM      3  C   UNL     1      17.720  23.729  53.282  1.00  0.00     0.238 A 
ATOM      4  O   UNL     1      16.652  23.149  53.612  1.00  0.00    -0.285 OA
ATOM      5  C   UNL     1      18.654  23.117  52.412  1.00  0.00     0.111 A 
ATOM      6  C   UNL     1      18.535  21.790  51.899  1.00  0.00     0.134 A 
ATOM      7  C   UNL     1      19.451  21.336  50.942  1.00  0.00     0.093 A 
ATOM      8  C   UNL     1      20.517  22.134  50.530  1.00  0.00     0.123 A 
ATOM      9  C   UNL     1      20.677  23.410  51.070  1.00  0.00     0.094 A 
ATOM     10  C   UNL     1      19.759  23.906  51.999  1.00  0.00     0.146 A 
ATOM     11  O   UNL     1      19.941  25.129  52.480  1.00  0.00    -0.452 OA
ENDROOT
BRANCH   1  12
ATOM     12  C   UNL     1      19.449  27.066  53.830  1.00  0.00     0.025 A 
ATOM     13  C   UNL     1      20.781  27.505  53.921  1.00  0.00     0.016 A 
ATOM     14  C   UNL     1      21.068  28.803  54.354  1.00  0.00     0.051 A 
ATOM     15  C   UNL     1      20.031  29.682  54.691  1.00  0.00     0.157 A 
ATOM     16  C   UNL     1      18.412  27.958  54.148  1.00  0.00     0.062 A 
ATOM     17  C   UNL     1      18.696  29.257  54.584  1.00  0.00     0.158 A 
BRANCH  15  18
ATOM     18  O   UNL     1      20.321  30.974  55.125  1.00  0.00    -0.504 OA
ATOM     19  H   UNL     1      19.601  31.683  55.203  1.00  0.00     0.293 HD
ENDBRANCH  15  18
BRANCH  17  20
ATOM     20  O   UNL     1      17.641  30.110  54.904  1.00  0.00    -0.504 OA
ATOM     21  H   UNL     1      16.802  30.163  54.339  1.00  0.00     0.293 HD
ENDBRANCH  17  20
ENDBRANCH   1  12
BRANCH   2  22
ATOM     22  O   UNL     1      17.036  25.658  54.603  1.00  0.00    -0.502 OA
ATOM     23  H   UNL     1      16.891  26.660  54.597  1.00  0.00     0.293 HD
ENDBRANCH   2  22
BRANCH   6  24
ATOM     24  O   UNL     1      17.560  20.878  52.313  1.00  0.00    -0.507 OA
ATOM     25  H   UNL     1      16.605  21.117  52.532  1.00  0.00     0.293 HD
ENDBRANCH   6  24
BRANCH   8  26
ATOM     26  O   UNL     1      21.419  21.643  49.587  1.00  0.00    -0.508 OA
ATOM     27  H   UNL     1      21.929  20.782  49.740  1.00  0.00     0.293 HD
ENDBRANCH   8  26
TORSDOF 6
ENDMDL
MODEL 3
REMARK VINA RESULT:    -4.044      1.563      6.671
REMARK INTER + INTRA:          -5.095
REMARK INTER:                  -5.558
REMARK INTRA:                   0.462
REMARK UNBOUND:                -0.223
REMARK SMILES O=c1c(O)c(-c2ccc(O)c(O)c2)oc2cc(O)cc(O)c12
REMARK SMILES IDX 5 1 3 2 2 3 1 4 22 5 20 6 19 7 17 8 16 9 15 10 14 11 6 12
REMARK SMILES IDX 7 13 8 14 9 15 13 16 11 17 10 18 12 20 4 22 21 24 18 26
REMARK H PARENT 10 19 12 21 4 23 21 25 18 27
REMARK Flexibility Score: inf
ROOT
ATOM      1  C   UNL     1      18.811  25.621  52.962  1.00  0.00     0.180 A 
ATOM      2  C   UNL     1      17.537  25.035  53.050  1.00  0.00     0.208 A 
ATOM      3  C   UNL     1      17.345  23.744  52.533  1.00  0.00     0.238 A 
ATOM      4  O   UNL     1      16.189  23.245  52.565  1.00  0.00    -0.285 OA
ATOM      5  C   UNL     1      18.432  23.049  51.950  1.00  0.00     0.111 A 
ATOM      6  C   UNL     1      18.360  21.720  51.432  1.00  0.00     0.134 A 
ATOM      7  C   UNL     1      19.465  21.182  50.760  1.00  0.00     0.093 A 
ATOM      8  C   UNL     1      20.657  21.895  50.646  1.00  0.00     0.123 A 
ATOM      9  C   UNL     1      20.757  23.171  51.202  1.00  0.00     0.094 A 
ATOM     10  C   UNL     1      19.661  23.750  51.846  1.00  0.00     0.146 A 
ATOM     11  O   UNL     1      19.794  24.970  52.351  1.00  0.00    -0.452 OA
ENDROOT
BRANCH   1  12
ATOM     12  C   UNL     1      19.098  26.969  53.507  1.00  0.00     0.025 A 
ATOM     13  C   UNL     1      18.070  27.797  53.988  1.00  0.00     0.016 A 
ATOM     14  C   UNL     1      18.367  29.055  54.520  1.00  0.00     0.051 A 
ATOM     15  C   UNL     1      19.694  29.498  54.590  1.00  0.00     0.157 A 
ATOM     16  C   UNL     1      20.428  27.408  53.599  1.00  0.00     0.062 A 
ATOM     17  C   UNL     1      20.729  28.667  54.129  1.00  0.00     0.158 A 
BRANCH  15  18
ATOM     18  O   UNL     1      19.986  30.753  55.119  1.00  0.00    -0.504 OA
ATOM     19  H   UNL     1      19.263  31.448  55.269  1.00  0.00     0.293 HD
ENDBRANCH  15  18
BRANCH  17  20
ATOM     20  O   UNL     1      22.062  29.075  54.192  1.00  0.00    -0.504 OA
ATOM     21  H   UNL     1      22.539  29.477  53.394  1.00  0.00     0.293 HD
ENDBRANCH  17  20
ENDBRANCH   1  12
BRANCH   2  22
ATOM     22  O   UNL     1      16.472  25.746  53.609  1.00  0.00    -0.502 OA
ATOM     23  H   UNL     1      16.124  25.562  54.542  1.00  0.00     0.293 HD
ENDBRANCH   2  22
BRANCH   6  24
ATOM     24  O   UNL     1      17.248  20.886  51.573  1.00  0.00    -0.507 OA
ATOM     25  H   UNL     1      16.991  20.408  52.423  1.00  0.00     0.293 HD
ENDBRANCH   6  24
BRANCH   8  26
ATOM     26  O   UNL     1      21.741  21.321  49.985  1.00  0.00    -0.508 OA
ATOM     27  H   UNL     1      22.339  20.641  50.437  1.00  0.00     0.293 HD
ENDBRANCH   8  26
TORSDOF 6
ENDMDL
MODEL 4
REMARK VINA RESULT:    -4.021      1.926      7.029
REMARK INTER + INTRA:          -5.067
REMARK INTER:                  -5.361
REMARK INTRA:                   0.294
REMARK UNBOUND:                -0.223
REMARK SMILES O=c1c(O)c(-c2ccc(O)c(O)c2)oc2cc(O)cc(O)c12
REMARK SMILES IDX 5 1 3 2 2 3 1 4 22 5 20 6 19 7 17 8 16 9 15 10 14 11 6 12
REMARK SMILES IDX 7 13 8 14 9 15 13 16 11 17 10 18 12 20 4 22 21 24 18 26
REMARK H PARENT 10 19 12 21 4 23 21 25 18 27
REMARK Flexibility Score: inf
ROOT
ATOM      1  C   UNL     1      19.526  25.556  53.050  1.00  0.00     0.180 A 
ATOM      2  C   UNL     1      20.374  25.033  52.058  1.00  0.00     0.208 A 
ATOM      3  C   UNL     1      20.125  23.745  51.560  1.00  0.00     0.238 A 
ATOM      4  O   UNL     1      20.918  23.261  50.711  1.00  0.00    -0.285 OA
ATOM      5  C   UNL     1      19.022  23.002  52.047  1.00  0.00     0.111 A 
ATOM      6  C   UNL     1      18.651  21.704  51.583  1.00  0.00     0.134 A 
ATOM      7  C   UNL     1      17.621  21.009  52.228  1.00  0.00     0.093 A 
ATOM      8  C   UNL     1      16.905  21.590  53.274  1.00  0.00     0.123 A 
ATOM      9  C   UNL     1      17.219  22.882  53.695  1.00  0.00     0.094 A 
ATOM     10  C   UNL     1      18.267  23.587  53.096  1.00  0.00     0.146 A 
ATOM     11  O   UNL     1      18.540  24.810  53.533  1.00  0.00    -0.452 OA
ENDROOT
BRANCH   1  12
ATOM     12  C   UNL     1      19.710  26.916  53.608  1.00  0.00     0.025 A 
ATOM     13  C   UNL     1      20.980  27.516  53.669  1.00  0.00     0.016 A 
ATOM     14  C   UNL     1      21.125  28.810  54.176  1.00  0.00     0.051 A 
ATOM     15  C   UNL     1      20.005  29.528  54.617  1.00  0.00     0.157 A 
ATOM     16  C   UNL     1      18.588  27.647  54.031  1.00  0.00     0.062 A 
ATOM     17  C   UNL     1      18.731  28.942  54.541  1.00  0.00     0.158 A 
BRANCH  15  18
ATOM     18  O   UNL     1      20.155  30.817  55.125  1.00  0.00    -0.504 OA
ATOM     19  H   UNL     1      20.812  31.022  55.869  1.00  0.00     0.293 HD
ENDBRANCH  15  18
BRANCH  17  20
ATOM     20  O   UNL     1      17.595  29.632  54.965  1.00  0.00    -0.504 OA
ATOM     21  H   UNL     1      17.637  30.351  55.678  1.00  0.00     0.293 HD
ENDBRANCH  17  20
ENDBRANCH   1  12
BRANCH   2  22
ATOM     22  O   UNL     1      21.470  25.775  51.607  1.00  0.00    -0.502 OA
ATOM     23  H   UNL     1      21.367  26.660  51.127  1.00  0.00     0.293 HD
ENDBRANCH   2  22
BRANCH   6  24
ATOM     24  O   UNL     1      19.241  21.069  50.486  1.00  0.00    -0.507 OA
ATOM     25  H   UNL     1      20.222  20.848  50.408  1.00  0.00     0.293 HD
ENDBRANCH   6  24
BRANCH   8  26
ATOM     26  O   UNL     1      15.875  20.875  53.882  1.00  0.00    -0.508 OA
ATOM     27  H   UNL     1      15.315  21.279  54.623  1.00  0.00     0.293 HD
ENDBRANCH   8  26
TORSDOF 6
ENDMDL
MODEL 5
REMARK VINA RESULT:    -3.917      1.567      6.753
REMARK INTER + INTRA:          -4.942
REMARK INTER:                  -5.375
REMARK INTRA:                   0.434
REMARK UNBOUND:                -0.223
REMARK SMILES O=c1c(O)c(-c2ccc(O)c(O)c2)oc2cc(O)cc(O)c12
REMARK SMILES IDX 5 1 3 2 2 3 1 4 22 5 20 6 19 7 17 8 16 9 15 10 14 11 6 12
REMARK SMILES IDX 7 13 8 14 9 15 13 16 11 17 10 18 12 20 4 22 21 24 18 26
REMARK H PARENT 10 19 12 21 4 23 21 25 18 27
REMARK Flexibility Score: inf
ROOT
ATOM      1  C   UNL     1      18.195  25.715  52.858  1.00  0.00     0.180 A 
ATOM      2  C   UNL     1      17.163  24.956  52.280  1.00  0.00     0.208 A 
ATOM      3  C   UNL     1      17.457  23.676  51.783  1.00  0.00     0.238 A 
ATOM      4  O   UNL     1      16.541  23.022  51.218  1.00  0.00    -0.285 OA
ATOM      5  C   UNL     1      18.773  23.165  51.884  1.00  0.00     0.111 A 
ATOM      6  C   UNL     1      19.174  21.865  51.451  1.00  0.00     0.134 A 
ATOM      7  C   UNL     1      20.529  21.516  51.480  1.00  0.00     0.093 A 
ATOM      8  C   UNL     1      21.488  22.391  51.988  1.00  0.00     0.123 A 
ATOM      9  C   UNL     1      21.100  23.641  52.470  1.00  0.00     0.094 A 
ATOM     10  C   UNL     1      19.759  24.033  52.420  1.00  0.00     0.146 A 
ATOM     11  O   UNL     1      19.433  25.235  52.879  1.00  0.00    -0.452 OA
ENDROOT
BRANCH   1  12
ATOM     12  C   UNL     1      17.959  27.063  53.426  1.00  0.00     0.025 A 
ATOM     13  C   UNL     1      16.657  27.564  53.603  1.00  0.00     0.016 A 
ATOM     14  C   UNL     1      16.458  28.828  54.164  1.00  0.00     0.051 A 
ATOM     15  C   UNL     1      17.553  29.604  54.568  1.00  0.00     0.157 A 
ATOM     16  C   UNL     1      19.051  27.835  53.851  1.00  0.00     0.062 A 
ATOM     17  C   UNL     1      18.855  29.102  54.412  1.00  0.00     0.158 A 
BRANCH  15  18
ATOM     18  O   UNL     1      17.350  30.865  55.124  1.00  0.00    -0.504 OA
ATOM     19  H   UNL     1      16.847  30.986  55.996  1.00  0.00     0.293 HD
ENDBRANCH  15  18
BRANCH  17  20
ATOM     20  O   UNL     1      19.966  29.846  54.810  1.00  0.00    -0.504 OA
ATOM     21  H   UNL     1      20.910  29.582  54.554  1.00  0.00     0.293 HD
ENDBRANCH  17  20
ENDBRANCH   1  12
BRANCH   2  22
ATOM     22  O   UNL     1      15.875  25.487  52.170  1.00  0.00    -0.502 OA
ATOM     23  H   UNL     1      15.128  25.007  51.684  1.00  0.00     0.293 HD
ENDBRANCH   2  22
BRANCH   6  24
ATOM     24  O   UNL     1      18.284  20.880  51.012  1.00  0.00    -0.507 OA
ATOM     25  H   UNL     1      17.615  21.001  50.266  1.00  0.00     0.293 HD
ENDBRANCH   6  24
BRANCH   8  26
ATOM     26  O   UNL     1      22.827  22.003  52.017  1.00  0.00    -0.508 OA
ATOM     27  H   UNL     1      23.198  21.436  52.769  1.00  0.00     0.293 HD
ENDBRANCH   8  26
TORSDOF 6
ENDMDL
MODEL 6
REMARK VINA RESULT:    -3.778      1.376      3.010
REMARK INTER + INTRA:          -4.775
REMARK INTER:                  -5.061
REMARK INTRA:                   0.286
REMARK UNBOUND:                -0.223
REMARK SMILES O=c1c(O)c(-c2ccc(O)c(O)c2)oc2cc(O)cc(O)c12
REMARK SMILES IDX 5 1 3 2 2 3 1 4 22 5 20 6 19 7 17 8 16 9 15 10 14 11 6 12
REMARK SMILES IDX 7 13 8 14 9 15 13 16 11 17 10 18 12 20 4 22 21 24 18 26
REMARK H PARENT 10 19 12 21 4 23 21 25 18 27
REMARK Flexibility Score: inf
ROOT
ATOM      1  C   UNL     1      20.071  26.004  52.645  1.00  0.00     0.180 A 
ATOM      2  C   UNL     1      21.200  26.826  52.802  1.00  0.00     0.208 A 
ATOM      3  C   UNL     1      21.058  28.056  53.465  1.00  0.00     0.238 A 
ATOM      4  O   UNL     1      22.060  28.813  53.555  1.00  0.00    -0.285 OA
ATOM      5  C   UNL     1      19.795  28.440  53.976  1.00  0.00     0.111 A 
ATOM      6  C   UNL     1      19.547  29.645  54.701  1.00  0.00     0.134 A 
ATOM      7  C   UNL     1      18.233  29.984  55.045  1.00  0.00     0.093 A 
ATOM      8  C   UNL     1      17.169  29.133  54.751  1.00  0.00     0.123 A 
ATOM      9  C   UNL     1      17.408  27.924  54.097  1.00  0.00     0.094 A 
ATOM     10  C   UNL     1      18.704  27.575  53.707  1.00  0.00     0.146 A 
ATOM     11  O   UNL     1      18.887  26.421  53.078  1.00  0.00    -0.452 OA
ENDROOT
BRANCH   1  12
ATOM     12  C   UNL     1      20.145  24.682  51.980  1.00  0.00     0.025 A 
ATOM     13  C   UNL     1      21.088  24.423  50.970  1.00  0.00     0.016 A 
ATOM     14  C   UNL     1      21.156  23.161  50.374  1.00  0.00     0.051 A 
ATOM     15  C   UNL     1      20.293  22.137  50.785  1.00  0.00     0.157 A 
ATOM     16  C   UNL     1      19.297  23.647  52.403  1.00  0.00     0.062 A 
ATOM     17  C   UNL     1      19.361  22.382  51.807  1.00  0.00     0.158 A 
BRANCH  15  18
ATOM     18  O   UNL     1      20.362  20.881  50.186  1.00  0.00    -0.504 OA
ATOM     19  H   UNL     1      19.526  20.376  49.913  1.00  0.00     0.293 HD
ENDBRANCH  15  18
BRANCH  17  20
ATOM     20  O   UNL     1      18.493  21.382  52.245  1.00  0.00    -0.504 OA
ATOM     21  H   UNL     1      17.965  21.466  53.105  1.00  0.00     0.293 HD
ENDBRANCH  17  20
ENDBRANCH   1  12
BRANCH   2  22
ATOM     22  O   UNL     1      22.433  26.438  52.270  1.00  0.00    -0.502 OA
ATOM     23  H   UNL     1      22.653  26.528  51.286  1.00  0.00     0.293 HD
ENDBRANCH   2  22
BRANCH   6  24
ATOM     24  O   UNL     1      20.549  30.522  55.125  1.00  0.00    -0.507 OA
ATOM     25  H   UNL     1      20.834  30.648  56.085  1.00  0.00     0.293 HD
ENDBRANCH   6  24
BRANCH   8  26
ATOM     26  O   UNL     1      15.875  29.495  55.123  1.00  0.00    -0.508 OA
ATOM     27  H   UNL     1      15.085  29.346  54.508  1.00  0.00     0.293 HD
ENDBRANCH   8  26
TORSDOF 6
ENDMDL
MODEL 7
REMARK VINA RESULT:    -3.125     18.356     21.967
REMARK INTER + INTRA:          -3.988
REMARK INTER:                  -4.503
REMARK INTRA:                   0.515
REMARK UNBOUND:                -0.223
REMARK SMILES O=c1c(O)c(-c2ccc(O)c(O)c2)oc2cc(O)cc(O)c12
REMARK SMILES IDX 5 1 3 2 2 3 1 4 22 5 20 6 19 7 17 8 16 9 15 10 14 11 6 12
REMARK SMILES IDX 7 13 8 14 9 15 13 16 11 17 10 18 12 20 4 22 21 24 18 26
REMARK H PARENT 10 19 12 21 4 23 21 25 18 27
REMARK Flexibility Score: inf
ROOT
ATOM      1  C   UNL     1      33.380  25.238  37.761  1.00  0.00     0.180 A 
ATOM      2  C   UNL     1      34.653  24.663  37.607  1.00  0.00     0.208 A 
ATOM      3  C   UNL     1      34.965  23.497  38.324  1.00  0.00     0.238 A 
ATOM      4  O   UNL     1      36.124  23.017  38.224  1.00  0.00    -0.285 OA
ATOM      5  C   UNL     1      33.995  22.911  39.173  1.00  0.00     0.111 A 
ATOM      6  C   UNL     1      34.189  21.708  39.915  1.00  0.00     0.134 A 
ATOM      7  C   UNL     1      33.208  21.292  40.824  1.00  0.00     0.093 A 
ATOM      8  C   UNL     1      32.015  21.998  40.969  1.00  0.00     0.123 A 
ATOM      9  C   UNL     1      31.789  23.142  40.205  1.00  0.00     0.094 A 
ATOM     10  C   UNL     1      32.765  23.603  39.316  1.00  0.00     0.146 A 
ATOM     11  O   UNL     1      32.516  24.702  38.615  1.00  0.00    -0.452 OA
ENDROOT
BRANCH   1  12
ATOM     12  C   UNL     1      32.968  26.453  37.020  1.00  0.00     0.025 A 
ATOM     13  C   UNL     1      31.635  26.897  37.026  1.00  0.00     0.016 A 
ATOM     14  C   UNL     1      31.274  28.059  36.339  1.00  0.00     0.051 A 
ATOM     15  C   UNL     1      32.241  28.801  35.648  1.00  0.00     0.157 A 
ATOM     16  C   UNL     1      33.937  27.211  36.344  1.00  0.00     0.062 A 
ATOM     17  C   UNL     1      33.580  28.375  35.654  1.00  0.00     0.158 A 
BRANCH  15  18
ATOM     18  O   UNL     1      31.878  29.958  34.962  1.00  0.00    -0.504 OA
ATOM     19  H   UNL     1      31.285  29.924  34.141  1.00  0.00     0.293 HD
ENDBRANCH  15  18
BRANCH  17  20
ATOM     20  O   UNL     1      34.568  29.094  34.982  1.00  0.00    -0.504 OA
ATOM     21  H   UNL     1      34.942  29.963  35.345  1.00  0.00     0.293 HD
ENDBRANCH  17  20
ENDBRANCH   1  12
BRANCH   2  22
ATOM     22  O   UNL     1      35.603  25.269  36.780  1.00  0.00    -0.502 OA
ATOM     23  H   UNL     1      36.456  24.802  36.497  1.00  0.00     0.293 HD
ENDBRANCH   2  22
BRANCH   6  24
ATOM     24  O   UNL     1      35.305  20.877  39.778  1.00  0.00    -0.507 OA
ATOM     25  H   UNL     1      35.656  20.262  40.497  1.00  0.00     0.293 HD
ENDBRANCH   6  24
BRANCH   8  26
ATOM     26  O   UNL     1      31.054  21.546  41.872  1.00  0.00    -0.508 OA
ATOM     27  H   UNL     1      31.100  20.618  42.275  1.00  0.00     0.293 HD
ENDBRANCH   8  26
TORSDOF 6
ENDMDL
MODEL 8
REMARK VINA RESULT:    -1.634     19.657     22.190
REMARK INTER + INTRA:          -2.192
REMARK INTER:                  -2.546
REMARK INTRA:                   0.353
REMARK UNBOUND:                -0.223
REMARK SMILES O=c1c(O)c(-c2ccc(O)c(O)c2)oc2cc(O)cc(O)c12
REMARK SMILES IDX 5 1 3 2 2 3 1 4 22 5 20 6 19 7 17 8 16 9 15 10 14 11 6 12
REMARK SMILES IDX 7 13 8 14 9 15 13 16 11 17 10 18 12 20 4 22 21 24 18 26
REMARK H PARENT 10 19 12 21 4 23 21 25 18 27
REMARK Flexibility Score: inf
ROOT
ATOM      1  C   UNL     1      33.544  25.085  37.342  1.00  0.00     0.180 A 
ATOM      2  C   UNL     1      32.259  24.643  36.983  1.00  0.00     0.208 A 
ATOM      3  C   UNL     1      31.723  23.515  37.625  1.00  0.00     0.238 A 
ATOM      4  O   UNL     1      30.594  23.092  37.261  1.00  0.00    -0.285 OA
ATOM      5  C   UNL     1      32.471  22.854  38.629  1.00  0.00     0.111 A 
ATOM      6  C   UNL     1      32.008  21.727  39.373  1.00  0.00     0.134 A 
ATOM      7  C   UNL     1      32.883  21.073  40.249  1.00  0.00     0.093 A 
ATOM      8  C   UNL     1      34.179  21.543  40.458  1.00  0.00     0.123 A 
ATOM      9  C   UNL     1      34.621  22.680  39.781  1.00  0.00     0.094 A 
ATOM     10  C   UNL     1      33.784  23.333  38.872  1.00  0.00     0.146 A 
ATOM     11  O   UNL     1      34.246  24.404  38.240  1.00  0.00    -0.452 OA
ENDROOT
BRANCH   1  12
ATOM     12  C   UNL     1      34.166  26.281  36.728  1.00  0.00     0.025 A 
ATOM     13  C   UNL     1      35.561  26.394  36.598  1.00  0.00     0.016 A 
ATOM     14  C   UNL     1      36.125  27.521  35.994  1.00  0.00     0.051 A 
ATOM     15  C   UNL     1      35.305  28.543  35.499  1.00  0.00     0.157 A 
ATOM     16  C   UNL     1      33.348  27.298  36.212  1.00  0.00     0.062 A 
ATOM     17  C   UNL     1      33.909  28.428  35.607  1.00  0.00     0.158 A 
BRANCH  15  18
ATOM     18  O   UNL     1      35.870  29.666  34.899  1.00  0.00    -0.504 OA
ATOM     19  H   UNL     1      36.036  30.520  35.420  1.00  0.00     0.293 HD
ENDBRANCH  15  18
BRANCH  17  20
ATOM     20  O   UNL     1      33.064  29.425  35.118  1.00  0.00    -0.504 OA
ATOM     21  H   UNL     1      33.250  29.908  34.248  1.00  0.00     0.293 HD
ENDBRANCH  17  20
ENDBRANCH   1  12
BRANCH   2  22
ATOM     22  O   UNL     1      31.546  25.297  35.974  1.00  0.00    -0.502 OA
ATOM     23  H   UNL     1      31.941  26.057  35.434  1.00  0.00     0.293 HD
ENDBRANCH   2  22
BRANCH   6  24
ATOM     24  O   UNL     1      30.703  21.230  39.309  1.00  0.00    -0.507 OA
ATOM     25  H   UNL     1      29.897  21.677  39.719  1.00  0.00     0.293 HD
ENDBRANCH   6  24
BRANCH   8  26
ATOM     26  O   UNL     1      35.017  20.877  41.349  1.00  0.00    -0.508 OA
ATOM     27  H   UNL     1      34.657  20.203  42.014  1.00  0.00     0.293 HD
ENDBRANCH   8  26
TORSDOF 6
ENDMDL
