MODEL 1
REMARK VINA RESULT:     9.716      0.000      0.000
REMARK INTER + INTRA:          11.130
REMARK INTER:                  11.420
REMARK INTRA:                  -0.290
REMARK UNBOUND:                -0.290
REMARK SMILES O=c1cc(-c2ccc(O)c(O)c2)oc2cc(O)cc(O)c12
REMARK SMILES IDX 4 1 3 2 2 3 1 4 21 5 19 6 18 7 16 8 15 9 14 10 13 11 5 12
REMARK SMILES IDX 6 13 7 14 8 15 12 16 10 17 9 18 11 20 20 22 17 24
REMARK H PARENT 9 19 11 21 20 23 17 25
REMARK Flexibility Score: inf
ROOT
ATOM      1  C   UNL     1      -2.201 -20.743  -9.311  1.00  0.00     0.138 A 
ATOM      2  C   UNL     1      -3.391 -21.328  -8.859  1.00  0.00     0.100 A 
ATOM      3  C   UNL     1      -3.469 -22.714  -8.718  1.00  0.00     0.197 A 
ATOM      4  O   UNL     1      -4.568 -23.213  -8.363  1.00  0.00    -0.289 OA
ATOM      5  C   UNL     1      -2.336 -23.515  -8.997  1.00  0.00     0.107 A 
ATOM      6  C   UNL     1      -2.288 -24.936  -8.856  1.00  0.00     0.134 A 
ATOM      7  C   UNL     1      -1.139 -25.630  -9.257  1.00  0.00     0.093 A 
ATOM      8  C   UNL     1      -0.018 -24.952  -9.740  1.00  0.00     0.123 A 
ATOM      9  C   UNL     1      -0.037 -23.562  -9.833  1.00  0.00     0.094 A 
ATOM     10  C   UNL     1      -1.180 -22.843  -9.475  1.00  0.00     0.146 A 
ATOM     11  O   UNL     1      -1.161 -21.520  -9.597  1.00  0.00    -0.456 OA
ENDROOT
BRANCH   1  12
ATOM     12  C   UNL     1      -2.061 -19.274  -9.477  1.00  0.00     0.021 A 
ATOM     13  C   UNL     1      -0.783 -18.692  -9.422  1.00  0.00     0.016 A 
ATOM     14  C   UNL     1      -0.623 -17.314  -9.582  1.00  0.00     0.051 A 
ATOM     15  C   UNL     1      -1.731 -16.494  -9.810  1.00  0.00     0.157 A 
ATOM     16  C   UNL     1      -3.175 -18.446  -9.720  1.00  0.00     0.062 A 
ATOM     17  C   UNL     1      -3.013 -17.062  -9.883  1.00  0.00     0.158 A 
BRANCH  15  18
ATOM     18  O   UNL     1      -1.540 -15.121  -9.964  1.00  0.00    -0.504 OA
ATOM     19  H   UNL     1      -0.617 -14.710 -10.022  1.00  0.00     0.293 HD
ENDBRANCH  15  18
BRANCH  17  20
ATOM     20  O   UNL     1      -4.122 -16.252 -10.121  1.00  0.00    -0.504 OA
ATOM     21  H   UNL     1      -4.690 -16.359 -10.953  1.00  0.00     0.293 HD
ENDBRANCH  17  20
ENDBRANCH   1  12
BRANCH   6  22
ATOM     22  O   UNL     1      -3.321 -25.705  -8.312  1.00  0.00    -0.507 OA
ATOM     23  H   UNL     1      -3.225 -26.648  -7.970  1.00  0.00     0.293 HD
ENDBRANCH   6  22
BRANCH   8  24
ATOM     24  O   UNL     1       1.125 -25.650 -10.122  1.00  0.00    -0.508 OA
ATOM     25  H   UNL     1       1.840 -25.906  -9.451  1.00  0.00     0.293 HD
ENDBRANCH   8  24
TORSDOF 5
ENDMDL
