MODEL 1
REMARK VINA RESULT:    -2.168      0.000      0.000
REMARK INTER + INTRA:          -2.423
REMARK INTER:                  -2.358
REMARK INTRA:                  -0.065
REMARK UNBOUND:                -0.065
REMARK SMILES COc1cc2ccc(=O)oc2cc1O
REMARK SMILES IDX 3 1 13 2 12 3 11 4 5 5 4 6 6 7 7 8 8 9 9 10 10 11 2 12 1 13
REMARK SMILES IDX 14 14
REMARK H PARENT 14 15
REMARK Flexibility Score: inf
ROOT
ATOM      1  C   UNL     1      13.596 -33.989  -0.044  1.00  0.00     0.161 A 
ATOM      2  C   UNL     1      13.576 -34.518  -1.351  1.00  0.00     0.161 A 
ATOM      3  C   UNL     1      14.727 -35.096  -1.895  1.00  0.00     0.098 A 
ATOM      4  C   UNL     1      15.908 -35.156  -1.152  1.00  0.00     0.142 A 
ATOM      5  C   UNL     1      15.940 -34.630   0.157  1.00  0.00     0.022 A 
ATOM      6  C   UNL     1      14.788 -34.050   0.706  1.00  0.00     0.062 A 
ATOM      7  C   UNL     1      17.137 -34.705   0.876  1.00  0.00     0.019 A 
ATOM      8  C   UNL     1      18.256 -35.291   0.286  1.00  0.00     0.094 A 
ATOM      9  C   UNL     1      18.150 -35.792  -1.016  1.00  0.00     0.336 A 
ATOM     10  O   UNL     1      19.148 -36.326  -1.566  1.00  0.00    -0.246 OA
ATOM     11  O   UNL     1      16.999 -35.708  -1.678  1.00  0.00    -0.423 OA
ENDROOT
BRANCH   1  12
ATOM     12  O   UNL     1      12.423 -33.416   0.471  1.00  0.00    -0.493 OA
ATOM     13  C   UNL     1      12.158 -32.018   0.516  1.00  0.00     0.278 C 
ENDBRANCH   1  12
BRANCH   2  14
ATOM     14  O   UNL     1      12.415 -34.477  -2.124  1.00  0.00    -0.504 OA
ATOM     15  H   UNL     1      11.780 -33.689  -2.103  1.00  0.00     0.293 HD
ENDBRANCH   2  14
TORSDOF 2
ENDMDL
MODEL 2
REMARK VINA RESULT:    -2.106      7.930      8.943
REMARK INTER + INTRA:          -2.356
REMARK INTER:                  -2.294
REMARK INTRA:                  -0.061
REMARK UNBOUND:                -0.065
REMARK SMILES COc1cc2ccc(=O)oc2cc1O
REMARK SMILES IDX 3 1 13 2 12 3 11 4 5 5 4 6 6 7 7 8 8 9 9 10 10 11 2 12 1 13
REMARK SMILES IDX 14 14
REMARK H PARENT 14 15
REMARK Flexibility Score: inf
ROOT
ATOM      1  C   UNL     1      19.823 -29.754   2.203  1.00  0.00     0.161 A 
ATOM      2  C   UNL     1      20.153 -28.518   2.794  1.00  0.00     0.161 A 
ATOM      3  C   UNL     1      20.573 -27.446   2.000  1.00  0.00     0.098 A 
ATOM      4  C   UNL     1      20.670 -27.587   0.614  1.00  0.00     0.142 A 
ATOM      5  C   UNL     1      20.342 -28.820   0.011  1.00  0.00     0.022 A 
ATOM      6  C   UNL     1      19.920 -29.897   0.804  1.00  0.00     0.062 A 
ATOM      7  C   UNL     1      20.448 -28.931  -1.379  1.00  0.00     0.019 A 
ATOM      8  C   UNL     1      20.873 -27.832  -2.124  1.00  0.00     0.094 A 
ATOM      9  C   UNL     1      21.181 -26.641  -1.457  1.00  0.00     0.336 A 
ATOM     10  O   UNL     1      21.565 -25.637  -2.112  1.00  0.00    -0.246 OA
ATOM     11  O   UNL     1      21.071 -26.562  -0.134  1.00  0.00    -0.423 OA
ENDROOT
BRANCH   1  12
ATOM     12  O   UNL     1      19.404 -30.809   3.030  1.00  0.00    -0.493 OA
ATOM     13  C   UNL     1      18.089 -31.352   3.042  1.00  0.00     0.278 C 
ENDBRANCH   1  12
BRANCH   2  14
ATOM     14  O   UNL     1      20.069 -28.337   4.175  1.00  0.00    -0.504 OA
ATOM     15  H   UNL     1      20.818 -27.917   4.711  1.00  0.00     0.293 HD
ENDBRANCH   2  14
TORSDOF 2
ENDMDL
MODEL 3
REMARK VINA RESULT:    -2.010      1.342      2.313
REMARK INTER + INTRA:          -2.251
REMARK INTER:                  -2.186
REMARK INTRA:                  -0.065
REMARK UNBOUND:                -0.065
REMARK SMILES COc1cc2ccc(=O)oc2cc1O
REMARK SMILES IDX 3 1 13 2 12 3 11 4 5 5 4 6 6 7 7 8 8 9 9 10 10 11 2 12 1 13
REMARK SMILES IDX 14 14
REMARK H PARENT 14 15
REMARK Flexibility Score: inf
ROOT
ATOM      1  C   UNL     1      13.644 -33.873  -0.505  1.00  0.00     0.161 A 
ATOM      2  C   UNL     1      14.071 -33.549   0.799  1.00  0.00     0.161 A 
ATOM      3  C   UNL     1      15.335 -33.948   1.247  1.00  0.00     0.098 A 
ATOM      4  C   UNL     1      16.187 -34.669   0.408  1.00  0.00     0.142 A 
ATOM      5  C   UNL     1      15.770 -34.998  -0.899  1.00  0.00     0.022 A 
ATOM      6  C   UNL     1      14.504 -34.601  -1.351  1.00  0.00     0.062 A 
ATOM      7  C   UNL     1      16.646 -35.721  -1.715  1.00  0.00     0.019 A 
ATOM      8  C   UNL     1      17.895 -36.095  -1.220  1.00  0.00     0.094 A 
ATOM      9  C   UNL     1      18.240 -35.733   0.087  1.00  0.00     0.336 A 
ATOM     10  O   UNL     1      19.363 -36.059   0.552  1.00  0.00    -0.246 OA
ATOM     11  O   UNL     1      17.388 -35.044   0.842  1.00  0.00    -0.423 OA
ENDROOT
BRANCH   1  12
ATOM     12  O   UNL     1      12.369 -33.457  -0.921  1.00  0.00    -0.493 OA
ATOM     13  C   UNL     1      12.117 -32.313  -1.730  1.00  0.00     0.278 C 
ENDBRANCH   1  12
BRANCH   2  14
ATOM     14  O   UNL     1      13.248 -32.829   1.667  1.00  0.00    -0.504 OA
ATOM     15  H   UNL     1      12.645 -33.284   2.341  1.00  0.00     0.293 HD
ENDBRANCH   2  14
TORSDOF 2
ENDMDL
MODEL 4
REMARK VINA RESULT:    -2.003      1.685      2.852
REMARK INTER + INTRA:          -2.244
REMARK INTER:                  -2.179
REMARK INTRA:                  -0.065
REMARK UNBOUND:                -0.065
REMARK SMILES COc1cc2ccc(=O)oc2cc1O
REMARK SMILES IDX 3 1 13 2 12 3 11 4 5 5 4 6 6 7 7 8 8 9 9 10 10 11 2 12 1 13
REMARK SMILES IDX 14 14
REMARK H PARENT 14 15
REMARK Flexibility Score: inf
ROOT
ATOM      1  C   UNL     1      13.638 -33.101   1.319  1.00  0.00     0.161 A 
ATOM      2  C   UNL     1      14.812 -33.191   2.094  1.00  0.00     0.161 A 
ATOM      3  C   UNL     1      15.927 -33.883   1.607  1.00  0.00     0.098 A 
ATOM      4  C   UNL     1      15.889 -34.491   0.350  1.00  0.00     0.142 A 
ATOM      5  C   UNL     1      14.720 -34.407  -0.434  1.00  0.00     0.022 A 
ATOM      6  C   UNL     1      13.601 -33.714   0.050  1.00  0.00     0.062 A 
ATOM      7  C   UNL     1      14.712 -35.026  -1.688  1.00  0.00     0.019 A 
ATOM      8  C   UNL     1      15.850 -35.703  -2.125  1.00  0.00     0.094 A 
ATOM      9  C   UNL     1      16.974 -35.744  -1.292  1.00  0.00     0.336 A 
ATOM     10  O   UNL     1      18.011 -36.350  -1.669  1.00  0.00    -0.246 OA
ATOM     11  O   UNL     1      16.955 -35.147  -0.104  1.00  0.00    -0.423 OA
ENDROOT
BRANCH   1  12
ATOM     12  O   UNL     1      12.538 -32.399   1.837  1.00  0.00    -0.493 OA
ATOM     13  C   UNL     1      12.199 -31.060   1.492  1.00  0.00     0.278 C 
ENDBRANCH   1  12
BRANCH   2  14
ATOM     14  O   UNL     1      14.889 -32.596   3.353  1.00  0.00    -0.504 OA
ATOM     15  H   UNL     1      15.699 -32.067   3.652  1.00  0.00     0.293 HD
ENDBRANCH   2  14
TORSDOF 2
ENDMDL
MODEL 5
REMARK VINA RESULT:    -1.990      1.109      4.869
REMARK INTER + INTRA:          -2.229
REMARK INTER:                  -2.167
REMARK INTRA:                  -0.062
REMARK UNBOUND:                -0.065
REMARK SMILES COc1cc2ccc(=O)oc2cc1O
REMARK SMILES IDX 3 1 13 2 12 3 11 4 5 5 4 6 6 7 7 8 8 9 9 10 10 11 2 12 1 13
REMARK SMILES IDX 14 14
REMARK H PARENT 14 15
REMARK Flexibility Score: inf
ROOT
ATOM      1  C   UNL     1      17.793 -35.293  -0.021  1.00  0.00     0.161 A 
ATOM      2  C   UNL     1      17.549 -35.794  -1.316  1.00  0.00     0.161 A 
ATOM      3  C   UNL     1      16.289 -35.642  -1.904  1.00  0.00     0.098 A 
ATOM      4  C   UNL     1      15.260 -34.992  -1.217  1.00  0.00     0.142 A 
ATOM      5  C   UNL     1      15.494 -34.487   0.079  1.00  0.00     0.022 A 
ATOM      6  C   UNL     1      16.755 -34.637   0.672  1.00  0.00     0.062 A 
ATOM      7  C   UNL     1      14.445 -33.841   0.741  1.00  0.00     0.019 A 
ATOM      8  C   UNL     1      13.208 -33.716   0.109  1.00  0.00     0.094 A 
ATOM      9  C   UNL     1      13.051 -34.243  -1.178  1.00  0.00     0.336 A 
ATOM     10  O   UNL     1      11.942 -34.139  -1.766  1.00  0.00    -0.246 OA
ATOM     11  O   UNL     1      14.065 -34.852  -1.786  1.00  0.00    -0.423 OA
ENDROOT
BRANCH   1  12
ATOM     12  O   UNL     1      19.069 -35.463   0.540  1.00  0.00    -0.493 OA
ATOM     13  C   UNL     1      19.991 -34.407   0.784  1.00  0.00     0.278 C 
ENDBRANCH   1  12
BRANCH   2  14
ATOM     14  O   UNL     1      18.550 -36.448  -2.033  1.00  0.00    -0.504 OA
ATOM     15  H   UNL     1      19.506 -36.116  -2.052  1.00  0.00     0.293 HD
ENDBRANCH   2  14
TORSDOF 2
ENDMDL
MODEL 6
REMARK VINA RESULT:    -1.956      1.537      5.357
REMARK INTER + INTRA:          -2.192
REMARK INTER:                  -2.127
REMARK INTRA:                  -0.065
REMARK UNBOUND:                -0.065
REMARK SMILES COc1cc2ccc(=O)oc2cc1O
REMARK SMILES IDX 3 1 13 2 12 3 11 4 5 5 4 6 6 7 7 8 8 9 9 10 10 11 2 12 1 13
REMARK SMILES IDX 14 14
REMARK H PARENT 14 15
REMARK Flexibility Score: inf
ROOT
ATOM      1  C   UNL     1      16.396 -35.409  -1.163  1.00  0.00     0.161 A 
ATOM      2  C   UNL     1      16.804 -35.046   0.137  1.00  0.00     0.161 A 
ATOM      3  C   UNL     1      15.961 -34.284   0.953  1.00  0.00     0.098 A 
ATOM      4  C   UNL     1      14.708 -33.876   0.491  1.00  0.00     0.142 A 
ATOM      5  C   UNL     1      14.290 -34.234  -0.807  1.00  0.00     0.022 A 
ATOM      6  C   UNL     1      15.131 -34.997  -1.629  1.00  0.00     0.062 A 
ATOM      7  C   UNL     1      13.029 -33.811  -1.242  1.00  0.00     0.019 A 
ATOM      8  C   UNL     1      12.228 -33.053  -0.388  1.00  0.00     0.094 A 
ATOM      9  C   UNL     1      12.710 -32.736   0.887  1.00  0.00     0.336 A 
ATOM     10  O   UNL     1      12.002 -32.054   1.673  1.00  0.00    -0.246 OA
ATOM     11  O   UNL     1      13.913 -33.152   1.275  1.00  0.00    -0.423 OA
ENDROOT
BRANCH   1  12
ATOM     12  O   UNL     1      17.267 -36.173  -1.956  1.00  0.00    -0.493 OA
ATOM     13  C   UNL     1      17.176 -37.584  -2.125  1.00  0.00     0.278 C 
ENDBRANCH   1  12
BRANCH   2  14
ATOM     14  O   UNL     1      18.048 -35.434   0.634  1.00  0.00    -0.504 OA
ATOM     15  H   UNL     1      18.184 -35.697   1.603  1.00  0.00     0.293 HD
ENDBRANCH   2  14
TORSDOF 2
ENDMDL
MODEL 7
REMARK VINA RESULT:    -1.804      7.731      8.764
REMARK INTER + INTRA:          -2.027
REMARK INTER:                  -1.962
REMARK INTRA:                  -0.065
REMARK UNBOUND:                -0.065
REMARK SMILES COc1cc2ccc(=O)oc2cc1O
REMARK SMILES IDX 3 1 13 2 12 3 11 4 5 5 4 6 6 7 7 8 8 9 9 10 10 11 2 12 1 13
REMARK SMILES IDX 14 14
REMARK H PARENT 14 15
REMARK Flexibility Score: inf
ROOT
ATOM      1  C   UNL     1      20.872 -27.064   0.052  1.00  0.00     0.161 A 
ATOM      2  C   UNL     1      20.322 -28.077  -0.759  1.00  0.00     0.161 A 
ATOM      3  C   UNL     1      19.967 -29.310  -0.203  1.00  0.00     0.098 A 
ATOM      4  C   UNL     1      20.152 -29.552   1.160  1.00  0.00     0.142 A 
ATOM      5  C   UNL     1      20.702 -28.544   1.981  1.00  0.00     0.022 A 
ATOM      6  C   UNL     1      21.059 -27.307   1.428  1.00  0.00     0.062 A 
ATOM      7  C   UNL     1      20.875 -28.815   3.342  1.00  0.00     0.019 A 
ATOM      8  C   UNL     1      20.505 -30.061   3.846  1.00  0.00     0.094 A 
ATOM      9  C   UNL     1      19.966 -31.011   2.971  1.00  0.00     0.336 A 
ATOM     10  O   UNL     1      19.624 -32.142   3.407  1.00  0.00    -0.246 OA
ATOM     11  O   UNL     1      19.811 -30.728   1.681  1.00  0.00    -0.423 OA
ENDROOT
BRANCH   1  12
ATOM     12  O   UNL     1      21.218 -25.838  -0.539  1.00  0.00    -0.493 OA
ATOM     13  C   UNL     1      22.545 -25.448  -0.875  1.00  0.00     0.278 C 
ENDBRANCH   1  12
BRANCH   2  14
ATOM     14  O   UNL     1      20.121 -27.874  -2.125  1.00  0.00    -0.504 OA
ATOM     15  H   UNL     1      19.804 -28.614  -2.740  1.00  0.00     0.293 HD
ENDBRANCH   2  14
TORSDOF 2
ENDMDL
