MODEL 1
REMARK VINA RESULT:    -4.448      0.000      0.000
REMARK INTER + INTRA:         -10.424
REMARK INTER:                  -8.608
REMARK INTRA:                  -1.816
REMARK UNBOUND:                -1.816
REMARK SMILES CCCCCCCCCCCCCCCCCC(=O)[O-]
REMARK SMILES IDX 10 1 11 2 12 3 13 4 14 5 15 6 16 7 17 8 18 9 19 10 20 11
REMARK SMILES IDX 9 12 8 13 7 14 6 15 5 16 4 17 3 18 2 19 1 20
REMARK H PARENT
REMARK Flexibility Score: inf
ROOT
ATOM      1  C   UNL     1      47.252  -7.415 -56.021  1.00  0.00     0.000 C 
ENDROOT
BRANCH   1   2
ATOM      2  C   UNL     1      46.568  -8.631 -56.664  1.00  0.00     0.000 C 
BRANCH   2   3
ATOM      3  C   UNL     1      47.564  -9.582 -57.344  1.00  0.00     0.000 C 
BRANCH   3   4
ATOM      4  C   UNL     1      48.083 -10.632 -56.354  1.00  0.00     0.000 C 
BRANCH   4   5
ATOM      5  C   UNL     1      47.800 -12.052 -56.858  1.00  0.00     0.000 C 
BRANCH   5   6
ATOM      6  C   UNL     1      48.599 -13.090 -56.055  1.00  0.00     0.000 C 
BRANCH   6   7
ATOM      7  C   UNL     1      47.734 -14.272 -55.581  1.00  0.00     0.006 C 
BRANCH   7   8
ATOM      8  C   UNL     1      48.278 -15.654 -55.975  1.00  0.00     0.053 C 
BRANCH   8   9
ATOM      9  C   UNL     1      47.303 -16.423 -56.813  1.00  0.00     0.041 C 
ATOM     10  O   UNL     1      46.527 -15.819 -57.599  1.00  0.00    -0.550 OA
ATOM     11  O   UNL     1      47.276 -17.811 -56.751  1.00  0.00    -0.550 OA
ENDBRANCH   8   9
ENDBRANCH   7   8
ENDBRANCH   6   7
ENDBRANCH   5   6
ENDBRANCH   4   5
ENDBRANCH   3   4
ENDBRANCH   2   3
ENDBRANCH   1   2
BRANCH   1  12
ATOM     12  C   UNL     1      47.162  -7.425 -54.487  1.00  0.00     0.000 C 
BRANCH  12  13
ATOM     13  C   UNL     1      48.539  -7.167 -53.855  1.00  0.00    -0.000 C 
BRANCH  13  14
ATOM     14  C   UNL     1      49.700  -7.546 -54.787  1.00  0.00    -0.000 C 
BRANCH  14  15
ATOM     15  C   UNL     1      50.837  -6.513 -54.770  1.00  0.00    -0.000 C 
BRANCH  15  16
ATOM     16  C   UNL     1      50.276  -5.083 -54.717  1.00  0.00    -0.000 C 
BRANCH  16  17
ATOM     17  C   UNL     1      49.862  -4.554 -56.100  1.00  0.00    -0.000 C 
BRANCH  17  18
ATOM     18  C   UNL     1      50.914  -4.845 -57.183  1.00  0.00    -0.000 C 
BRANCH  18  19
ATOM     19  C   UNL     1      50.284  -5.315 -58.504  1.00  0.00    -0.003 C 
ATOM     20  C   UNL     1      49.965  -6.809 -58.510  1.00  0.00     0.004 C 
ENDBRANCH  18  19
ENDBRANCH  17  18
ENDBRANCH  16  17
ENDBRANCH  15  16
ENDBRANCH  14  15
ENDBRANCH  13  14
ENDBRANCH  12  13
ENDBRANCH   1  12
TORSDOF 16
ENDMDL
MODEL 2
REMARK VINA RESULT:    -4.442      1.591      2.609
REMARK INTER + INTRA:         -10.412
REMARK INTER:                  -8.223
REMARK INTRA:                  -2.189
REMARK UNBOUND:                -1.816
REMARK SMILES CCCCCCCCCCCCCCCCCC(=O)[O-]
REMARK SMILES IDX 10 1 11 2 12 3 13 4 14 5 15 6 16 7 17 8 18 9 19 10 20 11
REMARK SMILES IDX 9 12 8 13 7 14 6 15 5 16 4 17 3 18 2 19 1 20
REMARK H PARENT
REMARK Flexibility Score: inf
ROOT
ATOM      1  C   UNL     1      47.583  -7.625 -54.677  1.00  0.00     0.000 C 
ENDROOT
BRANCH   1   2
ATOM      2  C   UNL     1      48.093  -8.776 -55.557  1.00  0.00     0.000 C 
BRANCH   2   3
ATOM      3  C   UNL     1      47.496  -8.752 -56.972  1.00  0.00     0.000 C 
BRANCH   3   4
ATOM      4  C   UNL     1      47.972  -9.959 -57.790  1.00  0.00     0.000 C 
BRANCH   4   5
ATOM      5  C   UNL     1      46.797 -10.875 -58.152  1.00  0.00     0.000 C 
BRANCH   5   6
ATOM      6  C   UNL     1      46.874 -12.199 -57.376  1.00  0.00     0.000 C 
BRANCH   6   7
ATOM      7  C   UNL     1      48.055 -12.245 -56.390  1.00  0.00     0.006 C 
BRANCH   7   8
ATOM      8  C   UNL     1      48.878 -13.542 -56.447  1.00  0.00     0.053 C 
BRANCH   8   9
ATOM      9  C   UNL     1      48.157 -14.693 -55.816  1.00  0.00     0.041 C 
ATOM     10  O   UNL     1      48.423 -15.875 -56.161  1.00  0.00    -0.550 OA
ATOM     11  O   UNL     1      47.214 -14.463 -54.822  1.00  0.00    -0.550 OA
ENDBRANCH   8   9
ENDBRANCH   7   8
ENDBRANCH   6   7
ENDBRANCH   5   6
ENDBRANCH   4   5
ENDBRANCH   3   4
ENDBRANCH   2   3
ENDBRANCH   1   2
BRANCH   1  12
ATOM     12  C   UNL     1      48.671  -7.059 -53.750  1.00  0.00     0.000 C 
BRANCH  12  13
ATOM     13  C   UNL     1      50.072  -7.460 -54.237  1.00  0.00    -0.000 C 
BRANCH  13  14
ATOM     14  C   UNL     1      50.887  -6.262 -54.749  1.00  0.00    -0.000 C 
BRANCH  14  15
ATOM     15  C   UNL     1      51.165  -6.333 -56.258  1.00  0.00    -0.000 C 
BRANCH  15  16
ATOM     16  C   UNL     1      49.994  -5.740 -57.057  1.00  0.00    -0.000 C 
BRANCH  16  17
ATOM     17  C   UNL     1      49.404  -4.480 -56.403  1.00  0.00    -0.000 C 
BRANCH  17  18
ATOM     18  C   UNL     1      47.877  -4.388 -56.569  1.00  0.00    -0.000 C 
BRANCH  18  19
ATOM     19  C   UNL     1      47.222  -3.492 -55.506  1.00  0.00    -0.003 C 
ATOM     20  C   UNL     1      48.002  -3.465 -54.192  1.00  0.00     0.004 C 
ENDBRANCH  18  19
ENDBRANCH  17  18
ENDBRANCH  16  17
ENDBRANCH  15  16
ENDBRANCH  14  15
ENDBRANCH  13  14
ENDBRANCH  12  13
ENDBRANCH   1  12
TORSDOF 16
ENDMDL
MODEL 3
REMARK VINA RESULT:    -4.428      5.009      7.466
REMARK INTER + INTRA:         -10.386
REMARK INTER:                  -7.515
REMARK INTRA:                  -2.871
REMARK UNBOUND:                -1.816
REMARK SMILES CCCCCCCCCCCCCCCCCC(=O)[O-]
REMARK SMILES IDX 10 1 11 2 12 3 13 4 14 5 15 6 16 7 17 8 18 9 19 10 20 11
REMARK SMILES IDX 9 12 8 13 7 14 6 15 5 16 4 17 3 18 2 19 1 20
REMARK H PARENT
REMARK Flexibility Score: inf
ROOT
ATOM      1  C   UNL     1      49.954  -7.653 -54.258  1.00  0.00     0.000 C 
ENDROOT
BRANCH   1   2
ATOM      2  C   UNL     1      50.838  -6.506 -54.771  1.00  0.00     0.000 C 
BRANCH   2   3
ATOM      3  C   UNL     1      50.257  -5.120 -54.454  1.00  0.00     0.000 C 
BRANCH   3   4
ATOM      4  C   UNL     1      49.917  -4.359 -55.742  1.00  0.00     0.000 C 
BRANCH   4   5
ATOM      5  C   UNL     1      48.479  -3.828 -55.704  1.00  0.00     0.000 C 
BRANCH   5   6
ATOM      6  C   UNL     1      48.022  -3.579 -54.259  1.00  0.00     0.000 C 
BRANCH   6   7
ATOM      7  C   UNL     1      46.502  -3.746 -54.077  1.00  0.00     0.006 C 
BRANCH   7   8
ATOM      8  C   UNL     1      46.023  -3.636 -52.621  1.00  0.00     0.053 C 
BRANCH   8   9
ATOM      9  C   UNL     1      45.453  -4.926 -52.117  1.00  0.00     0.041 C 
ATOM     10  O   UNL     1      45.449  -5.180 -50.884  1.00  0.00    -0.550 OA
ATOM     11  O   UNL     1      44.894  -5.835 -53.008  1.00  0.00    -0.550 OA
ENDBRANCH   8   9
ENDBRANCH   7   8
ENDBRANCH   6   7
ENDBRANCH   5   6
ENDBRANCH   4   5
ENDBRANCH   3   4
ENDBRANCH   2   3
ENDBRANCH   1   2
BRANCH   1  12
ATOM     12  C   UNL     1      48.608  -7.162 -53.700  1.00  0.00     0.000 C 
BRANCH  12  13
ATOM     13  C   UNL     1      47.485  -7.350 -54.732  1.00  0.00    -0.000 C 
BRANCH  13  14
ATOM     14  C   UNL     1      47.902  -8.252 -55.905  1.00  0.00    -0.000 C 
BRANCH  14  15
ATOM     15  C   UNL     1      47.166  -7.908 -57.209  1.00  0.00    -0.000 C 
BRANCH  15  16
ATOM     16  C   UNL     1      48.006  -6.956 -58.075  1.00  0.00    -0.000 C 
BRANCH  16  17
ATOM     17  C   UNL     1      49.508  -7.276 -58.028  1.00  0.00    -0.000 C 
BRANCH  17  18
ATOM     18  C   UNL     1      50.355  -6.257 -58.811  1.00  0.00    -0.000 C 
BRANCH  18  19
ATOM     19  C   UNL     1      51.845  -6.632 -58.844  1.00  0.00    -0.003 C 
ATOM     20  C   UNL     1      52.695  -5.767 -57.914  1.00  0.00     0.004 C 
ENDBRANCH  18  19
ENDBRANCH  17  18
ENDBRANCH  16  17
ENDBRANCH  15  16
ENDBRANCH  14  15
ENDBRANCH  13  14
ENDBRANCH  12  13
ENDBRANCH   1  12
TORSDOF 16
ENDMDL
MODEL 4
REMARK VINA RESULT:    -4.411      3.187      7.806
REMARK INTER + INTRA:         -10.353
REMARK INTER:                  -8.747
REMARK INTRA:                  -1.606
REMARK UNBOUND:                -1.816
REMARK SMILES CCCCCCCCCCCCCCCCCC(=O)[O-]
REMARK SMILES IDX 10 1 11 2 12 3 13 4 14 5 15 6 16 7 17 8 18 9 19 10 20 11
REMARK SMILES IDX 9 12 8 13 7 14 6 15 5 16 4 17 3 18 2 19 1 20
REMARK H PARENT
REMARK Flexibility Score: inf
ROOT
ATOM      1  C   UNL     1      47.573  -7.293 -57.768  1.00  0.00     0.000 C 
ENDROOT
BRANCH   1   2
ATOM      2  C   UNL     1      48.461  -6.432 -58.679  1.00  0.00     0.000 C 
BRANCH   2   3
ATOM      3  C   UNL     1      49.810  -7.097 -58.994  1.00  0.00     0.000 C 
BRANCH   3   4
ATOM      4  C   UNL     1      50.974  -6.139 -58.712  1.00  0.00     0.000 C 
BRANCH   4   5
ATOM      5  C   UNL     1      50.828  -5.486 -57.332  1.00  0.00     0.000 C 
BRANCH   5   6
ATOM      6  C   UNL     1      51.944  -5.951 -56.384  1.00  0.00     0.000 C 
BRANCH   6   7
ATOM      7  C   UNL     1      51.431  -6.254 -54.964  1.00  0.00     0.006 C 
BRANCH   7   8
ATOM      8  C   UNL     1      49.923  -6.027 -54.774  1.00  0.00     0.053 C 
BRANCH   8   9
ATOM      9  C   UNL     1      49.228  -7.258 -54.277  1.00  0.00     0.041 C 
ATOM     10  O   UNL     1      49.869  -8.331 -54.126  1.00  0.00    -0.550 OA
ATOM     11  O   UNL     1      47.878  -7.211 -53.950  1.00  0.00    -0.550 OA
ENDBRANCH   8   9
ENDBRANCH   7   8
ENDBRANCH   6   7
ENDBRANCH   5   6
ENDBRANCH   4   5
ENDBRANCH   3   4
ENDBRANCH   2   3
ENDBRANCH   1   2
BRANCH   1  12
ATOM     12  C   UNL     1      48.148  -8.699 -57.534  1.00  0.00     0.000 C 
BRANCH  12  13
ATOM     13  C   UNL     1      47.199  -9.544 -56.668  1.00  0.00    -0.000 C 
BRANCH  13  14
ATOM     14  C   UNL     1      46.480 -10.639 -57.472  1.00  0.00    -0.000 C 
BRANCH  14  15
ATOM     15  C   UNL     1      47.258 -11.963 -57.498  1.00  0.00    -0.000 C 
BRANCH  15  16
ATOM     16  C   UNL     1      48.245 -12.042 -56.323  1.00  0.00    -0.000 C 
BRANCH  16  17
ATOM     17  C   UNL     1      48.837 -13.448 -56.136  1.00  0.00    -0.000 C 
BRANCH  17  18
ATOM     18  C   UNL     1      47.776 -14.487 -55.733  1.00  0.00    -0.000 C 
BRANCH  18  19
ATOM     19  C   UNL     1      48.236 -15.930 -55.998  1.00  0.00    -0.003 C 
ATOM     20  C   UNL     1      47.499 -16.581 -57.167  1.00  0.00     0.004 C 
ENDBRANCH  18  19
ENDBRANCH  17  18
ENDBRANCH  16  17
ENDBRANCH  15  16
ENDBRANCH  14  15
ENDBRANCH  13  14
ENDBRANCH  12  13
ENDBRANCH   1  12
TORSDOF 16
ENDMDL
MODEL 5
REMARK VINA RESULT:    -4.387      2.022      4.006
REMARK INTER + INTRA:         -10.307
REMARK INTER:                  -7.818
REMARK INTRA:                  -2.489
REMARK UNBOUND:                -1.816
REMARK SMILES CCCCCCCCCCCCCCCCCC(=O)[O-]
REMARK SMILES IDX 10 1 11 2 12 3 13 4 14 5 15 6 16 7 17 8 18 9 19 10 20 11
REMARK SMILES IDX 9 12 8 13 7 14 6 15 5 16 4 17 3 18 2 19 1 20
REMARK H PARENT
REMARK Flexibility Score: inf
ROOT
ATOM      1  C   UNL     1      50.262  -7.369 -54.258  1.00  0.00     0.000 C 
ENDROOT
BRANCH   1   2
ATOM      2  C   UNL     1      48.888  -7.051 -53.649  1.00  0.00     0.000 C 
BRANCH   2   3
ATOM      3  C   UNL     1      47.723  -7.556 -54.514  1.00  0.00     0.000 C 
BRANCH   3   4
ATOM      4  C   UNL     1      48.216  -8.552 -55.570  1.00  0.00     0.000 C 
BRANCH   4   5
ATOM      5  C   UNL     1      47.527  -8.311 -56.919  1.00  0.00     0.000 C 
BRANCH   5   6
ATOM      6  C   UNL     1      47.605  -9.561 -57.808  1.00  0.00     0.000 C 
BRANCH   6   7
ATOM      7  C   UNL     1      46.992 -10.806 -57.141  1.00  0.00     0.006 C 
BRANCH   7   8
ATOM      8  C   UNL     1      47.768 -12.108 -57.394  1.00  0.00     0.053 C 
BRANCH   8   9
ATOM      9  C   UNL     1      48.353 -12.668 -56.135  1.00  0.00     0.041 C 
ATOM     10  O   UNL     1      49.172 -11.991 -55.459  1.00  0.00    -0.550 OA
ATOM     11  O   UNL     1      47.968 -13.926 -55.688  1.00  0.00    -0.550 OA
ENDBRANCH   8   9
ENDBRANCH   7   8
ENDBRANCH   6   7
ENDBRANCH   5   6
ENDBRANCH   4   5
ENDBRANCH   3   4
ENDBRANCH   2   3
ENDBRANCH   1   2
BRANCH   1  12
ATOM     12  C   UNL     1      50.953  -6.129 -54.847  1.00  0.00     0.000 C 
BRANCH  12  13
ATOM     13  C   UNL     1      51.095  -6.252 -56.372  1.00  0.00    -0.000 C 
BRANCH  13  14
ATOM     14  C   UNL     1      51.366  -4.901 -57.053  1.00  0.00    -0.000 C 
BRANCH  14  15
ATOM     15  C   UNL     1      50.110  -4.022 -57.150  1.00  0.00    -0.000 C 
BRANCH  15  16
ATOM     16  C   UNL     1      48.878  -4.866 -57.512  1.00  0.00    -0.000 C 
BRANCH  16  17
ATOM     17  C   UNL     1      47.688  -4.618 -56.571  1.00  0.00    -0.000 C 
BRANCH  17  18
ATOM     18  C   UNL     1      47.845  -3.328 -55.748  1.00  0.00    -0.000 C 
BRANCH  18  19
ATOM     19  C   UNL     1      47.941  -3.601 -54.238  1.00  0.00    -0.003 C 
ATOM     20  C   UNL     1      46.595  -3.966 -53.615  1.00  0.00     0.004 C 
ENDBRANCH  18  19
ENDBRANCH  17  18
ENDBRANCH  16  17
ENDBRANCH  15  16
ENDBRANCH  14  15
ENDBRANCH  13  14
ENDBRANCH  12  13
ENDBRANCH   1  12
TORSDOF 16
ENDMDL
MODEL 6
REMARK VINA RESULT:    -4.357      1.464      3.062
REMARK INTER + INTRA:         -10.249
REMARK INTER:                  -8.067
REMARK INTRA:                  -2.182
REMARK UNBOUND:                -1.816
REMARK SMILES CCCCCCCCCCCCCCCCCC(=O)[O-]
REMARK SMILES IDX 10 1 11 2 12 3 13 4 14 5 15 6 16 7 17 8 18 9 19 10 20 11
REMARK SMILES IDX 9 12 8 13 7 14 6 15 5 16 4 17 3 18 2 19 1 20
REMARK H PARENT
REMARK Flexibility Score: inf
ROOT
ATOM      1  C   UNL     1      49.041  -7.123 -58.297  1.00  0.00     0.000 C 
ENDROOT
BRANCH   1   2
ATOM      2  C   UNL     1      47.785  -7.409 -57.458  1.00  0.00     0.000 C 
BRANCH   2   3
ATOM      3  C   UNL     1      48.015  -8.495 -56.397  1.00  0.00     0.000 C 
BRANCH   3   4
ATOM      4  C   UNL     1      46.979  -9.618 -56.527  1.00  0.00     0.000 C 
BRANCH   4   5
ATOM      5  C   UNL     1      47.097 -10.323 -57.884  1.00  0.00     0.000 C 
BRANCH   5   6
ATOM      6  C   UNL     1      48.001 -11.561 -57.783  1.00  0.00     0.000 C 
BRANCH   6   7
ATOM      7  C   UNL     1      48.101 -12.112 -56.349  1.00  0.00     0.006 C 
BRANCH   7   8
ATOM      8  C   UNL     1      48.938 -13.393 -56.219  1.00  0.00     0.053 C 
BRANCH   8   9
ATOM      9  C   UNL     1      48.104 -14.572 -55.822  1.00  0.00     0.041 C 
ATOM     10  O   UNL     1      48.237 -15.674 -56.417  1.00  0.00    -0.550 OA
ATOM     11  O   UNL     1      47.201 -14.464 -54.771  1.00  0.00    -0.550 OA
ENDBRANCH   8   9
ENDBRANCH   7   8
ENDBRANCH   6   7
ENDBRANCH   5   6
ENDBRANCH   4   5
ENDBRANCH   3   4
ENDBRANCH   2   3
ENDBRANCH   1   2
BRANCH   1  12
ATOM     12  C   UNL     1      49.223  -5.628 -58.601  1.00  0.00     0.000 C 
BRANCH  12  13
ATOM     13  C   UNL     1      50.607  -5.139 -58.143  1.00  0.00    -0.000 C 
BRANCH  13  14
ATOM     14  C   UNL     1      51.393  -6.217 -57.380  1.00  0.00    -0.000 C 
BRANCH  14  15
ATOM     15  C   UNL     1      51.719  -5.804 -55.936  1.00  0.00    -0.000 C 
BRANCH  15  16
ATOM     16  C   UNL     1      50.918  -6.649 -54.933  1.00  0.00    -0.000 C 
BRANCH  16  17
ATOM     17  C   UNL     1      49.694  -5.907 -54.372  1.00  0.00    -0.000 C 
BRANCH  17  18
ATOM     18  C   UNL     1      49.847  -4.378 -54.441  1.00  0.00    -0.000 C 
BRANCH  18  19
ATOM     19  C   UNL     1      48.493  -3.652 -54.473  1.00  0.00    -0.003 C 
ATOM     20  C   UNL     1      47.630  -4.059 -55.666  1.00  0.00     0.004 C 
ENDBRANCH  18  19
ENDBRANCH  17  18
ENDBRANCH  16  17
ENDBRANCH  15  16
ENDBRANCH  14  15
ENDBRANCH  13  14
ENDBRANCH  12  13
ENDBRANCH   1  12
TORSDOF 16
ENDMDL
MODEL 7
REMARK VINA RESULT:    -4.279      1.775      3.010
REMARK INTER + INTRA:         -10.098
REMARK INTER:                  -7.959
REMARK INTRA:                  -2.139
REMARK UNBOUND:                -1.816
REMARK SMILES CCCCCCCCCCCCCCCCCC(=O)[O-]
REMARK SMILES IDX 10 1 11 2 12 3 13 4 14 5 15 6 16 7 17 8 18 9 19 10 20 11
REMARK SMILES IDX 9 12 8 13 7 14 6 15 5 16 4 17 3 18 2 19 1 20
REMARK H PARENT
REMARK Flexibility Score: inf
ROOT
ATOM      1  C   UNL     1      48.843  -8.550 -55.008  1.00  0.00     0.000 C 
ENDROOT
BRANCH   1   2
ATOM      2  C   UNL     1      47.564  -7.713 -55.173  1.00  0.00     0.000 C 
BRANCH   2   3
ATOM      3  C   UNL     1      47.227  -7.429 -56.645  1.00  0.00     0.000 C 
BRANCH   3   4
ATOM      4  C   UNL     1      47.952  -8.410 -57.574  1.00  0.00     0.000 C 
BRANCH   4   5
ATOM      5  C   UNL     1      46.952  -9.243 -58.385  1.00  0.00     0.000 C 
BRANCH   5   6
ATOM      6  C   UNL     1      46.454 -10.448 -57.573  1.00  0.00     0.000 C 
BRANCH   6   7
ATOM      7  C   UNL     1      47.568 -11.467 -57.274  1.00  0.00     0.006 C 
BRANCH   7   8
ATOM      8  C   UNL     1      47.061 -12.869 -56.902  1.00  0.00     0.053 C 
BRANCH   8   9
ATOM      9  C   UNL     1      48.036 -13.609 -56.039  1.00  0.00     0.041 C 
ATOM     10  O   UNL     1      47.631 -14.492 -55.237  1.00  0.00    -0.550 OA
ATOM     11  O   UNL     1      49.397 -13.347 -56.143  1.00  0.00    -0.550 OA
ENDBRANCH   8   9
ENDBRANCH   7   8
ENDBRANCH   6   7
ENDBRANCH   5   6
ENDBRANCH   4   5
ENDBRANCH   3   4
ENDBRANCH   2   3
ENDBRANCH   1   2
BRANCH   1  12
ATOM     12  C   UNL     1      49.929  -7.822 -54.200  1.00  0.00     0.000 C 
BRANCH  12  13
ATOM     13  C   UNL     1      49.718  -6.301 -54.243  1.00  0.00    -0.000 C 
BRANCH  13  14
ATOM     14  C   UNL     1      50.757  -5.582 -55.118  1.00  0.00    -0.000 C 
BRANCH  14  15
ATOM     15  C   UNL     1      50.133  -4.504 -56.017  1.00  0.00    -0.000 C 
BRANCH  15  16
ATOM     16  C   UNL     1      49.921  -5.036 -57.443  1.00  0.00    -0.000 C 
BRANCH  16  17
ATOM     17  C   UNL     1      50.889  -6.174 -57.804  1.00  0.00    -0.000 C 
BRANCH  17  18
ATOM     18  C   UNL     1      51.967  -5.736 -58.811  1.00  0.00    -0.000 C 
BRANCH  18  19
ATOM     19  C   UNL     1      53.319  -5.451 -58.139  1.00  0.00    -0.003 C 
ATOM     20  C   UNL     1      53.969  -4.161 -58.637  1.00  0.00     0.004 C 
ENDBRANCH  18  19
ENDBRANCH  17  18
ENDBRANCH  16  17
ENDBRANCH  15  16
ENDBRANCH  14  15
ENDBRANCH  13  14
ENDBRANCH  12  13
ENDBRANCH   1  12
TORSDOF 16
ENDMDL
MODEL 8
REMARK VINA RESULT:    -4.256      1.563      2.360
REMARK INTER + INTRA:         -10.054
REMARK INTER:                  -7.995
REMARK INTRA:                  -2.059
REMARK UNBOUND:                -1.816
REMARK SMILES CCCCCCCCCCCCCCCCCC(=O)[O-]
REMARK SMILES IDX 10 1 11 2 12 3 13 4 14 5 15 6 16 7 17 8 18 9 19 10 20 11
REMARK SMILES IDX 9 12 8 13 7 14 6 15 5 16 4 17 3 18 2 19 1 20
REMARK H PARENT
REMARK Flexibility Score: inf
ROOT
ATOM      1  C   UNL     1      48.796  -8.033 -54.635  1.00  0.00     0.000 C 
ENDROOT
BRANCH   1   2
ATOM      2  C   UNL     1      48.167  -8.007 -56.037  1.00  0.00     0.000 C 
BRANCH   2   3
ATOM      3  C   UNL     1      47.287  -9.235 -56.316  1.00  0.00     0.000 C 
BRANCH   3   4
ATOM      4  C   UNL     1      47.743  -9.959 -57.588  1.00  0.00     0.000 C 
BRANCH   4   5
ATOM      5  C   UNL     1      47.694 -11.481 -57.404  1.00  0.00     0.000 C 
BRANCH   5   6
ATOM      6  C   UNL     1      48.414 -11.902 -56.114  1.00  0.00     0.000 C 
BRANCH   6   7
ATOM      7  C   UNL     1      48.708 -13.412 -56.060  1.00  0.00     0.006 C 
BRANCH   7   8
ATOM      8  C   UNL     1      47.569 -14.258 -55.470  1.00  0.00     0.053 C 
BRANCH   8   9
ATOM      9  C   UNL     1      47.472 -15.603 -56.120  1.00  0.00     0.041 C 
ATOM     10  O   UNL     1      46.552 -15.844 -56.945  1.00  0.00    -0.550 OA
ATOM     11  O   UNL     1      48.418 -16.582 -55.841  1.00  0.00    -0.550 OA
ENDBRANCH   8   9
ENDBRANCH   7   8
ENDBRANCH   6   7
ENDBRANCH   5   6
ENDBRANCH   4   5
ENDBRANCH   3   4
ENDBRANCH   2   3
ENDBRANCH   1   2
BRANCH   1  12
ATOM     12  C   UNL     1      50.155  -7.318 -54.580  1.00  0.00     0.000 C 
BRANCH  12  13
ATOM     13  C   UNL     1      50.390  -6.487 -55.850  1.00  0.00    -0.000 C 
BRANCH  13  14
ATOM     14  C   UNL     1      50.680  -5.008 -55.546  1.00  0.00    -0.000 C 
BRANCH  14  15
ATOM     15  C   UNL     1      50.075  -4.547 -54.212  1.00  0.00    -0.000 C 
BRANCH  15  16
ATOM     16  C   UNL     1      48.758  -3.789 -54.442  1.00  0.00    -0.000 C 
BRANCH  16  17
ATOM     17  C   UNL     1      47.520  -4.691 -54.302  1.00  0.00    -0.000 C 
BRANCH  17  18
ATOM     18  C   UNL     1      46.566  -4.575 -55.503  1.00  0.00    -0.000 C 
BRANCH  18  19
ATOM     19  C   UNL     1      47.237  -3.933 -56.728  1.00  0.00    -0.003 C 
ATOM     20  C   UNL     1      47.596  -4.952 -57.809  1.00  0.00     0.004 C 
ENDBRANCH  18  19
ENDBRANCH  17  18
ENDBRANCH  16  17
ENDBRANCH  15  16
ENDBRANCH  14  15
ENDBRANCH  13  14
ENDBRANCH  12  13
ENDBRANCH   1  12
TORSDOF 16
ENDMDL
MODEL 9
REMARK VINA RESULT:    -4.162      4.098      7.665
REMARK INTER + INTRA:          -9.871
REMARK INTER:                  -7.010
REMARK INTRA:                  -2.861
REMARK UNBOUND:                -1.816
REMARK SMILES CCCCCCCCCCCCCCCCCC(=O)[O-]
REMARK SMILES IDX 10 1 11 2 12 3 13 4 14 5 15 6 16 7 17 8 18 9 19 10 20 11
REMARK SMILES IDX 9 12 8 13 7 14 6 15 5 16 4 17 3 18 2 19 1 20
REMARK H PARENT
REMARK Flexibility Score: inf
ROOT
ATOM      1  C   UNL     1      49.850  -7.735 -54.329  1.00  0.00     0.000 C 
ENDROOT
BRANCH   1   2
ATOM      2  C   UNL     1      50.656  -6.567 -54.919  1.00  0.00     0.000 C 
BRANCH   2   3
ATOM      3  C   UNL     1      50.042  -5.197 -54.594  1.00  0.00     0.000 C 
BRANCH   3   4
ATOM      4  C   UNL     1      49.747  -4.409 -55.876  1.00  0.00     0.000 C 
BRANCH   4   5
ATOM      5  C   UNL     1      48.376  -3.727 -55.800  1.00  0.00     0.000 C 
BRANCH   5   6
ATOM      6  C   UNL     1      47.884  -3.643 -54.347  1.00  0.00     0.000 C 
BRANCH   6   7
ATOM      7  C   UNL     1      46.464  -4.210 -54.165  1.00  0.00     0.006 C 
BRANCH   7   8
ATOM      8  C   UNL     1      46.048  -4.418 -52.701  1.00  0.00     0.053 C 
BRANCH   8   9
ATOM      9  C   UNL     1      44.937  -5.414 -52.568  1.00  0.00     0.041 C 
ATOM     10  O   UNL     1      44.750  -6.279 -53.463  1.00  0.00    -0.550 OA
ATOM     11  O   UNL     1      44.127  -5.407 -51.438  1.00  0.00    -0.550 OA
ENDBRANCH   8   9
ENDBRANCH   7   8
ENDBRANCH   6   7
ENDBRANCH   5   6
ENDBRANCH   4   5
ENDBRANCH   3   4
ENDBRANCH   2   3
ENDBRANCH   1   2
BRANCH   1  12
ATOM     12  C   UNL     1      48.352  -7.417 -54.201  1.00  0.00     0.000 C 
BRANCH  12  13
ATOM     13  C   UNL     1      47.550  -8.084 -55.330  1.00  0.00    -0.000 C 
BRANCH  13  14
ATOM     14  C   UNL     1      46.832  -7.066 -56.229  1.00  0.00    -0.000 C 
BRANCH  14  15
ATOM     15  C   UNL     1      47.517  -6.892 -57.593  1.00  0.00    -0.000 C 
BRANCH  15  16
ATOM     16  C   UNL     1      48.394  -8.110 -57.925  1.00  0.00    -0.000 C 
BRANCH  16  17
ATOM     17  C   UNL     1      47.765  -9.024 -58.989  1.00  0.00    -0.000 C 
BRANCH  17  18
ATOM     18  C   UNL     1      48.005 -10.516 -58.702  1.00  0.00    -0.000 C 
BRANCH  18  19
ATOM     19  C   UNL     1      47.201 -11.021 -57.493  1.00  0.00    -0.003 C 
ATOM     20  C   UNL     1      48.083 -11.651 -56.416  1.00  0.00     0.004 C 
ENDBRANCH  18  19
ENDBRANCH  17  18
ENDBRANCH  16  17
ENDBRANCH  15  16
ENDBRANCH  14  15
ENDBRANCH  13  14
ENDBRANCH  12  13
ENDBRANCH   1  12
TORSDOF 16
ENDMDL
