MODEL 1
REMARK VINA RESULT:    -7.836      0.000      0.000
REMARK INTER + INTRA:          -8.510
REMARK INTER:                  -8.523
REMARK INTRA:                   0.013
REMARK UNBOUND:                 0.013
REMARK SMILES C[C@@H]1[C@H](C)CC[C@]2(C(=O)[O-])CC[C@@]3(C)C(=CC[C@@H]4[C@@]5(C)CC[C@@H](O)C(C)(C)[C@@H]5CC[C@@]43C)[C@H]12
REMARK SMILES IDX 7 1 6 2 11 3 33 4 5 5 12 6 15 7 2 8 3 9 13 10 16 11 1 12
REMARK SMILES IDX 4 13 14 14 31 15 17 16 18 17 30 18 32 19 19 20 29 21 28 22
REMARK SMILES IDX 21 23 20 24 25 25 22 26 23 27 26 28 27 29 8 30 9 31 10 32
REMARK SMILES IDX 24 33
REMARK H PARENT 24 34
REMARK Flexibility Score: inf
ROOT
ATOM      1  C   UNL     1     139.122 101.670  93.766  1.00  0.00     0.017 C 
ATOM      2  C   UNL     1     138.950 101.177  95.237  1.00  0.00     0.014 C 
ATOM      3  C   UNL     1     138.978 103.211  93.744  1.00  0.00     0.014 C 
ATOM      4  C   UNL     1     138.075 100.979  92.794  1.00  0.00     0.030 C 
ATOM      5  C   UNL     1     139.091  99.671  95.371  1.00  0.00     0.004 C 
ATOM      6  C   UNL     1     137.556 103.674  94.062  1.00  0.00     0.013 C 
ATOM      7  C   UNL     1     136.746 101.771  92.547  1.00  0.00    -0.063 C 
ATOM      8  C   UNL     1     138.001  99.398  93.078  1.00  0.00    -0.003 C 
ATOM      9  C   UNL     1     138.006  98.954  94.569  1.00  0.00    -0.011 C 
ATOM     10  C   UNL     1     136.534 103.251  92.968  1.00  0.00    -0.006 C 
ATOM     11  C   UNL     1     135.894 101.331  91.592  1.00  0.00    -0.027 C 
ATOM     12  C   UNL     1     136.967  98.582  92.283  1.00  0.00     0.008 C 
ATOM     13  C   UNL     1     136.626  99.035  95.253  1.00  0.00     0.008 C 
ATOM     14  C   UNL     1     136.870 104.148  91.719  1.00  0.00     0.017 C 
ATOM     15  C   UNL     1     135.004 103.456  93.447  1.00  0.00    -0.020 C 
ATOM     16  C   UNL     1     134.623 102.038  91.229  1.00  0.00     0.032 C 
ATOM     17  C   UNL     1     133.968 102.735  92.454  1.00  0.00     0.006 C 
ATOM     18  C   UNL     1     134.675 104.978  93.593  1.00  0.00     0.008 C 
ATOM     19  C   UNL     1     134.825 102.819  94.870  1.00  0.00     0.012 C 
ATOM     20  C   UNL     1     132.631 103.537  92.092  1.00  0.00    -0.025 C 
ATOM     21  C   UNL     1     133.214 105.295  93.954  1.00  0.00     0.005 C 
ATOM     22  C   UNL     1     132.157 104.307  93.380  1.00  0.00     0.003 C 
ATOM     23  C   UNL     1     131.525 102.495  91.701  1.00  0.00     0.010 C 
ATOM     24  C   UNL     1     132.852 104.486  90.871  1.00  0.00     0.012 C 
ATOM     25  C   UNL     1     130.673 104.873  93.387  1.00  0.00    -0.006 C 
ATOM     26  C   UNL     1     130.104 103.066  91.647  1.00  0.00     0.033 C 
ATOM     27  C   UNL     1     129.688 103.735  92.969  1.00  0.00     0.120 C 
ATOM     28  C   UNL     1     130.314 105.318  94.832  1.00  0.00     0.014 C 
ATOM     29  C   UNL     1     130.441 106.117  92.472  1.00  0.00     0.014 C 
ENDROOT
BRANCH   1  30
ATOM     30  C   UNL     1     140.565 101.377  93.341  1.00  0.00     0.048 C 
ATOM     31  O   UNL     1     141.494 101.250  94.183  1.00  0.00    -0.550 OA
ATOM     32  O   UNL     1     140.871 101.238  91.987  1.00  0.00    -0.550 OA
ENDBRANCH   1  30
BRANCH  27  33
ATOM     33  O   UNL     1     129.625 102.739  93.970  1.00  0.00    -0.393 OA
ATOM     34  H   UNL     1     129.877 101.876  93.556  1.00  0.00     0.210 HD
ENDBRANCH  27  33
TORSDOF 2
ENDMDL
MODEL 2
REMARK VINA RESULT:    -6.904      1.677      3.191
REMARK INTER + INTRA:          -7.495
REMARK INTER:                  -7.383
REMARK INTRA:                  -0.112
REMARK UNBOUND:                 0.013
REMARK SMILES C[C@@H]1[C@H](C)CC[C@]2(C(=O)[O-])CC[C@@]3(C)C(=CC[C@@H]4[C@@]5(C)CC[C@@H](O)C(C)(C)[C@@H]5CC[C@@]43C)[C@H]12
REMARK SMILES IDX 7 1 6 2 11 3 33 4 5 5 12 6 15 7 2 8 3 9 13 10 16 11 1 12
REMARK SMILES IDX 4 13 14 14 31 15 17 16 18 17 30 18 32 19 19 20 29 21 28 22
REMARK SMILES IDX 21 23 20 24 25 25 22 26 23 27 26 28 27 29 8 30 9 31 10 32
REMARK SMILES IDX 24 33
REMARK H PARENT 24 34
REMARK Flexibility Score: inf
ROOT
ATOM      1  C   UNL     1     138.433 101.926  93.570  1.00  0.00     0.017 C 
ATOM      2  C   UNL     1     138.305 100.690  92.626  1.00  0.00     0.014 C 
ATOM      3  C   UNL     1     137.606 101.655  94.850  1.00  0.00     0.014 C 
ATOM      4  C   UNL     1     137.961 103.260  92.850  1.00  0.00     0.030 C 
ATOM      5  C   UNL     1     139.098 100.848  91.341  1.00  0.00     0.004 C 
ATOM      6  C   UNL     1     136.100 101.622  94.583  1.00  0.00     0.013 C 
ATOM      7  C   UNL     1     136.465 103.665  93.077  1.00  0.00    -0.063 C 
ATOM      8  C   UNL     1     138.579 103.349  91.369  1.00  0.00    -0.003 C 
ATOM      9  C   UNL     1     138.582 102.037  90.531  1.00  0.00    -0.011 C 
ATOM     10  C   UNL     1     135.545 103.007  94.142  1.00  0.00    -0.006 C 
ATOM     11  C   UNL     1     136.047 104.879  92.647  1.00  0.00    -0.027 C 
ATOM     12  C   UNL     1     138.151 104.538  90.492  1.00  0.00     0.008 C 
ATOM     13  C   UNL     1     137.238 101.731  89.840  1.00  0.00     0.008 C 
ATOM     14  C   UNL     1     135.602 103.906  95.433  1.00  0.00     0.017 C 
ATOM     15  C   UNL     1     134.041 102.906  93.559  1.00  0.00    -0.020 C 
ATOM     16  C   UNL     1     134.657 105.398  92.859  1.00  0.00     0.032 C 
ATOM     17  C   UNL     1     133.595 104.263  92.824  1.00  0.00     0.006 C 
ATOM     18  C   UNL     1     133.037 102.528  94.697  1.00  0.00     0.008 C 
ATOM     19  C   UNL     1     133.980 101.747  92.502  1.00  0.00     0.012 C 
ATOM     20  C   UNL     1     132.103 104.777  93.092  1.00  0.00    -0.025 C 
ATOM     21  C   UNL     1     131.558 102.497  94.275  1.00  0.00     0.005 C 
ATOM     22  C   UNL     1     131.158 103.521  93.173  1.00  0.00     0.003 C 
ATOM     23  C   UNL     1     131.660 105.653  91.868  1.00  0.00     0.010 C 
ATOM     24  C   UNL     1     132.032 105.668  94.372  1.00  0.00     0.012 C 
ATOM     25  C   UNL     1     129.595 103.775  93.064  1.00  0.00    -0.006 C 
ATOM     26  C   UNL     1     130.157 105.948  91.808  1.00  0.00     0.033 C 
ATOM     27  C   UNL     1     129.306 104.666  91.814  1.00  0.00     0.120 C 
ATOM     28  C   UNL     1     128.878 102.412  92.863  1.00  0.00     0.014 C 
ATOM     29  C   UNL     1     128.948 104.432  94.325  1.00  0.00     0.014 C 
ENDROOT
BRANCH   1  30
ATOM     30  C   UNL     1     139.894 102.018  94.026  1.00  0.00     0.048 C 
ATOM     31  O   UNL     1     140.516 103.113  94.049  1.00  0.00    -0.550 OA
ATOM     32  O   UNL     1     140.561 100.864  94.434  1.00  0.00    -0.550 OA
ENDBRANCH   1  30
BRANCH  27  33
ATOM     33  O   UNL     1     129.568 103.952  90.623  1.00  0.00    -0.393 OA
ATOM     34  H   UNL     1     128.829 104.136  89.990  1.00  0.00     0.210 HD
ENDBRANCH  27  33
TORSDOF 2
ENDMDL
MODEL 3
REMARK VINA RESULT:    -6.762      1.497      2.127
REMARK INTER + INTRA:          -7.341
REMARK INTER:                  -7.229
REMARK INTRA:                  -0.112
REMARK UNBOUND:                 0.013
REMARK SMILES C[C@@H]1[C@H](C)CC[C@]2(C(=O)[O-])CC[C@@]3(C)C(=CC[C@@H]4[C@@]5(C)CC[C@@H](O)C(C)(C)[C@@H]5CC[C@@]43C)[C@H]12
REMARK SMILES IDX 7 1 6 2 11 3 33 4 5 5 12 6 15 7 2 8 3 9 13 10 16 11 1 12
REMARK SMILES IDX 4 13 14 14 31 15 17 16 18 17 30 18 32 19 19 20 29 21 28 22
REMARK SMILES IDX 21 23 20 24 25 25 22 26 23 27 26 28 27 29 8 30 9 31 10 32
REMARK SMILES IDX 24 33
REMARK H PARENT 24 34
REMARK Flexibility Score: inf
ROOT
ATOM      1  C   UNL     1     137.753 101.021  93.758  1.00  0.00     0.017 C 
ATOM      2  C   UNL     1     137.046  99.702  94.205  1.00  0.00     0.014 C 
ATOM      3  C   UNL     1     137.477 102.111  94.822  1.00  0.00     0.014 C 
ATOM      4  C   UNL     1     137.268 101.483  92.320  1.00  0.00     0.030 C 
ATOM      5  C   UNL     1     137.270  98.559  93.232  1.00  0.00     0.004 C 
ATOM      6  C   UNL     1     136.009 102.542  94.857  1.00  0.00     0.013 C 
ATOM      7  C   UNL     1     136.084 102.508  92.294  1.00  0.00    -0.063 C 
ATOM      8  C   UNL     1     137.244 100.235  91.306  1.00  0.00    -0.003 C 
ATOM      9  C   UNL     1     136.685  98.893  91.861  1.00  0.00    -0.011 C 
ATOM     10  C   UNL     1     135.571 103.264  93.551  1.00  0.00    -0.006 C 
ATOM     11  C   UNL     1     135.744 103.081  91.116  1.00  0.00    -0.027 C 
ATOM     12  C   UNL     1     136.711 100.486  89.885  1.00  0.00     0.008 C 
ATOM     13  C   UNL     1     135.145  98.801  91.847  1.00  0.00     0.008 C 
ATOM     14  C   UNL     1     136.295 104.661  93.587  1.00  0.00     0.017 C 
ATOM     15  C   UNL     1     133.967 103.434  93.454  1.00  0.00    -0.020 C 
ATOM     16  C   UNL     1     134.668 104.115  90.980  1.00  0.00     0.032 C 
ATOM     17  C   UNL     1     133.503 103.887  91.985  1.00  0.00     0.006 C 
ATOM     18  C   UNL     1     133.455 104.438  94.539  1.00  0.00     0.008 C 
ATOM     19  C   UNL     1     133.287 102.053  93.765  1.00  0.00     0.012 C 
ATOM     20  C   UNL     1     132.357 105.001  91.896  1.00  0.00    -0.025 C 
ATOM     21  C   UNL     1     131.950 104.749  94.478  1.00  0.00     0.005 C 
ATOM     22  C   UNL     1     131.324 104.736  93.053  1.00  0.00     0.003 C 
ATOM     23  C   UNL     1     131.617 104.835  90.523  1.00  0.00     0.010 C 
ATOM     24  C   UNL     1     132.961 106.441  91.947  1.00  0.00     0.012 C 
ATOM     25  C   UNL     1     129.918 105.467  92.959  1.00  0.00    -0.006 C 
ATOM     26  C   UNL     1     130.292 105.598  90.418  1.00  0.00     0.033 C 
ATOM     27  C   UNL     1     129.309 105.225  91.541  1.00  0.00     0.120 C 
ATOM     28  C   UNL     1     128.958 104.845  94.011  1.00  0.00     0.014 C 
ATOM     29  C   UNL     1     129.956 107.001  93.250  1.00  0.00     0.014 C 
ENDROOT
BRANCH   1  30
ATOM     30  C   UNL     1     139.266 100.775  93.793  1.00  0.00     0.048 C 
ATOM     31  O   UNL     1     140.027 101.185  92.875  1.00  0.00    -0.550 OA
ATOM     32  O   UNL     1     139.828 100.086  94.866  1.00  0.00    -0.550 OA
ENDBRANCH   1  30
BRANCH  27  33
ATOM     33  O   UNL     1     128.943 103.870  91.381  1.00  0.00    -0.393 OA
ATOM     34  H   UNL     1     128.199 103.831  90.729  1.00  0.00     0.210 HD
ENDBRANCH  27  33
TORSDOF 2
ENDMDL
MODEL 4
REMARK VINA RESULT:    -6.712      1.508      2.228
REMARK INTER + INTRA:          -7.288
REMARK INTER:                  -7.219
REMARK INTRA:                  -0.068
REMARK UNBOUND:                 0.013
REMARK SMILES C[C@@H]1[C@H](C)CC[C@]2(C(=O)[O-])CC[C@@]3(C)C(=CC[C@@H]4[C@@]5(C)CC[C@@H](O)C(C)(C)[C@@H]5CC[C@@]43C)[C@H]12
REMARK SMILES IDX 7 1 6 2 11 3 33 4 5 5 12 6 15 7 2 8 3 9 13 10 16 11 1 12
REMARK SMILES IDX 4 13 14 14 31 15 17 16 18 17 30 18 32 19 19 20 29 21 28 22
REMARK SMILES IDX 21 23 20 24 25 25 22 26 23 27 26 28 27 29 8 30 9 31 10 32
REMARK SMILES IDX 24 33
REMARK H PARENT 24 34
REMARK Flexibility Score: inf
ROOT
ATOM      1  C   UNL     1     138.270 101.462  91.202  1.00  0.00     0.017 C 
ATOM      2  C   UNL     1     138.878 101.993  92.539  1.00  0.00     0.014 C 
ATOM      3  C   UNL     1     137.845 102.674  90.339  1.00  0.00     0.014 C 
ATOM      4  C   UNL     1     137.049 100.484  91.466  1.00  0.00     0.030 C 
ATOM      5  C   UNL     1     139.346 100.877  93.455  1.00  0.00     0.004 C 
ATOM      6  C   UNL     1     136.660 103.435  90.937  1.00  0.00     0.013 C 
ATOM      7  C   UNL     1     135.630 101.145  91.455  1.00  0.00    -0.063 C 
ATOM      8  C   UNL     1     137.411  99.431  92.626  1.00  0.00    -0.003 C 
ATOM      9  C   UNL     1     138.174  99.987  93.864  1.00  0.00    -0.011 C 
ATOM     10  C   UNL     1     135.355 102.589  90.950  1.00  0.00    -0.006 C 
ATOM     11  C   UNL     1     134.538 100.346  91.490  1.00  0.00    -0.027 C 
ATOM     12  C   UNL     1     136.305  98.461  93.074  1.00  0.00     0.008 C 
ATOM     13  C   UNL     1     137.263 100.665  94.908  1.00  0.00     0.008 C 
ATOM     14  C   UNL     1     134.915 102.484  89.442  1.00  0.00     0.017 C 
ATOM     15  C   UNL     1     134.198 103.261  91.857  1.00  0.00    -0.020 C 
ATOM     16  C   UNL     1     133.133 100.862  91.426  1.00  0.00     0.032 C 
ATOM     17  C   UNL     1     132.983 102.245  92.120  1.00  0.00     0.006 C 
ATOM     18  C   UNL     1     133.690 104.587  91.202  1.00  0.00     0.008 C 
ATOM     19  C   UNL     1     134.805 103.652  93.251  1.00  0.00     0.012 C 
ATOM     20  C   UNL     1     131.502 102.846  92.031  1.00  0.00    -0.025 C 
ATOM     21  C   UNL     1     132.519 105.265  91.933  1.00  0.00     0.005 C 
ATOM     22  C   UNL     1     131.524 104.297  92.638  1.00  0.00     0.003 C 
ATOM     23  C   UNL     1     130.557 101.954  92.911  1.00  0.00     0.010 C 
ATOM     24  C   UNL     1     130.964 102.815  90.565  1.00  0.00     0.012 C 
ATOM     25  C   UNL     1     130.127 104.959  93.001  1.00  0.00    -0.006 C 
ATOM     26  C   UNL     1     129.186 102.573  93.201  1.00  0.00     0.033 C 
ATOM     27  C   UNL     1     129.294 103.958  93.864  1.00  0.00     0.120 C 
ATOM     28  C   UNL     1     130.382 106.235  93.850  1.00  0.00     0.014 C 
ATOM     29  C   UNL     1     129.277 105.410  91.771  1.00  0.00     0.014 C 
ENDROOT
BRANCH   1  30
ATOM     30  C   UNL     1     139.393 100.766  90.423  1.00  0.00     0.048 C 
ATOM     31  O   UNL     1     139.168  99.781  89.670  1.00  0.00    -0.550 OA
ATOM     32  O   UNL     1     140.702 101.231  90.538  1.00  0.00    -0.550 OA
ENDBRANCH   1  30
BRANCH  27  33
ATOM     33  O   UNL     1     129.879 103.796  95.140  1.00  0.00    -0.393 OA
ATOM     34  H   UNL     1     129.919 102.826  95.335  1.00  0.00     0.210 HD
ENDBRANCH  27  33
TORSDOF 2
ENDMDL
MODEL 5
REMARK VINA RESULT:    -6.663      1.687      3.940
REMARK INTER + INTRA:          -7.233
REMARK INTER:                  -7.123
REMARK INTRA:                  -0.110
REMARK UNBOUND:                 0.013
REMARK SMILES C[C@@H]1[C@H](C)CC[C@]2(C(=O)[O-])CC[C@@]3(C)C(=CC[C@@H]4[C@@]5(C)CC[C@@H](O)C(C)(C)[C@@H]5CC[C@@]43C)[C@H]12
REMARK SMILES IDX 7 1 6 2 11 3 33 4 5 5 12 6 15 7 2 8 3 9 13 10 16 11 1 12
REMARK SMILES IDX 4 13 14 14 31 15 17 16 18 17 30 18 32 19 19 20 29 21 28 22
REMARK SMILES IDX 21 23 20 24 25 25 22 26 23 27 26 28 27 29 8 30 9 31 10 32
REMARK SMILES IDX 24 33
REMARK H PARENT 24 34
REMARK Flexibility Score: inf
ROOT
ATOM      1  C   UNL     1     138.925 102.512  92.802  1.00  0.00     0.017 C 
ATOM      2  C   UNL     1     139.128 103.144  91.389  1.00  0.00     0.014 C 
ATOM      3  C   UNL     1     138.080 101.224  92.648  1.00  0.00     0.014 C 
ATOM      4  C   UNL     1     138.241 103.534  93.805  1.00  0.00     0.030 C 
ATOM      5  C   UNL     1     139.964 104.411  91.428  1.00  0.00     0.004 C 
ATOM      6  C   UNL     1     136.638 101.513  92.227  1.00  0.00     0.013 C 
ATOM      7  C   UNL     1     136.681 103.445  93.913  1.00  0.00    -0.063 C 
ATOM      8  C   UNL     1     138.936 104.980  93.696  1.00  0.00    -0.003 C 
ATOM      9  C   UNL     1     139.274 105.488  92.264  1.00  0.00    -0.011 C 
ATOM     10  C   UNL     1     135.842 102.278  93.323  1.00  0.00    -0.006 C 
ATOM     11  C   UNL     1     136.054 104.156  94.878  1.00  0.00    -0.027 C 
ATOM     12  C   UNL     1     138.336 106.120  94.537  1.00  0.00     0.008 C 
ATOM     13  C   UNL     1     138.077 106.122  91.525  1.00  0.00     0.008 C 
ATOM     14  C   UNL     1     135.614 101.231  94.476  1.00  0.00     0.017 C 
ATOM     15  C   UNL     1     134.439 102.858  92.768  1.00  0.00    -0.020 C 
ATOM     16  C   UNL     1     134.574 104.105  95.114  1.00  0.00     0.032 C 
ATOM     17  C   UNL     1     133.777 103.900  93.795  1.00  0.00     0.006 C 
ATOM     18  C   UNL     1     133.453 101.688  92.441  1.00  0.00     0.008 C 
ATOM     19  C   UNL     1     134.698 103.617  91.418  1.00  0.00     0.012 C 
ATOM     20  C   UNL     1     132.195 103.796  94.016  1.00  0.00    -0.025 C 
ATOM     21  C   UNL     1     132.049 102.128  91.993  1.00  0.00     0.005 C 
ATOM     22  C   UNL     1     131.528 103.447  92.634  1.00  0.00     0.003 C 
ATOM     23  C   UNL     1     131.671 105.201  94.479  1.00  0.00     0.010 C 
ATOM     24  C   UNL     1     131.845 102.761  95.131  1.00  0.00     0.012 C 
ATOM     25  C   UNL     1     129.959 103.650  92.508  1.00  0.00    -0.006 C 
ATOM     26  C   UNL     1     130.149 105.365  94.416  1.00  0.00     0.033 C 
ATOM     27  C   UNL     1     129.585 105.080  93.013  1.00  0.00     0.120 C 
ATOM     28  C   UNL     1     129.558 103.545  91.011  1.00  0.00     0.014 C 
ATOM     29  C   UNL     1     129.098 102.593  93.270  1.00  0.00     0.014 C 
ENDROOT
BRANCH   1  30
ATOM     30  C   UNL     1     140.297 102.054  93.311  1.00  0.00     0.048 C 
ATOM     31  O   UNL     1     140.660 102.239  94.504  1.00  0.00    -0.550 OA
ATOM     32  O   UNL     1     141.175 101.410  92.440  1.00  0.00    -0.550 OA
ENDBRANCH   1  30
BRANCH  27  33
ATOM     33  O   UNL     1     130.077 106.065  92.127  1.00  0.00    -0.393 OA
ATOM     34  H   UNL     1     129.497 106.864  92.209  1.00  0.00     0.210 HD
ENDBRANCH  27  33
TORSDOF 2
ENDMDL
MODEL 6
REMARK VINA RESULT:    -6.662      2.006      7.998
REMARK INTER + INTRA:          -7.233
REMARK INTER:                  -7.122
REMARK INTRA:                  -0.110
REMARK UNBOUND:                 0.013
REMARK SMILES C[C@@H]1[C@H](C)CC[C@]2(C(=O)[O-])CC[C@@]3(C)C(=CC[C@@H]4[C@@]5(C)CC[C@@H](O)C(C)(C)[C@@H]5CC[C@@]43C)[C@H]12
REMARK SMILES IDX 7 1 6 2 11 3 33 4 5 5 12 6 15 7 2 8 3 9 13 10 16 11 1 12
REMARK SMILES IDX 4 13 14 14 31 15 17 16 18 17 30 18 32 19 19 20 29 21 28 22
REMARK SMILES IDX 21 23 20 24 25 25 22 26 23 27 26 28 27 29 8 30 9 31 10 32
REMARK SMILES IDX 24 33
REMARK H PARENT 24 34
REMARK Flexibility Score: inf
ROOT
ATOM      1  C   UNL     1     131.013 106.175  92.763  1.00  0.00     0.017 C 
ATOM      2  C   UNL     1     130.821 106.210  91.214  1.00  0.00     0.014 C 
ATOM      3  C   UNL     1     132.381 106.813  93.104  1.00  0.00     0.014 C 
ATOM      4  C   UNL     1     130.908 104.696  93.329  1.00  0.00     0.030 C 
ATOM      5  C   UNL     1     129.493 105.621  90.774  1.00  0.00     0.004 C 
ATOM      6  C   UNL     1     133.561 105.964  92.626  1.00  0.00     0.013 C 
ATOM      7  C   UNL     1     132.263 103.926  93.483  1.00  0.00    -0.063 C 
ATOM      8  C   UNL     1     129.645 103.936  92.687  1.00  0.00    -0.003 C 
ATOM      9  C   UNL     1     129.401 104.147  91.164  1.00  0.00    -0.011 C 
ATOM     10  C   UNL     1     133.657 104.604  93.374  1.00  0.00    -0.006 C 
ATOM     11  C   UNL     1     132.266 102.736  94.127  1.00  0.00    -0.027 C 
ATOM     12  C   UNL     1     129.445 102.456  93.058  1.00  0.00     0.008 C 
ATOM     13  C   UNL     1     130.271 103.249  90.259  1.00  0.00     0.008 C 
ATOM     14  C   UNL     1     134.120 104.967  94.834  1.00  0.00     0.017 C 
ATOM     15  C   UNL     1     134.691 103.586  92.663  1.00  0.00    -0.020 C 
ATOM     16  C   UNL     1     133.509 101.938  94.385  1.00  0.00     0.032 C 
ATOM     17  C   UNL     1     134.554 102.095  93.244  1.00  0.00     0.006 C 
ATOM     18  C   UNL     1     136.159 104.109  92.802  1.00  0.00     0.008 C 
ATOM     19  C   UNL     1     134.378 103.531  91.126  1.00  0.00     0.012 C 
ATOM     20  C   UNL     1     135.912 101.290  93.509  1.00  0.00    -0.025 C 
ATOM     21  C   UNL     1     137.240 103.169  92.243  1.00  0.00     0.005 C 
ATOM     22  C   UNL     1     136.926 101.649  92.361  1.00  0.00     0.003 C 
ATOM     23  C   UNL     1     135.596  99.756  93.430  1.00  0.00     0.010 C 
ATOM     24  C   UNL     1     136.482 101.592  94.931  1.00  0.00     0.012 C 
ATOM     25  C   UNL     1     138.197 100.713  92.190  1.00  0.00    -0.006 C 
ATOM     26  C   UNL     1     136.832  98.856  93.331  1.00  0.00     0.033 C 
ATOM     27  C   UNL     1     137.733  99.223  92.139  1.00  0.00     0.120 C 
ATOM     28  C   UNL     1     138.891 101.050  90.842  1.00  0.00     0.014 C 
ATOM     29  C   UNL     1     139.285 100.876  93.299  1.00  0.00     0.014 C 
ENDROOT
BRANCH   1  30
ATOM     30  C   UNL     1     129.955 107.094  93.386  1.00  0.00     0.048 C 
ATOM     31  O   UNL     1     129.318 106.768  94.423  1.00  0.00    -0.550 OA
ATOM     32  O   UNL     1     129.687 108.331  92.801  1.00  0.00    -0.550 OA
ENDBRANCH   1  30
BRANCH  27  33
ATOM     33  O   UNL     1     137.020  98.964  90.946  1.00  0.00    -0.393 OA
ATOM     34  H   UNL     1     136.760  99.835  90.553  1.00  0.00     0.210 HD
ENDBRANCH  27  33
TORSDOF 2
ENDMDL
MODEL 7
REMARK VINA RESULT:    -6.498      2.924      8.971
REMARK INTER + INTRA:          -7.054
REMARK INTER:                  -6.945
REMARK INTRA:                  -0.109
REMARK UNBOUND:                 0.013
REMARK SMILES C[C@@H]1[C@H](C)CC[C@]2(C(=O)[O-])CC[C@@]3(C)C(=CC[C@@H]4[C@@]5(C)CC[C@@H](O)C(C)(C)[C@@H]5CC[C@@]43C)[C@H]12
REMARK SMILES IDX 7 1 6 2 11 3 33 4 5 5 12 6 15 7 2 8 3 9 13 10 16 11 1 12
REMARK SMILES IDX 4 13 14 14 31 15 17 16 18 17 30 18 32 19 19 20 29 21 28 22
REMARK SMILES IDX 21 23 20 24 25 25 22 26 23 27 26 28 27 29 8 30 9 31 10 32
REMARK SMILES IDX 24 33
REMARK H PARENT 24 34
REMARK Flexibility Score: inf
ROOT
ATOM      1  C   UNL     1     136.081 102.357  93.028  1.00  0.00     0.017 C 
ATOM      2  C   UNL     1     135.733 101.474  91.788  1.00  0.00     0.014 C 
ATOM      3  C   UNL     1     136.823 103.623  92.536  1.00  0.00     0.014 C 
ATOM      4  C   UNL     1     136.946 101.556  94.089  1.00  0.00     0.030 C 
ATOM      5  C   UNL     1     134.983 100.208  92.161  1.00  0.00     0.004 C 
ATOM      6  C   UNL     1     138.213 103.311  91.978  1.00  0.00     0.013 C 
ATOM      7  C   UNL     1     138.499 101.715  93.964  1.00  0.00    -0.063 C 
ATOM      8  C   UNL     1     136.327 100.091  94.329  1.00  0.00    -0.003 C 
ATOM      9  C   UNL     1     135.836  99.323  93.068  1.00  0.00    -0.011 C 
ATOM     10  C   UNL     1     139.187 102.784  93.070  1.00  0.00    -0.006 C 
ATOM     11  C   UNL     1     139.286 101.210  94.942  1.00  0.00    -0.027 C 
ATOM     12  C   UNL     1     137.095  99.142  95.265  1.00  0.00     0.008 C 
ATOM     13  C   UNL     1     136.961  98.606  92.293  1.00  0.00     0.008 C 
ATOM     14  C   UNL     1     139.501 104.028  93.981  1.00  0.00     0.017 C 
ATOM     15  C   UNL     1     140.537 102.160  92.436  1.00  0.00    -0.020 C 
ATOM     16  C   UNL     1     140.778 101.352  94.959  1.00  0.00     0.032 C 
ATOM     17  C   UNL     1     141.385 101.343  93.528  1.00  0.00     0.006 C 
ATOM     18  C   UNL     1     141.403 103.284  91.779  1.00  0.00     0.008 C 
ATOM     19  C   UNL     1     140.149 101.163  91.288  1.00  0.00     0.012 C 
ATOM     20  C   UNL     1     142.974 101.538  93.507  1.00  0.00    -0.025 C 
ATOM     21  C   UNL     1     142.760 102.819  91.225  1.00  0.00     0.005 C 
ATOM     22  C   UNL     1     143.434 101.654  92.007  1.00  0.00     0.003 C 
ATOM     23  C   UNL     1     143.632 100.257  94.131  1.00  0.00     0.010 C 
ATOM     24  C   UNL     1     143.405 102.768  94.367  1.00  0.00     0.012 C 
ATOM     25  C   UNL     1     144.984 101.484  91.704  1.00  0.00    -0.006 C 
ATOM     26  C   UNL     1     145.141 100.135  93.889  1.00  0.00     0.033 C 
ATOM     27  C   UNL     1     145.501 100.182  92.393  1.00  0.00     0.120 C 
ATOM     28  C   UNL     1     145.180 101.331  90.170  1.00  0.00     0.014 C 
ATOM     29  C   UNL     1     145.874 102.689  92.145  1.00  0.00     0.014 C 
ENDROOT
BRANCH   1  30
ATOM     30  C   UNL     1     134.762 102.852  93.633  1.00  0.00     0.048 C 
ATOM     31  O   UNL     1     134.514 102.747  94.864  1.00  0.00    -0.550 OA
ATOM     32  O   UNL     1     133.805 103.443  92.809  1.00  0.00    -0.550 OA
ENDBRANCH   1  30
BRANCH  27  33
ATOM     33  O   UNL     1     144.956  99.038  91.768  1.00  0.00    -0.393 OA
ATOM     34  H   UNL     1     144.049  98.892  92.139  1.00  0.00     0.210 HD
ENDBRANCH  27  33
TORSDOF 2
ENDMDL
MODEL 8
REMARK VINA RESULT:    -6.481      2.941      4.568
REMARK INTER + INTRA:          -7.035
REMARK INTER:                  -7.049
REMARK INTRA:                   0.013
REMARK UNBOUND:                 0.013
REMARK SMILES C[C@@H]1[C@H](C)CC[C@]2(C(=O)[O-])CC[C@@]3(C)C(=CC[C@@H]4[C@@]5(C)CC[C@@H](O)C(C)(C)[C@@H]5CC[C@@]43C)[C@H]12
REMARK SMILES IDX 7 1 6 2 11 3 33 4 5 5 12 6 15 7 2 8 3 9 13 10 16 11 1 12
REMARK SMILES IDX 4 13 14 14 31 15 17 16 18 17 30 18 32 19 19 20 29 21 28 22
REMARK SMILES IDX 21 23 20 24 25 25 22 26 23 27 26 28 27 29 8 30 9 31 10 32
REMARK SMILES IDX 24 33
REMARK H PARENT 24 34
REMARK Flexibility Score: inf
ROOT
ATOM      1  C   UNL     1     136.564  99.625  93.367  1.00  0.00     0.017 C 
ATOM      2  C   UNL     1     135.569  99.018  92.328  1.00  0.00     0.014 C 
ATOM      3  C   UNL     1     135.748 100.346  94.467  1.00  0.00     0.014 C 
ATOM      4  C   UNL     1     137.599 100.610  92.676  1.00  0.00     0.030 C 
ATOM      5  C   UNL     1     136.272  98.270  91.210  1.00  0.00     0.004 C 
ATOM      6  C   UNL     1     135.040 101.599  93.947  1.00  0.00     0.013 C 
ATOM      7  C   UNL     1     137.203 102.125  92.676  1.00  0.00    -0.063 C 
ATOM      8  C   UNL     1     138.187  99.956  91.330  1.00  0.00    -0.003 C 
ATOM      9  C   UNL     1     137.173  99.211  90.413  1.00  0.00    -0.011 C 
ATOM     10  C   UNL     1     136.039 102.712  93.521  1.00  0.00    -0.006 C 
ATOM     11  C   UNL     1     138.117 103.037  92.270  1.00  0.00    -0.027 C 
ATOM     12  C   UNL     1     139.141 100.815  90.482  1.00  0.00     0.008 C 
ATOM     13  C   UNL     1     136.367 100.142  89.484  1.00  0.00     0.008 C 
ATOM     14  C   UNL     1     136.656 103.252  94.864  1.00  0.00     0.017 C 
ATOM     15  C   UNL     1     135.318 103.894  92.686  1.00  0.00    -0.020 C 
ATOM     16  C   UNL     1     137.872 104.515  92.282  1.00  0.00     0.032 C 
ATOM     17  C   UNL     1     136.387 104.867  91.986  1.00  0.00     0.006 C 
ATOM     18  C   UNL     1     134.345 104.701  93.608  1.00  0.00     0.008 C 
ATOM     19  C   UNL     1     134.438 103.257  91.554  1.00  0.00     0.012 C 
ATOM     20  C   UNL     1     136.081 106.437  92.035  1.00  0.00    -0.025 C 
ATOM     21  C   UNL     1     133.673 105.913  92.942  1.00  0.00     0.005 C 
ATOM     22  C   UNL     1     134.530 106.641  91.865  1.00  0.00     0.003 C 
ATOM     23  C   UNL     1     136.807 107.116  90.820  1.00  0.00     0.010 C 
ATOM     24  C   UNL     1     136.633 107.082  93.346  1.00  0.00     0.012 C 
ATOM     25  C   UNL     1     134.019 108.102  91.513  1.00  0.00    -0.006 C 
ATOM     26  C   UNL     1     136.354 108.550  90.529  1.00  0.00     0.033 C 
ATOM     27  C   UNL     1     134.835 108.652  90.300  1.00  0.00     0.120 C 
ATOM     28  C   UNL     1     132.525 108.024  91.096  1.00  0.00     0.014 C 
ATOM     29  C   UNL     1     134.096 109.125  92.691  1.00  0.00     0.014 C 
ENDROOT
BRANCH   1  30
ATOM     30  C   UNL     1     137.275  98.461  94.068  1.00  0.00     0.048 C 
ATOM     31  O   UNL     1     136.764  97.310  94.129  1.00  0.00    -0.550 OA
ATOM     32  O   UNL     1     138.524  98.667  94.652  1.00  0.00    -0.550 OA
ENDBRANCH   1  30
BRANCH  27  33
ATOM     33  O   UNL     1     134.515 107.940  89.121  1.00  0.00    -0.393 OA
ATOM     34  H   UNL     1     133.860 107.237  89.360  1.00  0.00     0.210 HD
ENDBRANCH  27  33
TORSDOF 2
ENDMDL
MODEL 9
REMARK VINA RESULT:    -6.340      1.875      7.992
REMARK INTER + INTRA:          -6.883
REMARK INTER:                  -6.770
REMARK INTRA:                  -0.112
REMARK UNBOUND:                 0.013
REMARK SMILES C[C@@H]1[C@H](C)CC[C@]2(C(=O)[O-])CC[C@@]3(C)C(=CC[C@@H]4[C@@]5(C)CC[C@@H](O)C(C)(C)[C@@H]5CC[C@@]43C)[C@H]12
REMARK SMILES IDX 7 1 6 2 11 3 33 4 5 5 12 6 15 7 2 8 3 9 13 10 16 11 1 12
REMARK SMILES IDX 4 13 14 14 31 15 17 16 18 17 30 18 32 19 19 20 29 21 28 22
REMARK SMILES IDX 21 23 20 24 25 25 22 26 23 27 26 28 27 29 8 30 9 31 10 32
REMARK SMILES IDX 24 33
REMARK H PARENT 24 34
REMARK Flexibility Score: inf
ROOT
ATOM      1  C   UNL     1     131.407 105.265  92.120  1.00  0.00     0.017 C 
ATOM      2  C   UNL     1     131.657 106.343  93.221  1.00  0.00     0.014 C 
ATOM      3  C   UNL     1     131.091 103.918  92.815  1.00  0.00     0.014 C 
ATOM      4  C   UNL     1     132.649 105.132  91.142  1.00  0.00     0.030 C 
ATOM      5  C   UNL     1     131.961 107.713  92.642  1.00  0.00     0.004 C 
ATOM      6  C   UNL     1     132.300 103.336  93.550  1.00  0.00     0.013 C 
ATOM      7  C   UNL     1     133.694 104.026  91.511  1.00  0.00    -0.063 C 
ATOM      8  C   UNL     1     133.174 106.586  90.698  1.00  0.00    -0.003 C 
ATOM      9  C   UNL     1     133.240 107.675  91.807  1.00  0.00    -0.011 C 
ATOM     10  C   UNL     1     133.444 102.925  92.579  1.00  0.00    -0.006 C 
ATOM     11  C   UNL     1     134.676 103.736  90.626  1.00  0.00    -0.027 C 
ATOM     12  C   UNL     1     134.434 106.646  89.817  1.00  0.00     0.008 C 
ATOM     13  C   UNL     1     134.506 107.601  92.685  1.00  0.00     0.008 C 
ATOM     14  C   UNL     1     132.909 101.651  91.825  1.00  0.00     0.017 C 
ATOM     15  C   UNL     1     134.825 102.613  93.358  1.00  0.00    -0.020 C 
ATOM     16  C   UNL     1     135.696 102.660  90.845  1.00  0.00     0.032 C 
ATOM     17  C   UNL     1     136.067 102.499  92.346  1.00  0.00     0.006 C 
ATOM     18  C   UNL     1     134.685 101.318  94.224  1.00  0.00     0.008 C 
ATOM     19  C   UNL     1     135.126 103.789  94.354  1.00  0.00     0.012 C 
ATOM     20  C   UNL     1     137.121 101.326  92.621  1.00  0.00    -0.025 C 
ATOM     21  C   UNL     1     135.972 100.872  94.938  1.00  0.00     0.005 C 
ATOM     22  C   UNL     1     137.296 101.177  94.178  1.00  0.00     0.003 C 
ATOM     23  C   UNL     1     138.500 101.753  92.006  1.00  0.00     0.010 C 
ATOM     24  C   UNL     1     136.680  99.994  91.935  1.00  0.00     0.012 C 
ATOM     25  C   UNL     1     138.545 100.346  94.697  1.00  0.00    -0.006 C 
ATOM     26  C   UNL     1     139.691 100.903  92.462  1.00  0.00     0.033 C 
ATOM     27  C   UNL     1     139.838 100.871  93.993  1.00  0.00     0.120 C 
ATOM     28  C   UNL     1     138.699 100.575  96.225  1.00  0.00     0.014 C 
ATOM     29  C   UNL     1     138.437  98.802  94.490  1.00  0.00     0.014 C 
ENDROOT
BRANCH   1  30
ATOM     30  C   UNL     1     130.132 105.656  91.364  1.00  0.00     0.048 C 
ATOM     31  O   UNL     1     130.051 105.571  90.109  1.00  0.00    -0.550 OA
ATOM     32  O   UNL     1     129.023 106.114  92.074  1.00  0.00    -0.550 OA
ENDBRANCH   1  30
BRANCH  27  33
ATOM     33  O   UNL     1     140.151 102.175  94.438  1.00  0.00    -0.393 OA
ATOM     34  H   UNL     1     141.078 102.378  94.155  1.00  0.00     0.210 HD
ENDBRANCH  27  33
TORSDOF 2
ENDMDL
