MODEL 1
REMARK VINA RESULT:    -2.112      0.000      0.000
REMARK INTER + INTRA:          -3.801
REMARK INTER:                  -2.790
REMARK INTRA:                  -1.010
REMARK UNBOUND:                -1.010
REMARK SMILES CC[C@H](C=C[C@@H](C)[C@H]1CC[C@H]2[C@@H]3CC=C4C[C@@H](O)CC[C@@]4(C)[C@@H]3CC[C@]12C)C(C)C
REMARK SMILES IDX 6 1 7 2 5 3 4 4 3 5 2 6 1 7 28 8 29 9 30 10 8 11 9 12 26 13
REMARK SMILES IDX 10 14 11 15 25 16 27 17 12 18 24 19 23 20 13 21 21 22 14 23
REMARK SMILES IDX 15 24 20 25 22 26 16 27 19 28 17 29 18 30
REMARK H PARENT 18 31
REMARK Flexibility Score: inf
ROOT
ATOM      1  C   UNL     1       3.470  46.569   8.755  1.00  0.00     0.012 C 
ATOM      2  C   UNL     1       4.698  47.479   8.895  1.00  0.00     0.012 C 
ENDROOT
BRANCH   1   3
ATOM      3  C   UNL     1       2.325  47.408   8.231  1.00  0.00    -0.028 C 
ATOM      4  C   UNL     1       1.242  46.852   7.658  1.00  0.00    -0.027 C 
BRANCH   4   5
ATOM      5  C   UNL     1       0.053  47.657   7.170  1.00  0.00     0.014 C 
BRANCH   5   6
ATOM      6  C   UNL     1      -1.090  46.714   6.706  1.00  0.00     0.004 C 
ATOM      7  C   UNL     1      -0.721  45.231   6.749  1.00  0.00     0.004 C 
ENDBRANCH   5   6
BRANCH   5   8
ATOM      8  C   UNL     1      -0.328  48.769   8.208  1.00  0.00    -0.011 C 
ATOM      9  C   UNL     1      -1.053  49.955   7.550  1.00  0.00     0.008 C 
ATOM     10  C   UNL     1      -1.123  48.269   9.425  1.00  0.00     0.008 C 
ENDBRANCH   5   8
ENDBRANCH   4   5
ENDBRANCH   1   3
BRANCH   1  11
ATOM     11  C   UNL     1       3.058  45.914  10.110  1.00  0.00     0.002 C 
ATOM     12  C   UNL     1       1.684  46.427  10.613  1.00  0.00     0.005 C 
ATOM     13  C   UNL     1       2.921  44.361  10.159  1.00  0.00    -0.026 C 
ATOM     14  C   UNL     1       1.029  45.277  11.390  1.00  0.00     0.005 C 
ATOM     15  C   UNL     1       2.106  44.205  11.458  1.00  0.00    -0.001 C 
ATOM     16  C   UNL     1       4.268  43.584  10.312  1.00  0.00     0.007 C 
ATOM     17  C   UNL     1       2.149  43.838   8.907  1.00  0.00     0.012 C 
ATOM     18  C   UNL     1       1.654  42.748  11.711  1.00  0.00     0.000 C 
ATOM     19  C   UNL     1       4.235  42.468  11.390  1.00  0.00     0.005 C 
ATOM     20  C   UNL     1       2.857  41.743  11.510  1.00  0.00     0.003 C 
ATOM     21  C   UNL     1       0.993  42.611  13.086  1.00  0.00     0.031 C 
ATOM     22  C   UNL     1       2.887  40.503  12.514  1.00  0.00    -0.008 C 
ATOM     23  C   UNL     1       0.624  41.181  13.329  1.00  0.00    -0.027 C 
ATOM     24  C   UNL     1       1.474  40.180  13.028  1.00  0.00    -0.065 C 
ATOM     25  C   UNL     1       3.474  39.272  11.750  1.00  0.00     0.014 C 
ATOM     26  C   UNL     1       3.775  40.781  13.759  1.00  0.00     0.016 C 
ATOM     27  C   UNL     1       1.125  38.787  13.520  1.00  0.00     0.063 C 
ATOM     28  C   UNL     1       3.242  37.932  12.459  1.00  0.00     0.033 C 
ATOM     29  C   UNL     1       1.748  37.679  12.664  1.00  0.00     0.118 C 
BRANCH  29  30
ATOM     30  O   UNL     1       1.100  37.601  11.418  1.00  0.00    -0.393 OA
ATOM     31  H   UNL     1       0.285  37.050  11.550  1.00  0.00     0.210 HD
ENDBRANCH  29  30
ENDBRANCH   1  11
TORSDOF 6
ENDMDL
MODEL 2
REMARK VINA RESULT:    -1.907      2.668      8.557
REMARK INTER + INTRA:          -3.530
REMARK INTER:                  -3.571
REMARK INTRA:                   0.041
REMARK UNBOUND:                -1.010
REMARK SMILES CC[C@H](C=C[C@@H](C)[C@H]1CC[C@H]2[C@@H]3CC=C4C[C@@H](O)CC[C@@]4(C)[C@@H]3CC[C@]12C)C(C)C
REMARK SMILES IDX 6 1 7 2 5 3 4 4 3 5 2 6 1 7 28 8 29 9 30 10 8 11 9 12 26 13
REMARK SMILES IDX 10 14 11 15 25 16 27 17 12 18 24 19 23 20 13 21 21 22 14 23
REMARK SMILES IDX 15 24 20 25 22 26 16 27 19 28 17 29 18 30
REMARK H PARENT 18 31
REMARK Flexibility Score: inf
ROOT
ATOM      1  C   UNL     1       3.068  41.375  12.775  1.00  0.00     0.012 C 
ATOM      2  C   UNL     1       4.378  41.443  11.978  1.00  0.00     0.012 C 
ENDROOT
BRANCH   1   3
ATOM      3  C   UNL     1       2.717  39.917  12.972  1.00  0.00    -0.028 C 
ATOM      4  C   UNL     1       1.496  39.435  12.680  1.00  0.00    -0.027 C 
BRANCH   4   5
ATOM      5  C   UNL     1       1.125  37.970  12.815  1.00  0.00     0.014 C 
BRANCH   5   6
ATOM      6  C   UNL     1      -0.400  37.816  13.068  1.00  0.00     0.004 C 
ATOM      7  C   UNL     1      -1.125  39.142  13.294  1.00  0.00     0.004 C 
ENDBRANCH   5   6
BRANCH   5   8
ATOM      8  C   UNL     1       1.733  37.133  11.636  1.00  0.00    -0.011 C 
ATOM      9  C   UNL     1       3.261  36.999  11.746  1.00  0.00     0.008 C 
ATOM     10  C   UNL     1       1.091  35.752  11.429  1.00  0.00     0.008 C 
ENDBRANCH   5   8
ENDBRANCH   4   5
ENDBRANCH   1   3
BRANCH   1  11
ATOM     11  C   UNL     1       1.892  42.100  12.049  1.00  0.00     0.002 C 
ATOM     12  C   UNL     1       0.671  42.312  12.981  1.00  0.00     0.005 C 
ATOM     13  C   UNL     1       2.162  43.516  11.454  1.00  0.00    -0.026 C 
ATOM     14  C   UNL     1      -0.020  43.606  12.534  1.00  0.00     0.005 C 
ATOM     15  C   UNL     1       0.714  44.007  11.262  1.00  0.00    -0.001 C 
ATOM     16  C   UNL     1       2.885  43.524  10.069  1.00  0.00     0.007 C 
ATOM     17  C   UNL     1       2.957  44.396  12.471  1.00  0.00     0.012 C 
ATOM     18  C   UNL     1       0.634  45.487  10.824  1.00  0.00     0.000 C 
ATOM     19  C   UNL     1       2.240  44.473   9.025  1.00  0.00     0.005 C 
ATOM     20  C   UNL     1       1.639  45.777   9.639  1.00  0.00     0.003 C 
ATOM     21  C   UNL     1      -0.806  45.883  10.488  1.00  0.00     0.031 C 
ATOM     22  C   UNL     1       1.116  46.806   8.536  1.00  0.00    -0.008 C 
ATOM     23  C   UNL     1      -0.843  47.300  10.007  1.00  0.00    -0.027 C 
ATOM     24  C   UNL     1       0.071  47.763   9.132  1.00  0.00    -0.065 C 
ATOM     25  C   UNL     1       2.344  47.616   8.004  1.00  0.00     0.014 C 
ATOM     26  C   UNL     1       0.444  46.083   7.336  1.00  0.00     0.016 C 
ATOM     27  C   UNL     1      -0.173  49.130   8.517  1.00  0.00     0.063 C 
ATOM     28  C   UNL     1       1.963  48.870   7.209  1.00  0.00     0.033 C 
ATOM     29  C   UNL     1       1.119  49.818   8.063  1.00  0.00     0.118 C 
BRANCH  29  30
ATOM     30  O   UNL     1       1.861  50.248   9.177  1.00  0.00    -0.393 OA
ATOM     31  H   UNL     1       1.619  49.651   9.932  1.00  0.00     0.210 HD
ENDBRANCH  29  30
ENDBRANCH   1  11
TORSDOF 6
ENDMDL
MODEL 3
REMARK VINA RESULT:    -1.704      2.632      8.547
REMARK INTER + INTRA:          -3.262
REMARK INTER:                  -2.573
REMARK INTRA:                  -0.689
REMARK UNBOUND:                -1.010
REMARK SMILES CC[C@H](C=C[C@@H](C)[C@H]1CC[C@H]2[C@@H]3CC=C4C[C@@H](O)CC[C@@]4(C)[C@@H]3CC[C@]12C)C(C)C
REMARK SMILES IDX 6 1 7 2 5 3 4 4 3 5 2 6 1 7 28 8 29 9 30 10 8 11 9 12 26 13
REMARK SMILES IDX 10 14 11 15 25 16 27 17 12 18 24 19 23 20 13 21 21 22 14 23
REMARK SMILES IDX 15 24 20 25 22 26 16 27 19 28 17 29 18 30
REMARK H PARENT 18 31
REMARK Flexibility Score: inf
ROOT
ATOM      1  C   UNL     1       3.761  42.221  12.342  1.00  0.00     0.012 C 
ATOM      2  C   UNL     1       4.881  41.172  12.350  1.00  0.00     0.012 C 
ENDROOT
BRANCH   1   3
ATOM      3  C   UNL     1       2.507  41.569  12.882  1.00  0.00    -0.028 C 
ATOM      4  C   UNL     1       2.404  40.236  13.020  1.00  0.00    -0.027 C 
BRANCH   4   5
ATOM      5  C   UNL     1       1.183  39.552  13.607  1.00  0.00     0.014 C 
BRANCH   5   6
ATOM      6  C   UNL     1      -0.077  40.444  13.433  1.00  0.00     0.004 C 
ATOM      7  C   UNL     1      -0.643  40.974  14.750  1.00  0.00     0.004 C 
ENDBRANCH   5   6
BRANCH   5   8
ATOM      8  C   UNL     1       1.076  38.073  13.096  1.00  0.00    -0.011 C 
ATOM      9  C   UNL     1      -0.309  37.761  12.504  1.00  0.00     0.008 C 
ATOM     10  C   UNL     1       2.180  37.649  12.114  1.00  0.00     0.008 C 
ENDBRANCH   5   8
ENDBRANCH   4   5
ENDBRANCH   1   3
BRANCH   1  11
ATOM     11  C   UNL     1       3.483  42.783  10.913  1.00  0.00     0.002 C 
ATOM     12  C   UNL     1       2.586  41.834  10.077  1.00  0.00     0.005 C 
ATOM     13  C   UNL     1       2.777  44.168  10.797  1.00  0.00    -0.026 C 
ATOM     14  C   UNL     1       1.757  42.712   9.131  1.00  0.00     0.005 C 
ATOM     15  C   UNL     1       2.319  44.113   9.326  1.00  0.00    -0.001 C 
ATOM     16  C   UNL     1       3.713  45.404  10.987  1.00  0.00     0.007 C 
ATOM     17  C   UNL     1       1.575  44.257  11.790  1.00  0.00     0.012 C 
ATOM     18  C   UNL     1       1.421  45.308   8.932  1.00  0.00     0.000 C 
ATOM     19  C   UNL     1       3.524  46.511   9.916  1.00  0.00     0.005 C 
ATOM     20  C   UNL     1       2.052  46.671   9.422  1.00  0.00     0.003 C 
ATOM     21  C   UNL     1       1.125  45.299   7.429  1.00  0.00     0.031 C 
ATOM     22  C   UNL     1       1.853  47.910   8.436  1.00  0.00    -0.008 C 
ATOM     23  C   UNL     1       0.309  46.500   7.067  1.00  0.00    -0.027 C 
ATOM     24  C   UNL     1       0.603  47.718   7.561  1.00  0.00    -0.065 C 
ATOM     25  C   UNL     1       1.710  49.204   9.301  1.00  0.00     0.014 C 
ATOM     26  C   UNL     1       3.061  48.090   7.475  1.00  0.00     0.016 C 
ATOM     27  C   UNL     1      -0.119  48.914   6.965  1.00  0.00     0.063 C 
ATOM     28  C   UNL     1       1.166  50.412   8.528  1.00  0.00     0.033 C 
ATOM     29  C   UNL     1      -0.208  50.100   7.931  1.00  0.00     0.118 C 
BRANCH  29  30
ATOM     30  O   UNL     1      -1.125  49.825   8.960  1.00  0.00    -0.393 OA
ATOM     31  H   UNL     1      -1.269  48.842   8.963  1.00  0.00     0.210 HD
ENDBRANCH  29  30
ENDBRANCH   1  11
TORSDOF 6
ENDMDL
MODEL 4
REMARK VINA RESULT:    -1.030      1.529      3.442
REMARK INTER + INTRA:          -2.372
REMARK INTER:                  -3.496
REMARK INTRA:                   1.125
REMARK UNBOUND:                -1.010
REMARK SMILES CC[C@H](C=C[C@@H](C)[C@H]1CC[C@H]2[C@@H]3CC=C4C[C@@H](O)CC[C@@]4(C)[C@@H]3CC[C@]12C)C(C)C
REMARK SMILES IDX 6 1 7 2 5 3 4 4 3 5 2 6 1 7 28 8 29 9 30 10 8 11 9 12 26 13
REMARK SMILES IDX 10 14 11 15 25 16 27 17 12 18 24 19 23 20 13 21 21 22 14 23
REMARK SMILES IDX 15 24 20 25 22 26 16 27 19 28 17 29 18 30
REMARK H PARENT 18 31
REMARK Flexibility Score: inf
ROOT
ATOM      1  C   UNL     1       0.208  47.271   7.745  1.00  0.00     0.012 C 
ATOM      2  C   UNL     1      -0.431  46.251   6.792  1.00  0.00     0.012 C 
ENDROOT
BRANCH   1   3
ATOM      3  C   UNL     1       1.608  47.561   7.247  1.00  0.00    -0.028 C 
ATOM      4  C   UNL     1       2.582  47.980   8.073  1.00  0.00    -0.027 C 
BRANCH   4   5
ATOM      5  C   UNL     1       4.008  48.229   7.620  1.00  0.00     0.014 C 
BRANCH   5   6
ATOM      6  C   UNL     1       4.204  49.720   7.233  1.00  0.00     0.004 C 
ATOM      7  C   UNL     1       2.907  50.530   7.222  1.00  0.00     0.004 C 
ENDBRANCH   5   6
BRANCH   5   8
ATOM      8  C   UNL     1       5.030  47.626   8.645  1.00  0.00    -0.011 C 
ATOM      9  C   UNL     1       6.321  48.457   8.736  1.00  0.00     0.008 C 
ATOM     10  C   UNL     1       4.460  47.375  10.051  1.00  0.00     0.008 C 
ENDBRANCH   5   8
ENDBRANCH   4   5
ENDBRANCH   1   3
BRANCH   1  11
ATOM     11  C   UNL     1       0.276  46.751   9.214  1.00  0.00     0.002 C 
ATOM     12  C   UNL     1      -1.125  46.681   9.874  1.00  0.00     0.005 C 
ATOM     13  C   UNL     1       0.881  45.336   9.462  1.00  0.00    -0.026 C 
ATOM     14  C   UNL     1      -1.096  45.517  10.874  1.00  0.00     0.005 C 
ATOM     15  C   UNL     1       0.357  45.066  10.886  1.00  0.00    -0.001 C 
ATOM     16  C   UNL     1       2.442  45.278   9.479  1.00  0.00     0.007 C 
ATOM     17  C   UNL     1       0.326  44.311   8.421  1.00  0.00     0.012 C 
ATOM     18  C   UNL     1       0.659  43.630  11.374  1.00  0.00     0.000 C 
ATOM     19  C   UNL     1       3.032  44.473  10.667  1.00  0.00     0.005 C 
ATOM     20  C   UNL     1       2.165  43.246  11.094  1.00  0.00     0.003 C 
ATOM     21  C   UNL     1       0.269  43.458  12.845  1.00  0.00     0.031 C 
ATOM     22  C   UNL     1       2.862  42.347  12.214  1.00  0.00    -0.008 C 
ATOM     23  C   UNL     1       0.630  42.082  13.308  1.00  0.00    -0.027 C 
ATOM     24  C   UNL     1       1.815  41.526  12.986  1.00  0.00    -0.065 C 
ATOM     25  C   UNL     1       3.879  41.391  11.509  1.00  0.00     0.014 C 
ATOM     26  C   UNL     1       3.631  43.205  13.256  1.00  0.00     0.016 C 
ATOM     27  C   UNL     1       2.200  40.234  13.685  1.00  0.00     0.063 C 
ATOM     28  C   UNL     1       4.362  40.236  12.394  1.00  0.00     0.033 C 
ATOM     29  C   UNL     1       3.183  39.386  12.870  1.00  0.00     0.118 C 
BRANCH  29  30
ATOM     30  O   UNL     1       2.532  38.811  11.764  1.00  0.00    -0.393 OA
ATOM     31  H   UNL     1       3.214  38.288  11.267  1.00  0.00     0.210 HD
ENDBRANCH  29  30
ENDBRANCH   1  11
TORSDOF 6
ENDMDL
