MODEL 1
REMARK VINA RESULT:    -3.257      0.000      0.000
REMARK INTER + INTRA:          -7.258
REMARK INTER:                  -5.543
REMARK INTRA:                  -1.715
REMARK UNBOUND:                -1.715
REMARK SMILES CCCCCCCCCCCCCC(=O)[O-]
REMARK SMILES IDX 8 1 9 2 10 3 11 4 12 5 13 6 14 7 15 8 16 9 7 10 6 11 5 12
REMARK SMILES IDX 4 13 3 14 2 15 1 16
REMARK H PARENT
REMARK Flexibility Score: inf
ROOT
ATOM      1  C   UNL     1      -1.832   9.602   4.505  1.00  0.00     0.000 C 
ENDROOT
BRANCH   1   2
ATOM      2  C   UNL     1      -1.558   9.179   3.053  1.00  0.00     0.000 C 
BRANCH   2   3
ATOM      3  C   UNL     1      -0.555   8.020   2.950  1.00  0.00     0.000 C 
BRANCH   3   4
ATOM      4  C   UNL     1       0.074   7.718   4.319  1.00  0.00     0.000 C 
BRANCH   4   5
ATOM      5  C   UNL     1       1.583   8.012   4.355  1.00  0.00     0.006 C 
BRANCH   5   6
ATOM      6  C   UNL     1       1.902   9.401   4.923  1.00  0.00     0.053 C 
BRANCH   6   7
ATOM      7  C   UNL     1       1.695   9.418   6.405  1.00  0.00     0.041 C 
ATOM      8  O   UNL     1       0.746  10.076   6.905  1.00  0.00    -0.550 OA
ATOM      9  O   UNL     1       2.521   8.667   7.230  1.00  0.00    -0.550 OA
ENDBRANCH   6   7
ENDBRANCH   5   6
ENDBRANCH   4   5
ENDBRANCH   3   4
ENDBRANCH   2   3
ENDBRANCH   1   2
BRANCH   1  10
ATOM     10  C   UNL     1      -3.293  10.031   4.729  1.00  0.00     0.000 C 
BRANCH  10  11
ATOM     11  C   UNL     1      -4.088  10.125   3.416  1.00  0.00    -0.000 C 
BRANCH  11  12
ATOM     12  C   UNL     1      -5.340   9.235   3.415  1.00  0.00    -0.000 C 
BRANCH  12  13
ATOM     13  C   UNL     1      -5.088   7.933   2.646  1.00  0.00    -0.000 C 
BRANCH  13  14
ATOM     14  C   UNL     1      -4.529   6.844   3.575  1.00  0.00    -0.000 C 
BRANCH  14  15
ATOM     15  C   UNL     1      -3.558   5.896   2.855  1.00  0.00    -0.003 C 
ATOM     16  C   UNL     1      -3.453   6.182   1.357  1.00  0.00     0.004 C 
ENDBRANCH  14  15
ENDBRANCH  13  14
ENDBRANCH  12  13
ENDBRANCH  11  12
ENDBRANCH  10  11
ENDBRANCH   1  10
TORSDOF 12
ENDMDL
MODEL 2
REMARK VINA RESULT:    -3.092      3.193      6.360
REMARK INTER + INTRA:          -6.977
REMARK INTER:                  -5.810
REMARK INTRA:                  -1.167
REMARK UNBOUND:                -1.715
REMARK SMILES CCCCCCCCCCCCCC(=O)[O-]
REMARK SMILES IDX 8 1 9 2 10 3 11 4 12 5 13 6 14 7 15 8 16 9 7 10 6 11 5 12
REMARK SMILES IDX 4 13 3 14 2 15 1 16
REMARK H PARENT
REMARK Flexibility Score: inf
ROOT
ATOM      1  C   UNL     1      -0.401   9.088   4.302  1.00  0.00     0.000 C 
ENDROOT
BRANCH   1   2
ATOM      2  C   UNL     1      -1.715   9.566   3.663  1.00  0.00     0.000 C 
BRANCH   2   3
ATOM      3  C   UNL     1      -2.809   9.858   4.701  1.00  0.00     0.000 C 
BRANCH   3   4
ATOM      4  C   UNL     1      -4.154   9.258   4.263  1.00  0.00     0.000 C 
BRANCH   4   5
ATOM      5  C   UNL     1      -4.123   7.722   4.196  1.00  0.00     0.006 C 
BRANCH   5   6
ATOM      6  C   UNL     1      -4.548   7.181   2.824  1.00  0.00     0.053 C 
BRANCH   6   7
ATOM      7  C   UNL     1      -4.150   5.746   2.683  1.00  0.00     0.041 C 
ATOM      8  O   UNL     1      -4.532   4.896   3.529  1.00  0.00    -0.550 OA
ATOM      9  O   UNL     1      -3.395   5.338   1.591  1.00  0.00    -0.550 OA
ENDBRANCH   6   7
ENDBRANCH   5   6
ENDBRANCH   4   5
ENDBRANCH   3   4
ENDBRANCH   2   3
ENDBRANCH   1   2
BRANCH   1  10
ATOM     10  C   UNL     1      -0.110   9.782   5.644  1.00  0.00     0.000 C 
BRANCH  10  11
ATOM     11  C   UNL     1       1.395   9.961   5.900  1.00  0.00    -0.000 C 
BRANCH  11  12
ATOM     12  C   UNL     1       1.954   8.937   6.901  1.00  0.00    -0.000 C 
BRANCH  12  13
ATOM     13  C   UNL     1       2.944   7.987   6.218  1.00  0.00    -0.000 C 
BRANCH  13  14
ATOM     14  C   UNL     1       2.280   6.640   5.892  1.00  0.00    -0.000 C 
BRANCH  14  15
ATOM     15  C   UNL     1       2.149   6.397   4.381  1.00  0.00    -0.003 C 
ATOM     16  C   UNL     1       2.887   7.445   3.547  1.00  0.00     0.004 C 
ENDBRANCH  14  15
ENDBRANCH  13  14
ENDBRANCH  12  13
ENDBRANCH  11  12
ENDBRANCH  10  11
ENDBRANCH   1  10
TORSDOF 12
ENDMDL
MODEL 3
REMARK VINA RESULT:    -3.052      3.137      6.284
REMARK INTER + INTRA:          -6.908
REMARK INTER:                  -5.307
REMARK INTRA:                  -1.601
REMARK UNBOUND:                -1.715
REMARK SMILES CCCCCCCCCCCCCC(=O)[O-]
REMARK SMILES IDX 8 1 9 2 10 3 11 4 12 5 13 6 14 7 15 8 16 9 7 10 6 11 5 12
REMARK SMILES IDX 4 13 3 14 2 15 1 16
REMARK H PARENT
REMARK Flexibility Score: inf
ROOT
ATOM      1  C   UNL     1      -0.052   7.929   2.423  1.00  0.00     0.000 C 
ENDROOT
BRANCH   1   2
ATOM      2  C   UNL     1      -0.674   9.180   3.064  1.00  0.00     0.000 C 
BRANCH   2   3
ATOM      3  C   UNL     1      -1.378   8.879   4.396  1.00  0.00     0.000 C 
BRANCH   3   4
ATOM      4  C   UNL     1      -2.162  10.104   4.890  1.00  0.00     0.000 C 
BRANCH   4   5
ATOM      5  C   UNL     1      -3.682   9.947   4.709  1.00  0.00     0.006 C 
BRANCH   5   6
ATOM      6  C   UNL     1      -4.088   8.514   4.340  1.00  0.00     0.053 C 
BRANCH   6   7
ATOM      7  C   UNL     1      -4.787   8.495   3.017  1.00  0.00     0.041 C 
ATOM      8  O   UNL     1      -6.044   8.524   2.963  1.00  0.00    -0.550 OA
ATOM      9  O   UNL     1      -4.047   8.495   1.841  1.00  0.00    -0.550 OA
ENDBRANCH   6   7
ENDBRANCH   5   6
ENDBRANCH   4   5
ENDBRANCH   3   4
ENDBRANCH   2   3
ENDBRANCH   1   2
BRANCH   1  10
ATOM     10  C   UNL     1      -0.654   6.624   2.972  1.00  0.00     0.000 C 
BRANCH  10  11
ATOM     11  C   UNL     1       0.403   5.714   3.620  1.00  0.00    -0.000 C 
BRANCH  11  12
ATOM     12  C   UNL     1       1.664   6.479   4.050  1.00  0.00    -0.000 C 
BRANCH  12  13
ATOM     13  C   UNL     1       2.012   6.186   5.514  1.00  0.00    -0.000 C 
BRANCH  13  14
ATOM     14  C   UNL     1       2.642   7.416   6.186  1.00  0.00    -0.000 C 
BRANCH  14  15
ATOM     15  C   UNL     1       1.627   8.547   6.416  1.00  0.00    -0.003 C 
ATOM     16  C   UNL     1       1.999   9.834   5.680  1.00  0.00     0.004 C 
ENDBRANCH  14  15
ENDBRANCH  13  14
ENDBRANCH  12  13
ENDBRANCH  11  12
ENDBRANCH  10  11
ENDBRANCH   1  10
TORSDOF 12
ENDMDL
MODEL 4
REMARK VINA RESULT:    -2.976     13.008     15.446
REMARK INTER + INTRA:          -6.780
REMARK INTER:                  -5.276
REMARK INTRA:                  -1.504
REMARK UNBOUND:                -1.715
REMARK SMILES CCCCCCCCCCCCCC(=O)[O-]
REMARK SMILES IDX 8 1 9 2 10 3 11 4 12 5 13 6 14 7 15 8 16 9 7 10 6 11 5 12
REMARK SMILES IDX 4 13 3 14 2 15 1 16
REMARK H PARENT
REMARK Flexibility Score: inf
ROOT
ATOM      1  C   UNL     1       5.884  -1.302  -7.097  1.00  0.00     0.000 C 
ENDROOT
BRANCH   1   2
ATOM      2  C   UNL     1       4.476  -1.917  -7.061  1.00  0.00     0.000 C 
BRANCH   2   3
ATOM      3  C   UNL     1       3.365  -0.858  -6.987  1.00  0.00     0.000 C 
BRANCH   3   4
ATOM      4  C   UNL     1       1.980  -1.519  -6.933  1.00  0.00     0.000 C 
BRANCH   4   5
ATOM      5  C   UNL     1       1.600  -1.983  -5.516  1.00  0.00     0.006 C 
BRANCH   5   6
ATOM      6  C   UNL     1       0.082  -2.083  -5.314  1.00  0.00     0.053 C 
BRANCH   6   7
ATOM      7  C   UNL     1      -0.358  -1.173  -4.212  1.00  0.00     0.041 C 
ATOM      8  O   UNL     1       0.488  -0.671  -3.427  1.00  0.00    -0.550 OA
ATOM      9  O   UNL     1      -1.700  -0.840  -4.081  1.00  0.00    -0.550 OA
ENDBRANCH   6   7
ENDBRANCH   5   6
ENDBRANCH   4   5
ENDBRANCH   3   4
ENDBRANCH   2   3
ENDBRANCH   1   2
BRANCH   1  10
ATOM     10  C   UNL     1       5.914   0.061  -7.810  1.00  0.00     0.000 C 
BRANCH  10  11
ATOM     11  C   UNL     1       6.447   1.187  -6.908  1.00  0.00    -0.000 C 
BRANCH  11  12
ATOM     12  C   UNL     1       7.547   0.709  -5.948  1.00  0.00    -0.000 C 
BRANCH  12  13
ATOM     13  C   UNL     1       7.304   1.236  -4.529  1.00  0.00    -0.000 C 
BRANCH  13  14
ATOM     14  C   UNL     1       5.854   0.983  -4.088  1.00  0.00    -0.000 C 
BRANCH  14  15
ATOM     15  C   UNL     1       5.643  -0.439  -3.545  1.00  0.00    -0.003 C 
ATOM     16  C   UNL     1       4.174  -0.748  -3.254  1.00  0.00     0.004 C 
ENDBRANCH  14  15
ENDBRANCH  13  14
ENDBRANCH  12  13
ENDBRANCH  11  12
ENDBRANCH  10  11
ENDBRANCH   1  10
TORSDOF 12
ENDMDL
MODEL 5
REMARK VINA RESULT:    -2.970     10.957     13.249
REMARK INTER + INTRA:          -6.768
REMARK INTER:                  -4.858
REMARK INTRA:                  -1.910
REMARK UNBOUND:                -1.715
REMARK SMILES CCCCCCCCCCCCCC(=O)[O-]
REMARK SMILES IDX 8 1 9 2 10 3 11 4 12 5 13 6 14 7 15 8 16 9 7 10 6 11 5 12
REMARK SMILES IDX 4 13 3 14 2 15 1 16
REMARK H PARENT
REMARK Flexibility Score: inf
ROOT
ATOM      1  C   UNL     1      -9.302  -2.077  11.445  1.00  0.00     0.000 C 
ENDROOT
BRANCH   1   2
ATOM      2  C   UNL     1      -9.370  -1.984   9.912  1.00  0.00     0.000 C 
BRANCH   2   3
ATOM      3  C   UNL     1      -8.858  -3.255   9.216  1.00  0.00     0.000 C 
BRANCH   3   4
ATOM      4  C   UNL     1      -8.598  -2.996   7.724  1.00  0.00     0.000 C 
BRANCH   4   5
ATOM      5  C   UNL     1      -8.466  -1.499   7.397  1.00  0.00     0.006 C 
BRANCH   5   6
ATOM      6  C   UNL     1      -8.441  -1.223   5.888  1.00  0.00     0.053 C 
BRANCH   6   7
ATOM      7  C   UNL     1      -8.023   0.188   5.623  1.00  0.00     0.041 C 
ATOM      8  O   UNL     1      -8.671   1.146   6.120  1.00  0.00    -0.550 OA
ATOM      9  O   UNL     1      -6.888   0.446   4.866  1.00  0.00    -0.550 OA
ENDBRANCH   6   7
ENDBRANCH   5   6
ENDBRANCH   4   5
ENDBRANCH   3   4
ENDBRANCH   2   3
ENDBRANCH   1   2
BRANCH   1  10
ATOM     10  C   UNL     1      -9.099  -0.705  12.111  1.00  0.00     0.000 C 
BRANCH  10  11
ATOM     11  C   UNL     1      -9.046   0.444  11.091  1.00  0.00    -0.000 C 
BRANCH  11  12
ATOM     12  C   UNL     1      -7.919   1.446  11.382  1.00  0.00    -0.000 C 
BRANCH  12  13
ATOM     13  C   UNL     1      -6.544   0.811  11.145  1.00  0.00    -0.000 C 
BRANCH  13  14
ATOM     14  C   UNL     1      -6.353   0.452   9.663  1.00  0.00    -0.000 C 
BRANCH  14  15
ATOM     15  C   UNL     1      -5.554  -0.847   9.469  1.00  0.00    -0.003 C 
ATOM     16  C   UNL     1      -5.720  -1.822  10.635  1.00  0.00     0.004 C 
ENDBRANCH  14  15
ENDBRANCH  13  14
ENDBRANCH  12  13
ENDBRANCH  11  12
ENDBRANCH  10  11
ENDBRANCH   1  10
TORSDOF 12
ENDMDL
MODEL 6
REMARK VINA RESULT:    -2.864      3.475      6.472
REMARK INTER + INTRA:          -6.589
REMARK INTER:                  -5.792
REMARK INTRA:                  -0.797
REMARK UNBOUND:                -1.715
REMARK SMILES CCCCCCCCCCCCCC(=O)[O-]
REMARK SMILES IDX 8 1 9 2 10 3 11 4 12 5 13 6 14 7 15 8 16 9 7 10 6 11 5 12
REMARK SMILES IDX 4 13 3 14 2 15 1 16
REMARK H PARENT
REMARK Flexibility Score: inf
ROOT
ATOM      1  C   UNL     1      -0.198   8.434   4.345  1.00  0.00     0.000 C 
ENDROOT
BRANCH   1   2
ATOM      2  C   UNL     1      -0.821   9.336   3.267  1.00  0.00     0.000 C 
BRANCH   2   3
ATOM      3  C   UNL     1      -2.325   9.563   3.479  1.00  0.00     0.000 C 
BRANCH   3   4
ATOM      4  C   UNL     1      -2.949   8.401   4.267  1.00  0.00     0.000 C 
BRANCH   4   5
ATOM      5  C   UNL     1      -4.465   8.275   4.039  1.00  0.00     0.006 C 
BRANCH   5   6
ATOM      6  C   UNL     1      -4.807   7.581   2.714  1.00  0.00     0.053 C 
BRANCH   6   7
ATOM      7  C   UNL     1      -4.078   6.279   2.604  1.00  0.00     0.041 C 
ATOM      8  O   UNL     1      -3.171   6.130   1.745  1.00  0.00    -0.550 OA
ATOM      9  O   UNL     1      -4.368   5.245   3.485  1.00  0.00    -0.550 OA
ENDBRANCH   6   7
ENDBRANCH   5   6
ENDBRANCH   4   5
ENDBRANCH   3   4
ENDBRANCH   2   3
ENDBRANCH   1   2
BRANCH   1  10
ATOM     10  C   UNL     1       0.519   9.237   5.444  1.00  0.00     0.000 C 
BRANCH  10  11
ATOM     11  C   UNL     1       2.028   8.948   5.496  1.00  0.00    -0.000 C 
BRANCH  11  12
ATOM     12  C   UNL     1       2.397   7.905   6.562  1.00  0.00    -0.000 C 
BRANCH  12  13
ATOM     13  C   UNL     1       3.037   6.668   5.922  1.00  0.00    -0.000 C 
BRANCH  13  14
ATOM     14  C   UNL     1       2.008   5.538   5.759  1.00  0.00    -0.000 C 
BRANCH  14  15
ATOM     15  C   UNL     1       2.478   4.218   6.389  1.00  0.00    -0.003 C 
ATOM     16  C   UNL     1       1.326   3.395   6.966  1.00  0.00     0.004 C 
ENDBRANCH  14  15
ENDBRANCH  13  14
ENDBRANCH  12  13
ENDBRANCH  11  12
ENDBRANCH  10  11
ENDBRANCH   1  10
TORSDOF 12
ENDMDL
MODEL 7
REMARK VINA RESULT:    -2.835      9.960     11.840
REMARK INTER + INTRA:          -6.539
REMARK INTER:                  -4.549
REMARK INTRA:                  -1.990
REMARK UNBOUND:                -1.715
REMARK SMILES CCCCCCCCCCCCCC(=O)[O-]
REMARK SMILES IDX 8 1 9 2 10 3 11 4 12 5 13 6 14 7 15 8 16 9 7 10 6 11 5 12
REMARK SMILES IDX 4 13 3 14 2 15 1 16
REMARK H PARENT
REMARK Flexibility Score: inf
ROOT
ATOM      1  C   UNL     1      -8.658  -1.106  10.938  1.00  0.00     0.000 C 
ENDROOT
BRANCH   1   2
ATOM      2  C   UNL     1      -8.744   0.423  10.805  1.00  0.00     0.000 C 
BRANCH   2   3
ATOM      3  C   UNL     1      -7.366   1.087  10.664  1.00  0.00     0.000 C 
BRANCH   3   4
ATOM      4  C   UNL     1      -6.609   1.068  12.001  1.00  0.00     0.000 C 
BRANCH   4   5
ATOM      5  C   UNL     1      -5.083   1.087  11.819  1.00  0.00     0.006 C 
BRANCH   5   6
ATOM      6  C   UNL     1      -4.620   0.248  10.620  1.00  0.00     0.053 C 
BRANCH   6   7
ATOM      7  C   UNL     1      -3.767   1.070   9.707  1.00  0.00     0.041 C 
ATOM      8  O   UNL     1      -3.754   2.325   9.809  1.00  0.00    -0.550 OA
ATOM      9  O   UNL     1      -2.949   0.448   8.773  1.00  0.00    -0.550 OA
ENDBRANCH   6   7
ENDBRANCH   5   6
ENDBRANCH   4   5
ENDBRANCH   3   4
ENDBRANCH   2   3
ENDBRANCH   1   2
BRANCH   1  10
ATOM     10  C   UNL     1      -9.317  -1.839   9.757  1.00  0.00     0.000 C 
BRANCH  10  11
ATOM     11  C   UNL     1      -8.340  -2.774   9.024  1.00  0.00    -0.000 C 
BRANCH  11  12
ATOM     12  C   UNL     1      -6.873  -2.349   9.189  1.00  0.00    -0.000 C 
BRANCH  12  13
ATOM     13  C   UNL     1      -6.242  -2.017   7.832  1.00  0.00    -0.000 C 
BRANCH  13  14
ATOM     14  C   UNL     1      -6.400  -0.525   7.502  1.00  0.00    -0.000 C 
BRANCH  14  15
ATOM     15  C   UNL     1      -7.482  -0.267   6.442  1.00  0.00    -0.003 C 
ATOM     16  C   UNL     1      -8.621   0.611   6.961  1.00  0.00     0.004 C 
ENDBRANCH  14  15
ENDBRANCH  13  14
ENDBRANCH  12  13
ENDBRANCH  11  12
ENDBRANCH  10  11
ENDBRANCH   1  10
TORSDOF 12
ENDMDL
