MODEL 1
REMARK VINA RESULT:     6.199      0.000      0.000
REMARK INTER + INTRA:          13.023
REMARK INTER:                  13.447
REMARK INTRA:                  -0.424
REMARK UNBOUND:                -0.424
REMARK SMILES CCCCCCCCCCCCCCCCCCCCCC(=O)[O-]
REMARK SMILES IDX 12 1 11 2 10 3 9 4 8 5 7 6 6 7 5 8 4 9 3 10 2 11 1 12 13 13
REMARK SMILES IDX 14 14 15 15 16 16 17 17 18 18 19 19 20 20 21 21 22 22 23 23
REMARK SMILES IDX 24 24
REMARK H PARENT
REMARK Flexibility Score: inf
ROOT
ATOM      1  C   UNL     1      24.241  39.335  24.789  1.00  0.00     0.000 C 
ENDROOT
BRANCH   1   2
ATOM      2  C   UNL     1      24.142  37.915  25.390  1.00  0.00     0.000 C 
BRANCH   2   3
ATOM      3  C   UNL     1      22.687  37.421  25.489  1.00  0.00     0.000 C 
BRANCH   3   4
ATOM      4  C   UNL     1      22.035  37.777  26.834  1.00  0.00    -0.000 C 
BRANCH   4   5
ATOM      5  C   UNL     1      22.653  39.031  27.476  1.00  0.00    -0.000 C 
BRANCH   5   6
ATOM      6  C   UNL     1      22.007  39.394  28.824  1.00  0.00    -0.000 C 
BRANCH   6   7
ATOM      7  C   UNL     1      21.919  38.240  29.840  1.00  0.00    -0.000 C 
BRANCH   7   8
ATOM      8  C   UNL     1      21.114  38.610  31.099  1.00  0.00    -0.000 C 
BRANCH   8   9
ATOM      9  C   UNL     1      21.999  38.779  32.349  1.00  0.00    -0.000 C 
BRANCH   9  10
ATOM     10  C   UNL     1      21.330  39.496  33.536  1.00  0.00    -0.000 C 
BRANCH  10  11
ATOM     11  C   UNL     1      22.305  39.798  34.684  1.00  0.00    -0.003 C 
ATOM     12  C   UNL     1      23.127  41.050  34.391  1.00  0.00     0.004 C 
ENDBRANCH  10  11
ENDBRANCH   9  10
ENDBRANCH   8   9
ENDBRANCH   7   8
ENDBRANCH   6   7
ENDBRANCH   5   6
ENDBRANCH   4   5
ENDBRANCH   3   4
ENDBRANCH   2   3
ENDBRANCH   1   2
BRANCH   1  13
ATOM     13  C   UNL     1      24.185  39.369  23.251  1.00  0.00     0.000 C 
BRANCH  13  14
ATOM     14  C   UNL     1      22.791  39.134  22.646  1.00  0.00     0.000 C 
BRANCH  14  15
ATOM     15  C   UNL     1      22.613  37.712  22.090  1.00  0.00     0.000 C 
BRANCH  15  16
ATOM     16  C   UNL     1      23.270  37.577  20.708  1.00  0.00     0.000 C 
BRANCH  16  17
ATOM     17  C   UNL     1      22.962  36.233  20.024  1.00  0.00     0.000 C 
BRANCH  17  18
ATOM     18  C   UNL     1      24.179  35.526  19.401  1.00  0.00     0.000 C 
BRANCH  18  19
ATOM     19  C   UNL     1      24.462  35.979  17.961  1.00  0.00     0.000 C 
BRANCH  19  20
ATOM     20  C   UNL     1      25.776  36.771  17.885  1.00  0.00     0.006 C 
BRANCH  20  21
ATOM     21  C   UNL     1      27.008  35.856  17.876  1.00  0.00     0.053 C 
BRANCH  21  22
ATOM     22  C   UNL     1      28.254  36.600  18.249  1.00  0.00     0.041 C 
ATOM     23  O   UNL     1      28.184  37.801  18.625  1.00  0.00    -0.550 OA
ATOM     24  O   UNL     1      29.494  35.983  18.140  1.00  0.00    -0.550 OA
ENDBRANCH  21  22
ENDBRANCH  20  21
ENDBRANCH  19  20
ENDBRANCH  18  19
ENDBRANCH  17  18
ENDBRANCH  16  17
ENDBRANCH  15  16
ENDBRANCH  14  15
ENDBRANCH  13  14
ENDBRANCH   1  13
TORSDOF 20
ENDMDL
MODEL 2
REMARK VINA RESULT:     7.515      4.955     12.517
REMARK INTER + INTRA:          15.878
REMARK INTER:                  16.794
REMARK INTRA:                  -0.916
REMARK UNBOUND:                -0.424
REMARK SMILES CCCCCCCCCCCCCCCCCCCCCC(=O)[O-]
REMARK SMILES IDX 12 1 11 2 10 3 9 4 8 5 7 6 6 7 5 8 4 9 3 10 2 11 1 12 13 13
REMARK SMILES IDX 14 14 15 15 16 16 17 17 18 18 19 19 20 20 21 21 22 22 23 23
REMARK SMILES IDX 24 24
REMARK H PARENT
REMARK Flexibility Score: inf
ROOT
ATOM      1  C   UNL     1      23.914  38.810  24.995  1.00  0.00     0.000 C 
ENDROOT
BRANCH   1   2
ATOM      2  C   UNL     1      23.540  38.963  23.504  1.00  0.00     0.000 C 
BRANCH   2   3
ATOM      3  C   UNL     1      22.217  38.258  23.157  1.00  0.00     0.000 C 
BRANCH   3   4
ATOM      4  C   UNL     1      22.122  37.886  21.668  1.00  0.00    -0.000 C 
BRANCH   4   5
ATOM      5  C   UNL     1      23.082  36.748  21.281  1.00  0.00    -0.000 C 
BRANCH   5   6
ATOM      6  C   UNL     1      22.776  36.152  19.896  1.00  0.00    -0.000 C 
BRANCH   6   7
ATOM      7  C   UNL     1      23.850  35.198  19.342  1.00  0.00    -0.000 C 
BRANCH   7   8
ATOM      8  C   UNL     1      24.657  35.812  18.185  1.00  0.00    -0.000 C 
BRANCH   8   9
ATOM      9  C   UNL     1      25.960  35.042  17.887  1.00  0.00    -0.000 C 
BRANCH   9  10
ATOM     10  C   UNL     1      27.259  35.825  18.147  1.00  0.00    -0.000 C 
BRANCH  10  11
ATOM     11  C   UNL     1      28.496  34.920  18.253  1.00  0.00    -0.003 C 
ATOM     12  C   UNL     1      29.782  35.743  18.243  1.00  0.00     0.004 C 
ENDBRANCH  10  11
ENDBRANCH   9  10
ENDBRANCH   8   9
ENDBRANCH   7   8
ENDBRANCH   6   7
ENDBRANCH   5   6
ENDBRANCH   4   5
ENDBRANCH   3   4
ENDBRANCH   2   3
ENDBRANCH   1   2
BRANCH   1  13
ATOM     13  C   UNL     1      23.327  37.553  25.662  1.00  0.00     0.000 C 
BRANCH  13  14
ATOM     14  C   UNL     1      22.355  37.827  26.822  1.00  0.00     0.000 C 
BRANCH  14  15
ATOM     15  C   UNL     1      22.661  39.141  27.560  1.00  0.00     0.000 C 
BRANCH  15  16
ATOM     16  C   UNL     1      21.706  39.339  28.747  1.00  0.00     0.000 C 
BRANCH  16  17
ATOM     17  C   UNL     1      22.310  38.887  30.088  1.00  0.00     0.000 C 
BRANCH  17  18
ATOM     18  C   UNL     1      21.413  37.960  30.927  1.00  0.00     0.000 C 
BRANCH  18  19
ATOM     19  C   UNL     1      21.061  38.548  32.301  1.00  0.00     0.000 C 
BRANCH  19  20
ATOM     20  C   UNL     1      22.289  39.214  32.942  1.00  0.00     0.006 C 
BRANCH  20  21
ATOM     21  C   UNL     1      21.912  40.119  34.121  1.00  0.00     0.053 C 
BRANCH  21  22
ATOM     22  C   UNL     1      22.895  41.235  34.300  1.00  0.00     0.041 C 
ATOM     23  O   UNL     1      22.630  42.191  35.079  1.00  0.00    -0.550 OA
ATOM     24  O   UNL     1      24.081  41.244  33.577  1.00  0.00    -0.550 OA
ENDBRANCH  21  22
ENDBRANCH  20  21
ENDBRANCH  19  20
ENDBRANCH  18  19
ENDBRANCH  17  18
ENDBRANCH  16  17
ENDBRANCH  15  16
ENDBRANCH  14  15
ENDBRANCH  13  14
ENDBRANCH   1  13
TORSDOF 20
ENDMDL
MODEL 3
REMARK VINA RESULT:     8.446      3.732      9.987
REMARK INTER + INTRA:          17.896
REMARK INTER:                  16.487
REMARK INTRA:                   1.409
REMARK UNBOUND:                -0.424
REMARK SMILES CCCCCCCCCCCCCCCCCCCCCC(=O)[O-]
REMARK SMILES IDX 12 1 11 2 10 3 9 4 8 5 7 6 6 7 5 8 4 9 3 10 2 11 1 12 13 13
REMARK SMILES IDX 14 14 15 15 16 16 17 17 18 18 19 19 20 20 21 21 22 22 23 23
REMARK SMILES IDX 24 24
REMARK H PARENT
REMARK Flexibility Score: inf
ROOT
ATOM      1  C   UNL     1      24.198  40.132  21.969  1.00  0.00     0.000 C 
ENDROOT
BRANCH   1   2
ATOM      2  C   UNL     1      24.131  38.642  21.564  1.00  0.00     0.000 C 
BRANCH   2   3
ATOM      3  C   UNL     1      24.803  38.374  20.206  1.00  0.00     0.000 C 
BRANCH   3   4
ATOM      4  C   UNL     1      24.077  37.289  19.395  1.00  0.00    -0.000 C 
BRANCH   4   5
ATOM      5  C   UNL     1      24.810  36.939  18.089  1.00  0.00    -0.000 C 
BRANCH   5   6
ATOM      6  C   UNL     1      24.997  35.424  17.894  1.00  0.00    -0.000 C 
BRANCH   6   7
ATOM      7  C   UNL     1      26.454  34.931  17.952  1.00  0.00    -0.000 C 
BRANCH   7   8
ATOM      8  C   UNL     1      27.478  36.078  17.876  1.00  0.00    -0.000 C 
BRANCH   8   9
ATOM      9  C   UNL     1      28.796  35.754  18.605  1.00  0.00    -0.000 C 
BRANCH   9  10
ATOM     10  C   UNL     1      29.545  36.971  19.179  1.00  0.00    -0.000 C 
BRANCH  10  11
ATOM     11  C   UNL     1      30.434  36.618  20.381  1.00  0.00    -0.003 C 
ATOM     12  C   UNL     1      29.902  35.391  21.116  1.00  0.00     0.004 C 
ENDBRANCH  10  11
ENDBRANCH   9  10
ENDBRANCH   8   9
ENDBRANCH   7   8
ENDBRANCH   6   7
ENDBRANCH   5   6
ENDBRANCH   4   5
ENDBRANCH   3   4
ENDBRANCH   2   3
ENDBRANCH   1   2
BRANCH   1  13
ATOM     13  C   UNL     1      24.726  40.370  23.396  1.00  0.00     0.000 C 
BRANCH  13  14
ATOM     14  C   UNL     1      23.764  39.955  24.522  1.00  0.00     0.000 C 
BRANCH  14  15
ATOM     15  C   UNL     1      24.317  38.813  25.390  1.00  0.00     0.000 C 
BRANCH  15  16
ATOM     16  C   UNL     1      24.257  39.178  26.881  1.00  0.00     0.000 C 
BRANCH  16  17
ATOM     17  C   UNL     1      22.820  39.386  27.392  1.00  0.00     0.000 C 
BRANCH  17  18
ATOM     18  C   UNL     1      21.816  38.300  26.968  1.00  0.00     0.000 C 
BRANCH  18  19
ATOM     19  C   UNL     1      22.487  37.085  26.311  1.00  0.00     0.000 C 
BRANCH  19  20
ATOM     20  C   UNL     1      21.767  36.699  25.010  1.00  0.00     0.006 C 
BRANCH  20  21
ATOM     21  C   UNL     1      22.701  36.738  23.794  1.00  0.00     0.053 C 
BRANCH  21  22
ATOM     22  C   UNL     1      21.969  37.122  22.544  1.00  0.00     0.041 C 
ATOM     23  O   UNL     1      21.299  38.189  22.507  1.00  0.00    -0.550 OA
ATOM     24  O   UNL     1      21.991  36.284  21.437  1.00  0.00    -0.550 OA
ENDBRANCH  21  22
ENDBRANCH  20  21
ENDBRANCH  19  20
ENDBRANCH  18  19
ENDBRANCH  17  18
ENDBRANCH  16  17
ENDBRANCH  15  16
ENDBRANCH  14  15
ENDBRANCH  13  14
ENDBRANCH   1  13
TORSDOF 20
ENDMDL
MODEL 4
REMARK VINA RESULT:     8.454      4.953     11.812
REMARK INTER + INTRA:          17.914
REMARK INTER:                  18.061
REMARK INTRA:                  -0.147
REMARK UNBOUND:                -0.424
REMARK SMILES CCCCCCCCCCCCCCCCCCCCCC(=O)[O-]
REMARK SMILES IDX 12 1 11 2 10 3 9 4 8 5 7 6 6 7 5 8 4 9 3 10 2 11 1 12 13 13
REMARK SMILES IDX 14 14 15 15 16 16 17 17 18 18 19 19 20 20 21 21 22 22 23 23
REMARK SMILES IDX 24 24
REMARK H PARENT
REMARK Flexibility Score: inf
ROOT
ATOM      1  C   UNL     1      23.607  39.655  24.216  1.00  0.00     0.000 C 
ENDROOT
BRANCH   1   2
ATOM      2  C   UNL     1      22.687  38.836  23.284  1.00  0.00     0.000 C 
BRANCH   2   3
ATOM      3  C   UNL     1      23.213  38.786  21.838  1.00  0.00     0.000 C 
BRANCH   3   4
ATOM      4  C   UNL     1      22.994  37.414  21.180  1.00  0.00    -0.000 C 
BRANCH   4   5
ATOM      5  C   UNL     1      23.705  37.291  19.821  1.00  0.00    -0.000 C 
BRANCH   5   6
ATOM      6  C   UNL     1      23.550  35.897  19.188  1.00  0.00    -0.000 C 
BRANCH   6   7
ATOM      7  C   UNL     1      24.727  35.445  18.305  1.00  0.00    -0.000 C 
BRANCH   7   8
ATOM      8  C   UNL     1      25.662  36.603  17.914  1.00  0.00    -0.000 C 
BRANCH   8   9
ATOM      9  C   UNL     1      27.146  36.188  17.875  1.00  0.00    -0.000 C 
BRANCH   9  10
ATOM     10  C   UNL     1      27.570  35.162  18.942  1.00  0.00    -0.000 C 
BRANCH  10  11
ATOM     11  C   UNL     1      29.087  35.135  19.181  1.00  0.00    -0.003 C 
ATOM     12  C   UNL     1      29.684  36.536  19.083  1.00  0.00     0.004 C 
ENDBRANCH  10  11
ENDBRANCH   9  10
ENDBRANCH   8   9
ENDBRANCH   7   8
ENDBRANCH   6   7
ENDBRANCH   5   6
ENDBRANCH   4   5
ENDBRANCH   3   4
ENDBRANCH   2   3
ENDBRANCH   1   2
BRANCH   1  13
ATOM     13  C   UNL     1      24.404  38.799  25.219  1.00  0.00     0.000 C 
BRANCH  13  14
ATOM     14  C   UNL     1      24.047  37.304  25.223  1.00  0.00     0.000 C 
BRANCH  14  15
ATOM     15  C   UNL     1      22.532  37.051  25.281  1.00  0.00     0.000 C 
BRANCH  15  16
ATOM     16  C   UNL     1      21.997  37.241  26.708  1.00  0.00     0.000 C 
BRANCH  16  17
ATOM     17  C   UNL     1      21.801  38.721  27.084  1.00  0.00     0.000 C 
BRANCH  17  18
ATOM     18  C   UNL     1      22.425  39.139  28.428  1.00  0.00     0.000 C 
BRANCH  18  19
ATOM     19  C   UNL     1      21.952  38.272  29.603  1.00  0.00     0.000 C 
BRANCH  19  20
ATOM     20  C   UNL     1      21.928  39.084  30.907  1.00  0.00     0.006 C 
BRANCH  20  21
ATOM     21  C   UNL     1      21.219  38.338  32.045  1.00  0.00     0.053 C 
BRANCH  21  22
ATOM     22  C   UNL     1      21.944  38.495  33.347  1.00  0.00     0.041 C 
ATOM     23  O   UNL     1      22.522  37.504  33.871  1.00  0.00    -0.550 OA
ATOM     24  O   UNL     1      21.946  39.719  34.003  1.00  0.00    -0.550 OA
ENDBRANCH  21  22
ENDBRANCH  20  21
ENDBRANCH  19  20
ENDBRANCH  18  19
ENDBRANCH  17  18
ENDBRANCH  16  17
ENDBRANCH  15  16
ENDBRANCH  14  15
ENDBRANCH  13  14
ENDBRANCH   1  13
TORSDOF 20
ENDMDL
MODEL 5
REMARK VINA RESULT:     8.494      1.502      3.411
REMARK INTER + INTRA:          18.000
REMARK INTER:                  18.294
REMARK INTRA:                  -0.294
REMARK UNBOUND:                -0.424
REMARK SMILES CCCCCCCCCCCCCCCCCCCCCC(=O)[O-]
REMARK SMILES IDX 12 1 11 2 10 3 9 4 8 5 7 6 6 7 5 8 4 9 3 10 2 11 1 12 13 13
REMARK SMILES IDX 14 14 15 15 16 16 17 17 18 18 19 19 20 20 21 21 22 22 23 23
REMARK SMILES IDX 24 24
REMARK H PARENT
REMARK Flexibility Score: inf
ROOT
ATOM      1  C   UNL     1      22.743  39.345  26.869  1.00  0.00     0.000 C 
ENDROOT
BRANCH   1   2
ATOM      2  C   UNL     1      22.678  39.451  28.408  1.00  0.00     0.000 C 
BRANCH   2   3
ATOM      3  C   UNL     1      22.174  38.154  29.065  1.00  0.00     0.000 C 
BRANCH   3   4
ATOM      4  C   UNL     1      21.523  38.402  30.434  1.00  0.00    -0.000 C 
BRANCH   4   5
ATOM      5  C   UNL     1      21.824  37.280  31.443  1.00  0.00    -0.000 C 
BRANCH   5   6
ATOM      6  C   UNL     1      22.040  37.803  32.874  1.00  0.00    -0.000 C 
BRANCH   6   7
ATOM      7  C   UNL     1      21.886  39.326  33.045  1.00  0.00    -0.000 C 
BRANCH   7   8
ATOM      8  C   UNL     1      21.229  39.715  34.381  1.00  0.00    -0.000 C 
BRANCH   8   9
ATOM      9  C   UNL     1      22.158  40.546  35.287  1.00  0.00    -0.000 C 
BRANCH   9  10
ATOM     10  C   UNL     1      22.906  41.694  34.585  1.00  0.00    -0.000 C 
BRANCH  10  11
ATOM     11  C   UNL     1      24.106  41.212  33.757  1.00  0.00    -0.003 C 
ATOM     12  C   UNL     1      24.288  42.063  32.504  1.00  0.00     0.004 C 
ENDBRANCH  10  11
ENDBRANCH   9  10
ENDBRANCH   8   9
ENDBRANCH   7   8
ENDBRANCH   6   7
ENDBRANCH   5   6
ENDBRANCH   4   5
ENDBRANCH   3   4
ENDBRANCH   2   3
ENDBRANCH   1   2
BRANCH   1  13
ATOM     13  C   UNL     1      22.422  37.941  26.324  1.00  0.00     0.000 C 
BRANCH  13  14
ATOM     14  C   UNL     1      23.046  37.616  24.957  1.00  0.00     0.000 C 
BRANCH  14  15
ATOM     15  C   UNL     1      23.812  38.803  24.352  1.00  0.00     0.000 C 
BRANCH  15  16
ATOM     16  C   UNL     1      23.504  38.949  22.854  1.00  0.00     0.000 C 
BRANCH  16  17
ATOM     17  C   UNL     1      22.191  38.260  22.440  1.00  0.00     0.000 C 
BRANCH  17  18
ATOM     18  C   UNL     1      22.354  36.845  21.858  1.00  0.00     0.000 C 
BRANCH  18  19
ATOM     19  C   UNL     1      23.014  36.839  20.472  1.00  0.00     0.000 C 
BRANCH  19  20
ATOM     20  C   UNL     1      23.293  35.402  20.005  1.00  0.00     0.006 C 
BRANCH  20  21
ATOM     21  C   UNL     1      23.586  35.325  18.501  1.00  0.00     0.053 C 
BRANCH  21  22
ATOM     22  C   UNL     1      24.912  35.936  18.163  1.00  0.00     0.041 C 
ATOM     23  O   UNL     1      25.892  35.198  17.876  1.00  0.00    -0.550 OA
ATOM     24  O   UNL     1      25.076  37.315  18.207  1.00  0.00    -0.550 OA
ENDBRANCH  21  22
ENDBRANCH  20  21
ENDBRANCH  19  20
ENDBRANCH  18  19
ENDBRANCH  17  18
ENDBRANCH  16  17
ENDBRANCH  15  16
ENDBRANCH  14  15
ENDBRANCH  13  14
ENDBRANCH   1  13
TORSDOF 20
ENDMDL
MODEL 6
REMARK VINA RESULT:     8.625      5.778     13.191
REMARK INTER + INTRA:          18.284
REMARK INTER:                  19.056
REMARK INTRA:                  -0.772
REMARK UNBOUND:                -0.424
REMARK SMILES CCCCCCCCCCCCCCCCCCCCCC(=O)[O-]
REMARK SMILES IDX 12 1 11 2 10 3 9 4 8 5 7 6 6 7 5 8 4 9 3 10 2 11 1 12 13 13
REMARK SMILES IDX 14 14 15 15 16 16 17 17 18 18 19 19 20 20 21 21 22 22 23 23
REMARK SMILES IDX 24 24
REMARK H PARENT
REMARK Flexibility Score: inf
ROOT
ATOM      1  C   UNL     1      22.338  39.380  28.484  1.00  0.00     0.000 C 
ENDROOT
BRANCH   1   2
ATOM      2  C   UNL     1      23.192  38.977  27.261  1.00  0.00     0.000 C 
BRANCH   2   3
ATOM      3  C   UNL     1      22.348  38.352  26.137  1.00  0.00     0.000 C 
BRANCH   3   4
ATOM      4  C   UNL     1      23.212  37.764  25.010  1.00  0.00    -0.000 C 
BRANCH   4   5
ATOM      5  C   UNL     1      23.854  38.850  24.130  1.00  0.00    -0.000 C 
BRANCH   5   6
ATOM      6  C   UNL     1      23.234  38.926  22.724  1.00  0.00    -0.000 C 
BRANCH   6   7
ATOM      7  C   UNL     1      22.024  38.002  22.491  1.00  0.00    -0.000 C 
BRANCH   7   8
ATOM      8  C   UNL     1      22.418  36.637  21.899  1.00  0.00    -0.000 C 
BRANCH   8   9
ATOM      9  C   UNL     1      22.978  36.743  20.467  1.00  0.00    -0.000 C 
BRANCH   9  10
ATOM     10  C   UNL     1      23.377  35.405  19.818  1.00  0.00    -0.000 C 
BRANCH  10  11
ATOM     11  C   UNL     1      23.870  35.562  18.371  1.00  0.00    -0.003 C 
ATOM     12  C   UNL     1      24.809  36.758  18.238  1.00  0.00     0.004 C 
ENDBRANCH  10  11
ENDBRANCH   9  10
ENDBRANCH   8   9
ENDBRANCH   7   8
ENDBRANCH   6   7
ENDBRANCH   5   6
ENDBRANCH   4   5
ENDBRANCH   3   4
ENDBRANCH   2   3
ENDBRANCH   1   2
BRANCH   1  13
ATOM     13  C   UNL     1      22.035  38.217  29.446  1.00  0.00     0.000 C 
BRANCH  13  14
ATOM     14  C   UNL     1      21.578  38.639  30.852  1.00  0.00     0.000 C 
BRANCH  14  15
ATOM     15  C   UNL     1      21.674  37.500  31.880  1.00  0.00     0.000 C 
BRANCH  15  16
ATOM     16  C   UNL     1      22.104  38.035  33.254  1.00  0.00     0.000 C 
BRANCH  16  17
ATOM     17  C   UNL     1      21.955  39.562  33.379  1.00  0.00     0.000 C 
BRANCH  17  18
ATOM     18  C   UNL     1      22.966  40.239  34.320  1.00  0.00     0.000 C 
BRANCH  18  19
ATOM     19  C   UNL     1      23.179  41.726  34.002  1.00  0.00     0.000 C 
BRANCH  19  20
ATOM     20  C   UNL     1      22.104  42.590  34.680  1.00  0.00     0.006 C 
BRANCH  20  21
ATOM     21  C   UNL     1      22.621  43.990  35.035  1.00  0.00     0.053 C 
BRANCH  21  22
ATOM     22  C   UNL     1      21.521  45.008  35.021  1.00  0.00     0.041 C 
ATOM     23  O   UNL     1      21.312  45.725  36.036  1.00  0.00    -0.550 OA
ATOM     24  O   UNL     1      20.700  45.134  33.908  1.00  0.00    -0.550 OA
ENDBRANCH  21  22
ENDBRANCH  20  21
ENDBRANCH  19  20
ENDBRANCH  18  19
ENDBRANCH  17  18
ENDBRANCH  16  17
ENDBRANCH  15  16
ENDBRANCH  14  15
ENDBRANCH  13  14
ENDBRANCH   1  13
TORSDOF 20
ENDMDL
MODEL 7
REMARK VINA RESULT:     8.751      1.950      4.155
REMARK INTER + INTRA:          18.558
REMARK INTER:                  19.453
REMARK INTRA:                  -0.895
REMARK UNBOUND:                -0.424
REMARK SMILES CCCCCCCCCCCCCCCCCCCCCC(=O)[O-]
REMARK SMILES IDX 12 1 11 2 10 3 9 4 8 5 7 6 6 7 5 8 4 9 3 10 2 11 1 12 13 13
REMARK SMILES IDX 14 14 15 15 16 16 17 17 18 18 19 19 20 20 21 21 22 22 23 23
REMARK SMILES IDX 24 24
REMARK H PARENT
REMARK Flexibility Score: inf
ROOT
ATOM      1  C   UNL     1      22.611  39.076  27.604  1.00  0.00     0.000 C 
ENDROOT
BRANCH   1   2
ATOM      2  C   UNL     1      21.677  39.199  28.828  1.00  0.00     0.000 C 
BRANCH   2   3
ATOM      3  C   UNL     1      22.205  38.423  30.048  1.00  0.00     0.000 C 
BRANCH   3   4
ATOM      4  C   UNL     1      21.249  38.495  31.249  1.00  0.00    -0.000 C 
BRANCH   4   5
ATOM      5  C   UNL     1      21.982  38.368  32.596  1.00  0.00    -0.000 C 
BRANCH   5   6
ATOM      6  C   UNL     1      21.524  39.414  33.628  1.00  0.00    -0.000 C 
BRANCH   6   7
ATOM      7  C   UNL     1      22.531  40.545  33.905  1.00  0.00    -0.000 C 
BRANCH   7   8
ATOM      8  C   UNL     1      21.898  41.747  34.629  1.00  0.00    -0.000 C 
BRANCH   8   9
ATOM      9  C   UNL     1      22.583  43.084  34.284  1.00  0.00    -0.000 C 
BRANCH   9  10
ATOM     10  C   UNL     1      22.478  44.174  35.365  1.00  0.00    -0.000 C 
BRANCH  10  11
ATOM     11  C   UNL     1      21.272  45.105  35.164  1.00  0.00    -0.003 C 
ATOM     12  C   UNL     1      20.776  45.058  33.721  1.00  0.00     0.004 C 
ENDBRANCH  10  11
ENDBRANCH   9  10
ENDBRANCH   8   9
ENDBRANCH   7   8
ENDBRANCH   6   7
ENDBRANCH   5   6
ENDBRANCH   4   5
ENDBRANCH   3   4
ENDBRANCH   2   3
ENDBRANCH   1   2
BRANCH   1  13
ATOM     13  C   UNL     1      22.127  38.065  26.547  1.00  0.00     0.000 C 
BRANCH  13  14
ATOM     14  C   UNL     1      23.128  37.778  25.416  1.00  0.00     0.000 C 
BRANCH  14  15
ATOM     15  C   UNL     1      23.867  39.039  24.939  1.00  0.00     0.000 C 
BRANCH  15  16
ATOM     16  C   UNL     1      23.808  39.163  23.409  1.00  0.00     0.000 C 
BRANCH  16  17
ATOM     17  C   UNL     1      22.621  38.405  22.789  1.00  0.00     0.000 C 
BRANCH  17  18
ATOM     18  C   UNL     1      22.860  37.872  21.366  1.00  0.00     0.000 C 
BRANCH  18  19
ATOM     19  C   UNL     1      22.479  36.393  21.207  1.00  0.00     0.000 C 
BRANCH  19  20
ATOM     20  C   UNL     1      23.147  35.786  19.963  1.00  0.00     0.006 C 
BRANCH  20  21
ATOM     21  C   UNL     1      23.919  36.832  19.148  1.00  0.00     0.053 C 
BRANCH  21  22
ATOM     22  C   UNL     1      25.135  36.244  18.501  1.00  0.00     0.041 C 
ATOM     23  O   UNL     1      26.088  36.991  18.151  1.00  0.00    -0.550 OA
ATOM     24  O   UNL     1      25.199  34.880  18.244  1.00  0.00    -0.550 OA
ENDBRANCH  21  22
ENDBRANCH  20  21
ENDBRANCH  19  20
ENDBRANCH  18  19
ENDBRANCH  17  18
ENDBRANCH  16  17
ENDBRANCH  15  16
ENDBRANCH  14  15
ENDBRANCH  13  14
ENDBRANCH   1  13
TORSDOF 20
ENDMDL
