MODEL 1
REMARK VINA RESULT:    -5.017      0.000      0.000
REMARK INTER + INTRA:         -16.885
REMARK INTER:                 -12.643
REMARK INTRA:                  -4.242
REMARK UNBOUND:                -4.242
REMARK SMILES CCCCCCCCCCCCCCCCCCCCCCCCCCCC(=O)[O-]
REMARK SMILES IDX 15 1 16 2 17 3 18 4 19 5 20 6 21 7 22 8 23 9 24 10 25 11
REMARK SMILES IDX 26 12 27 13 28 14 29 15 30 16 14 17 13 18 12 19 11 20 10 21
REMARK SMILES IDX 9 22 8 23 7 24 6 25 5 26 4 27 3 28 2 29 1 30
REMARK H PARENT
REMARK Flexibility Score: inf
ROOT
ATOM      1  C   UNL     1     -48.969 -47.241  20.950  1.00  0.00     0.000 C 
ENDROOT
BRANCH   1   2
ATOM      2  C   UNL     1     -47.738 -48.107  20.623  1.00  0.00     0.000 C 
BRANCH   2   3
ATOM      3  C   UNL     1     -47.387 -48.115  19.124  1.00  0.00     0.000 C 
BRANCH   3   4
ATOM      4  C   UNL     1     -48.224 -47.102  18.315  1.00  0.00     0.000 C 
BRANCH   4   5
ATOM      5  C   UNL     1     -47.804 -46.980  16.836  1.00  0.00     0.000 C 
BRANCH   5   6
ATOM      6  C   UNL     1     -47.196 -48.251  16.220  1.00  0.00     0.000 C 
BRANCH   6   7
ATOM      7  C   UNL     1     -48.213 -49.245  15.624  1.00  0.00     0.000 C 
BRANCH   7   8
ATOM      8  C   UNL     1     -47.685 -50.691  15.511  1.00  0.00     0.000 C 
BRANCH   8   9
ATOM      9  C   UNL     1     -48.415 -51.666  16.452  1.00  0.00     0.000 C 
BRANCH   9  10
ATOM     10  C   UNL     1     -48.136 -51.384  17.940  1.00  0.00     0.000 C 
BRANCH  10  11
ATOM     11  C   UNL     1     -49.391 -51.211  18.818  1.00  0.00     0.000 C 
BRANCH  11  12
ATOM     12  C   UNL     1     -50.379 -50.129  18.338  1.00  0.00     0.006 C 
BRANCH  12  13
ATOM     13  C   UNL     1     -51.064 -49.347  19.470  1.00  0.00     0.053 C 
BRANCH  13  14
ATOM     14  C   UNL     1     -52.509 -49.714  19.619  1.00  0.00     0.041 C 
ATOM     15  O   UNL     1     -53.341 -49.384  18.733  1.00  0.00    -0.550 OA
ATOM     16  O   UNL     1     -52.940 -50.410  20.741  1.00  0.00    -0.550 OA
ENDBRANCH  13  14
ENDBRANCH  12  13
ENDBRANCH  11  12
ENDBRANCH  10  11
ENDBRANCH   9  10
ENDBRANCH   8   9
ENDBRANCH   7   8
ENDBRANCH   6   7
ENDBRANCH   5   6
ENDBRANCH   4   5
ENDBRANCH   3   4
ENDBRANCH   2   3
ENDBRANCH   1   2
BRANCH   1  17
ATOM     17  C   UNL     1     -48.889 -46.467  22.278  1.00  0.00     0.000 C 
BRANCH  17  18
ATOM     18  C   UNL     1     -47.828 -47.023  23.238  1.00  0.00     0.000 C 
BRANCH  18  19
ATOM     19  C   UNL     1     -48.235 -46.793  24.702  1.00  0.00     0.000 C 
BRANCH  19  20
ATOM     20  C   UNL     1     -48.794 -48.066  25.369  1.00  0.00     0.000 C 
BRANCH  20  21
ATOM     21  C   UNL     1     -48.556 -49.352  24.561  1.00  0.00     0.000 C 
BRANCH  21  22
ATOM     22  C   UNL     1     -49.835 -49.894  23.896  1.00  0.00    -0.000 C 
BRANCH  22  23
ATOM     23  C   UNL     1     -51.114 -49.276  24.483  1.00  0.00    -0.000 C 
BRANCH  23  24
ATOM     24  C   UNL     1     -51.985 -48.593  23.419  1.00  0.00    -0.000 C 
BRANCH  24  25
ATOM     25  C   UNL     1     -52.356 -47.164  23.849  1.00  0.00    -0.000 C 
BRANCH  25  26
ATOM     26  C   UNL     1     -53.122 -46.395  22.760  1.00  0.00    -0.000 C 
BRANCH  26  27
ATOM     27  C   UNL     1     -54.155 -47.274  22.033  1.00  0.00    -0.000 C 
BRANCH  27  28
ATOM     28  C   UNL     1     -55.321 -46.458  21.456  1.00  0.00    -0.000 C 
BRANCH  28  29
ATOM     29  C   UNL     1     -56.581 -47.306  21.223  1.00  0.00    -0.003 C 
ATOM     30  C   UNL     1     -56.243 -48.794  21.190  1.00  0.00     0.004 C 
ENDBRANCH  28  29
ENDBRANCH  27  28
ENDBRANCH  26  27
ENDBRANCH  25  26
ENDBRANCH  24  25
ENDBRANCH  23  24
ENDBRANCH  22  23
ENDBRANCH  21  22
ENDBRANCH  20  21
ENDBRANCH  19  20
ENDBRANCH  18  19
ENDBRANCH  17  18
ENDBRANCH   1  17
TORSDOF 26
ENDMDL
MODEL 2
REMARK VINA RESULT:    -4.864      7.474     11.966
REMARK INTER + INTRA:         -16.499
REMARK INTER:                 -11.971
REMARK INTRA:                  -4.528
REMARK UNBOUND:                -4.242
REMARK SMILES CCCCCCCCCCCCCCCCCCCCCCCCCCCC(=O)[O-]
REMARK SMILES IDX 15 1 16 2 17 3 18 4 19 5 20 6 21 7 22 8 23 9 24 10 25 11
REMARK SMILES IDX 26 12 27 13 28 14 29 15 30 16 14 17 13 18 12 19 11 20 10 21
REMARK SMILES IDX 9 22 8 23 7 24 6 25 5 26 4 27 3 28 2 29 1 30
REMARK H PARENT
REMARK Flexibility Score: inf
ROOT
ATOM      1  C   UNL     1     -46.993 -49.027  32.193  1.00  0.00     0.000 C 
ENDROOT
BRANCH   1   2
ATOM      2  C   UNL     1     -46.925 -49.293  33.709  1.00  0.00     0.000 C 
BRANCH   2   3
ATOM      3  C   UNL     1     -46.416 -50.705  34.050  1.00  0.00     0.000 C 
BRANCH   3   4
ATOM      4  C   UNL     1     -46.527 -51.679  32.857  1.00  0.00     0.000 C 
BRANCH   4   5
ATOM      5  C   UNL     1     -45.167 -52.126  32.283  1.00  0.00     0.000 C 
BRANCH   5   6
ATOM      6  C   UNL     1     -43.933 -51.577  33.018  1.00  0.00     0.000 C 
BRANCH   6   7
ATOM      7  C   UNL     1     -42.767 -51.140  32.109  1.00  0.00     0.000 C 
BRANCH   7   8
ATOM      8  C   UNL     1     -43.034 -51.349  30.603  1.00  0.00     0.000 C 
BRANCH   8   9
ATOM      9  C   UNL     1     -41.986 -50.658  29.712  1.00  0.00     0.000 C 
BRANCH   9  10
ATOM     10  C   UNL     1     -41.107 -49.658  30.487  1.00  0.00     0.000 C 
BRANCH  10  11
ATOM     11  C   UNL     1     -40.309 -48.674  29.608  1.00  0.00     0.000 C 
BRANCH  11  12
ATOM     12  C   UNL     1     -40.894 -48.432  28.202  1.00  0.00     0.006 C 
BRANCH  12  13
ATOM     13  C   UNL     1     -40.267 -47.248  27.449  1.00  0.00     0.053 C 
BRANCH  13  14
ATOM     14  C   UNL     1     -41.293 -46.427  26.729  1.00  0.00     0.041 C 
ATOM     15  O   UNL     1     -41.187 -46.224  25.491  1.00  0.00    -0.550 OA
ATOM     16  O   UNL     1     -42.360 -45.876  27.428  1.00  0.00    -0.550 OA
ENDBRANCH  13  14
ENDBRANCH  12  13
ENDBRANCH  11  12
ENDBRANCH  10  11
ENDBRANCH   9  10
ENDBRANCH   8   9
ENDBRANCH   7   8
ENDBRANCH   6   7
ENDBRANCH   5   6
ENDBRANCH   4   5
ENDBRANCH   3   4
ENDBRANCH   2   3
ENDBRANCH   1   2
BRANCH   1  17
ATOM     17  C   UNL     1     -45.710 -48.442  31.575  1.00  0.00     0.000 C 
BRANCH  17  18
ATOM     18  C   UNL     1     -45.435 -48.957  30.155  1.00  0.00     0.000 C 
BRANCH  18  19
ATOM     19  C   UNL     1     -44.544 -47.977  29.376  1.00  0.00     0.000 C 
BRANCH  19  20
ATOM     20  C   UNL     1     -44.341 -48.399  27.906  1.00  0.00     0.000 C 
BRANCH  20  21
ATOM     21  C   UNL     1     -44.797 -49.835  27.599  1.00  0.00     0.000 C 
BRANCH  21  22
ATOM     22  C   UNL     1     -44.369 -50.320  26.202  1.00  0.00    -0.000 C 
BRANCH  22  23
ATOM     23  C   UNL     1     -43.505 -49.289  25.458  1.00  0.00    -0.000 C 
BRANCH  23  24
ATOM     24  C   UNL     1     -43.881 -49.159  23.975  1.00  0.00    -0.000 C 
BRANCH  24  25
ATOM     25  C   UNL     1     -44.476 -47.773  23.680  1.00  0.00    -0.000 C 
BRANCH  25  26
ATOM     26  C   UNL     1     -46.013 -47.771  23.689  1.00  0.00    -0.000 C 
BRANCH  26  27
ATOM     27  C   UNL     1     -46.595 -47.312  25.037  1.00  0.00    -0.000 C 
BRANCH  27  28
ATOM     28  C   UNL     1     -47.890 -48.053  25.403  1.00  0.00    -0.000 C 
BRANCH  28  29
ATOM     29  C   UNL     1     -47.872 -49.528  24.972  1.00  0.00    -0.003 C 
ATOM     30  C   UNL     1     -49.253 -49.979  24.502  1.00  0.00     0.004 C 
ENDBRANCH  28  29
ENDBRANCH  27  28
ENDBRANCH  26  27
ENDBRANCH  25  26
ENDBRANCH  24  25
ENDBRANCH  23  24
ENDBRANCH  22  23
ENDBRANCH  21  22
ENDBRANCH  20  21
ENDBRANCH  19  20
ENDBRANCH  18  19
ENDBRANCH  17  18
ENDBRANCH   1  17
TORSDOF 26
ENDMDL
MODEL 3
REMARK VINA RESULT:    -4.821      6.116      9.337
REMARK INTER + INTRA:         -16.390
REMARK INTER:                 -11.887
REMARK INTRA:                  -4.503
REMARK UNBOUND:                -4.242
REMARK SMILES CCCCCCCCCCCCCCCCCCCCCCCCCCCC(=O)[O-]
REMARK SMILES IDX 15 1 16 2 17 3 18 4 19 5 20 6 21 7 22 8 23 9 24 10 25 11
REMARK SMILES IDX 26 12 27 13 28 14 29 15 30 16 14 17 13 18 12 19 11 20 10 21
REMARK SMILES IDX 9 22 8 23 7 24 6 25 5 26 4 27 3 28 2 29 1 30
REMARK H PARENT
REMARK Flexibility Score: inf
ROOT
ATOM      1  C   UNL     1     -45.022 -50.100  25.578  1.00  0.00     0.000 C 
ENDROOT
BRANCH   1   2
ATOM      2  C   UNL     1     -43.903 -49.731  24.586  1.00  0.00     0.000 C 
BRANCH   2   3
ATOM      3  C   UNL     1     -42.905 -48.707  25.158  1.00  0.00     0.000 C 
BRANCH   3   4
ATOM      4  C   UNL     1     -43.259 -47.255  24.772  1.00  0.00     0.000 C 
BRANCH   4   5
ATOM      5  C   UNL     1     -42.450 -46.187  25.535  1.00  0.00     0.000 C 
BRANCH   5   6
ATOM      6  C   UNL     1     -41.109 -46.669  26.112  1.00  0.00     0.000 C 
BRANCH   6   7
ATOM      7  C   UNL     1     -41.011 -46.652  27.651  1.00  0.00     0.000 C 
BRANCH   7   8
ATOM      8  C   UNL     1     -39.940 -47.607  28.221  1.00  0.00     0.000 C 
BRANCH   8   9
ATOM      9  C   UNL     1     -40.416 -49.070  28.275  1.00  0.00     0.000 C 
BRANCH   9  10
ATOM     10  C   UNL     1     -41.663 -49.262  29.158  1.00  0.00     0.000 C 
BRANCH  10  11
ATOM     11  C   UNL     1     -42.750 -50.178  28.561  1.00  0.00     0.000 C 
BRANCH  11  12
ATOM     12  C   UNL     1     -44.170 -49.957  29.121  1.00  0.00     0.006 C 
BRANCH  12  13
ATOM     13  C   UNL     1     -44.215 -49.613  30.618  1.00  0.00     0.053 C 
BRANCH  13  14
ATOM     14  C   UNL     1     -44.089 -50.831  31.483  1.00  0.00     0.041 C 
ATOM     15  O   UNL     1     -42.962 -51.180  31.924  1.00  0.00    -0.550 OA
ATOM     16  O   UNL     1     -45.212 -51.588  31.791  1.00  0.00    -0.550 OA
ENDBRANCH  13  14
ENDBRANCH  12  13
ENDBRANCH  11  12
ENDBRANCH  10  11
ENDBRANCH   9  10
ENDBRANCH   8   9
ENDBRANCH   7   8
ENDBRANCH   6   7
ENDBRANCH   5   6
ENDBRANCH   4   5
ENDBRANCH   3   4
ENDBRANCH   2   3
ENDBRANCH   1   2
BRANCH   1  17
ATOM     17  C   UNL     1     -46.294 -49.238  25.478  1.00  0.00     0.000 C 
BRANCH  17  18
ATOM     18  C   UNL     1     -46.382 -48.162  26.569  1.00  0.00     0.000 C 
BRANCH  18  19
ATOM     19  C   UNL     1     -46.732 -46.793  25.965  1.00  0.00     0.000 C 
BRANCH  19  20
ATOM     20  C   UNL     1     -47.019 -46.868  24.451  1.00  0.00     0.000 C 
BRANCH  20  21
ATOM     21  C   UNL     1     -48.440 -46.429  24.062  1.00  0.00     0.000 C 
BRANCH  21  22
ATOM     22  C   UNL     1     -49.384 -46.293  25.270  1.00  0.00    -0.000 C 
BRANCH  22  23
ATOM     23  C   UNL     1     -50.471 -47.379  25.296  1.00  0.00    -0.000 C 
BRANCH  23  24
ATOM     24  C   UNL     1     -49.958 -48.720  25.842  1.00  0.00    -0.000 C 
BRANCH  24  25
ATOM     25  C   UNL     1     -50.302 -49.870  24.882  1.00  0.00    -0.000 C 
BRANCH  25  26
ATOM     26  C   UNL     1     -49.434 -49.866  23.613  1.00  0.00    -0.000 C 
BRANCH  26  27
ATOM     27  C   UNL     1     -50.274 -49.882  22.323  1.00  0.00    -0.000 C 
BRANCH  27  28
ATOM     28  C   UNL     1     -50.669 -48.471  21.860  1.00  0.00    -0.000 C 
BRANCH  28  29
ATOM     29  C   UNL     1     -52.148 -48.371  21.457  1.00  0.00    -0.003 C 
ATOM     30  C   UNL     1     -53.043 -48.220  22.685  1.00  0.00     0.004 C 
ENDBRANCH  28  29
ENDBRANCH  27  28
ENDBRANCH  26  27
ENDBRANCH  25  26
ENDBRANCH  24  25
ENDBRANCH  23  24
ENDBRANCH  22  23
ENDBRANCH  21  22
ENDBRANCH  20  21
ENDBRANCH  19  20
ENDBRANCH  18  19
ENDBRANCH  17  18
ENDBRANCH   1  17
TORSDOF 26
ENDMDL
MODEL 4
REMARK VINA RESULT:    -4.719      4.034      8.001
REMARK INTER + INTRA:         -16.134
REMARK INTER:                 -11.492
REMARK INTRA:                  -4.642
REMARK UNBOUND:                -4.242
REMARK SMILES CCCCCCCCCCCCCCCCCCCCCCCCCCCC(=O)[O-]
REMARK SMILES IDX 15 1 16 2 17 3 18 4 19 5 20 6 21 7 22 8 23 9 24 10 25 11
REMARK SMILES IDX 26 12 27 13 28 14 29 15 30 16 14 17 13 18 12 19 11 20 10 21
REMARK SMILES IDX 9 22 8 23 7 24 6 25 5 26 4 27 3 28 2 29 1 30
REMARK H PARENT
REMARK Flexibility Score: inf
ROOT
ATOM      1  C   UNL     1     -49.209 -50.052  24.729  1.00  0.00     0.000 C 
ENDROOT
BRANCH   1   2
ATOM      2  C   UNL     1     -50.375 -49.159  25.193  1.00  0.00     0.000 C 
BRANCH   2   3
ATOM      3  C   UNL     1     -51.483 -49.017  24.133  1.00  0.00     0.000 C 
BRANCH   3   4
ATOM      4  C   UNL     1     -52.095 -47.600  24.103  1.00  0.00     0.000 C 
BRANCH   4   5
ATOM      5  C   UNL     1     -51.777 -46.807  22.819  1.00  0.00     0.000 C 
BRANCH   5   6
ATOM      6  C   UNL     1     -50.291 -46.475  22.605  1.00  0.00     0.000 C 
BRANCH   6   7
ATOM      7  C   UNL     1     -49.678 -47.019  21.299  1.00  0.00     0.000 C 
BRANCH   7   8
ATOM      8  C   UNL     1     -48.772 -48.253  21.497  1.00  0.00     0.000 C 
BRANCH   8   9
ATOM      9  C   UNL     1     -49.449 -49.564  21.059  1.00  0.00     0.000 C 
BRANCH   9  10
ATOM     10  C   UNL     1     -50.210 -49.429  19.727  1.00  0.00     0.000 C 
BRANCH  10  11
ATOM     11  C   UNL     1     -50.202 -50.691  18.840  1.00  0.00     0.000 C 
BRANCH  11  12
ATOM     12  C   UNL     1     -48.864 -50.982  18.132  1.00  0.00     0.006 C 
BRANCH  12  13
ATOM     13  C   UNL     1     -48.584 -50.092  16.911  1.00  0.00     0.053 C 
BRANCH  13  14
ATOM     14  C   UNL     1     -47.464 -49.128  17.158  1.00  0.00     0.041 C 
ATOM     15  O   UNL     1     -46.983 -48.999  18.315  1.00  0.00    -0.550 OA
ATOM     16  O   UNL     1     -46.960 -48.362  16.115  1.00  0.00    -0.550 OA
ENDBRANCH  13  14
ENDBRANCH  12  13
ENDBRANCH  11  12
ENDBRANCH  10  11
ENDBRANCH   9  10
ENDBRANCH   8   9
ENDBRANCH   7   8
ENDBRANCH   6   7
ENDBRANCH   5   6
ENDBRANCH   4   5
ENDBRANCH   3   4
ENDBRANCH   2   3
ENDBRANCH   1   2
BRANCH   1  17
ATOM     17  C   UNL     1     -47.821 -49.387  24.773  1.00  0.00     0.000 C 
BRANCH  17  18
ATOM     18  C   UNL     1     -47.854 -47.955  25.324  1.00  0.00     0.000 C 
BRANCH  18  19
ATOM     19  C   UNL     1     -46.860 -47.054  24.576  1.00  0.00     0.000 C 
BRANCH  19  20
ATOM     20  C   UNL     1     -45.838 -47.858  23.746  1.00  0.00     0.000 C 
BRANCH  20  21
ATOM     21  C   UNL     1     -44.377 -47.434  23.971  1.00  0.00     0.000 C 
BRANCH  21  22
ATOM     22  C   UNL     1     -43.595 -48.409  24.869  1.00  0.00    -0.000 C 
BRANCH  22  23
ATOM     23  C   UNL     1     -44.175 -49.832  24.841  1.00  0.00    -0.000 C 
BRANCH  23  24
ATOM     24  C   UNL     1     -44.433 -50.396  26.246  1.00  0.00    -0.000 C 
BRANCH  24  25
ATOM     25  C   UNL     1     -44.885 -49.285  27.208  1.00  0.00    -0.000 C 
BRANCH  25  26
ATOM     26  C   UNL     1     -44.125 -49.310  28.544  1.00  0.00    -0.000 C 
BRANCH  26  27
ATOM     27  C   UNL     1     -42.881 -50.215  28.499  1.00  0.00    -0.000 C 
BRANCH  27  28
ATOM     28  C   UNL     1     -41.590 -49.461  28.853  1.00  0.00    -0.000 C 
BRANCH  28  29
ATOM     29  C   UNL     1     -40.842 -48.950  27.612  1.00  0.00    -0.003 C 
ATOM     30  C   UNL     1     -41.063 -47.452  27.416  1.00  0.00     0.004 C 
ENDBRANCH  28  29
ENDBRANCH  27  28
ENDBRANCH  26  27
ENDBRANCH  25  26
ENDBRANCH  24  25
ENDBRANCH  23  24
ENDBRANCH  22  23
ENDBRANCH  21  22
ENDBRANCH  20  21
ENDBRANCH  19  20
ENDBRANCH  18  19
ENDBRANCH  17  18
ENDBRANCH   1  17
TORSDOF 26
ENDMDL
MODEL 5
REMARK VINA RESULT:    -4.707      3.286      7.815
REMARK INTER + INTRA:         -16.104
REMARK INTER:                 -11.438
REMARK INTRA:                  -4.666
REMARK UNBOUND:                -4.242
REMARK SMILES CCCCCCCCCCCCCCCCCCCCCCCCCCCC(=O)[O-]
REMARK SMILES IDX 15 1 16 2 17 3 18 4 19 5 20 6 21 7 22 8 23 9 24 10 25 11
REMARK SMILES IDX 26 12 27 13 28 14 29 15 30 16 14 17 13 18 12 19 11 20 10 21
REMARK SMILES IDX 9 22 8 23 7 24 6 25 5 26 4 27 3 28 2 29 1 30
REMARK H PARENT
REMARK Flexibility Score: inf
ROOT
ATOM      1  C   UNL     1     -49.199 -50.083  24.075  1.00  0.00     0.000 C 
ENDROOT
BRANCH   1   2
ATOM      2  C   UNL     1     -50.303 -49.755  25.097  1.00  0.00     0.000 C 
BRANCH   2   3
ATOM      3  C   UNL     1     -51.342 -48.752  24.562  1.00  0.00     0.000 C 
BRANCH   3   4
ATOM      4  C   UNL     1     -51.113 -47.322  25.096  1.00  0.00     0.000 C 
BRANCH   4   5
ATOM      5  C   UNL     1     -51.896 -46.235  24.333  1.00  0.00     0.000 C 
BRANCH   5   6
ATOM      6  C   UNL     1     -53.346 -46.601  23.973  1.00  0.00     0.000 C 
BRANCH   6   7
ATOM      7  C   UNL     1     -53.633 -46.742  22.465  1.00  0.00     0.000 C 
BRANCH   7   8
ATOM      8  C   UNL     1     -54.111 -48.149  22.046  1.00  0.00     0.000 C 
BRANCH   8   9
ATOM      9  C   UNL     1     -53.248 -48.762  20.928  1.00  0.00     0.000 C 
BRANCH   9  10
ATOM     10  C   UNL     1     -51.763 -48.370  21.036  1.00  0.00     0.000 C 
BRANCH  10  11
ATOM     11  C   UNL     1     -50.767 -49.535  20.872  1.00  0.00     0.000 C 
BRANCH  11  12
ATOM     12  C   UNL     1     -49.508 -49.207  20.043  1.00  0.00     0.006 C 
BRANCH  12  13
ATOM     13  C   UNL     1     -48.926 -50.402  19.273  1.00  0.00     0.053 C 
BRANCH  13  14
ATOM     14  C   UNL     1     -48.153 -49.973  18.063  1.00  0.00     0.041 C 
ATOM     15  O   UNL     1     -46.982 -49.528  18.184  1.00  0.00    -0.550 OA
ATOM     16  O   UNL     1     -48.731 -50.053  16.801  1.00  0.00    -0.550 OA
ENDBRANCH  13  14
ENDBRANCH  12  13
ENDBRANCH  11  12
ENDBRANCH  10  11
ENDBRANCH   9  10
ENDBRANCH   8   9
ENDBRANCH   7   8
ENDBRANCH   6   7
ENDBRANCH   5   6
ENDBRANCH   4   5
ENDBRANCH   3   4
ENDBRANCH   2   3
ENDBRANCH   1   2
BRANCH   1  17
ATOM     17  C   UNL     1     -47.955 -49.179  24.145  1.00  0.00     0.000 C 
BRANCH  17  18
ATOM     18  C   UNL     1     -48.008 -48.002  23.160  1.00  0.00     0.000 C 
BRANCH  18  19
ATOM     19  C   UNL     1     -47.657 -46.681  23.861  1.00  0.00     0.000 C 
BRANCH  19  20
ATOM     20  C   UNL     1     -47.473 -46.848  25.384  1.00  0.00     0.000 C 
BRANCH  20  21
ATOM     21  C   UNL     1     -46.066 -46.488  25.887  1.00  0.00     0.000 C 
BRANCH  21  22
ATOM     22  C   UNL     1     -45.099 -46.102  24.754  1.00  0.00    -0.000 C 
BRANCH  22  23
ATOM     23  C   UNL     1     -43.918 -47.078  24.626  1.00  0.00    -0.000 C 
BRANCH  23  24
ATOM     24  C   UNL     1     -44.301 -48.382  23.912  1.00  0.00    -0.000 C 
BRANCH  24  25
ATOM     25  C   UNL     1     -43.846 -49.605  24.724  1.00  0.00    -0.000 C 
BRANCH  25  26
ATOM     26  C   UNL     1     -44.907 -50.078  25.732  1.00  0.00    -0.000 C 
BRANCH  26  27
ATOM     27  C   UNL     1     -44.432 -49.956  27.190  1.00  0.00    -0.000 C 
BRANCH  27  28
ATOM     28  C   UNL     1     -43.025 -49.349  27.303  1.00  0.00    -0.000 C 
BRANCH  28  29
ATOM     29  C   UNL     1     -42.850 -48.484  28.561  1.00  0.00    -0.003 C 
ATOM     30  C   UNL     1     -43.446 -47.093  28.358  1.00  0.00     0.004 C 
ENDBRANCH  28  29
ENDBRANCH  27  28
ENDBRANCH  26  27
ENDBRANCH  25  26
ENDBRANCH  24  25
ENDBRANCH  23  24
ENDBRANCH  22  23
ENDBRANCH  21  22
ENDBRANCH  20  21
ENDBRANCH  19  20
ENDBRANCH  18  19
ENDBRANCH  17  18
ENDBRANCH   1  17
TORSDOF 26
ENDMDL
MODEL 6
REMARK VINA RESULT:    -4.706      5.698      9.516
REMARK INTER + INTRA:         -16.100
REMARK INTER:                 -11.630
REMARK INTRA:                  -4.470
REMARK UNBOUND:                -4.242
REMARK SMILES CCCCCCCCCCCCCCCCCCCCCCCCCCCC(=O)[O-]
REMARK SMILES IDX 15 1 16 2 17 3 18 4 19 5 20 6 21 7 22 8 23 9 24 10 25 11
REMARK SMILES IDX 26 12 27 13 28 14 29 15 30 16 14 17 13 18 12 19 11 20 10 21
REMARK SMILES IDX 9 22 8 23 7 24 6 25 5 26 4 27 3 28 2 29 1 30
REMARK H PARENT
REMARK Flexibility Score: inf
ROOT
ATOM      1  C   UNL     1     -44.189 -49.885  27.139  1.00  0.00     0.000 C 
ENDROOT
BRANCH   1   2
ATOM      2  C   UNL     1     -45.170 -48.896  27.795  1.00  0.00     0.000 C 
BRANCH   2   3
ATOM      3  C   UNL     1     -44.476 -47.640  28.353  1.00  0.00     0.000 C 
BRANCH   3   4
ATOM      4  C   UNL     1     -44.648 -46.412  27.434  1.00  0.00     0.000 C 
BRANCH   4   5
ATOM      5  C   UNL     1     -45.886 -46.482  26.517  1.00  0.00     0.000 C 
BRANCH   5   6
ATOM      6  C   UNL     1     -45.591 -46.412  25.009  1.00  0.00     0.000 C 
BRANCH   6   7
ATOM      7  C   UNL     1     -46.452 -47.338  24.127  1.00  0.00     0.000 C 
BRANCH   7   8
ATOM      8  C   UNL     1     -47.540 -48.110  24.904  1.00  0.00     0.000 C 
BRANCH   8   9
ATOM      9  C   UNL     1     -47.771 -49.528  24.353  1.00  0.00     0.000 C 
BRANCH   9  10
ATOM     10  C   UNL     1     -49.135 -49.685  23.655  1.00  0.00     0.000 C 
BRANCH  10  11
ATOM     11  C   UNL     1     -49.133 -49.386  22.142  1.00  0.00     0.000 C 
BRANCH  11  12
ATOM     12  C   UNL     1     -50.522 -49.134  21.525  1.00  0.00     0.006 C 
BRANCH  12  13
ATOM     13  C   UNL     1     -51.118 -50.343  20.787  1.00  0.00     0.053 C 
BRANCH  13  14
ATOM     14  C   UNL     1     -51.079 -50.173  19.298  1.00  0.00     0.041 C 
ATOM     15  O   UNL     1     -49.975 -50.077  18.701  1.00  0.00    -0.550 OA
ATOM     16  O   UNL     1     -52.262 -50.108  18.572  1.00  0.00    -0.550 OA
ENDBRANCH  13  14
ENDBRANCH  12  13
ENDBRANCH  11  12
ENDBRANCH  10  11
ENDBRANCH   9  10
ENDBRANCH   8   9
ENDBRANCH   7   8
ENDBRANCH   6   7
ENDBRANCH   5   6
ENDBRANCH   4   5
ENDBRANCH   3   4
ENDBRANCH   2   3
ENDBRANCH   1   2
BRANCH   1  17
ATOM     17  C   UNL     1     -44.343 -50.044  25.616  1.00  0.00     0.000 C 
BRANCH  17  18
ATOM     18  C   UNL     1     -43.315 -49.231  24.816  1.00  0.00     0.000 C 
BRANCH  18  19
ATOM     19  C   UNL     1     -42.054 -48.963  25.652  1.00  0.00     0.000 C 
BRANCH  19  20
ATOM     20  C   UNL     1     -41.705 -47.463  25.736  1.00  0.00     0.000 C 
BRANCH  20  21
ATOM     21  C   UNL     1     -40.956 -47.067  27.019  1.00  0.00     0.000 C 
BRANCH  21  22
ATOM     22  C   UNL     1     -40.388 -48.274  27.786  1.00  0.00    -0.000 C 
BRANCH  22  23
ATOM     23  C   UNL     1     -40.957 -48.391  29.209  1.00  0.00    -0.000 C 
BRANCH  23  24
ATOM     24  C   UNL     1     -41.433 -49.813  29.543  1.00  0.00    -0.000 C 
BRANCH  24  25
ATOM     25  C   UNL     1     -41.434 -50.047  31.062  1.00  0.00    -0.000 C 
BRANCH  25  26
ATOM     26  C   UNL     1     -42.586 -50.954  31.523  1.00  0.00    -0.000 C 
BRANCH  26  27
ATOM     27  C   UNL     1     -43.954 -50.481  31.002  1.00  0.00    -0.000 C 
BRANCH  27  28
ATOM     28  C   UNL     1     -44.902 -51.649  30.690  1.00  0.00    -0.000 C 
BRANCH  28  29
ATOM     29  C   UNL     1     -45.962 -51.861  31.782  1.00  0.00    -0.003 C 
ATOM     30  C   UNL     1     -46.410 -50.529  32.378  1.00  0.00     0.004 C 
ENDBRANCH  28  29
ENDBRANCH  27  28
ENDBRANCH  26  27
ENDBRANCH  25  26
ENDBRANCH  24  25
ENDBRANCH  23  24
ENDBRANCH  22  23
ENDBRANCH  21  22
ENDBRANCH  20  21
ENDBRANCH  19  20
ENDBRANCH  18  19
ENDBRANCH  17  18
ENDBRANCH   1  17
TORSDOF 26
ENDMDL
MODEL 7
REMARK VINA RESULT:    -4.672      6.280      9.718
REMARK INTER + INTRA:         -16.015
REMARK INTER:                 -11.764
REMARK INTRA:                  -4.252
REMARK UNBOUND:                -4.242
REMARK SMILES CCCCCCCCCCCCCCCCCCCCCCCCCCCC(=O)[O-]
REMARK SMILES IDX 15 1 16 2 17 3 18 4 19 5 20 6 21 7 22 8 23 9 24 10 25 11
REMARK SMILES IDX 26 12 27 13 28 14 29 15 30 16 14 17 13 18 12 19 11 20 10 21
REMARK SMILES IDX 9 22 8 23 7 24 6 25 5 26 4 27 3 28 2 29 1 30
REMARK H PARENT
REMARK Flexibility Score: inf
ROOT
ATOM      1  C   UNL     1     -44.968 -49.959  24.820  1.00  0.00     0.000 C 
ENDROOT
BRANCH   1   2
ATOM      2  C   UNL     1     -44.605 -50.350  26.264  1.00  0.00     0.000 C 
BRANCH   2   3
ATOM      3  C   UNL     1     -43.685 -49.326  26.953  1.00  0.00     0.000 C 
BRANCH   3   4
ATOM      4  C   UNL     1     -44.412 -48.521  28.051  1.00  0.00     0.000 C 
BRANCH   4   5
ATOM      5  C   UNL     1     -44.024 -47.029  28.097  1.00  0.00     0.000 C 
BRANCH   5   6
ATOM      6  C   UNL     1     -43.119 -46.551  26.949  1.00  0.00     0.000 C 
BRANCH   6   7
ATOM      7  C   UNL     1     -41.740 -46.012  27.380  1.00  0.00     0.000 C 
BRANCH   7   8
ATOM      8  C   UNL     1     -40.615 -47.067  27.342  1.00  0.00     0.000 C 
BRANCH   8   9
ATOM      9  C   UNL     1     -39.658 -46.960  28.544  1.00  0.00     0.000 C 
BRANCH   9  10
ATOM     10  C   UNL     1     -39.679 -48.213  29.439  1.00  0.00     0.000 C 
BRANCH  10  11
ATOM     11  C   UNL     1     -40.818 -49.208  29.142  1.00  0.00     0.000 C 
BRANCH  11  12
ATOM     12  C   UNL     1     -41.459 -49.857  30.386  1.00  0.00     0.006 C 
BRANCH  12  13
ATOM     13  C   UNL     1     -42.288 -51.116  30.089  1.00  0.00     0.053 C 
BRANCH  13  14
ATOM     14  C   UNL     1     -43.546 -51.170  30.902  1.00  0.00     0.041 C 
ATOM     15  O   UNL     1     -43.486 -51.209  32.160  1.00  0.00    -0.550 OA
ATOM     16  O   UNL     1     -44.784 -51.192  30.272  1.00  0.00    -0.550 OA
ENDBRANCH  13  14
ENDBRANCH  12  13
ENDBRANCH  11  12
ENDBRANCH  10  11
ENDBRANCH   9  10
ENDBRANCH   8   9
ENDBRANCH   7   8
ENDBRANCH   6   7
ENDBRANCH   5   6
ENDBRANCH   4   5
ENDBRANCH   3   4
ENDBRANCH   2   3
ENDBRANCH   1   2
BRANCH   1  17
ATOM     17  C   UNL     1     -43.977 -49.002  24.134  1.00  0.00     0.000 C 
BRANCH  17  18
ATOM     18  C   UNL     1     -44.585 -47.629  23.814  1.00  0.00     0.000 C 
BRANCH  18  19
ATOM     19  C   UNL     1     -46.018 -47.773  23.278  1.00  0.00     0.000 C 
BRANCH  19  20
ATOM     20  C   UNL     1     -46.998 -46.775  23.929  1.00  0.00     0.000 C 
BRANCH  20  21
ATOM     21  C   UNL     1     -46.955 -46.768  25.466  1.00  0.00     0.000 C 
BRANCH  21  22
ATOM     22  C   UNL     1     -47.573 -48.030  26.094  1.00  0.00    -0.000 C 
BRANCH  22  23
ATOM     23  C   UNL     1     -48.834 -48.501  25.354  1.00  0.00    -0.000 C 
BRANCH  23  24
ATOM     24  C   UNL     1     -48.693 -49.920  24.783  1.00  0.00    -0.000 C 
BRANCH  24  25
ATOM     25  C   UNL     1     -49.377 -50.030  23.411  1.00  0.00    -0.000 C 
BRANCH  25  26
ATOM     26  C   UNL     1     -50.545 -49.043  23.249  1.00  0.00    -0.000 C 
BRANCH  26  27
ATOM     27  C   UNL     1     -51.101 -49.018  21.815  1.00  0.00    -0.000 C 
BRANCH  27  28
ATOM     28  C   UNL     1     -52.029 -47.819  21.563  1.00  0.00    -0.000 C 
BRANCH  28  29
ATOM     29  C   UNL     1     -53.453 -48.049  22.091  1.00  0.00    -0.003 C 
ATOM     30  C   UNL     1     -54.145 -46.723  22.399  1.00  0.00     0.004 C 
ENDBRANCH  28  29
ENDBRANCH  27  28
ENDBRANCH  26  27
ENDBRANCH  25  26
ENDBRANCH  24  25
ENDBRANCH  23  24
ENDBRANCH  22  23
ENDBRANCH  21  22
ENDBRANCH  20  21
ENDBRANCH  19  20
ENDBRANCH  18  19
ENDBRANCH  17  18
ENDBRANCH   1  17
TORSDOF 26
ENDMDL
MODEL 8
REMARK VINA RESULT:    -4.659      5.203      9.230
REMARK INTER + INTRA:         -15.982
REMARK INTER:                 -12.507
REMARK INTRA:                  -3.476
REMARK UNBOUND:                -4.242
REMARK SMILES CCCCCCCCCCCCCCCCCCCCCCCCCCCC(=O)[O-]
REMARK SMILES IDX 15 1 16 2 17 3 18 4 19 5 20 6 21 7 22 8 23 9 24 10 25 11
REMARK SMILES IDX 26 12 27 13 28 14 29 15 30 16 14 17 13 18 12 19 11 20 10 21
REMARK SMILES IDX 9 22 8 23 7 24 6 25 5 26 4 27 3 28 2 29 1 30
REMARK H PARENT
REMARK Flexibility Score: inf
ROOT
ATOM      1  C   UNL     1     -45.965 -50.143  25.136  1.00  0.00     0.000 C 
ENDROOT
BRANCH   1   2
ATOM      2  C   UNL     1     -46.413 -48.725  24.736  1.00  0.00     0.000 C 
BRANCH   2   3
ATOM      3  C   UNL     1     -47.783 -48.700  24.035  1.00  0.00     0.000 C 
BRANCH   3   4
ATOM      4  C   UNL     1     -48.583 -50.003  24.254  1.00  0.00     0.000 C 
BRANCH   4   5
ATOM      5  C   UNL     1     -49.975 -50.003  23.590  1.00  0.00     0.000 C 
BRANCH   5   6
ATOM      6  C   UNL     1     -51.084 -49.302  24.392  1.00  0.00     0.000 C 
BRANCH   6   7
ATOM      7  C   UNL     1     -52.005 -48.378  23.571  1.00  0.00     0.000 C 
BRANCH   7   8
ATOM      8  C   UNL     1     -51.558 -48.189  22.105  1.00  0.00     0.000 C 
BRANCH   8   9
ATOM      9  C   UNL     1     -52.657 -48.567  21.095  1.00  0.00     0.000 C 
BRANCH   9  10
ATOM     10  C   UNL     1     -52.444 -49.960  20.473  1.00  0.00     0.000 C 
BRANCH  10  11
ATOM     11  C   UNL     1     -51.684 -49.965  19.131  1.00  0.00     0.000 C 
BRANCH  11  12
ATOM     12  C   UNL     1     -50.289 -50.621  19.173  1.00  0.00     0.006 C 
BRANCH  12  13
ATOM     13  C   UNL     1     -49.268 -50.003  18.205  1.00  0.00     0.053 C 
BRANCH  13  14
ATOM     14  C   UNL     1     -49.033 -50.867  17.003  1.00  0.00     0.041 C 
ATOM     15  O   UNL     1     -49.976 -51.110  16.204  1.00  0.00    -0.550 OA
ATOM     16  O   UNL     1     -47.778 -51.416  16.773  1.00  0.00    -0.550 OA
ENDBRANCH  13  14
ENDBRANCH  12  13
ENDBRANCH  11  12
ENDBRANCH  10  11
ENDBRANCH   9  10
ENDBRANCH   8   9
ENDBRANCH   7   8
ENDBRANCH   6   7
ENDBRANCH   5   6
ENDBRANCH   4   5
ENDBRANCH   3   4
ENDBRANCH   2   3
ENDBRANCH   1   2
BRANCH   1  17
ATOM     17  C   UNL     1     -44.448 -50.319  25.329  1.00  0.00     0.000 C 
BRANCH  17  18
ATOM     18  C   UNL     1     -43.614 -49.384  24.441  1.00  0.00     0.000 C 
BRANCH  18  19
ATOM     19  C   UNL     1     -42.562 -48.631  25.269  1.00  0.00     0.000 C 
BRANCH  19  20
ATOM     20  C   UNL     1     -42.693 -47.099  25.145  1.00  0.00     0.000 C 
BRANCH  20  21
ATOM     21  C   UNL     1     -43.842 -46.501  25.972  1.00  0.00     0.000 C 
BRANCH  21  22
ATOM     22  C   UNL     1     -43.654 -46.682  27.489  1.00  0.00    -0.000 C 
BRANCH  22  23
ATOM     23  C   UNL     1     -44.637 -47.701  28.089  1.00  0.00    -0.000 C 
BRANCH  23  24
ATOM     24  C   UNL     1     -43.929 -48.915  28.709  1.00  0.00    -0.000 C 
BRANCH  24  25
ATOM     25  C   UNL     1     -42.459 -48.591  29.020  1.00  0.00    -0.000 C 
BRANCH  25  26
ATOM     26  C   UNL     1     -41.496 -49.699  28.561  1.00  0.00    -0.000 C 
BRANCH  26  27
ATOM     27  C   UNL     1     -40.165 -49.140  28.028  1.00  0.00    -0.000 C 
BRANCH  27  28
ATOM     28  C   UNL     1     -40.117 -47.605  28.055  1.00  0.00    -0.000 C 
BRANCH  28  29
ATOM     29  C   UNL     1     -39.110 -47.061  29.081  1.00  0.00    -0.003 C 
ATOM     30  C   UNL     1     -37.683 -47.456  28.711  1.00  0.00     0.004 C 
ENDBRANCH  28  29
ENDBRANCH  27  28
ENDBRANCH  26  27
ENDBRANCH  25  26
ENDBRANCH  24  25
ENDBRANCH  23  24
ENDBRANCH  22  23
ENDBRANCH  21  22
ENDBRANCH  20  21
ENDBRANCH  19  20
ENDBRANCH  18  19
ENDBRANCH  17  18
ENDBRANCH   1  17
TORSDOF 26
ENDMDL
MODEL 9
REMARK VINA RESULT:    -4.639      3.659      7.608
REMARK INTER + INTRA:         -15.932
REMARK INTER:                 -12.290
REMARK INTRA:                  -3.642
REMARK UNBOUND:                -4.242
REMARK SMILES CCCCCCCCCCCCCCCCCCCCCCCCCCCC(=O)[O-]
REMARK SMILES IDX 15 1 16 2 17 3 18 4 19 5 20 6 21 7 22 8 23 9 24 10 25 11
REMARK SMILES IDX 26 12 27 13 28 14 29 15 30 16 14 17 13 18 12 19 11 20 10 21
REMARK SMILES IDX 9 22 8 23 7 24 6 25 5 26 4 27 3 28 2 29 1 30
REMARK H PARENT
REMARK Flexibility Score: inf
ROOT
ATOM      1  C   UNL     1     -50.528 -49.144  25.013  1.00  0.00     0.000 C 
ENDROOT
BRANCH   1   2
ATOM      2  C   UNL     1     -51.875 -48.845  24.329  1.00  0.00     0.000 C 
BRANCH   2   3
ATOM      3  C   UNL     1     -51.969 -47.407  23.787  1.00  0.00     0.000 C 
BRANCH   3   4
ATOM      4  C   UNL     1     -52.128 -47.363  22.252  1.00  0.00     0.000 C 
BRANCH   4   5
ATOM      5  C   UNL     1     -53.514 -47.816  21.751  1.00  0.00     0.000 C 
BRANCH   5   6
ATOM      6  C   UNL     1     -53.494 -48.841  20.604  1.00  0.00     0.000 C 
BRANCH   6   7
ATOM      7  C   UNL     1     -52.331 -49.852  20.647  1.00  0.00     0.000 C 
BRANCH   7   8
ATOM      8  C   UNL     1     -51.375 -49.758  19.439  1.00  0.00     0.000 C 
BRANCH   8   9
ATOM      9  C   UNL     1     -49.910 -49.532  19.856  1.00  0.00     0.000 C 
BRANCH   9  10
ATOM     10  C   UNL     1     -49.409 -48.112  19.535  1.00  0.00     0.000 C 
BRANCH  10  11
ATOM     11  C   UNL     1     -47.894 -47.999  19.269  1.00  0.00     0.000 C 
BRANCH  11  12
ATOM     12  C   UNL     1     -47.301 -49.118  18.389  1.00  0.00     0.006 C 
BRANCH  12  13
ATOM     13  C   UNL     1     -47.652 -49.006  16.897  1.00  0.00     0.053 C 
BRANCH  13  14
ATOM     14  C   UNL     1     -48.097 -50.315  16.320  1.00  0.00     0.041 C 
ATOM     15  O   UNL     1     -47.986 -50.533  15.085  1.00  0.00    -0.550 OA
ATOM     16  O   UNL     1     -48.646 -51.290  17.144  1.00  0.00    -0.550 OA
ENDBRANCH  13  14
ENDBRANCH  12  13
ENDBRANCH  11  12
ENDBRANCH  10  11
ENDBRANCH   9  10
ENDBRANCH   8   9
ENDBRANCH   7   8
ENDBRANCH   6   7
ENDBRANCH   5   6
ENDBRANCH   4   5
ENDBRANCH   3   4
ENDBRANCH   2   3
ENDBRANCH   1   2
BRANCH   1  17
ATOM     17  C   UNL     1     -49.627 -50.147  24.270  1.00  0.00     0.000 C 
BRANCH  17  18
ATOM     18  C   UNL     1     -48.817 -49.505  23.136  1.00  0.00     0.000 C 
BRANCH  18  19
ATOM     19  C   UNL     1     -48.308 -48.113  23.542  1.00  0.00     0.000 C 
BRANCH  19  20
ATOM     20  C   UNL     1     -46.786 -48.088  23.794  1.00  0.00     0.000 C 
BRANCH  20  21
ATOM     21  C   UNL     1     -46.376 -48.576  25.193  1.00  0.00     0.000 C 
BRANCH  21  22
ATOM     22  C   UNL     1     -45.774 -49.993  25.187  1.00  0.00    -0.000 C 
BRANCH  22  23
ATOM     23  C   UNL     1     -44.369 -50.040  25.807  1.00  0.00    -0.000 C 
BRANCH  23  24
ATOM     24  C   UNL     1     -43.297 -49.424  24.896  1.00  0.00    -0.000 C 
BRANCH  24  25
ATOM     25  C   UNL     1     -42.702 -48.156  25.530  1.00  0.00    -0.000 C 
BRANCH  25  26
ATOM     26  C   UNL     1     -41.614 -48.466  26.571  1.00  0.00    -0.000 C 
BRANCH  26  27
ATOM     27  C   UNL     1     -41.967 -47.930  27.970  1.00  0.00    -0.000 C 
BRANCH  27  28
ATOM     28  C   UNL     1     -43.309 -47.182  27.994  1.00  0.00    -0.000 C 
BRANCH  28  29
ATOM     29  C   UNL     1     -44.267 -47.716  29.071  1.00  0.00    -0.003 C 
ATOM     30  C   UNL     1     -43.928 -49.158  29.440  1.00  0.00     0.004 C 
ENDBRANCH  28  29
ENDBRANCH  27  28
ENDBRANCH  26  27
ENDBRANCH  25  26
ENDBRANCH  24  25
ENDBRANCH  23  24
ENDBRANCH  22  23
ENDBRANCH  21  22
ENDBRANCH  20  21
ENDBRANCH  19  20
ENDBRANCH  18  19
ENDBRANCH  17  18
ENDBRANCH   1  17
TORSDOF 26
ENDMDL
