MODEL 1
REMARK VINA RESULT:    -8.508      0.000      0.000
REMARK INTER + INTRA:         -10.550
REMARK INTER:                 -10.249
REMARK INTRA:                  -0.301
REMARK UNBOUND:                -0.301
REMARK SMILES O=c1c(O)c(-c2ccc(O)c(O)c2)oc2cc(O)cc(O)c12
REMARK SMILES IDX 5 1 3 2 2 3 1 4 22 5 20 6 19 7 17 8 16 9 15 10 14 11 6 12
REMARK SMILES IDX 7 13 8 14 9 15 13 16 11 17 10 18 12 20 4 22 21 24 18 26
REMARK H PARENT 10 19 12 21 4 23 21 25 18 27
REMARK Flexibility Score: inf
ROOT
ATOM      1  C   UNL     1     -67.439 -39.056 -38.148  1.00  0.00     0.180 A 
ATOM      2  C   UNL     1     -67.657 -40.156 -37.296  1.00  0.00     0.208 A 
ATOM      3  C   UNL     1     -67.700 -41.445 -37.851  1.00  0.00     0.238 A 
ATOM      4  O   UNL     1     -67.884 -42.438 -37.095  1.00  0.00    -0.285 OA
ATOM      5  C   UNL     1     -67.546 -41.610 -39.242  1.00  0.00     0.111 A 
ATOM      6  C   UNL     1     -67.581 -42.875 -39.879  1.00  0.00     0.134 A 
ATOM      7  C   UNL     1     -67.429 -42.955 -41.271  1.00  0.00     0.093 A 
ATOM      8  C   UNL     1     -67.243 -41.799 -42.036  1.00  0.00     0.123 A 
ATOM      9  C   UNL     1     -67.208 -40.551 -41.412  1.00  0.00     0.094 A 
ATOM     10  C   UNL     1     -67.356 -40.448 -40.026  1.00  0.00     0.146 A 
ATOM     11  O   UNL     1     -67.313 -39.249 -39.458  1.00  0.00    -0.452 OA
ENDROOT
BRANCH   1  12
ATOM     12  C   UNL     1     -67.361 -37.668 -37.637  1.00  0.00     0.025 A 
ATOM     13  C   UNL     1     -68.476 -36.813 -37.668  1.00  0.00     0.016 A 
ATOM     14  C   UNL     1     -68.386 -35.515 -37.159  1.00  0.00     0.051 A 
ATOM     15  C   UNL     1     -67.185 -35.057 -36.600  1.00  0.00     0.157 A 
ATOM     16  C   UNL     1     -66.166 -37.211 -37.057  1.00  0.00     0.062 A 
ATOM     17  C   UNL     1     -66.075 -35.908 -36.547  1.00  0.00     0.158 A 
BRANCH  15  18
ATOM     18  O   UNL     1     -67.090 -33.763 -36.093  1.00  0.00    -0.504 OA
ATOM     19  H   UNL     1     -66.940 -33.591 -35.105  1.00  0.00     0.293 HD
ENDBRANCH  15  18
BRANCH  17  20
ATOM     20  O   UNL     1     -64.883 -35.453 -35.984  1.00  0.00    -0.504 OA
ATOM     21  H   UNL     1     -64.738 -34.474 -35.768  1.00  0.00     0.293 HD
ENDBRANCH  17  20
ENDBRANCH   1  12
BRANCH   2  22
ATOM     22  O   UNL     1     -67.855 -39.959 -35.927  1.00  0.00    -0.502 OA
ATOM     23  H   UNL     1     -67.629 -40.668 -35.239  1.00  0.00     0.293 HD
ENDBRANCH   2  22
BRANCH   6  24
ATOM     24  O   UNL     1     -67.766 -44.046 -39.143  1.00  0.00    -0.507 OA
ATOM     25  H   UNL     1     -68.050 -44.024 -38.170  1.00  0.00     0.293 HD
ENDBRANCH   6  24
BRANCH   8  26
ATOM     26  O   UNL     1     -67.094 -41.879 -43.420  1.00  0.00    -0.508 OA
ATOM     27  H   UNL     1     -67.647 -42.521 -43.976  1.00  0.00     0.293 HD
ENDBRANCH   8  26
TORSDOF 6
ENDMDL
MODEL 2
REMARK VINA RESULT:    -8.151      7.006      9.432
REMARK INTER + INTRA:         -10.120
REMARK INTER:                 -10.002
REMARK INTRA:                  -0.118
REMARK UNBOUND:                -0.301
REMARK SMILES O=c1c(O)c(-c2ccc(O)c(O)c2)oc2cc(O)cc(O)c12
REMARK SMILES IDX 5 1 3 2 2 3 1 4 22 5 20 6 19 7 17 8 16 9 15 10 14 11 6 12
REMARK SMILES IDX 7 13 8 14 9 15 13 16 11 17 10 18 12 20 4 22 21 24 18 26
REMARK H PARENT 10 19 12 21 4 23 21 25 18 27
REMARK Flexibility Score: inf
ROOT
ATOM      1  C   UNL     1     -65.625 -38.298 -30.211  1.00  0.00     0.180 A 
ATOM      2  C   UNL     1     -65.906 -39.376 -31.071  1.00  0.00     0.208 A 
ATOM      3  C   UNL     1     -66.141 -39.116 -32.430  1.00  0.00     0.238 A 
ATOM      4  O   UNL     1     -66.384 -40.076 -33.212  1.00  0.00    -0.285 OA
ATOM      5  C   UNL     1     -66.110 -37.788 -32.900  1.00  0.00     0.111 A 
ATOM      6  C   UNL     1     -66.339 -37.441 -34.254  1.00  0.00     0.134 A 
ATOM      7  C   UNL     1     -66.300 -36.093 -34.642  1.00  0.00     0.093 A 
ATOM      8  C   UNL     1     -66.037 -35.089 -33.705  1.00  0.00     0.123 A 
ATOM      9  C   UNL     1     -65.810 -35.426 -32.370  1.00  0.00     0.094 A 
ATOM     10  C   UNL     1     -65.843 -36.764 -31.962  1.00  0.00     0.146 A 
ATOM     11  O   UNL     1     -65.618 -37.056 -30.687  1.00  0.00    -0.452 OA
ENDROOT
BRANCH   1  12
ATOM     12  C   UNL     1     -65.347 -38.493 -28.769  1.00  0.00     0.025 A 
ATOM     13  C   UNL     1     -64.125 -38.098 -28.198  1.00  0.00     0.016 A 
ATOM     14  C   UNL     1     -63.894 -38.269 -26.831  1.00  0.00     0.051 A 
ATOM     15  C   UNL     1     -64.887 -38.826 -26.012  1.00  0.00     0.157 A 
ATOM     16  C   UNL     1     -66.346 -39.030 -27.939  1.00  0.00     0.062 A 
ATOM     17  C   UNL     1     -66.115 -39.203 -26.567  1.00  0.00     0.158 A 
BRANCH  15  18
ATOM     18  O   UNL     1     -64.660 -39.000 -24.648  1.00  0.00    -0.504 OA
ATOM     19  H   UNL     1     -64.312 -38.245 -24.068  1.00  0.00     0.293 HD
ENDBRANCH  15  18
BRANCH  17  20
ATOM     20  O   UNL     1     -67.103 -39.750 -25.749  1.00  0.00    -0.504 OA
ATOM     21  H   UNL     1     -66.913 -40.538 -25.141  1.00  0.00     0.293 HD
ENDBRANCH  17  20
ENDBRANCH   1  12
BRANCH   2  22
ATOM     22  O   UNL     1     -65.980 -40.679 -30.569  1.00  0.00    -0.502 OA
ATOM     23  H   UNL     1     -65.633 -40.926 -29.650  1.00  0.00     0.293 HD
ENDBRANCH   2  22
BRANCH   6  24
ATOM     24  O   UNL     1     -66.606 -38.420 -35.212  1.00  0.00    -0.507 OA
ATOM     25  H   UNL     1     -66.696 -39.399 -34.963  1.00  0.00     0.293 HD
ENDBRANCH   6  24
BRANCH   8  26
ATOM     26  O   UNL     1     -66.000 -33.750 -34.090  1.00  0.00    -0.508 OA
ATOM     27  H   UNL     1     -65.728 -33.019 -33.442  1.00  0.00     0.293 HD
ENDBRANCH   8  26
TORSDOF 6
ENDMDL
MODEL 3
REMARK VINA RESULT:    -8.119      1.861      2.808
REMARK INTER + INTRA:         -10.081
REMARK INTER:                 -10.249
REMARK INTRA:                   0.167
REMARK UNBOUND:                -0.301
REMARK SMILES O=c1c(O)c(-c2ccc(O)c(O)c2)oc2cc(O)cc(O)c12
REMARK SMILES IDX 5 1 3 2 2 3 1 4 22 5 20 6 19 7 17 8 16 9 15 10 14 11 6 12
REMARK SMILES IDX 7 13 8 14 9 15 13 16 11 17 10 18 12 20 4 22 21 24 18 26
REMARK H PARENT 10 19 12 21 4 23 21 25 18 27
REMARK Flexibility Score: inf
ROOT
ATOM      1  C   UNL     1     -67.414 -37.813 -36.962  1.00  0.00     0.180 A 
ATOM      2  C   UNL     1     -66.968 -38.255 -35.702  1.00  0.00     0.208 A 
ATOM      3  C   UNL     1     -66.759 -39.628 -35.500  1.00  0.00     0.238 A 
ATOM      4  O   UNL     1     -66.350 -40.034 -34.378  1.00  0.00    -0.285 OA
ATOM      5  C   UNL     1     -67.017 -40.534 -36.549  1.00  0.00     0.111 A 
ATOM      6  C   UNL     1     -66.836 -41.933 -36.425  1.00  0.00     0.134 A 
ATOM      7  C   UNL     1     -67.124 -42.770 -37.513  1.00  0.00     0.093 A 
ATOM      8  C   UNL     1     -67.589 -42.236 -38.720  1.00  0.00     0.123 A 
ATOM      9  C   UNL     1     -67.768 -40.858 -38.846  1.00  0.00     0.094 A 
ATOM     10  C   UNL     1     -67.486 -40.006 -37.774  1.00  0.00     0.146 A 
ATOM     11  O   UNL     1     -67.661 -38.698 -37.924  1.00  0.00    -0.452 OA
ENDROOT
BRANCH   1  12
ATOM     12  C   UNL     1     -67.639 -36.380 -37.260  1.00  0.00     0.025 A 
ATOM     13  C   UNL     1     -68.766 -35.950 -37.981  1.00  0.00     0.016 A 
ATOM     14  C   UNL     1     -68.971 -34.591 -38.230  1.00  0.00     0.051 A 
ATOM     15  C   UNL     1     -68.059 -33.640 -37.750  1.00  0.00     0.157 A 
ATOM     16  C   UNL     1     -66.740 -35.422 -36.764  1.00  0.00     0.062 A 
ATOM     17  C   UNL     1     -66.944 -34.056 -37.014  1.00  0.00     0.158 A 
BRANCH  15  18
ATOM     18  O   UNL     1     -68.258 -32.283 -37.997  1.00  0.00    -0.504 OA
ATOM     19  H   UNL     1     -69.093 -31.804 -37.680  1.00  0.00     0.293 HD
ENDBRANCH  15  18
BRANCH  17  20
ATOM     20  O   UNL     1     -66.042 -33.109 -36.531  1.00  0.00    -0.504 OA
ATOM     21  H   UNL     1     -65.869 -32.998 -35.539  1.00  0.00     0.293 HD
ENDBRANCH  17  20
ENDBRANCH   1  12
BRANCH   2  22
ATOM     22  O   UNL     1     -66.767 -37.341 -34.664  1.00  0.00    -0.502 OA
ATOM     23  H   UNL     1     -66.830 -37.606 -33.689  1.00  0.00     0.293 HD
ENDBRANCH   2  22
BRANCH   6  24
ATOM     24  O   UNL     1     -66.375 -42.496 -35.233  1.00  0.00    -0.507 OA
ATOM     25  H   UNL     1     -66.404 -41.986 -34.358  1.00  0.00     0.293 HD
ENDBRANCH   6  24
BRANCH   8  26
ATOM     26  O   UNL     1     -67.876 -43.068 -39.800  1.00  0.00    -0.508 OA
ATOM     27  H   UNL     1     -67.812 -44.077 -39.724  1.00  0.00     0.293 HD
ENDBRANCH   8  26
TORSDOF 6
ENDMDL
MODEL 4
REMARK VINA RESULT:    -8.026      5.977      8.570
REMARK INTER + INTRA:          -9.969
REMARK INTER:                  -9.816
REMARK INTRA:                  -0.153
REMARK UNBOUND:                -0.301
REMARK SMILES O=c1c(O)c(-c2ccc(O)c(O)c2)oc2cc(O)cc(O)c12
REMARK SMILES IDX 5 1 3 2 2 3 1 4 22 5 20 6 19 7 17 8 16 9 15 10 14 11 6 12
REMARK SMILES IDX 7 13 8 14 9 15 13 16 11 17 10 18 12 20 4 22 21 24 18 26
REMARK H PARENT 10 19 12 21 4 23 21 25 18 27
REMARK Flexibility Score: inf
ROOT
ATOM      1  C   UNL     1     -65.725 -38.036 -31.443  1.00  0.00     0.180 A 
ATOM      2  C   UNL     1     -66.230 -38.985 -32.352  1.00  0.00     0.208 A 
ATOM      3  C   UNL     1     -66.591 -38.563 -33.641  1.00  0.00     0.238 A 
ATOM      4  O   UNL     1     -67.036 -39.406 -34.467  1.00  0.00    -0.285 OA
ATOM      5  C   UNL     1     -66.461 -37.204 -33.992  1.00  0.00     0.111 A 
ATOM      6  C   UNL     1     -66.806 -36.697 -35.268  1.00  0.00     0.134 A 
ATOM      7  C   UNL     1     -66.656 -35.329 -35.537  1.00  0.00     0.093 A 
ATOM      8  C   UNL     1     -66.169 -34.459 -34.555  1.00  0.00     0.123 A 
ATOM      9  C   UNL     1     -65.827 -34.954 -33.296  1.00  0.00     0.094 A 
ATOM     10  C   UNL     1     -65.967 -36.316 -33.008  1.00  0.00     0.146 A 
ATOM     11  O   UNL     1     -65.629 -36.760 -31.804  1.00  0.00    -0.452 OA
ENDROOT
BRANCH   1  12
ATOM     12  C   UNL     1     -65.304 -38.406 -30.072  1.00  0.00     0.025 A 
ATOM     13  C   UNL     1     -65.994 -37.935 -28.941  1.00  0.00     0.016 A 
ATOM     14  C   UNL     1     -65.594 -38.316 -27.659  1.00  0.00     0.051 A 
ATOM     15  C   UNL     1     -64.507 -39.184 -27.487  1.00  0.00     0.157 A 
ATOM     16  C   UNL     1     -64.229 -39.293 -29.894  1.00  0.00     0.062 A 
ATOM     17  C   UNL     1     -63.825 -39.675 -28.606  1.00  0.00     0.158 A 
BRANCH  15  18
ATOM     18  O   UNL     1     -64.103 -39.566 -26.209  1.00  0.00    -0.504 OA
ATOM     19  H   UNL     1     -63.780 -38.885 -25.530  1.00  0.00     0.293 HD
ENDBRANCH  15  18
BRANCH  17  20
ATOM     20  O   UNL     1     -62.749 -40.544 -28.434  1.00  0.00    -0.504 OA
ATOM     21  H   UNL     1     -62.860 -41.548 -28.512  1.00  0.00     0.293 HD
ENDBRANCH  17  20
ENDBRANCH   1  12
BRANCH   2  22
ATOM     22  O   UNL     1     -66.395 -40.317 -31.963  1.00  0.00    -0.502 OA
ATOM     23  H   UNL     1     -66.764 -40.575 -31.056  1.00  0.00     0.293 HD
ENDBRANCH   2  22
BRANCH   6  24
ATOM     24  O   UNL     1     -67.297 -37.540 -36.267  1.00  0.00    -0.507 OA
ATOM     25  H   UNL     1     -68.002 -37.231 -36.927  1.00  0.00     0.293 HD
ENDBRANCH   6  24
BRANCH   8  26
ATOM     26  O   UNL     1     -66.021 -33.099 -34.821  1.00  0.00    -0.508 OA
ATOM     27  H   UNL     1     -65.109 -32.656 -34.823  1.00  0.00     0.293 HD
ENDBRANCH   8  26
TORSDOF 6
ENDMDL
MODEL 5
REMARK VINA RESULT:    -7.969      5.255      7.778
REMARK INTER + INTRA:          -9.901
REMARK INTER:                  -9.682
REMARK INTRA:                  -0.218
REMARK UNBOUND:                -0.301
REMARK SMILES O=c1c(O)c(-c2ccc(O)c(O)c2)oc2cc(O)cc(O)c12
REMARK SMILES IDX 5 1 3 2 2 3 1 4 22 5 20 6 19 7 17 8 16 9 15 10 14 11 6 12
REMARK SMILES IDX 7 13 8 14 9 15 13 16 11 17 10 18 12 20 4 22 21 24 18 26
REMARK H PARENT 10 19 12 21 4 23 21 25 18 27
REMARK Flexibility Score: inf
ROOT
ATOM      1  C   UNL     1     -65.928 -37.549 -32.204  1.00  0.00     0.180 A 
ATOM      2  C   UNL     1     -65.864 -36.164 -32.452  1.00  0.00     0.208 A 
ATOM      3  C   UNL     1     -66.395 -35.665 -33.652  1.00  0.00     0.238 A 
ATOM      4  O   UNL     1     -66.353 -34.426 -33.880  1.00  0.00    -0.285 OA
ATOM      5  C   UNL     1     -66.960 -36.556 -34.587  1.00  0.00     0.111 A 
ATOM      6  C   UNL     1     -67.513 -36.133 -35.821  1.00  0.00     0.134 A 
ATOM      7  C   UNL     1     -68.049 -37.083 -36.704  1.00  0.00     0.093 A 
ATOM      8  C   UNL     1     -68.042 -38.444 -36.377  1.00  0.00     0.123 A 
ATOM      9  C   UNL     1     -67.498 -38.864 -35.162  1.00  0.00     0.094 A 
ATOM     10  C   UNL     1     -66.961 -37.933 -34.267  1.00  0.00     0.146 A 
ATOM     11  O   UNL     1     -66.456 -38.360 -33.116  1.00  0.00    -0.452 OA
ENDROOT
BRANCH   1  12
ATOM     12  C   UNL     1     -65.408 -38.150 -30.954  1.00  0.00     0.025 A 
ATOM     13  C   UNL     1     -66.013 -37.895 -29.712  1.00  0.00     0.016 A 
ATOM     14  C   UNL     1     -65.520 -38.492 -28.549  1.00  0.00     0.051 A 
ATOM     15  C   UNL     1     -64.423 -39.361 -28.613  1.00  0.00     0.157 A 
ATOM     16  C   UNL     1     -64.322 -39.038 -31.015  1.00  0.00     0.062 A 
ATOM     17  C   UNL     1     -63.825 -39.637 -29.848  1.00  0.00     0.158 A 
BRANCH  15  18
ATOM     18  O   UNL     1     -63.926 -39.958 -27.455  1.00  0.00    -0.504 OA
ATOM     19  H   UNL     1     -64.340 -40.800 -27.074  1.00  0.00     0.293 HD
ENDBRANCH  15  18
BRANCH  17  20
ATOM     20  O   UNL     1     -62.738 -40.508 -29.910  1.00  0.00    -0.504 OA
ATOM     21  H   UNL     1     -62.479 -40.973 -30.772  1.00  0.00     0.293 HD
ENDBRANCH  17  20
ENDBRANCH   1  12
BRANCH   2  22
ATOM     22  O   UNL     1     -65.255 -35.309 -31.530  1.00  0.00    -0.502 OA
ATOM     23  H   UNL     1     -64.562 -34.624 -31.803  1.00  0.00     0.293 HD
ENDBRANCH   2  22
BRANCH   6  24
ATOM     24  O   UNL     1     -67.533 -34.784 -36.176  1.00  0.00    -0.507 OA
ATOM     25  H   UNL     1     -66.685 -34.284 -36.417  1.00  0.00     0.293 HD
ENDBRANCH   6  24
BRANCH   8  26
ATOM     26  O   UNL     1     -68.572 -39.387 -37.254  1.00  0.00    -0.508 OA
ATOM     27  H   UNL     1     -68.637 -40.367 -37.003  1.00  0.00     0.293 HD
ENDBRANCH   8  26
TORSDOF 6
ENDMDL
MODEL 6
REMARK VINA RESULT:    -7.814      1.621      6.991
REMARK INTER + INTRA:          -9.713
REMARK INTER:                  -9.514
REMARK INTRA:                  -0.199
REMARK UNBOUND:                -0.301
REMARK SMILES O=c1c(O)c(-c2ccc(O)c(O)c2)oc2cc(O)cc(O)c12
REMARK SMILES IDX 5 1 3 2 2 3 1 4 22 5 20 6 19 7 17 8 16 9 15 10 14 11 6 12
REMARK SMILES IDX 7 13 8 14 9 15 13 16 11 17 10 18 12 20 4 22 21 24 18 26
REMARK H PARENT 10 19 12 21 4 23 21 25 18 27
REMARK Flexibility Score: inf
ROOT
ATOM      1  C   UNL     1     -66.584 -38.808 -37.364  1.00  0.00     0.180 A 
ATOM      2  C   UNL     1     -65.602 -38.787 -36.355  1.00  0.00     0.208 A 
ATOM      3  C   UNL     1     -65.339 -37.579 -35.691  1.00  0.00     0.238 A 
ATOM      4  O   UNL     1     -64.469 -37.551 -34.778  1.00  0.00    -0.285 OA
ATOM      5  C   UNL     1     -66.044 -36.414 -36.057  1.00  0.00     0.111 A 
ATOM      6  C   UNL     1     -65.836 -35.157 -35.439  1.00  0.00     0.134 A 
ATOM      7  C   UNL     1     -66.571 -34.042 -35.867  1.00  0.00     0.093 A 
ATOM      8  C   UNL     1     -67.509 -34.160 -36.899  1.00  0.00     0.123 A 
ATOM      9  C   UNL     1     -67.717 -35.397 -37.510  1.00  0.00     0.094 A 
ATOM     10  C   UNL     1     -66.996 -36.521 -37.097  1.00  0.00     0.146 A 
ATOM     11  O   UNL     1     -67.219 -37.687 -37.693  1.00  0.00    -0.452 OA
ENDROOT
BRANCH   1  12
ATOM     12  C   UNL     1     -66.932 -40.047 -38.098  1.00  0.00     0.025 A 
ATOM     13  C   UNL     1     -67.528 -41.141 -37.447  1.00  0.00     0.016 A 
ATOM     14  C   UNL     1     -67.870 -42.290 -38.164  1.00  0.00     0.051 A 
ATOM     15  C   UNL     1     -67.633 -42.358 -39.544  1.00  0.00     0.157 A 
ATOM     16  C   UNL     1     -66.717 -40.112 -39.485  1.00  0.00     0.062 A 
ATOM     17  C   UNL     1     -67.060 -41.266 -40.205  1.00  0.00     0.158 A 
BRANCH  15  18
ATOM     18  O   UNL     1     -67.971 -43.503 -40.263  1.00  0.00    -0.504 OA
ATOM     19  H   UNL     1     -68.121 -44.393 -39.801  1.00  0.00     0.293 HD
ENDBRANCH  15  18
BRANCH  17  20
ATOM     20  O   UNL     1     -66.832 -41.332 -41.579  1.00  0.00    -0.504 OA
ATOM     21  H   UNL     1     -65.972 -41.712 -41.957  1.00  0.00     0.293 HD
ENDBRANCH  17  20
ENDBRANCH   1  12
BRANCH   2  22
ATOM     22  O   UNL     1     -64.884 -39.945 -36.046  1.00  0.00    -0.502 OA
ATOM     23  H   UNL     1     -64.357 -40.458 -36.742  1.00  0.00     0.293 HD
ENDBRANCH   2  22
BRANCH   6  24
ATOM     24  O   UNL     1     -64.907 -35.008 -34.408  1.00  0.00    -0.507 OA
ATOM     25  H   UNL     1     -63.909 -34.994 -34.588  1.00  0.00     0.293 HD
ENDBRANCH   6  24
BRANCH   8  26
ATOM     26  O   UNL     1     -68.238 -33.051 -37.325  1.00  0.00    -0.508 OA
ATOM     27  H   UNL     1     -69.235 -33.108 -37.499  1.00  0.00     0.293 HD
ENDBRANCH   8  26
TORSDOF 6
ENDMDL
MODEL 7
REMARK VINA RESULT:    -7.671      2.745      7.544
REMARK INTER + INTRA:          -9.541
REMARK INTER:                  -9.261
REMARK INTRA:                  -0.280
REMARK UNBOUND:                -0.301
REMARK SMILES O=c1c(O)c(-c2ccc(O)c(O)c2)oc2cc(O)cc(O)c12
REMARK SMILES IDX 5 1 3 2 2 3 1 4 22 5 20 6 19 7 17 8 16 9 15 10 14 11 6 12
REMARK SMILES IDX 7 13 8 14 9 15 13 16 11 17 10 18 12 20 4 22 21 24 18 26
REMARK H PARENT 10 19 12 21 4 23 21 25 18 27
REMARK Flexibility Score: inf
ROOT
ATOM      1  C   UNL     1     -67.414 -38.077 -36.358  1.00  0.00     0.180 A 
ATOM      2  C   UNL     1     -67.507 -36.693 -36.600  1.00  0.00     0.208 A 
ATOM      3  C   UNL     1     -67.084 -35.800 -35.602  1.00  0.00     0.238 A 
ATOM      4  O   UNL     1     -67.153 -34.559 -35.813  1.00  0.00    -0.285 OA
ATOM      5  C   UNL     1     -66.597 -36.303 -34.379  1.00  0.00     0.111 A 
ATOM      6  C   UNL     1     -66.155 -35.470 -33.322  1.00  0.00     0.134 A 
ATOM      7  C   UNL     1     -65.693 -36.047 -32.130  1.00  0.00     0.093 A 
ATOM      8  C   UNL     1     -65.664 -37.438 -31.975  1.00  0.00     0.123 A 
ATOM      9  C   UNL     1     -66.098 -38.261 -33.014  1.00  0.00     0.094 A 
ATOM     10  C   UNL     1     -66.561 -37.707 -34.211  1.00  0.00     0.146 A 
ATOM     11  O   UNL     1     -66.963 -38.514 -35.185  1.00  0.00    -0.452 OA
ENDROOT
BRANCH   1  12
ATOM     12  C   UNL     1     -67.822 -39.082 -37.366  1.00  0.00     0.025 A 
ATOM     13  C   UNL     1     -69.063 -39.737 -37.288  1.00  0.00     0.016 A 
ATOM     14  C   UNL     1     -69.437 -40.664 -38.264  1.00  0.00     0.051 A 
ATOM     15  C   UNL     1     -68.581 -40.940 -39.339  1.00  0.00     0.157 A 
ATOM     16  C   UNL     1     -66.978 -39.347 -38.458  1.00  0.00     0.062 A 
ATOM     17  C   UNL     1     -67.352 -40.279 -39.438  1.00  0.00     0.158 A 
BRANCH  15  18
ATOM     18  O   UNL     1     -68.949 -41.866 -40.314  1.00  0.00    -0.504 OA
ATOM     19  H   UNL     1     -69.703 -41.677 -40.965  1.00  0.00     0.293 HD
ENDBRANCH  15  18
BRANCH  17  20
ATOM     20  O   UNL     1     -66.506 -40.550 -40.512  1.00  0.00    -0.504 OA
ATOM     21  H   UNL     1     -65.500 -40.463 -40.429  1.00  0.00     0.293 HD
ENDBRANCH  17  20
ENDBRANCH   1  12
BRANCH   2  22
ATOM     22  O   UNL     1     -68.040 -36.221 -37.803  1.00  0.00    -0.502 OA
ATOM     23  H   UNL     1     -69.003 -35.922 -37.888  1.00  0.00     0.293 HD
ENDBRANCH   2  22
BRANCH   6  24
ATOM     24  O   UNL     1     -66.174 -34.080 -33.446  1.00  0.00    -0.507 OA
ATOM     25  H   UNL     1     -66.478 -33.481 -32.687  1.00  0.00     0.293 HD
ENDBRANCH   6  24
BRANCH   8  26
ATOM     26  O   UNL     1     -65.206 -38.011 -30.790  1.00  0.00    -0.508 OA
ATOM     27  H   UNL     1     -64.469 -37.580 -30.244  1.00  0.00     0.293 HD
ENDBRANCH   8  26
TORSDOF 6
ENDMDL
MODEL 8
REMARK VINA RESULT:    -7.646      5.471      7.463
REMARK INTER + INTRA:          -9.511
REMARK INTER:                  -9.423
REMARK INTRA:                  -0.088
REMARK UNBOUND:                -0.301
REMARK SMILES O=c1c(O)c(-c2ccc(O)c(O)c2)oc2cc(O)cc(O)c12
REMARK SMILES IDX 5 1 3 2 2 3 1 4 22 5 20 6 19 7 17 8 16 9 15 10 14 11 6 12
REMARK SMILES IDX 7 13 8 14 9 15 13 16 11 17 10 18 12 20 4 22 21 24 18 26
REMARK H PARENT 10 19 12 21 4 23 21 25 18 27
REMARK Flexibility Score: inf
ROOT
ATOM      1  C   UNL     1     -65.667 -38.207 -32.212  1.00  0.00     0.180 A 
ATOM      2  C   UNL     1     -65.863 -36.875 -32.623  1.00  0.00     0.208 A 
ATOM      3  C   UNL     1     -66.281 -36.626 -33.940  1.00  0.00     0.238 A 
ATOM      4  O   UNL     1     -66.469 -35.436 -34.315  1.00  0.00    -0.285 OA
ATOM      5  C   UNL     1     -66.475 -37.705 -34.825  1.00  0.00     0.111 A 
ATOM      6  C   UNL     1     -66.891 -37.538 -36.169  1.00  0.00     0.134 A 
ATOM      7  C   UNL     1     -67.053 -38.664 -36.990  1.00  0.00     0.093 A 
ATOM      8  C   UNL     1     -66.808 -39.949 -36.495  1.00  0.00     0.123 A 
ATOM      9  C   UNL     1     -66.398 -40.117 -35.172  1.00  0.00     0.094 A 
ATOM     10  C   UNL     1     -66.232 -39.010 -34.336  1.00  0.00     0.146 A 
ATOM     11  O   UNL     1     -65.846 -39.200 -33.080  1.00  0.00    -0.452 OA
ENDROOT
BRANCH   1  12
ATOM     12  C   UNL     1     -65.246 -38.553 -30.835  1.00  0.00     0.025 A 
ATOM     13  C   UNL     1     -65.971 -38.111 -29.715  1.00  0.00     0.016 A 
ATOM     14  C   UNL     1     -65.569 -38.469 -28.426  1.00  0.00     0.051 A 
ATOM     15  C   UNL     1     -64.445 -39.285 -28.238  1.00  0.00     0.157 A 
ATOM     16  C   UNL     1     -64.133 -39.388 -30.642  1.00  0.00     0.062 A 
ATOM     17  C   UNL     1     -63.728 -39.747 -29.348  1.00  0.00     0.158 A 
BRANCH  15  18
ATOM     18  O   UNL     1     -64.039 -39.644 -26.954  1.00  0.00    -0.504 OA
ATOM     19  H   UNL     1     -63.642 -38.964 -26.315  1.00  0.00     0.293 HD
ENDBRANCH  15  18
BRANCH  17  20
ATOM     20  O   UNL     1     -62.614 -40.564 -29.159  1.00  0.00    -0.504 OA
ATOM     21  H   UNL     1     -62.616 -41.537 -29.442  1.00  0.00     0.293 HD
ENDBRANCH  17  20
ENDBRANCH   1  12
BRANCH   2  22
ATOM     22  O   UNL     1     -65.616 -35.821 -31.739  1.00  0.00    -0.502 OA
ATOM     23  H   UNL     1     -64.978 -35.066 -31.961  1.00  0.00     0.293 HD
ENDBRANCH   2  22
BRANCH   6  24
ATOM     24  O   UNL     1     -67.142 -36.269 -36.691  1.00  0.00    -0.507 OA
ATOM     25  H   UNL     1     -67.077 -35.435 -36.119  1.00  0.00     0.293 HD
ENDBRANCH   6  24
BRANCH   8  26
ATOM     26  O   UNL     1     -66.967 -41.067 -37.312  1.00  0.00    -0.508 OA
ATOM     27  H   UNL     1     -67.428 -41.906 -36.978  1.00  0.00     0.293 HD
ENDBRANCH   8  26
TORSDOF 6
ENDMDL
MODEL 9
REMARK VINA RESULT:    -7.517      5.765      8.717
REMARK INTER + INTRA:          -9.355
REMARK INTER:                  -9.413
REMARK INTRA:                   0.058
REMARK UNBOUND:                -0.301
REMARK SMILES O=c1c(O)c(-c2ccc(O)c(O)c2)oc2cc(O)cc(O)c12
REMARK SMILES IDX 5 1 3 2 2 3 1 4 22 5 20 6 19 7 17 8 16 9 15 10 14 11 6 12
REMARK SMILES IDX 7 13 8 14 9 15 13 16 11 17 10 18 12 20 4 22 21 24 18 26
REMARK H PARENT 10 19 12 21 4 23 21 25 18 27
REMARK Flexibility Score: inf
ROOT
ATOM      1  C   UNL     1     -65.731 -37.322 -32.280  1.00  0.00     0.180 A 
ATOM      2  C   UNL     1     -66.307 -38.601 -32.402  1.00  0.00     0.208 A 
ATOM      3  C   UNL     1     -66.205 -39.495 -31.325  1.00  0.00     0.238 A 
ATOM      4  O   UNL     1     -66.726 -40.640 -31.419  1.00  0.00    -0.285 OA
ATOM      5  C   UNL     1     -65.517 -39.106 -30.158  1.00  0.00     0.111 A 
ATOM      6  C   UNL     1     -65.367 -39.949 -29.030  1.00  0.00     0.134 A 
ATOM      7  C   UNL     1     -64.659 -39.491 -27.909  1.00  0.00     0.093 A 
ATOM      8  C   UNL     1     -64.100 -38.208 -27.895  1.00  0.00     0.123 A 
ATOM      9  C   UNL     1     -64.246 -37.374 -29.004  1.00  0.00     0.094 A 
ATOM     10  C   UNL     1     -64.949 -37.811 -30.131  1.00  0.00     0.146 A 
ATOM     11  O   UNL     1     -65.077 -36.994 -31.170  1.00  0.00    -0.452 OA
ENDROOT
BRANCH   1  12
ATOM     12  C   UNL     1     -65.812 -36.316 -33.364  1.00  0.00     0.025 A 
ATOM     13  C   UNL     1     -66.179 -34.984 -33.102  1.00  0.00     0.016 A 
ATOM     14  C   UNL     1     -66.226 -34.046 -34.136  1.00  0.00     0.051 A 
ATOM     15  C   UNL     1     -65.894 -34.422 -35.445  1.00  0.00     0.157 A 
ATOM     16  C   UNL     1     -65.461 -36.681 -34.674  1.00  0.00     0.062 A 
ATOM     17  C   UNL     1     -65.508 -35.740 -35.713  1.00  0.00     0.158 A 
BRANCH  15  18
ATOM     18  O   UNL     1     -65.941 -33.490 -36.480  1.00  0.00    -0.504 OA
ATOM     19  H   UNL     1     -66.272 -33.741 -37.404  1.00  0.00     0.293 HD
ENDBRANCH  15  18
BRANCH  17  20
ATOM     20  O   UNL     1     -65.172 -36.110 -37.015  1.00  0.00    -0.504 OA
ATOM     21  H   UNL     1     -65.647 -35.715 -37.818  1.00  0.00     0.293 HD
ENDBRANCH  17  20
ENDBRANCH   1  12
BRANCH   2  22
ATOM     22  O   UNL     1     -66.941 -38.979 -33.589  1.00  0.00    -0.502 OA
ATOM     23  H   UNL     1     -66.425 -39.221 -34.426  1.00  0.00     0.293 HD
ENDBRANCH   2  22
BRANCH   6  24
ATOM     24  O   UNL     1     -65.912 -41.234 -29.016  1.00  0.00    -0.507 OA
ATOM     25  H   UNL     1     -65.498 -41.995 -29.542  1.00  0.00     0.293 HD
ENDBRANCH   6  24
BRANCH   8  26
ATOM     26  O   UNL     1     -63.395 -37.754 -26.782  1.00  0.00    -0.508 OA
ATOM     27  H   UNL     1     -63.380 -36.772 -26.529  1.00  0.00     0.293 HD
ENDBRANCH   8  26
TORSDOF 6
ENDMDL
