MODEL 1
REMARK VINA RESULT:    -5.047      0.000      0.000
REMARK INTER + INTRA:          -5.927
REMARK INTER:                  -5.784
REMARK INTRA:                  -0.142
REMARK UNBOUND:                -0.142
REMARK SMILES O=C([O-])C=Cc1ccc(O)cc1
REMARK SMILES IDX 6 1 7 2 12 3 8 4 11 5 9 6 5 7 4 8 2 9 1 10 3 11 10 12
REMARK H PARENT 10 13
REMARK Flexibility Score: inf
ROOT
ATOM      1  C   UNL     1       7.237  -2.145 -12.286  1.00  0.00    -0.025 A 
ATOM      2  C   UNL     1       8.474  -2.620 -12.767  1.00  0.00     0.012 A 
ATOM      3  C   UNL     1       6.662  -2.769 -11.166  1.00  0.00     0.012 A 
ATOM      4  C   UNL     1       9.101  -3.709 -12.153  1.00  0.00     0.047 A 
ATOM      5  C   UNL     1       7.292  -3.858 -10.555  1.00  0.00     0.047 A 
ATOM      6  C   UNL     1       8.510  -4.332 -11.048  1.00  0.00     0.115 A 
ENDROOT
BRANCH   1   7
ATOM      7  C   UNL     1       6.535  -0.987 -12.892  1.00  0.00     0.010 C 
ATOM      8  C   UNL     1       5.238  -0.995 -13.232  1.00  0.00     0.025 C 
BRANCH   8   9
ATOM      9  C   UNL     1       4.574   0.179 -13.821  1.00  0.00     0.064 C 
ATOM     10  O   UNL     1       3.693   0.051 -14.714  1.00  0.00    -0.545 OA
ATOM     11  O   UNL     1       4.921   1.451 -13.386  1.00  0.00    -0.545 OA
ENDBRANCH   8   9
ENDBRANCH   1   7
BRANCH   6  12
ATOM     12  O   UNL     1       9.126  -5.418 -10.430  1.00  0.00    -0.508 OA
ATOM     13  H   UNL     1      10.129  -5.444 -10.281  1.00  0.00     0.293 HD
ENDBRANCH   6  12
TORSDOF 3
ENDMDL
MODEL 2
REMARK VINA RESULT:    -5.012      0.098      1.401
REMARK INTER + INTRA:          -5.886
REMARK INTER:                  -5.749
REMARK INTRA:                  -0.138
REMARK UNBOUND:                -0.142
REMARK SMILES O=C([O-])C=Cc1ccc(O)cc1
REMARK SMILES IDX 6 1 7 2 12 3 8 4 11 5 9 6 5 7 4 8 2 9 1 10 3 11 10 12
REMARK H PARENT 10 13
REMARK Flexibility Score: inf
ROOT
ATOM      1  C   UNL     1       7.216  -2.190 -12.226  1.00  0.00    -0.025 A 
ATOM      2  C   UNL     1       6.666  -2.826 -11.093  1.00  0.00     0.012 A 
ATOM      3  C   UNL     1       8.414  -2.687 -12.766  1.00  0.00     0.012 A 
ATOM      4  C   UNL     1       7.319  -3.915 -10.507  1.00  0.00     0.047 A 
ATOM      5  C   UNL     1       9.064  -3.776 -12.176  1.00  0.00     0.047 A 
ATOM      6  C   UNL     1       8.521  -4.390 -11.046  1.00  0.00     0.115 A 
ENDROOT
BRANCH   1   7
ATOM      7  C   UNL     1       6.558  -1.039 -12.893  1.00  0.00     0.010 C 
ATOM      8  C   UNL     1       5.260  -1.014 -13.228  1.00  0.00     0.025 C 
BRANCH   8   9
ATOM      9  C   UNL     1       4.640   0.152 -13.879  1.00  0.00     0.064 C 
ATOM     10  O   UNL     1       3.870   0.015 -14.867  1.00  0.00    -0.545 OA
ATOM     11  O   UNL     1       4.907   1.426 -13.396  1.00  0.00    -0.545 OA
ENDBRANCH   8   9
ENDBRANCH   1   7
BRANCH   6  12
ATOM     12  O   UNL     1       9.180  -5.474 -10.469  1.00  0.00    -0.508 OA
ATOM     13  H   UNL     1       9.007  -6.424 -10.777  1.00  0.00     0.293 HD
ENDBRANCH   6  12
TORSDOF 3
ENDMDL
MODEL 3
REMARK VINA RESULT:    -4.780      1.408      1.864
REMARK INTER + INTRA:          -5.621
REMARK INTER:                  -5.484
REMARK INTRA:                  -0.137
REMARK UNBOUND:                -0.142
REMARK SMILES O=C([O-])C=Cc1ccc(O)cc1
REMARK SMILES IDX 6 1 7 2 12 3 8 4 11 5 9 6 5 7 4 8 2 9 1 10 3 11 10 12
REMARK H PARENT 10 13
REMARK Flexibility Score: inf
ROOT
ATOM      1  C   UNL     1       7.540  -1.913 -12.251  1.00  0.00    -0.025 A 
ATOM      2  C   UNL     1       8.783  -2.448 -12.647  1.00  0.00     0.012 A 
ATOM      3  C   UNL     1       6.807  -2.574 -11.250  1.00  0.00     0.012 A 
ATOM      4  C   UNL     1       9.262  -3.629 -12.070  1.00  0.00     0.047 A 
ATOM      5  C   UNL     1       7.289  -3.755 -10.677  1.00  0.00     0.047 A 
ATOM      6  C   UNL     1       8.514  -4.286 -11.086  1.00  0.00     0.115 A 
ENDROOT
BRANCH   1   7
ATOM      7  C   UNL     1       6.992  -0.658 -12.822  1.00  0.00     0.010 C 
ATOM      8  C   UNL     1       7.666   0.500 -12.862  1.00  0.00     0.025 C 
BRANCH   8   9
ATOM      9  C   UNL     1       7.092   1.722 -13.448  1.00  0.00     0.064 C 
ATOM     10  O   UNL     1       7.767   2.455 -14.220  1.00  0.00    -0.545 OA
ATOM     11  O   UNL     1       5.784   2.075 -13.147  1.00  0.00    -0.545 OA
ENDBRANCH   8   9
ENDBRANCH   1   7
BRANCH   6  12
ATOM     12  O   UNL     1       8.982  -5.463 -10.506  1.00  0.00    -0.508 OA
ATOM     13  H   UNL     1       9.956  -5.736 -10.573  1.00  0.00     0.293 HD
ENDBRANCH   6  12
TORSDOF 3
ENDMDL
MODEL 4
REMARK VINA RESULT:    -4.705     13.962     16.218
REMARK INTER + INTRA:          -5.535
REMARK INTER:                  -5.382
REMARK INTRA:                  -0.152
REMARK UNBOUND:                -0.142
REMARK SMILES O=C([O-])C=Cc1ccc(O)cc1
REMARK SMILES IDX 6 1 7 2 12 3 8 4 11 5 9 6 5 7 4 8 2 9 1 10 3 11 10 12
REMARK H PARENT 10 13
REMARK Flexibility Score: inf
ROOT
ATOM      1  C   UNL     1      -4.452   5.831  -5.527  1.00  0.00    -0.025 A 
ATOM      2  C   UNL     1      -5.034   5.410  -6.741  1.00  0.00     0.012 A 
ATOM      3  C   UNL     1      -3.171   6.408  -5.555  1.00  0.00     0.012 A 
ATOM      4  C   UNL     1      -4.334   5.544  -7.944  1.00  0.00     0.047 A 
ATOM      5  C   UNL     1      -2.475   6.539  -6.761  1.00  0.00     0.047 A 
ATOM      6  C   UNL     1      -3.052   6.106  -7.956  1.00  0.00     0.115 A 
ENDROOT
BRANCH   1   7
ATOM      7  C   UNL     1      -5.155   5.723  -4.225  1.00  0.00     0.010 C 
ATOM      8  C   UNL     1      -4.807   6.416  -3.130  1.00  0.00     0.025 C 
BRANCH   8   9
ATOM      9  C   UNL     1      -5.537   6.290  -1.858  1.00  0.00     0.064 C 
ATOM     10  O   UNL     1      -6.487   5.473  -1.727  1.00  0.00    -0.545 OA
ATOM     11  O   UNL     1      -5.172   7.086  -0.780  1.00  0.00    -0.545 OA
ENDBRANCH   8   9
ENDBRANCH   1   7
BRANCH   6  12
ATOM     12  O   UNL     1      -2.347   6.242  -9.150  1.00  0.00    -0.508 OA
ATOM     13  H   UNL     1      -1.769   7.054  -9.334  1.00  0.00     0.293 HD
ENDBRANCH   6  12
TORSDOF 3
ENDMDL
MODEL 5
REMARK VINA RESULT:    -4.621      2.572      3.348
REMARK INTER + INTRA:          -5.439
REMARK INTER:                  -5.291
REMARK INTRA:                  -0.147
REMARK UNBOUND:                -0.142
REMARK SMILES O=C([O-])C=Cc1ccc(O)cc1
REMARK SMILES IDX 6 1 7 2 12 3 8 4 11 5 9 6 5 7 4 8 2 9 1 10 3 11 10 12
REMARK H PARENT 10 13
REMARK Flexibility Score: inf
ROOT
ATOM      1  C   UNL     1       7.671  -1.180 -12.145  1.00  0.00    -0.025 A 
ATOM      2  C   UNL     1       6.442  -1.873 -12.168  1.00  0.00     0.012 A 
ATOM      3  C   UNL     1       8.730  -1.706 -11.386  1.00  0.00     0.012 A 
ATOM      4  C   UNL     1       6.279  -3.048 -11.427  1.00  0.00     0.047 A 
ATOM      5  C   UNL     1       8.562  -2.881 -10.646  1.00  0.00     0.047 A 
ATOM      6  C   UNL     1       7.337  -3.552 -10.662  1.00  0.00     0.115 A 
ENDROOT
BRANCH   1   7
ATOM      7  C   UNL     1       7.901   0.063 -12.922  1.00  0.00     0.010 C 
ATOM      8  C   UNL     1       8.701   1.058 -12.515  1.00  0.00     0.025 C 
BRANCH   8   9
ATOM      9  C   UNL     1       8.914   2.273 -13.320  1.00  0.00     0.064 C 
ATOM     10  O   UNL     1       9.942   2.986 -13.166  1.00  0.00    -0.545 OA
ATOM     11  O   UNL     1       7.967   2.640 -14.266  1.00  0.00    -0.545 OA
ENDBRANCH   8   9
ENDBRANCH   1   7
BRANCH   6  12
ATOM     12  O   UNL     1       7.183  -4.721  -9.919  1.00  0.00    -0.508 OA
ATOM     13  H   UNL     1       7.843  -5.487  -9.995  1.00  0.00     0.293 HD
ENDBRANCH   6  12
TORSDOF 3
ENDMDL
MODEL 6
REMARK VINA RESULT:    -4.563      1.727      5.757
REMARK INTER + INTRA:          -5.372
REMARK INTER:                  -5.221
REMARK INTRA:                  -0.151
REMARK UNBOUND:                -0.142
REMARK SMILES O=C([O-])C=Cc1ccc(O)cc1
REMARK SMILES IDX 6 1 7 2 12 3 8 4 11 5 9 6 5 7 4 8 2 9 1 10 3 11 10 12
REMARK H PARENT 10 13
REMARK Flexibility Score: inf
ROOT
ATOM      1  C   UNL     1       6.056  -1.042 -12.860  1.00  0.00    -0.025 A 
ATOM      2  C   UNL     1       4.913  -0.568 -13.536  1.00  0.00     0.012 A 
ATOM      3  C   UNL     1       7.219  -0.253 -12.862  1.00  0.00     0.012 A 
ATOM      4  C   UNL     1       4.948   0.653 -14.217  1.00  0.00     0.047 A 
ATOM      5  C   UNL     1       7.250   0.968 -13.545  1.00  0.00     0.047 A 
ATOM      6  C   UNL     1       6.118   1.422 -14.225  1.00  0.00     0.115 A 
ENDROOT
BRANCH   1   7
ATOM      7  C   UNL     1       6.068  -2.324 -12.113  1.00  0.00     0.010 C 
ATOM      8  C   UNL     1       7.035  -2.677 -11.254  1.00  0.00     0.025 C 
BRANCH   8   9
ATOM      9  C   UNL     1       7.006  -3.954 -10.522  1.00  0.00     0.064 C 
ATOM     10  O   UNL     1       8.006  -4.722 -10.509  1.00  0.00    -0.545 OA
ATOM     11  O   UNL     1       5.859  -4.320  -9.832  1.00  0.00    -0.545 OA
ENDBRANCH   8   9
ENDBRANCH   1   7
BRANCH   6  12
ATOM     12  O   UNL     1       6.164   2.639 -14.901  1.00  0.00    -0.508 OA
ATOM     13  H   UNL     1       5.716   2.762 -15.802  1.00  0.00     0.293 HD
ENDBRANCH   6  12
TORSDOF 3
ENDMDL
MODEL 7
REMARK VINA RESULT:    -4.507      3.330      4.570
REMARK INTER + INTRA:          -5.308
REMARK INTER:                  -5.155
REMARK INTRA:                  -0.153
REMARK UNBOUND:                -0.142
REMARK SMILES O=C([O-])C=Cc1ccc(O)cc1
REMARK SMILES IDX 6 1 7 2 12 3 8 4 11 5 9 6 5 7 4 8 2 9 1 10 3 11 10 12
REMARK H PARENT 10 13
REMARK Flexibility Score: inf
ROOT
ATOM      1  C   UNL     1       8.340  -1.894 -11.694  1.00  0.00    -0.025 A 
ATOM      2  C   UNL     1       6.959  -1.878 -11.981  1.00  0.00     0.012 A 
ATOM      3  C   UNL     1       8.820  -2.796 -10.730  1.00  0.00     0.012 A 
ATOM      4  C   UNL     1       6.085  -2.729 -11.298  1.00  0.00     0.047 A 
ATOM      5  C   UNL     1       7.942  -3.644 -10.048  1.00  0.00     0.047 A 
ATOM      6  C   UNL     1       6.574  -3.611 -10.327  1.00  0.00     0.115 A 
ENDROOT
BRANCH   1   7
ATOM      7  C   UNL     1       9.312  -1.021 -12.398  1.00  0.00     0.010 C 
ATOM      8  C   UNL     1      10.596  -0.890 -12.034  1.00  0.00     0.025 C 
BRANCH   8   9
ATOM      9  C   UNL     1      11.534  -0.023 -12.764  1.00  0.00     0.064 C 
ATOM     10  O   UNL     1      11.136   0.741 -13.684  1.00  0.00    -0.545 OA
ATOM     11  O   UNL     1      12.883  -0.045 -12.434  1.00  0.00    -0.545 OA
ENDBRANCH   8   9
ENDBRANCH   1   7
BRANCH   6  12
ATOM     12  O   UNL     1       5.710  -4.462  -9.641  1.00  0.00    -0.508 OA
ATOM     13  H   UNL     1       5.232  -5.222 -10.110  1.00  0.00     0.293 HD
ENDBRANCH   6  12
TORSDOF 3
ENDMDL
MODEL 8
REMARK VINA RESULT:    -4.422     18.443     19.517
REMARK INTER + INTRA:          -5.211
REMARK INTER:                  -5.058
REMARK INTRA:                  -0.153
REMARK UNBOUND:                -0.142
REMARK SMILES O=C([O-])C=Cc1ccc(O)cc1
REMARK SMILES IDX 6 1 7 2 12 3 8 4 11 5 9 6 5 7 4 8 2 9 1 10 3 11 10 12
REMARK H PARENT 10 13
REMARK Flexibility Score: inf
ROOT
ATOM      1  C   UNL     1      -2.896   4.971   2.146  1.00  0.00    -0.025 A 
ATOM      2  C   UNL     1      -4.246   4.625   1.929  1.00  0.00     0.012 A 
ATOM      3  C   UNL     1      -2.348   6.044   1.422  1.00  0.00     0.012 A 
ATOM      4  C   UNL     1      -5.013   5.323   0.991  1.00  0.00     0.047 A 
ATOM      5  C   UNL     1      -3.119   6.738   0.484  1.00  0.00     0.047 A 
ATOM      6  C   UNL     1      -4.450   6.379   0.264  1.00  0.00     0.115 A 
ENDROOT
BRANCH   1   7
ATOM      7  C   UNL     1      -2.042   4.272   3.137  1.00  0.00     0.010 C 
ATOM      8  C   UNL     1      -0.714   4.436   3.224  1.00  0.00     0.025 C 
BRANCH   8   9
ATOM      9  C   UNL     1       0.100   3.733   4.230  1.00  0.00     0.064 C 
ATOM     10  O   UNL     1      -0.410   2.873   4.997  1.00  0.00    -0.545 OA
ATOM     11  O   UNL     1       1.454   4.020   4.334  1.00  0.00    -0.545 OA
ENDBRANCH   8   9
ENDBRANCH   1   7
BRANCH   6  12
ATOM     12  O   UNL     1      -5.207   7.079  -0.673  1.00  0.00    -0.508 OA
ATOM     13  H   UNL     1      -5.931   7.729  -0.390  1.00  0.00     0.293 HD
ENDBRANCH   6  12
TORSDOF 3
ENDMDL
MODEL 9
REMARK VINA RESULT:    -4.388     14.969     16.107
REMARK INTER + INTRA:          -5.171
REMARK INTER:                  -5.032
REMARK INTRA:                  -0.139
REMARK UNBOUND:                -0.142
REMARK SMILES O=C([O-])C=Cc1ccc(O)cc1
REMARK SMILES IDX 6 1 7 2 12 3 8 4 11 5 9 6 5 7 4 8 2 9 1 10 3 11 10 12
REMARK H PARENT 10 13
REMARK Flexibility Score: inf
ROOT
ATOM      1  C   UNL     1       9.030  -2.640   3.294  1.00  0.00    -0.025 A 
ATOM      2  C   UNL     1       8.851  -1.241   3.297  1.00  0.00     0.012 A 
ATOM      3  C   UNL     1      10.336  -3.155   3.355  1.00  0.00     0.012 A 
ATOM      4  C   UNL     1       9.957  -0.386   3.334  1.00  0.00     0.047 A 
ATOM      5  C   UNL     1      11.439  -2.297   3.392  1.00  0.00     0.047 A 
ATOM      6  C   UNL     1      11.254  -0.913   3.379  1.00  0.00     0.115 A 
ENDROOT
BRANCH   1   7
ATOM      7  C   UNL     1       7.891  -3.590   3.267  1.00  0.00     0.010 C 
ATOM      8  C   UNL     1       7.688  -4.483   2.287  1.00  0.00     0.025 C 
BRANCH   8   9
ATOM      9  C   UNL     1       6.551  -5.419   2.301  1.00  0.00     0.064 C 
ATOM     10  O   UNL     1       5.966  -5.750   1.235  1.00  0.00    -0.545 OA
ATOM     11  O   UNL     1       6.117  -5.948   3.508  1.00  0.00    -0.545 OA
ENDBRANCH   8   9
ENDBRANCH   1   7
BRANCH   6  12
ATOM     12  O   UNL     1      12.362  -0.070   3.415  1.00  0.00    -0.508 OA
ATOM     13  H   UNL     1      13.079  -0.105   2.699  1.00  0.00     0.293 HD
ENDBRANCH   6  12
TORSDOF 3
ENDMDL
