MODEL 1
REMARK VINA RESULT:    -8.277      0.000      0.000
REMARK INTER + INTRA:         -15.343
REMARK INTER:                 -13.600
REMARK INTRA:                  -1.743
REMARK UNBOUND:                -1.743
REMARK SMILES C[C@@H]1O[C@H](OC[C@H]2O[C@@H](Oc3c(-c4ccc(O)c(O)c4)oc4cc(O)cc(O)c4c3=O)[C@@H](O)[C@H](O)[C@H]2O)[C@@H](O)[C@@H](O)[C@H]1O
REMARK SMILES IDX 7 1 36 2 34 3 32 4 9 5 8 6 6 7 5 8 4 9 1 10 2 11 42 12 3 13
REMARK SMILES IDX 40 14 38 15 43 16 41 18 39 20 37 22 35 24 10 26 11 27 12 28
REMARK SMILES IDX 30 29 21 30 29 31 31 32 22 33 27 34 23 35 26 36 24 37 13 38
REMARK SMILES IDX 20 39 14 40 18 41 15 42 16 43 19 44 17 46 28 48 25 50 33 52
REMARK H PARENT 43 17 41 19 39 21 37 23 35 25 19 45 17 47 28 49 25 51 33 53
REMARK Flexibility Score: inf
ROOT
ATOM      1  C   UNL     1     -21.986  59.763  34.681  1.00  0.00     0.180 C 
ATOM      2  C   UNL     1     -21.398  60.878  35.556  1.00  0.00     0.177 C 
ATOM      3  C   UNL     1     -20.417  61.746  34.757  1.00  0.00     0.180 C 
ATOM      4  C   UNL     1     -19.256  60.863  34.275  1.00  0.00     0.214 C 
ATOM      5  C   UNL     1     -19.826  59.618  33.471  1.00  0.00     0.339 C 
ATOM      6  O   UNL     1     -20.969  58.978  33.959  1.00  0.00    -0.332 OA
ENDROOT
BRANCH   1   7
ATOM      7  C   UNL     1     -23.248  60.144  33.779  1.00  0.00     0.198 C 
BRANCH   7   8
ATOM      8  O   UNL     1     -24.657  60.425  34.174  1.00  0.00    -0.347 OA
BRANCH   8   9
ATOM      9  C   UNL     1     -25.812  59.696  33.633  1.00  0.00     0.281 C 
ATOM     10  C   UNL     1     -27.758  62.331  35.446  1.00  0.00     0.041 C 
ATOM     11  C   UNL     1     -27.252  61.622  34.027  1.00  0.00     0.150 C 
ATOM     12  C   UNL     1     -26.762  62.268  32.644  1.00  0.00     0.174 C 
ATOM     13  O   UNL     1     -27.037  60.251  34.049  1.00  0.00    -0.344 OA
ATOM     14  C   UNL     1     -25.958  61.279  31.714  1.00  0.00     0.179 C 
ATOM     15  C   UNL     1     -26.031  59.737  32.126  1.00  0.00     0.202 C 
BRANCH  12  16
ATOM     16  O   UNL     1     -28.041  62.366  31.999  1.00  0.00    -0.388 OA
ATOM     17  H   UNL     1     -27.848  62.355  31.020  1.00  0.00     0.211 HD
ENDBRANCH  12  16
BRANCH  14  18
ATOM     18  O   UNL     1     -26.004  61.555  30.306  1.00  0.00    -0.387 OA
ATOM     19  H   UNL     1     -25.194  62.104  30.139  1.00  0.00     0.211 HD
ENDBRANCH  14  18
BRANCH  15  20
ATOM     20  O   UNL     1     -27.254  58.965  31.896  1.00  0.00    -0.385 OA
ATOM     21  H   UNL     1     -27.237  58.013  32.262  1.00  0.00     0.211 HD
ENDBRANCH  15  20
ENDBRANCH   8   9
ENDBRANCH   7   8
ENDBRANCH   1   7
BRANCH   2  22
ATOM     22  O   UNL     1     -22.362  61.644  36.266  1.00  0.00    -0.387 OA
ATOM     23  H   UNL     1     -22.665  62.416  35.717  1.00  0.00     0.211 HD
ENDBRANCH   2  22
BRANCH   3  24
ATOM     24  O   UNL     1     -19.874  62.746  35.616  1.00  0.00    -0.387 OA
ATOM     25  H   UNL     1     -18.893  62.577  35.635  1.00  0.00     0.211 HD
ENDBRANCH   3  24
BRANCH   5  26
ATOM     26  O   UNL     1     -19.981  60.033  32.107  1.00  0.00    -0.454 OA
BRANCH  26  27
ATOM     27  C   UNL     1     -20.487  59.300  31.068  1.00  0.00     0.214 A 
ATOM     28  C   UNL     1     -19.546  58.359  30.602  1.00  0.00     0.180 A 
ATOM     29  C   UNL     1     -21.679  59.456  30.398  1.00  0.00     0.239 A 
ATOM     30  O   UNL     1     -19.894  57.580  29.508  1.00  0.00    -0.452 OA
ATOM     31  C   UNL     1     -21.967  58.697  29.255  1.00  0.00     0.111 A 
ATOM     32  O   UNL     1     -22.573  60.303  30.890  1.00  0.00    -0.285 OA
ATOM     33  C   UNL     1     -21.073  57.736  28.874  1.00  0.00     0.146 A 
ATOM     34  C   UNL     1     -23.145  58.975  28.455  1.00  0.00     0.134 A 
ATOM     35  C   UNL     1     -21.407  56.831  27.814  1.00  0.00     0.094 A 
ATOM     36  C   UNL     1     -23.434  58.070  27.411  1.00  0.00     0.093 A 
ATOM     37  C   UNL     1     -22.585  56.996  27.122  1.00  0.00     0.123 A 
BRANCH  28  38
ATOM     38  C   UNL     1     -18.224  58.115  31.152  1.00  0.00     0.025 A 
ATOM     39  C   UNL     1     -17.197  59.054  31.140  1.00  0.00     0.062 A 
ATOM     40  C   UNL     1     -17.884  56.798  31.592  1.00  0.00     0.016 A 
ATOM     41  C   UNL     1     -15.885  58.747  31.493  1.00  0.00     0.158 A 
ATOM     42  C   UNL     1     -16.560  56.464  31.839  1.00  0.00     0.051 A 
ATOM     43  C   UNL     1     -15.575  57.428  31.832  1.00  0.00     0.157 A 
BRANCH  41  44
ATOM     44  O   UNL     1     -14.929  59.745  31.489  1.00  0.00    -0.504 OA
ATOM     45  H   UNL     1     -15.148  60.702  31.229  1.00  0.00     0.293 HD
ENDBRANCH  41  44
BRANCH  43  46
ATOM     46  O   UNL     1     -14.231  57.092  32.151  1.00  0.00    -0.504 OA
ATOM     47  H   UNL     1     -13.955  57.073  33.123  1.00  0.00     0.293 HD
ENDBRANCH  43  46
ENDBRANCH  28  38
BRANCH  34  48
ATOM     48  O   UNL     1     -23.921  60.078  28.656  1.00  0.00    -0.507 OA
ATOM     49  H   UNL     1     -23.566  60.862  29.251  1.00  0.00     0.293 HD
ENDBRANCH  34  48
BRANCH  37  50
ATOM     50  O   UNL     1     -22.998  56.057  26.185  1.00  0.00    -0.508 OA
ATOM     51  H   UNL     1     -23.661  55.316  26.435  1.00  0.00     0.293 HD
ENDBRANCH  37  50
ENDBRANCH  26  27
ENDBRANCH   5  26
BRANCH   4  52
ATOM     52  O   UNL     1     -18.382  61.619  33.386  1.00  0.00    -0.384 OA
ATOM     53  H   UNL     1     -18.072  62.375  33.970  1.00  0.00     0.211 HD
ENDBRANCH   4  52
TORSDOF 16
ENDMDL
MODEL 2
REMARK VINA RESULT:    -8.205      1.604      4.558
REMARK INTER + INTRA:         -15.225
REMARK INTER:                 -12.968
REMARK INTRA:                  -2.257
REMARK UNBOUND:                -1.743
REMARK SMILES C[C@@H]1O[C@H](OC[C@H]2O[C@@H](Oc3c(-c4ccc(O)c(O)c4)oc4cc(O)cc(O)c4c3=O)[C@@H](O)[C@H](O)[C@H]2O)[C@@H](O)[C@@H](O)[C@H]1O
REMARK SMILES IDX 7 1 36 2 34 3 32 4 9 5 8 6 6 7 5 8 4 9 1 10 2 11 42 12 3 13
REMARK SMILES IDX 40 14 38 15 43 16 41 18 39 20 37 22 35 24 10 26 11 27 12 28
REMARK SMILES IDX 30 29 21 30 29 31 31 32 22 33 27 34 23 35 26 36 24 37 13 38
REMARK SMILES IDX 20 39 14 40 18 41 15 42 16 43 19 44 17 46 28 48 25 50 33 52
REMARK H PARENT 43 17 41 19 39 21 37 23 35 25 19 45 17 47 28 49 25 51 33 53
REMARK Flexibility Score: inf
ROOT
ATOM      1  C   UNL     1     -21.889  59.517  34.827  1.00  0.00     0.180 C 
ATOM      2  C   UNL     1     -21.454  60.793  35.560  1.00  0.00     0.177 C 
ATOM      3  C   UNL     1     -20.448  61.594  34.723  1.00  0.00     0.180 C 
ATOM      4  C   UNL     1     -19.198  60.732  34.494  1.00  0.00     0.214 C 
ATOM      5  C   UNL     1     -19.615  59.340  33.853  1.00  0.00     0.339 C 
ATOM      6  O   UNL     1     -20.763  58.704  34.334  1.00  0.00    -0.332 OA
ENDROOT
BRANCH   1   7
ATOM      7  C   UNL     1     -23.075  59.664  33.767  1.00  0.00     0.198 C 
BRANCH   7   8
ATOM      8  O   UNL     1     -24.447  60.219  33.937  1.00  0.00    -0.347 OA
BRANCH   8   9
ATOM      9  C   UNL     1     -25.665  59.513  33.517  1.00  0.00     0.281 C 
ATOM     10  C   UNL     1     -27.356  62.115  35.612  1.00  0.00     0.041 C 
ATOM     11  C   UNL     1     -27.028  61.441  34.126  1.00  0.00     0.150 C 
ATOM     12  C   UNL     1     -26.695  62.119  32.712  1.00  0.00     0.174 C 
ATOM     13  O   UNL     1     -26.827  60.067  34.087  1.00  0.00    -0.344 OA
ATOM     14  C   UNL     1     -26.017  61.149  31.669  1.00  0.00     0.179 C 
ATOM     15  C   UNL     1     -26.059  59.597  32.048  1.00  0.00     0.202 C 
BRANCH  12  16
ATOM     16  O   UNL     1     -28.041  62.245  32.224  1.00  0.00    -0.388 OA
ATOM     17  H   UNL     1     -28.128  63.193  31.926  1.00  0.00     0.211 HD
ENDBRANCH  12  16
BRANCH  14  18
ATOM     18  O   UNL     1     -26.224  61.464  30.284  1.00  0.00    -0.387 OA
ATOM     19  H   UNL     1     -26.463  62.427  30.287  1.00  0.00     0.211 HD
ENDBRANCH  14  18
BRANCH  15  20
ATOM     20  O   UNL     1     -27.308  58.842  31.942  1.00  0.00    -0.385 OA
ATOM     21  H   UNL     1     -27.686  58.509  32.830  1.00  0.00     0.211 HD
ENDBRANCH  15  20
ENDBRANCH   8   9
ENDBRANCH   7   8
ENDBRANCH   1   7
BRANCH   2  22
ATOM     22  O   UNL     1     -22.525  61.589  36.050  1.00  0.00    -0.387 OA
ATOM     23  H   UNL     1     -23.036  61.092  36.743  1.00  0.00     0.211 HD
ENDBRANCH   2  22
BRANCH   3  24
ATOM     24  O   UNL     1     -20.050  62.751  35.455  1.00  0.00    -0.387 OA
ATOM     25  H   UNL     1     -19.636  62.406  36.292  1.00  0.00     0.211 HD
ENDBRANCH   3  24
BRANCH   5  26
ATOM     26  O   UNL     1     -19.658  59.527  32.431  1.00  0.00    -0.454 OA
BRANCH  26  27
ATOM     27  C   UNL     1     -19.114  58.718  31.471  1.00  0.00     0.214 A 
ATOM     28  C   UNL     1     -19.846  58.792  30.267  1.00  0.00     0.180 A 
ATOM     29  C   UNL     1     -18.085  57.812  31.584  1.00  0.00     0.239 A 
ATOM     30  O   UNL     1     -19.449  57.978  29.216  1.00  0.00    -0.452 OA
ATOM     31  C   UNL     1     -17.756  56.959  30.522  1.00  0.00     0.111 A 
ATOM     32  O   UNL     1     -17.372  57.803  32.703  1.00  0.00    -0.285 OA
ATOM     33  C   UNL     1     -18.428  57.108  29.341  1.00  0.00     0.146 A 
ATOM     34  C   UNL     1     -16.784  55.895  30.694  1.00  0.00     0.134 A 
ATOM     35  C   UNL     1     -18.010  56.371  28.184  1.00  0.00     0.094 A 
ATOM     36  C   UNL     1     -16.408  55.182  29.536  1.00  0.00     0.093 A 
ATOM     37  C   UNL     1     -16.997  55.444  28.295  1.00  0.00     0.123 A 
BRANCH  28  38
ATOM     38  C   UNL     1     -20.993  59.642  30.006  1.00  0.00     0.025 A 
ATOM     39  C   UNL     1     -22.250  59.158  29.659  1.00  0.00     0.062 A 
ATOM     40  C   UNL     1     -20.811  61.058  29.938  1.00  0.00     0.016 A 
ATOM     41  C   UNL     1     -23.288  59.980  29.224  1.00  0.00     0.158 A 
ATOM     42  C   UNL     1     -21.805  61.866  29.404  1.00  0.00     0.051 A 
ATOM     43  C   UNL     1     -23.042  61.349  29.087  1.00  0.00     0.157 A 
BRANCH  41  44
ATOM     44  O   UNL     1     -24.518  59.425  28.932  1.00  0.00    -0.504 OA
ATOM     45  H   UNL     1     -24.990  59.592  28.048  1.00  0.00     0.293 HD
ENDBRANCH  41  44
BRANCH  43  46
ATOM     46  O   UNL     1     -24.078  62.193  28.602  1.00  0.00    -0.504 OA
ATOM     47  H   UNL     1     -25.031  61.856  28.634  1.00  0.00     0.293 HD
ENDBRANCH  43  46
ENDBRANCH  28  38
BRANCH  34  48
ATOM     48  O   UNL     1     -16.283  55.555  31.916  1.00  0.00    -0.507 OA
ATOM     49  H   UNL     1     -16.467  54.601  32.306  1.00  0.00     0.293 HD
ENDBRANCH  34  48
BRANCH  37  50
ATOM     50  O   UNL     1     -16.481  54.816  27.169  1.00  0.00    -0.508 OA
ATOM     51  H   UNL     1     -15.506  54.503  27.138  1.00  0.00     0.293 HD
ENDBRANCH  37  50
ENDBRANCH  26  27
ENDBRANCH   5  26
BRANCH   4  52
ATOM     52  O   UNL     1     -18.284  61.401  33.576  1.00  0.00    -0.384 OA
ATOM     53  H   UNL     1     -17.801  62.046  34.175  1.00  0.00     0.211 HD
ENDBRANCH   4  52
TORSDOF 16
ENDMDL
MODEL 3
REMARK VINA RESULT:    -7.990      2.895      6.462
REMARK INTER + INTRA:         -14.871
REMARK INTER:                 -12.270
REMARK INTRA:                  -2.601
REMARK UNBOUND:                -1.743
REMARK SMILES C[C@@H]1O[C@H](OC[C@H]2O[C@@H](Oc3c(-c4ccc(O)c(O)c4)oc4cc(O)cc(O)c4c3=O)[C@@H](O)[C@H](O)[C@H]2O)[C@@H](O)[C@@H](O)[C@H]1O
REMARK SMILES IDX 7 1 36 2 34 3 32 4 9 5 8 6 6 7 5 8 4 9 1 10 2 11 42 12 3 13
REMARK SMILES IDX 40 14 38 15 43 16 41 18 39 20 37 22 35 24 10 26 11 27 12 28
REMARK SMILES IDX 30 29 21 30 29 31 31 32 22 33 27 34 23 35 26 36 24 37 13 38
REMARK SMILES IDX 20 39 14 40 18 41 15 42 16 43 19 44 17 46 28 48 25 50 33 52
REMARK H PARENT 43 17 41 19 39 21 37 23 35 25 19 45 17 47 28 49 25 51 33 53
REMARK Flexibility Score: inf
ROOT
ATOM      1  C   UNL     1     -23.732  57.585  32.531  1.00  0.00     0.180 C 
ATOM      2  C   UNL     1     -22.803  56.705  33.378  1.00  0.00     0.177 C 
ATOM      3  C   UNL     1     -21.479  56.441  32.651  1.00  0.00     0.180 C 
ATOM      4  C   UNL     1     -21.774  55.693  31.343  1.00  0.00     0.214 C 
ATOM      5  C   UNL     1     -22.835  56.507  30.487  1.00  0.00     0.339 C 
ATOM      6  O   UNL     1     -23.911  57.100  31.151  1.00  0.00    -0.332 OA
ENDROOT
BRANCH   1   7
ATOM      7  C   UNL     1     -23.510  59.164  32.623  1.00  0.00     0.198 C 
BRANCH   7   8
ATOM      8  O   UNL     1     -22.411  59.941  33.263  1.00  0.00    -0.347 OA
BRANCH   8   9
ATOM      9  C   UNL     1     -22.127  61.349  32.957  1.00  0.00     0.281 C 
ATOM     10  C   UNL     1     -20.991  61.431  36.523  1.00  0.00     0.041 C 
ATOM     11  C   UNL     1     -20.657  61.506  34.895  1.00  0.00     0.150 C 
ATOM     12  C   UNL     1     -19.461  60.873  34.034  1.00  0.00     0.174 C 
ATOM     13  O   UNL     1     -21.636  62.050  34.074  1.00  0.00    -0.344 OA
ATOM     14  C   UNL     1     -19.742  60.802  32.484  1.00  0.00     0.179 C 
ATOM     15  C   UNL     1     -21.001  61.645  31.975  1.00  0.00     0.202 C 
BRANCH  12  16
ATOM     16  O   UNL     1     -18.526  61.957  34.154  1.00  0.00    -0.388 OA
ATOM     17  H   UNL     1     -18.551  62.428  33.276  1.00  0.00     0.211 HD
ENDBRANCH  12  16
BRANCH  14  18
ATOM     18  O   UNL     1     -18.588  60.819  31.630  1.00  0.00    -0.387 OA
ATOM     19  H   UNL     1     -18.429  59.862  31.417  1.00  0.00     0.211 HD
ENDBRANCH  14  18
BRANCH  15  20
ATOM     20  O   UNL     1     -20.932  63.106  31.900  1.00  0.00    -0.385 OA
ATOM     21  H   UNL     1     -19.990  63.495  31.946  1.00  0.00     0.211 HD
ENDBRANCH  15  20
ENDBRANCH   8   9
ENDBRANCH   7   8
ENDBRANCH   1   7
BRANCH   2  22
ATOM     22  O   UNL     1     -22.622  57.151  34.716  1.00  0.00    -0.387 OA
ATOM     23  H   UNL     1     -21.662  57.099  34.971  1.00  0.00     0.211 HD
ENDBRANCH   2  22
BRANCH   3  24
ATOM     24  O   UNL     1     -20.663  55.597  33.460  1.00  0.00    -0.387 OA
ATOM     25  H   UNL     1     -21.275  55.216  34.148  1.00  0.00     0.211 HD
ENDBRANCH   3  24
BRANCH   5  26
ATOM     26  O   UNL     1     -22.101  57.453  29.695  1.00  0.00    -0.454 OA
BRANCH  26  27
ATOM     27  C   UNL     1     -22.062  57.540  28.330  1.00  0.00     0.214 A 
ATOM     28  C   UNL     1     -22.751  58.682  27.872  1.00  0.00     0.180 A 
ATOM     29  C   UNL     1     -21.569  56.633  27.420  1.00  0.00     0.239 A 
ATOM     30  O   UNL     1     -22.849  58.873  26.501  1.00  0.00    -0.452 OA
ATOM     31  C   UNL     1     -21.747  56.827  26.043  1.00  0.00     0.111 A 
ATOM     32  O   UNL     1     -20.873  55.599  27.872  1.00  0.00    -0.285 OA
ATOM     33  C   UNL     1     -22.346  57.982  25.624  1.00  0.00     0.146 A 
ATOM     34  C   UNL     1     -21.375  55.797  25.092  1.00  0.00     0.134 A 
ATOM     35  C   UNL     1     -22.397  58.293  24.225  1.00  0.00     0.094 A 
ATOM     36  C   UNL     1     -21.451  56.134  23.723  1.00  0.00     0.093 A 
ATOM     37  C   UNL     1     -21.929  57.381  23.306  1.00  0.00     0.123 A 
BRANCH  28  38
ATOM     38  C   UNL     1     -23.383  59.697  28.695  1.00  0.00     0.025 A 
ATOM     39  C   UNL     1     -24.665  59.576  29.222  1.00  0.00     0.062 A 
ATOM     40  C   UNL     1     -22.740  60.963  28.857  1.00  0.00     0.016 A 
ATOM     41  C   UNL     1     -25.333  60.628  29.845  1.00  0.00     0.158 A 
ATOM     42  C   UNL     1     -23.442  62.041  29.379  1.00  0.00     0.051 A 
ATOM     43  C   UNL     1     -24.705  61.875  29.905  1.00  0.00     0.157 A 
BRANCH  41  44
ATOM     44  O   UNL     1     -26.592  60.417  30.372  1.00  0.00    -0.504 OA
ATOM     45  H   UNL     1     -27.177  61.182  30.697  1.00  0.00     0.293 HD
ENDBRANCH  41  44
BRANCH  43  46
ATOM     46  O   UNL     1     -25.393  62.969  30.497  1.00  0.00    -0.504 OA
ATOM     47  H   UNL     1     -26.112  63.435  29.961  1.00  0.00     0.293 HD
ENDBRANCH  43  46
ENDBRANCH  28  38
BRANCH  34  48
ATOM     48  O   UNL     1     -21.012  54.540  25.480  1.00  0.00    -0.507 OA
ATOM     49  H   UNL     1     -19.998  54.298  25.573  1.00  0.00     0.293 HD
ENDBRANCH  34  48
BRANCH  37  50
ATOM     50  O   UNL     1     -21.840  57.710  21.960  1.00  0.00    -0.508 OA
ATOM     51  H   UNL     1     -21.410  58.590  21.657  1.00  0.00     0.293 HD
ENDBRANCH  37  50
ENDBRANCH  26  27
ENDBRANCH   5  26
BRANCH   4  52
ATOM     52  O   UNL     1     -20.555  55.559  30.552  1.00  0.00    -0.384 OA
ATOM     53  H   UNL     1     -20.504  54.569  30.391  1.00  0.00     0.211 HD
ENDBRANCH   4  52
TORSDOF 16
ENDMDL
MODEL 4
REMARK VINA RESULT:    -7.974      2.481      3.758
REMARK INTER + INTRA:         -14.845
REMARK INTER:                 -13.397
REMARK INTRA:                  -1.448
REMARK UNBOUND:                -1.743
REMARK SMILES C[C@@H]1O[C@H](OC[C@H]2O[C@@H](Oc3c(-c4ccc(O)c(O)c4)oc4cc(O)cc(O)c4c3=O)[C@@H](O)[C@H](O)[C@H]2O)[C@@H](O)[C@@H](O)[C@H]1O
REMARK SMILES IDX 7 1 36 2 34 3 32 4 9 5 8 6 6 7 5 8 4 9 1 10 2 11 42 12 3 13
REMARK SMILES IDX 40 14 38 15 43 16 41 18 39 20 37 22 35 24 10 26 11 27 12 28
REMARK SMILES IDX 30 29 21 30 29 31 31 32 22 33 27 34 23 35 26 36 24 37 13 38
REMARK SMILES IDX 20 39 14 40 18 41 15 42 16 43 19 44 17 46 28 48 25 50 33 52
REMARK H PARENT 43 17 41 19 39 21 37 23 35 25 19 45 17 47 28 49 25 51 33 53
REMARK Flexibility Score: inf
ROOT
ATOM      1  C   UNL     1     -22.264  59.811  35.541  1.00  0.00     0.180 C 
ATOM      2  C   UNL     1     -21.523  61.062  36.033  1.00  0.00     0.177 C 
ATOM      3  C   UNL     1     -20.207  61.260  35.269  1.00  0.00     0.180 C 
ATOM      4  C   UNL     1     -19.302  60.046  35.523  1.00  0.00     0.214 C 
ATOM      5  C   UNL     1     -20.076  58.711  35.149  1.00  0.00     0.339 C 
ATOM      6  O   UNL     1     -21.423  58.601  35.506  1.00  0.00    -0.332 OA
ENDROOT
BRANCH   1   7
ATOM      7  C   UNL     1     -23.183  59.981  34.246  1.00  0.00     0.198 C 
BRANCH   7   8
ATOM      8  O   UNL     1     -24.570  60.511  34.119  1.00  0.00    -0.347 OA
BRANCH   8   9
ATOM      9  C   UNL     1     -25.686  59.737  33.562  1.00  0.00     0.281 C 
ATOM     10  C   UNL     1     -27.760  62.176  35.504  1.00  0.00     0.041 C 
ATOM     11  C   UNL     1     -27.233  61.557  34.051  1.00  0.00     0.150 C 
ATOM     12  C   UNL     1     -26.799  62.286  32.690  1.00  0.00     0.174 C 
ATOM     13  O   UNL     1     -26.936  60.201  34.013  1.00  0.00    -0.344 OA
ATOM     14  C   UNL     1     -25.952  61.386  31.711  1.00  0.00     0.179 C 
ATOM     15  C   UNL     1     -25.928  59.826  32.060  1.00  0.00     0.202 C 
BRANCH  12  16
ATOM     16  O   UNL     1     -28.091  62.334  32.064  1.00  0.00    -0.388 OA
ATOM     17  H   UNL     1     -27.947  62.798  31.193  1.00  0.00     0.211 HD
ENDBRANCH  12  16
BRANCH  14  18
ATOM     18  O   UNL     1     -26.032  61.716  30.317  1.00  0.00    -0.387 OA
ATOM     19  H   UNL     1     -25.417  61.072  29.878  1.00  0.00     0.211 HD
ENDBRANCH  14  18
BRANCH  15  20
ATOM     20  O   UNL     1     -27.106  58.994  31.811  1.00  0.00    -0.385 OA
ATOM     21  H   UNL     1     -27.358  58.887  30.828  1.00  0.00     0.211 HD
ENDBRANCH  15  20
ENDBRANCH   8   9
ENDBRANCH   7   8
ENDBRANCH   1   7
BRANCH   2  22
ATOM     22  O   UNL     1     -22.317  62.240  36.081  1.00  0.00    -0.387 OA
ATOM     23  H   UNL     1     -21.739  63.044  36.172  1.00  0.00     0.211 HD
ENDBRANCH   2  22
BRANCH   3  24
ATOM     24  O   UNL     1     -19.541  62.412  35.780  1.00  0.00    -0.387 OA
ATOM     25  H   UNL     1     -18.900  62.069  36.460  1.00  0.00     0.211 HD
ENDBRANCH   3  24
BRANCH   5  26
ATOM     26  O   UNL     1     -19.869  58.482  33.748  1.00  0.00    -0.454 OA
BRANCH  26  27
ATOM     27  C   UNL     1     -20.650  58.915  32.711  1.00  0.00     0.214 A 
ATOM     28  C   UNL     1     -21.565  57.920  32.311  1.00  0.00     0.180 A 
ATOM     29  C   UNL     1     -20.558  60.083  31.989  1.00  0.00     0.239 A 
ATOM     30  O   UNL     1     -22.387  58.192  31.226  1.00  0.00    -0.452 OA
ATOM     31  C   UNL     1     -21.359  60.294  30.858  1.00  0.00     0.111 A 
ATOM     32  O   UNL     1     -19.734  61.029  32.419  1.00  0.00    -0.285 OA
ATOM     33  C   UNL     1     -22.294  59.348  30.541  1.00  0.00     0.146 A 
ATOM     34  C   UNL     1     -21.150  61.447  30.003  1.00  0.00     0.134 A 
ATOM     35  C   UNL     1     -23.241  59.603  29.494  1.00  0.00     0.094 A 
ATOM     36  C   UNL     1     -22.094  61.658  28.975  1.00  0.00     0.093 A 
ATOM     37  C   UNL     1     -23.141  60.757  28.751  1.00  0.00     0.123 A 
BRANCH  28  38
ATOM     38  C   UNL     1     -21.742  56.614  32.922  1.00  0.00     0.025 A 
ATOM     39  C   UNL     1     -22.799  56.294  33.768  1.00  0.00     0.062 A 
ATOM     40  C   UNL     1     -20.707  55.638  32.790  1.00  0.00     0.016 A 
ATOM     41  C   UNL     1     -22.855  55.108  34.498  1.00  0.00     0.158 A 
ATOM     42  C   UNL     1     -20.707  54.507  33.595  1.00  0.00     0.051 A 
ATOM     43  C   UNL     1     -21.781  54.219  34.410  1.00  0.00     0.157 A 
BRANCH  41  44
ATOM     44  O   UNL     1     -23.956  54.849  35.290  1.00  0.00    -0.504 OA
ATOM     45  H   UNL     1     -24.883  55.191  35.056  1.00  0.00     0.293 HD
ENDBRANCH  41  44
BRANCH  43  46
ATOM     46  O   UNL     1     -21.805  53.026  35.183  1.00  0.00    -0.504 OA
ATOM     47  H   UNL     1     -20.927  52.636  35.496  1.00  0.00     0.293 HD
ENDBRANCH  43  46
ENDBRANCH  28  38
BRANCH  34  48
ATOM     48  O   UNL     1     -20.073  62.273  30.139  1.00  0.00    -0.507 OA
ATOM     49  H   UNL     1     -19.930  63.057  29.461  1.00  0.00     0.293 HD
ENDBRANCH  34  48
BRANCH  37  50
ATOM     50  O   UNL     1     -24.120  61.094  27.826  1.00  0.00    -0.508 OA
ATOM     51  H   UNL     1     -24.254  62.065  27.526  1.00  0.00     0.293 HD
ENDBRANCH  37  50
ENDBRANCH  26  27
ENDBRANCH   5  26
BRANCH   4  52
ATOM     52  O   UNL     1     -18.104  60.126  34.693  1.00  0.00    -0.384 OA
ATOM     53  H   UNL     1     -18.293  59.461  33.966  1.00  0.00     0.211 HD
ENDBRANCH   4  52
TORSDOF 16
ENDMDL
MODEL 5
REMARK VINA RESULT:    -7.826      2.768      3.985
REMARK INTER + INTRA:         -14.602
REMARK INTER:                 -12.387
REMARK INTRA:                  -2.216
REMARK UNBOUND:                -1.743
REMARK SMILES C[C@@H]1O[C@H](OC[C@H]2O[C@@H](Oc3c(-c4ccc(O)c(O)c4)oc4cc(O)cc(O)c4c3=O)[C@@H](O)[C@H](O)[C@H]2O)[C@@H](O)[C@@H](O)[C@H]1O
REMARK SMILES IDX 7 1 36 2 34 3 32 4 9 5 8 6 6 7 5 8 4 9 1 10 2 11 42 12 3 13
REMARK SMILES IDX 40 14 38 15 43 16 41 18 39 20 37 22 35 24 10 26 11 27 12 28
REMARK SMILES IDX 30 29 21 30 29 31 31 32 22 33 27 34 23 35 26 36 24 37 13 38
REMARK SMILES IDX 20 39 14 40 18 41 15 42 16 43 19 44 17 46 28 48 25 50 33 52
REMARK H PARENT 43 17 41 19 39 21 37 23 35 25 19 45 17 47 28 49 25 51 33 53
REMARK Flexibility Score: inf
ROOT
ATOM      1  C   UNL     1     -21.859  60.477  34.524  1.00  0.00     0.180 C 
ATOM      2  C   UNL     1     -20.740  61.311  35.162  1.00  0.00     0.177 C 
ATOM      3  C   UNL     1     -19.361  60.719  34.842  1.00  0.00     0.180 C 
ATOM      4  C   UNL     1     -19.284  59.301  35.428  1.00  0.00     0.214 C 
ATOM      5  C   UNL     1     -20.503  58.434  34.895  1.00  0.00     0.339 C 
ATOM      6  O   UNL     1     -21.762  59.035  34.815  1.00  0.00    -0.332 OA
ENDROOT
BRANCH   1   7
ATOM      7  C   UNL     1     -22.213  60.791  32.999  1.00  0.00     0.198 C 
BRANCH   7   8
ATOM      8  O   UNL     1     -23.344  61.570  32.419  1.00  0.00    -0.347 OA
BRANCH   8   9
ATOM      9  C   UNL     1     -23.993  61.233  31.146  1.00  0.00     0.281 C 
ATOM     10  C   UNL     1     -24.419  57.883  32.765  1.00  0.00     0.041 C 
ATOM     11  C   UNL     1     -25.065  59.297  32.169  1.00  0.00     0.150 C 
ATOM     12  C   UNL     1     -26.227  60.246  32.737  1.00  0.00     0.174 C 
ATOM     13  O   UNL     1     -24.409  59.889  31.098  1.00  0.00    -0.344 OA
ATOM     14  C   UNL     1     -26.237  61.699  32.124  1.00  0.00     0.179 C 
ATOM     15  C   UNL     1     -25.323  61.905  30.830  1.00  0.00     0.202 C 
BRANCH  12  16
ATOM     16  O   UNL     1     -27.343  59.607  32.097  1.00  0.00    -0.388 OA
ATOM     17  H   UNL     1     -27.035  59.396  31.172  1.00  0.00     0.211 HD
ENDBRANCH  12  16
BRANCH  14  18
ATOM     18  O   UNL     1     -27.505  62.372  32.111  1.00  0.00    -0.387 OA
ATOM     19  H   UNL     1     -27.517  62.853  31.243  1.00  0.00     0.211 HD
ENDBRANCH  14  18
BRANCH  15  20
ATOM     20  O   UNL     1     -25.734  61.354  29.538  1.00  0.00    -0.385 OA
ATOM     21  H   UNL     1     -25.478  60.378  29.385  1.00  0.00     0.211 HD
ENDBRANCH  15  20
ENDBRANCH   8   9
ENDBRANCH   7   8
ENDBRANCH   1   7
BRANCH   2  22
ATOM     22  O   UNL     1     -20.818  62.706  34.899  1.00  0.00    -0.387 OA
ATOM     23  H   UNL     1     -20.571  63.225  35.711  1.00  0.00     0.211 HD
ENDBRANCH   2  22
BRANCH   3  24
ATOM     24  O   UNL     1     -18.358  61.506  35.479  1.00  0.00    -0.387 OA
ATOM     25  H   UNL     1     -17.676  61.688  34.776  1.00  0.00     0.211 HD
ENDBRANCH   3  24
BRANCH   5  26
ATOM     26  O   UNL     1     -20.098  57.861  33.644  1.00  0.00    -0.454 OA
BRANCH  26  27
ATOM     27  C   UNL     1     -20.773  56.933  32.898  1.00  0.00     0.214 A 
ATOM     28  C   UNL     1     -20.875  57.337  31.551  1.00  0.00     0.180 A 
ATOM     29  C   UNL     1     -21.423  55.794  33.316  1.00  0.00     0.239 A 
ATOM     30  O   UNL     1     -21.588  56.523  30.682  1.00  0.00    -0.452 OA
ATOM     31  C   UNL     1     -22.190  55.034  32.422  1.00  0.00     0.111 A 
ATOM     32  O   UNL     1     -21.262  55.401  34.573  1.00  0.00    -0.285 OA
ATOM     33  C   UNL     1     -22.204  55.404  31.106  1.00  0.00     0.146 A 
ATOM     34  C   UNL     1     -23.006  53.931  32.893  1.00  0.00     0.134 A 
ATOM     35  C   UNL     1     -22.839  54.560  30.135  1.00  0.00     0.094 A 
ATOM     36  C   UNL     1     -23.627  53.132  31.910  1.00  0.00     0.093 A 
ATOM     37  C   UNL     1     -23.514  53.433  30.548  1.00  0.00     0.123 A 
BRANCH  28  38
ATOM     38  C   UNL     1     -20.306  58.537  30.965  1.00  0.00     0.025 A 
ATOM     39  C   UNL     1     -19.160  59.164  31.445  1.00  0.00     0.062 A 
ATOM     40  C   UNL     1     -21.029  59.222  29.939  1.00  0.00     0.016 A 
ATOM     41  C   UNL     1     -18.735  60.414  31.000  1.00  0.00     0.158 A 
ATOM     42  C   UNL     1     -20.669  60.512  29.573  1.00  0.00     0.051 A 
ATOM     43  C   UNL     1     -19.517  61.090  30.061  1.00  0.00     0.157 A 
BRANCH  41  44
ATOM     44  O   UNL     1     -17.566  60.953  31.503  1.00  0.00    -0.504 OA
ATOM     45  H   UNL     1     -16.743  61.092  30.925  1.00  0.00     0.293 HD
ENDBRANCH  41  44
BRANCH  43  46
ATOM     46  O   UNL     1     -19.118  62.385  29.632  1.00  0.00    -0.504 OA
ATOM     47  H   UNL     1     -19.670  62.851  28.925  1.00  0.00     0.293 HD
ENDBRANCH  43  46
ENDBRANCH  28  38
BRANCH  34  48
ATOM     48  O   UNL     1     -23.215  53.691  34.220  1.00  0.00    -0.507 OA
ATOM     49  H   UNL     1     -24.018  54.149  34.710  1.00  0.00     0.293 HD
ENDBRANCH  34  48
BRANCH  37  50
ATOM     50  O   UNL     1     -24.019  52.528  29.624  1.00  0.00    -0.508 OA
ATOM     51  H   UNL     1     -24.711  51.823  29.897  1.00  0.00     0.293 HD
ENDBRANCH  37  50
ENDBRANCH  26  27
ENDBRANCH   5  26
BRANCH   4  52
ATOM     52  O   UNL     1     -18.046  58.650  35.015  1.00  0.00    -0.384 OA
ATOM     53  H   UNL     1     -17.441  58.807  35.799  1.00  0.00     0.211 HD
ENDBRANCH   4  52
TORSDOF 16
ENDMDL
MODEL 6
REMARK VINA RESULT:    -7.777      2.118      4.575
REMARK INTER + INTRA:         -14.521
REMARK INTER:                 -11.755
REMARK INTRA:                  -2.766
REMARK UNBOUND:                -1.743
REMARK SMILES C[C@@H]1O[C@H](OC[C@H]2O[C@@H](Oc3c(-c4ccc(O)c(O)c4)oc4cc(O)cc(O)c4c3=O)[C@@H](O)[C@H](O)[C@H]2O)[C@@H](O)[C@@H](O)[C@H]1O
REMARK SMILES IDX 7 1 36 2 34 3 32 4 9 5 8 6 6 7 5 8 4 9 1 10 2 11 42 12 3 13
REMARK SMILES IDX 40 14 38 15 43 16 41 18 39 20 37 22 35 24 10 26 11 27 12 28
REMARK SMILES IDX 30 29 21 30 29 31 31 32 22 33 27 34 23 35 26 36 24 37 13 38
REMARK SMILES IDX 20 39 14 40 18 41 15 42 16 43 19 44 17 46 28 48 25 50 33 52
REMARK H PARENT 43 17 41 19 39 21 37 23 35 25 19 45 17 47 28 49 25 51 33 53
REMARK Flexibility Score: inf
ROOT
ATOM      1  C   UNL     1     -22.436  62.068  30.774  1.00  0.00     0.180 C 
ATOM      2  C   UNL     1     -23.695  62.317  29.933  1.00  0.00     0.177 C 
ATOM      3  C   UNL     1     -24.226  61.008  29.335  1.00  0.00     0.180 C 
ATOM      4  C   UNL     1     -23.152  60.416  28.410  1.00  0.00     0.214 C 
ATOM      5  C   UNL     1     -21.786  60.261  29.205  1.00  0.00     0.339 C 
ATOM      6  O   UNL     1     -21.401  61.286  30.073  1.00  0.00    -0.332 OA
ENDROOT
BRANCH   1   7
ATOM      7  C   UNL     1     -22.658  61.609  32.287  1.00  0.00     0.198 C 
BRANCH   7   8
ATOM      8  O   UNL     1     -23.922  61.362  33.037  1.00  0.00    -0.347 OA
BRANCH   8   9
ATOM      9  C   UNL     1     -24.312  60.046  33.559  1.00  0.00     0.281 C 
ATOM     10  C   UNL     1     -27.190  61.964  34.993  1.00  0.00     0.041 C 
ATOM     11  C   UNL     1     -26.589  60.833  33.929  1.00  0.00     0.150 C 
ATOM     12  C   UNL     1     -26.936  60.545  32.391  1.00  0.00     0.174 C 
ATOM     13  O   UNL     1     -25.480  60.106  34.342  1.00  0.00    -0.344 OA
ATOM     14  C   UNL     1     -25.848  59.696  31.627  1.00  0.00     0.179 C 
ATOM     15  C   UNL     1     -24.754  58.990  32.554  1.00  0.00     0.202 C 
BRANCH  12  16
ATOM     16  O   UNL     1     -28.007  59.610  32.593  1.00  0.00    -0.388 OA
ATOM     17  H   UNL     1     -28.519  59.602  31.737  1.00  0.00     0.211 HD
ENDBRANCH  12  16
BRANCH  14  18
ATOM     18  O   UNL     1     -26.315  58.926  30.509  1.00  0.00    -0.387 OA
ATOM     19  H   UNL     1     -26.736  58.127  30.923  1.00  0.00     0.211 HD
ENDBRANCH  14  18
BRANCH  15  20
ATOM     20  O   UNL     1     -25.108  57.819  33.358  1.00  0.00    -0.385 OA
ATOM     21  H   UNL     1     -26.073  57.504  33.257  1.00  0.00     0.211 HD
ENDBRANCH  15  20
ENDBRANCH   8   9
ENDBRANCH   7   8
ENDBRANCH   1   7
BRANCH   2  22
ATOM     22  O   UNL     1     -24.704  63.076  30.588  1.00  0.00    -0.387 OA
ATOM     23  H   UNL     1     -25.347  62.472  31.047  1.00  0.00     0.211 HD
ENDBRANCH   2  22
BRANCH   3  24
ATOM     24  O   UNL     1     -25.375  61.292  28.539  1.00  0.00    -0.387 OA
ATOM     25  H   UNL     1     -25.621  60.428  28.109  1.00  0.00     0.211 HD
ENDBRANCH   3  24
BRANCH   5  26
ATOM     26  O   UNL     1     -21.823  58.984  29.860  1.00  0.00    -0.454 OA
BRANCH  26  27
ATOM     27  C   UNL     1     -20.919  57.964  29.740  1.00  0.00     0.214 A 
ATOM     28  C   UNL     1     -20.059  57.910  30.856  1.00  0.00     0.180 A 
ATOM     29  C   UNL     1     -20.696  57.128  28.670  1.00  0.00     0.239 A 
ATOM     30  O   UNL     1     -19.047  56.961  30.849  1.00  0.00    -0.452 OA
ATOM     31  C   UNL     1     -19.621  56.228  28.672  1.00  0.00     0.111 A 
ATOM     32  O   UNL     1     -21.553  57.154  27.658  1.00  0.00    -0.285 OA
ATOM     33  C   UNL     1     -18.853  56.140  29.799  1.00  0.00     0.146 A 
ATOM     34  C   UNL     1     -19.287  55.465  27.484  1.00  0.00     0.134 A 
ATOM     35  C   UNL     1     -17.852  55.118  29.903  1.00  0.00     0.094 A 
ATOM     36  C   UNL     1     -18.287  54.478  27.620  1.00  0.00     0.093 A 
ATOM     37  C   UNL     1     -17.605  54.294  28.828  1.00  0.00     0.123 A 
BRANCH  28  38
ATOM     38  C   UNL     1     -20.117  58.759  32.032  1.00  0.00     0.025 A 
ATOM     39  C   UNL     1     -19.294  59.864  32.228  1.00  0.00     0.062 A 
ATOM     40  C   UNL     1     -20.943  58.371  33.132  1.00  0.00     0.016 A 
ATOM     41  C   UNL     1     -19.225  60.553  33.437  1.00  0.00     0.158 A 
ATOM     42  C   UNL     1     -20.796  58.987  34.367  1.00  0.00     0.051 A 
ATOM     43  C   UNL     1     -19.981  60.089  34.515  1.00  0.00     0.157 A 
BRANCH  41  44
ATOM     44  O   UNL     1     -18.408  61.662  33.541  1.00  0.00    -0.504 OA
ATOM     45  H   UNL     1     -17.712  61.754  34.275  1.00  0.00     0.293 HD
ENDBRANCH  41  44
BRANCH  43  46
ATOM     46  O   UNL     1     -19.886  60.756  35.767  1.00  0.00    -0.504 OA
ATOM     47  H   UNL     1     -19.137  61.421  35.904  1.00  0.00     0.293 HD
ENDBRANCH  43  46
ENDBRANCH  28  38
BRANCH  34  48
ATOM     48  O   UNL     1     -19.865  55.708  26.273  1.00  0.00    -0.507 OA
ATOM     49  H   UNL     1     -19.279  55.698  25.406  1.00  0.00     0.293 HD
ENDBRANCH  34  48
BRANCH  37  50
ATOM     50  O   UNL     1     -16.741  53.213  28.944  1.00  0.00    -0.508 OA
ATOM     51  H   UNL     1     -17.011  52.373  29.466  1.00  0.00     0.293 HD
ENDBRANCH  37  50
ENDBRANCH  26  27
ENDBRANCH   5  26
BRANCH   4  52
ATOM     52  O   UNL     1     -23.560  59.097  27.941  1.00  0.00    -0.384 OA
ATOM     53  H   UNL     1     -22.788  58.516  28.212  1.00  0.00     0.211 HD
ENDBRANCH   4  52
TORSDOF 16
ENDMDL
MODEL 7
REMARK VINA RESULT:    -7.606      2.587      3.692
REMARK INTER + INTRA:         -14.241
REMARK INTER:                 -12.172
REMARK INTRA:                  -2.068
REMARK UNBOUND:                -1.743
REMARK SMILES C[C@@H]1O[C@H](OC[C@H]2O[C@@H](Oc3c(-c4ccc(O)c(O)c4)oc4cc(O)cc(O)c4c3=O)[C@@H](O)[C@H](O)[C@H]2O)[C@@H](O)[C@@H](O)[C@H]1O
REMARK SMILES IDX 7 1 36 2 34 3 32 4 9 5 8 6 6 7 5 8 4 9 1 10 2 11 42 12 3 13
REMARK SMILES IDX 40 14 38 15 43 16 41 18 39 20 37 22 35 24 10 26 11 27 12 28
REMARK SMILES IDX 30 29 21 30 29 31 31 32 22 33 27 34 23 35 26 36 24 37 13 38
REMARK SMILES IDX 20 39 14 40 18 41 15 42 16 43 19 44 17 46 28 48 25 50 33 52
REMARK H PARENT 43 17 41 19 39 21 37 23 35 25 19 45 17 47 28 49 25 51 33 53
REMARK Flexibility Score: inf
ROOT
ATOM      1  C   UNL     1     -21.479  59.982  33.804  1.00  0.00     0.180 C 
ATOM      2  C   UNL     1     -21.024  61.407  33.463  1.00  0.00     0.177 C 
ATOM      3  C   UNL     1     -21.480  61.809  32.055  1.00  0.00     0.180 C 
ATOM      4  C   UNL     1     -20.840  60.854  31.037  1.00  0.00     0.214 C 
ATOM      5  C   UNL     1     -21.177  59.352  31.425  1.00  0.00     0.339 C 
ATOM      6  O   UNL     1     -21.132  58.987  32.773  1.00  0.00    -0.332 OA
ENDROOT
BRANCH   1   7
ATOM      7  C   UNL     1     -22.963  59.815  34.370  1.00  0.00     0.198 C 
BRANCH   7   8
ATOM      8  O   UNL     1     -24.240  60.428  33.905  1.00  0.00    -0.347 OA
BRANCH   8   9
ATOM      9  C   UNL     1     -25.372  59.649  33.387  1.00  0.00     0.281 C 
ATOM     10  C   UNL     1     -27.379  62.014  35.484  1.00  0.00     0.041 C 
ATOM     11  C   UNL     1     -26.917  61.434  33.994  1.00  0.00     0.150 C 
ATOM     12  C   UNL     1     -26.564  62.199  32.629  1.00  0.00     0.174 C 
ATOM     13  O   UNL     1     -26.604  60.084  33.911  1.00  0.00    -0.344 OA
ATOM     14  C   UNL     1     -25.754  61.332  31.590  1.00  0.00     0.179 C 
ATOM     15  C   UNL     1     -25.691  59.766  31.902  1.00  0.00     0.202 C 
BRANCH  12  16
ATOM     16  O   UNL     1     -27.886  62.241  32.070  1.00  0.00    -0.388 OA
ATOM     17  H   UNL     1     -27.943  61.451  31.463  1.00  0.00     0.211 HD
ENDBRANCH  12  16
BRANCH  14  18
ATOM     18  O   UNL     1     -25.910  61.691  30.209  1.00  0.00    -0.387 OA
ATOM     19  H   UNL     1     -26.596  62.408  30.220  1.00  0.00     0.211 HD
ENDBRANCH  14  18
BRANCH  15  20
ATOM     20  O   UNL     1     -26.868  58.921  31.695  1.00  0.00    -0.385 OA
ATOM     21  H   UNL     1     -27.435  58.762  32.528  1.00  0.00     0.211 HD
ENDBRANCH  15  20
ENDBRANCH   8   9
ENDBRANCH   7   8
ENDBRANCH   1   7
BRANCH   2  22
ATOM     22  O   UNL     1     -21.343  62.382  34.448  1.00  0.00    -0.387 OA
ATOM     23  H   UNL     1     -22.023  63.018  34.098  1.00  0.00     0.211 HD
ENDBRANCH   2  22
BRANCH   3  24
ATOM     24  O   UNL     1     -21.009  63.125  31.771  1.00  0.00    -0.387 OA
ATOM     25  H   UNL     1     -21.605  63.471  31.051  1.00  0.00     0.211 HD
ENDBRANCH   3  24
BRANCH   5  26
ATOM     26  O   UNL     1     -22.439  59.034  30.821  1.00  0.00    -0.454 OA
BRANCH  26  27
ATOM     27  C   UNL     1     -22.678  58.124  29.827  1.00  0.00     0.214 A 
ATOM     28  C   UNL     1     -22.682  56.807  30.331  1.00  0.00     0.180 A 
ATOM     29  C   UNL     1     -22.781  58.332  28.471  1.00  0.00     0.239 A 
ATOM     30  O   UNL     1     -22.852  55.767  29.428  1.00  0.00    -0.452 OA
ATOM     31  C   UNL     1     -22.884  57.252  27.583  1.00  0.00     0.111 A 
ATOM     32  O   UNL     1     -22.836  59.580  28.026  1.00  0.00    -0.285 OA
ATOM     33  C   UNL     1     -22.967  55.991  28.104  1.00  0.00     0.146 A 
ATOM     34  C   UNL     1     -22.827  57.460  26.148  1.00  0.00     0.134 A 
ATOM     35  C   UNL     1     -23.239  54.879  27.241  1.00  0.00     0.094 A 
ATOM     36  C   UNL     1     -23.086  56.339  25.331  1.00  0.00     0.093 A 
ATOM     37  C   UNL     1     -23.318  55.074  25.881  1.00  0.00     0.123 A 
BRANCH  28  38
ATOM     38  C   UNL     1     -22.521  56.414  31.719  1.00  0.00     0.025 A 
ATOM     39  C   UNL     1     -21.400  55.749  32.209  1.00  0.00     0.062 A 
ATOM     40  C   UNL     1     -23.622  56.562  32.618  1.00  0.00     0.016 A 
ATOM     41  C   UNL     1     -21.339  55.208  33.491  1.00  0.00     0.158 A 
ATOM     42  C   UNL     1     -23.604  55.931  33.855  1.00  0.00     0.051 A 
ATOM     43  C   UNL     1     -22.468  55.297  34.309  1.00  0.00     0.157 A 
BRANCH  41  44
ATOM     44  O   UNL     1     -20.176  54.594  33.915  1.00  0.00    -0.504 OA
ATOM     45  H   UNL     1     -19.788  54.751  34.840  1.00  0.00     0.293 HD
ENDBRANCH  41  44
BRANCH  43  46
ATOM     46  O   UNL     1     -22.434  54.710  35.603  1.00  0.00    -0.504 OA
ATOM     47  H   UNL     1     -21.934  53.840  35.726  1.00  0.00     0.293 HD
ENDBRANCH  43  46
ENDBRANCH  28  38
BRANCH  34  48
ATOM     48  O   UNL     1     -22.493  58.662  25.597  1.00  0.00    -0.507 OA
ATOM     49  H   UNL     1     -23.242  59.279  25.203  1.00  0.00     0.293 HD
ENDBRANCH  34  48
BRANCH  37  50
ATOM     50  O   UNL     1     -23.714  54.045  25.036  1.00  0.00    -0.508 OA
ATOM     51  H   UNL     1     -23.602  54.121  24.020  1.00  0.00     0.293 HD
ENDBRANCH  37  50
ENDBRANCH  26  27
ENDBRANCH   5  26
BRANCH   4  52
ATOM     52  O   UNL     1     -21.369  61.111  29.702  1.00  0.00    -0.384 OA
ATOM     53  H   UNL     1     -21.910  60.286  29.515  1.00  0.00     0.211 HD
ENDBRANCH   4  52
TORSDOF 16
ENDMDL
MODEL 8
REMARK VINA RESULT:    -7.557      1.954      6.345
REMARK INTER + INTRA:         -14.159
REMARK INTER:                 -11.528
REMARK INTRA:                  -2.631
REMARK UNBOUND:                -1.743
REMARK SMILES C[C@@H]1O[C@H](OC[C@H]2O[C@@H](Oc3c(-c4ccc(O)c(O)c4)oc4cc(O)cc(O)c4c3=O)[C@@H](O)[C@H](O)[C@H]2O)[C@@H](O)[C@@H](O)[C@H]1O
REMARK SMILES IDX 7 1 36 2 34 3 32 4 9 5 8 6 6 7 5 8 4 9 1 10 2 11 42 12 3 13
REMARK SMILES IDX 40 14 38 15 43 16 41 18 39 20 37 22 35 24 10 26 11 27 12 28
REMARK SMILES IDX 30 29 21 30 29 31 31 32 22 33 27 34 23 35 26 36 24 37 13 38
REMARK SMILES IDX 20 39 14 40 18 41 15 42 16 43 19 44 17 46 28 48 25 50 33 52
REMARK H PARENT 43 17 41 19 39 21 37 23 35 25 19 45 17 47 28 49 25 51 33 53
REMARK Flexibility Score: inf
ROOT
ATOM      1  C   UNL     1     -21.240  61.838  31.003  1.00  0.00     0.180 C 
ATOM      2  C   UNL     1     -21.787  61.229  29.705  1.00  0.00     0.177 C 
ATOM      3  C   UNL     1     -21.602  59.706  29.690  1.00  0.00     0.180 C 
ATOM      4  C   UNL     1     -20.101  59.389  29.764  1.00  0.00     0.214 C 
ATOM      5  C   UNL     1     -19.462  60.110  31.026  1.00  0.00     0.339 C 
ATOM      6  O   UNL     1     -19.864  61.414  31.322  1.00  0.00    -0.332 OA
ENDROOT
BRANCH   1   7
ATOM      7  C   UNL     1     -22.213  61.831  32.269  1.00  0.00     0.198 C 
BRANCH   7   8
ATOM      8  O   UNL     1     -23.588  61.275  32.416  1.00  0.00    -0.347 OA
BRANCH   8   9
ATOM      9  C   UNL     1     -23.865  59.906  32.870  1.00  0.00     0.281 C 
ATOM     10  C   UNL     1     -26.601  61.579  34.802  1.00  0.00     0.041 C 
ATOM     11  C   UNL     1     -26.102  60.562  33.582  1.00  0.00     0.150 C 
ATOM     12  C   UNL     1     -26.629  60.381  32.079  1.00  0.00     0.174 C 
ATOM     13  O   UNL     1     -24.926  59.854  33.793  1.00  0.00    -0.344 OA
ATOM     14  C   UNL     1     -25.619  59.642  31.120  1.00  0.00     0.179 C 
ATOM     15  C   UNL     1     -24.394  58.914  31.843  1.00  0.00     0.202 C 
BRANCH  12  16
ATOM     16  O   UNL     1     -27.635  59.388  32.333  1.00  0.00    -0.388 OA
ATOM     17  H   UNL     1     -27.385  58.973  33.205  1.00  0.00     0.211 HD
ENDBRANCH  12  16
BRANCH  14  18
ATOM     18  O   UNL     1     -26.197  58.943  30.007  1.00  0.00    -0.387 OA
ATOM     19  H   UNL     1     -27.083  59.374  29.884  1.00  0.00     0.211 HD
ENDBRANCH  14  18
BRANCH  15  20
ATOM     20  O   UNL     1     -24.605  57.670  32.584  1.00  0.00    -0.385 OA
ATOM     21  H   UNL     1     -24.259  56.829  32.121  1.00  0.00     0.211 HD
ENDBRANCH  15  20
ENDBRANCH   8   9
ENDBRANCH   7   8
ENDBRANCH   1   7
BRANCH   2  22
ATOM     22  O   UNL     1     -23.110  61.630  29.375  1.00  0.00    -0.387 OA
ATOM     23  H   UNL     1     -23.727  61.442  30.131  1.00  0.00     0.211 HD
ENDBRANCH   2  22
BRANCH   3  24
ATOM     24  O   UNL     1     -22.095  59.189  28.456  1.00  0.00    -0.387 OA
ATOM     25  H   UNL     1     -22.934  58.705  28.687  1.00  0.00     0.211 HD
ENDBRANCH   3  24
BRANCH   5  26
ATOM     26  O   UNL     1     -19.629  59.226  32.144  1.00  0.00    -0.454 OA
BRANCH  26  27
ATOM     27  C   UNL     1     -18.645  58.614  32.873  1.00  0.00     0.214 A 
ATOM     28  C   UNL     1     -18.740  58.948  34.240  1.00  0.00     0.180 A 
ATOM     29  C   UNL     1     -17.579  57.866  32.430  1.00  0.00     0.239 A 
ATOM     30  O   UNL     1     -17.770  58.449  35.098  1.00  0.00    -0.452 OA
ATOM     31  C   UNL     1     -16.582  57.437  33.317  1.00  0.00     0.111 A 
ATOM     32  O   UNL     1     -17.543  57.513  31.151  1.00  0.00    -0.285 OA
ATOM     33  C   UNL     1     -16.742  57.705  34.648  1.00  0.00     0.146 A 
ATOM     34  C   UNL     1     -15.378  56.792  32.828  1.00  0.00     0.134 A 
ATOM     35  C   UNL     1     -15.833  57.141  35.603  1.00  0.00     0.094 A 
ATOM     36  C   UNL     1     -14.500  56.261  33.798  1.00  0.00     0.093 A 
ATOM     37  C   UNL     1     -14.750  56.413  35.166  1.00  0.00     0.123 A 
BRANCH  28  38
ATOM     38  C   UNL     1     -19.760  59.776  34.857  1.00  0.00     0.025 A 
ATOM     39  C   UNL     1     -20.979  59.286  35.315  1.00  0.00     0.062 A 
ATOM     40  C   UNL     1     -19.597  61.196  34.862  1.00  0.00     0.016 A 
ATOM     41  C   UNL     1     -22.023  60.113  35.727  1.00  0.00     0.158 A 
ATOM     42  C   UNL     1     -20.669  62.022  35.168  1.00  0.00     0.051 A 
ATOM     43  C   UNL     1     -21.856  61.497  35.634  1.00  0.00     0.157 A 
BRANCH  41  44
ATOM     44  O   UNL     1     -23.191  59.548  36.202  1.00  0.00    -0.504 OA
ATOM     45  H   UNL     1     -24.100  59.971  36.041  1.00  0.00     0.293 HD
ENDBRANCH  41  44
BRANCH  43  46
ATOM     46  O   UNL     1     -22.929  62.351  36.008  1.00  0.00    -0.504 OA
ATOM     47  H   UNL     1     -23.861  62.124  35.689  1.00  0.00     0.293 HD
ENDBRANCH  43  46
ENDBRANCH  28  38
BRANCH  34  48
ATOM     48  O   UNL     1     -15.067  56.733  31.501  1.00  0.00    -0.507 OA
ATOM     49  H   UNL     1     -15.822  56.851  30.786  1.00  0.00     0.293 HD
ENDBRANCH  34  48
BRANCH  37  50
ATOM     50  O   UNL     1     -13.933  55.743  36.068  1.00  0.00    -0.508 OA
ATOM     51  H   UNL     1     -12.936  55.604  35.877  1.00  0.00     0.293 HD
ENDBRANCH  37  50
ENDBRANCH  26  27
ENDBRANCH   5  26
BRANCH   4  52
ATOM     52  O   UNL     1     -19.894  57.952  29.904  1.00  0.00    -0.384 OA
ATOM     53  H   UNL     1     -20.830  57.601  29.992  1.00  0.00     0.211 HD
ENDBRANCH   4  52
TORSDOF 16
ENDMDL
MODEL 9
REMARK VINA RESULT:    -7.383      2.022      6.533
REMARK INTER + INTRA:         -13.875
REMARK INTER:                 -11.057
REMARK INTRA:                  -2.818
REMARK UNBOUND:                -1.743
REMARK SMILES C[C@@H]1O[C@H](OC[C@H]2O[C@@H](Oc3c(-c4ccc(O)c(O)c4)oc4cc(O)cc(O)c4c3=O)[C@@H](O)[C@H](O)[C@H]2O)[C@@H](O)[C@@H](O)[C@H]1O
REMARK SMILES IDX 7 1 36 2 34 3 32 4 9 5 8 6 6 7 5 8 4 9 1 10 2 11 42 12 3 13
REMARK SMILES IDX 40 14 38 15 43 16 41 18 39 20 37 22 35 24 10 26 11 27 12 28
REMARK SMILES IDX 30 29 21 30 29 31 31 32 22 33 27 34 23 35 26 36 24 37 13 38
REMARK SMILES IDX 20 39 14 40 18 41 15 42 16 43 19 44 17 46 28 48 25 50 33 52
REMARK H PARENT 43 17 41 19 39 21 37 23 35 25 19 45 17 47 28 49 25 51 33 53
REMARK Flexibility Score: inf
ROOT
ATOM      1  C   UNL     1     -18.829  60.642  32.813  1.00  0.00     0.180 C 
ATOM      2  C   UNL     1     -19.197  61.262  34.168  1.00  0.00     0.177 C 
ATOM      3  C   UNL     1     -20.664  60.983  34.521  1.00  0.00     0.180 C 
ATOM      4  C   UNL     1     -21.560  61.624  33.450  1.00  0.00     0.214 C 
ATOM      5  C   UNL     1     -21.129  61.109  32.012  1.00  0.00     0.339 C 
ATOM      6  O   UNL     1     -19.766  60.989  31.729  1.00  0.00    -0.332 OA
ENDROOT
BRANCH   1   7
ATOM      7  C   UNL     1     -18.408  59.101  32.815  1.00  0.00     0.198 C 
BRANCH   7   8
ATOM      8  O   UNL     1     -18.687  58.034  33.818  1.00  0.00    -0.347 OA
BRANCH   8   9
ATOM      9  C   UNL     1     -19.430  56.806  33.510  1.00  0.00     0.281 C 
ATOM     10  C   UNL     1     -18.808  56.056  37.125  1.00  0.00     0.041 C 
ATOM     11  C   UNL     1     -19.850  56.429  35.881  1.00  0.00     0.150 C 
ATOM     12  C   UNL     1     -21.097  57.435  35.817  1.00  0.00     0.174 C 
ATOM     13  O   UNL     1     -19.526  55.946  34.620  1.00  0.00    -0.344 OA
ATOM     14  C   UNL     1     -21.540  57.829  34.356  1.00  0.00     0.179 C 
ATOM     15  C   UNL     1     -20.913  56.940  33.185  1.00  0.00     0.202 C 
BRANCH  12  16
ATOM     16  O   UNL     1     -22.120  56.521  36.241  1.00  0.00    -0.388 OA
ATOM     17  H   UNL     1     -22.110  56.554  37.238  1.00  0.00     0.211 HD
ENDBRANCH  12  16
BRANCH  14  18
ATOM     18  O   UNL     1     -22.915  58.205  34.191  1.00  0.00    -0.387 OA
ATOM     19  H   UNL     1     -22.975  58.501  33.245  1.00  0.00     0.211 HD
ENDBRANCH  14  18
BRANCH  15  20
ATOM     20  O   UNL     1     -21.382  55.572  32.962  1.00  0.00    -0.385 OA
ATOM     21  H   UNL     1     -20.801  55.015  32.334  1.00  0.00     0.211 HD
ENDBRANCH  15  20
ENDBRANCH   8   9
ENDBRANCH   7   8
ENDBRANCH   1   7
BRANCH   2  22
ATOM     22  O   UNL     1     -18.303  60.945  35.226  1.00  0.00    -0.387 OA
ATOM     23  H   UNL     1     -18.575  60.095  35.666  1.00  0.00     0.211 HD
ENDBRANCH   2  22
BRANCH   3  24
ATOM     24  O   UNL     1     -20.968  61.602  35.769  1.00  0.00    -0.387 OA
ATOM     25  H   UNL     1     -20.242  61.320  36.389  1.00  0.00     0.211 HD
ENDBRANCH   3  24
BRANCH   5  26
ATOM     26  O   UNL     1     -21.840  59.886  31.771  1.00  0.00    -0.454 OA
BRANCH  26  27
ATOM     27  C   UNL     1     -22.111  59.308  30.561  1.00  0.00     0.214 A 
ATOM     28  C   UNL     1     -23.445  59.546  30.170  1.00  0.00     0.180 A 
ATOM     29  C   UNL     1     -21.320  58.477  29.802  1.00  0.00     0.239 A 
ATOM     30  O   UNL     1     -23.888  58.969  28.988  1.00  0.00    -0.452 OA
ATOM     31  C   UNL     1     -21.824  57.858  28.649  1.00  0.00     0.111 A 
ATOM     32  O   UNL     1     -20.051  58.317  30.155  1.00  0.00    -0.285 OA
ATOM     33  C   UNL     1     -23.093  58.170  28.250  1.00  0.00     0.146 A 
ATOM     34  C   UNL     1     -21.047  56.857  27.942  1.00  0.00     0.134 A 
ATOM     35  C   UNL     1     -23.584  57.689  26.991  1.00  0.00     0.094 A 
ATOM     36  C   UNL     1     -21.568  56.397  26.714  1.00  0.00     0.093 A 
ATOM     37  C   UNL     1     -22.808  56.836  26.238  1.00  0.00     0.123 A 
BRANCH  28  38
ATOM     38  C   UNL     1     -24.426  60.341  30.887  1.00  0.00     0.025 A 
ATOM     39  C   UNL     1     -25.460  59.796  31.641  1.00  0.00     0.062 A 
ATOM     40  C   UNL     1     -24.449  61.758  30.696  1.00  0.00     0.016 A 
ATOM     41  C   UNL     1     -26.503  60.559  32.163  1.00  0.00     0.158 A 
ATOM     42  C   UNL     1     -25.540  62.502  31.121  1.00  0.00     0.051 A 
ATOM     43  C   UNL     1     -26.537  61.926  31.880  1.00  0.00     0.157 A 
BRANCH  41  44
ATOM     44  O   UNL     1     -27.474  59.948  32.931  1.00  0.00    -0.504 OA
ATOM     45  H   UNL     1     -27.366  59.811  33.932  1.00  0.00     0.293 HD
ENDBRANCH  41  44
BRANCH  43  46
ATOM     46  O   UNL     1     -27.619  62.708  32.368  1.00  0.00    -0.504 OA
ATOM     47  H   UNL     1     -28.533  62.282  32.431  1.00  0.00     0.293 HD
ENDBRANCH  43  46
ENDBRANCH  28  38
BRANCH  34  48
ATOM     48  O   UNL     1     -19.891  56.338  28.447  1.00  0.00    -0.507 OA
ATOM     49  H   UNL     1     -19.314  55.690  27.862  1.00  0.00     0.293 HD
ENDBRANCH  34  48
BRANCH  37  50
ATOM     50  O   UNL     1     -23.197  56.465  24.957  1.00  0.00    -0.508 OA
ATOM     51  H   UNL     1     -24.152  56.143  24.767  1.00  0.00     0.293 HD
ENDBRANCH  37  50
ENDBRANCH  26  27
ENDBRANCH   5  26
BRANCH   4  52
ATOM     52  O   UNL     1     -22.953  61.252  33.670  1.00  0.00    -0.384 OA
ATOM     53  H   UNL     1     -23.025  60.370  33.197  1.00  0.00     0.211 HD
ENDBRANCH   4  52
TORSDOF 16
ENDMDL
