MODEL 1
REMARK VINA RESULT:    21.950      0.000      0.000
REMARK INTER + INTRA:          56.147
REMARK INTER:                  57.878
REMARK INTRA:                  -1.731
REMARK UNBOUND:                -1.731
REMARK SMILES CCCCCCCCCCCCCCCCCCCCCCCCCCCCCC(=O)[O-]
REMARK SMILES IDX 16 1 17 2 18 3 19 4 20 5 21 6 22 7 23 8 24 9 25 10 26 11
REMARK SMILES IDX 27 12 28 13 29 14 30 15 31 16 32 17 15 18 14 19 13 20 12 21
REMARK SMILES IDX 11 22 10 23 9 24 8 25 7 26 6 27 5 28 4 29 3 30 2 31 1 32
REMARK H PARENT
REMARK Flexibility Score: inf
ROOT
ATOM      1  C   UNL     1       0.167   8.666  -5.935  1.00  0.00     0.000 C 
ENDROOT
BRANCH   1   2
ATOM      2  C   UNL     1       1.471   8.659  -6.755  1.00  0.00     0.000 C 
BRANCH   2   3
ATOM      3  C   UNL     1       1.230   8.472  -8.264  1.00  0.00     0.000 C 
BRANCH   3   4
ATOM      4  C   UNL     1      -0.252   8.607  -8.653  1.00  0.00     0.000 C 
BRANCH   4   5
ATOM      5  C   UNL     1      -0.528   8.718 -10.164  1.00  0.00     0.000 C 
BRANCH   5   6
ATOM      6  C   UNL     1      -0.383   7.384 -10.928  1.00  0.00     0.000 C 
BRANCH   6   7
ATOM      7  C   UNL     1      -1.084   7.413 -12.299  1.00  0.00     0.000 C 
BRANCH   7   8
ATOM      8  C   UNL     1      -0.098   7.570 -13.467  1.00  0.00     0.000 C 
BRANCH   8   9
ATOM      9  C   UNL     1       0.655   8.911 -13.431  1.00  0.00     0.000 C 
BRANCH   9  10
ATOM     10  C   UNL     1      -0.086  10.017 -14.200  1.00  0.00     0.000 C 
BRANCH  10  11
ATOM     11  C   UNL     1       0.641  11.371 -14.134  1.00  0.00     0.000 C 
BRANCH  11  12
ATOM     12  C   UNL     1       2.170  11.222 -14.121  1.00  0.00     0.000 C 
BRANCH  12  13
ATOM     13  C   UNL     1       2.816  11.819 -12.858  1.00  0.00     0.006 C 
BRANCH  13  14
ATOM     14  C   UNL     1       2.467  11.018 -11.596  1.00  0.00     0.053 C 
BRANCH  14  15
ATOM     15  C   UNL     1       3.520  10.002 -11.272  1.00  0.00     0.041 C 
ATOM     16  O   UNL     1       4.019   9.953 -10.117  1.00  0.00    -0.550 OA
ATOM     17  O   UNL     1       3.940   9.099 -12.241  1.00  0.00    -0.550 OA
ENDBRANCH  14  15
ENDBRANCH  13  14
ENDBRANCH  12  13
ENDBRANCH  11  12
ENDBRANCH  10  11
ENDBRANCH   9  10
ENDBRANCH   8   9
ENDBRANCH   7   8
ENDBRANCH   6   7
ENDBRANCH   5   6
ENDBRANCH   4   5
ENDBRANCH   3   4
ENDBRANCH   2   3
ENDBRANCH   1   2
BRANCH   1  18
ATOM     18  C   UNL     1       0.287   9.279  -4.527  1.00  0.00     0.000 C 
BRANCH  18  19
ATOM     19  C   UNL     1       0.115   8.239  -3.407  1.00  0.00     0.000 C 
BRANCH  19  20
ATOM     20  C   UNL     1       1.235   7.184  -3.396  1.00  0.00     0.000 C 
BRANCH  20  21
ATOM     21  C   UNL     1       2.663   7.758  -3.484  1.00  0.00     0.000 C 
BRANCH  21  22
ATOM     22  C   UNL     1       3.637   7.271  -2.391  1.00  0.00     0.000 C 
BRANCH  22  23
ATOM     23  C   UNL     1       5.088   7.761  -2.548  1.00  0.00     0.000 C 
BRANCH  23  24
ATOM     24  C   UNL     1       6.116   6.626  -2.431  1.00  0.00    -0.000 C 
BRANCH  24  25
ATOM     25  C   UNL     1       5.523   5.295  -2.919  1.00  0.00    -0.000 C 
BRANCH  25  26
ATOM     26  C   UNL     1       6.391   4.607  -3.988  1.00  0.00    -0.000 C 
BRANCH  26  27
ATOM     27  C   UNL     1       7.303   3.482  -3.463  1.00  0.00    -0.000 C 
BRANCH  27  28
ATOM     28  C   UNL     1       6.725   2.080  -3.717  1.00  0.00    -0.000 C 
BRANCH  28  29
ATOM     29  C   UNL     1       7.210   1.466  -5.042  1.00  0.00    -0.000 C 
BRANCH  29  30
ATOM     30  C   UNL     1       6.136   1.352  -6.142  1.00  0.00    -0.000 C 
BRANCH  30  31
ATOM     31  C   UNL     1       5.397   2.675  -6.431  1.00  0.00    -0.003 C 
ATOM     32  C   UNL     1       4.149   2.470  -7.289  1.00  0.00     0.004 C 
ENDBRANCH  30  31
ENDBRANCH  29  30
ENDBRANCH  28  29
ENDBRANCH  27  28
ENDBRANCH  26  27
ENDBRANCH  25  26
ENDBRANCH  24  25
ENDBRANCH  23  24
ENDBRANCH  22  23
ENDBRANCH  21  22
ENDBRANCH  20  21
ENDBRANCH  19  20
ENDBRANCH  18  19
ENDBRANCH   1  18
TORSDOF 28
ENDMDL
MODEL 2
REMARK VINA RESULT:    23.156      1.751      3.322
REMARK INTER + INTRA:          59.329
REMARK INTER:                  59.246
REMARK INTRA:                   0.083
REMARK UNBOUND:                -1.731
REMARK SMILES CCCCCCCCCCCCCCCCCCCCCCCCCCCCCC(=O)[O-]
REMARK SMILES IDX 16 1 17 2 18 3 19 4 20 5 21 6 22 7 23 8 24 9 25 10 26 11
REMARK SMILES IDX 27 12 28 13 29 14 30 15 31 16 32 17 15 18 14 19 13 20 12 21
REMARK SMILES IDX 11 22 10 23 9 24 8 25 7 26 6 27 5 28 4 29 3 30 2 31 1 32
REMARK H PARENT
REMARK Flexibility Score: inf
ROOT
ATOM      1  C   UNL     1      -0.493   9.572  -5.064  1.00  0.00     0.000 C 
ENDROOT
BRANCH   1   2
ATOM      2  C   UNL     1       0.675   8.951  -5.854  1.00  0.00     0.000 C 
BRANCH   2   3
ATOM      3  C   UNL     1       0.240   8.370  -7.211  1.00  0.00     0.000 C 
BRANCH   3   4
ATOM      4  C   UNL     1       1.345   8.455  -8.278  1.00  0.00     0.000 C 
BRANCH   4   5
ATOM      5  C   UNL     1       2.759   8.743  -7.739  1.00  0.00     0.000 C 
BRANCH   5   6
ATOM      6  C   UNL     1       3.755   9.224  -8.817  1.00  0.00     0.000 C 
BRANCH   6   7
ATOM      7  C   UNL     1       3.146  10.291  -9.746  1.00  0.00     0.000 C 
BRANCH   7   8
ATOM      8  C   UNL     1       3.046   9.819 -11.205  1.00  0.00     0.000 C 
BRANCH   8   9
ATOM      9  C   UNL     1       3.477  10.902 -12.209  1.00  0.00     0.000 C 
BRANCH   9  10
ATOM     10  C   UNL     1       2.275  11.606 -12.859  1.00  0.00     0.000 C 
BRANCH  10  11
ATOM     11  C   UNL     1       1.747  10.854 -14.093  1.00  0.00     0.000 C 
BRANCH  11  12
ATOM     12  C   UNL     1       1.634   9.340 -13.860  1.00  0.00     0.000 C 
BRANCH  12  13
ATOM     13  C   UNL     1       0.177   8.867 -13.712  1.00  0.00     0.006 C 
BRANCH  13  14
ATOM     14  C   UNL     1       0.074   7.538 -12.952  1.00  0.00     0.053 C 
BRANCH  14  15
ATOM     15  C   UNL     1      -0.955   7.595 -11.863  1.00  0.00     0.041 C 
ATOM     16  O   UNL     1      -0.766   8.317 -10.850  1.00  0.00    -0.550 OA
ATOM     17  O   UNL     1      -2.130   6.861 -11.976  1.00  0.00    -0.550 OA
ENDBRANCH  14  15
ENDBRANCH  13  14
ENDBRANCH  12  13
ENDBRANCH  11  12
ENDBRANCH  10  11
ENDBRANCH   9  10
ENDBRANCH   8   9
ENDBRANCH   7   8
ENDBRANCH   6   7
ENDBRANCH   5   6
ENDBRANCH   4   5
ENDBRANCH   3   4
ENDBRANCH   2   3
ENDBRANCH   1   2
BRANCH   1  18
ATOM     18  C   UNL     1      -0.257   9.703  -3.548  1.00  0.00     0.000 C 
BRANCH  18  19
ATOM     19  C   UNL     1       0.018   8.350  -2.869  1.00  0.00     0.000 C 
BRANCH  19  20
ATOM     20  C   UNL     1       0.462   7.264  -3.864  1.00  0.00     0.000 C 
BRANCH  20  21
ATOM     21  C   UNL     1       1.837   6.635  -3.563  1.00  0.00     0.000 C 
BRANCH  21  22
ATOM     22  C   UNL     1       3.006   7.634  -3.444  1.00  0.00     0.000 C 
BRANCH  22  23
ATOM     23  C   UNL     1       3.890   7.456  -2.196  1.00  0.00     0.000 C 
BRANCH  23  24
ATOM     24  C   UNL     1       5.038   8.474  -2.128  1.00  0.00    -0.000 C 
BRANCH  24  25
ATOM     25  C   UNL     1       6.326   7.816  -1.612  1.00  0.00    -0.000 C 
BRANCH  25  26
ATOM     26  C   UNL     1       6.526   6.385  -2.144  1.00  0.00    -0.000 C 
BRANCH  26  27
ATOM     27  C   UNL     1       6.041   6.152  -3.586  1.00  0.00    -0.000 C 
BRANCH  27  28
ATOM     28  C   UNL     1       5.421   4.759  -3.789  1.00  0.00    -0.000 C 
BRANCH  28  29
ATOM     29  C   UNL     1       6.450   3.709  -4.244  1.00  0.00    -0.000 C 
BRANCH  29  30
ATOM     30  C   UNL     1       6.840   2.669  -3.175  1.00  0.00    -0.000 C 
BRANCH  30  31
ATOM     31  C   UNL     1       7.567   1.433  -3.744  1.00  0.00    -0.003 C 
ATOM     32  C   UNL     1       7.145   1.119  -5.179  1.00  0.00     0.004 C 
ENDBRANCH  30  31
ENDBRANCH  29  30
ENDBRANCH  28  29
ENDBRANCH  27  28
ENDBRANCH  26  27
ENDBRANCH  25  26
ENDBRANCH  24  25
ENDBRANCH  23  24
ENDBRANCH  22  23
ENDBRANCH  21  22
ENDBRANCH  20  21
ENDBRANCH  19  20
ENDBRANCH  18  19
ENDBRANCH   1  18
TORSDOF 28
ENDMDL
MODEL 3
REMARK VINA RESULT:    23.446      4.507      9.967
REMARK INTER + INTRA:          60.095
REMARK INTER:                  60.632
REMARK INTRA:                  -0.538
REMARK UNBOUND:                -1.731
REMARK SMILES CCCCCCCCCCCCCCCCCCCCCCCCCCCCCC(=O)[O-]
REMARK SMILES IDX 16 1 17 2 18 3 19 4 20 5 21 6 22 7 23 8 24 9 25 10 26 11
REMARK SMILES IDX 27 12 28 13 29 14 30 15 31 16 32 17 15 18 14 19 13 20 12 21
REMARK SMILES IDX 11 22 10 23 9 24 8 25 7 26 6 27 5 28 4 29 3 30 2 31 1 32
REMARK H PARENT
REMARK Flexibility Score: inf
ROOT
ATOM      1  C   UNL     1       0.859   8.510  -5.511  1.00  0.00     0.000 C 
ENDROOT
BRANCH   1   2
ATOM      2  C   UNL     1       0.449   7.130  -4.963  1.00  0.00     0.000 C 
BRANCH   2   3
ATOM      3  C   UNL     1       0.510   7.052  -3.427  1.00  0.00     0.000 C 
BRANCH   3   4
ATOM      4  C   UNL     1       0.444   8.435  -2.756  1.00  0.00     0.000 C 
BRANCH   4   5
ATOM      5  C   UNL     1      -0.812   9.266  -3.085  1.00  0.00     0.000 C 
BRANCH   5   6
ATOM      6  C   UNL     1      -0.632  10.784  -2.872  1.00  0.00     0.000 C 
BRANCH   6   7
ATOM      7  C   UNL     1      -1.798  11.410  -2.085  1.00  0.00     0.000 C 
BRANCH   7   8
ATOM      8  C   UNL     1      -1.394  11.837  -0.666  1.00  0.00     0.000 C 
BRANCH   8   9
ATOM      9  C   UNL     1      -0.376  12.991  -0.661  1.00  0.00     0.000 C 
BRANCH   9  10
ATOM     10  C   UNL     1      -0.663  14.027  -1.760  1.00  0.00     0.000 C 
BRANCH  10  11
ATOM     11  C   UNL     1      -0.342  15.464  -1.315  1.00  0.00     0.000 C 
BRANCH  11  12
ATOM     12  C   UNL     1       1.168  15.721  -1.186  1.00  0.00     0.000 C 
BRANCH  12  13
ATOM     13  C   UNL     1       1.765  16.403  -2.429  1.00  0.00     0.006 C 
BRANCH  13  14
ATOM     14  C   UNL     1       0.873  16.232  -3.667  1.00  0.00     0.053 C 
BRANCH  14  15
ATOM     15  C   UNL     1       1.644  15.711  -4.842  1.00  0.00     0.041 C 
ATOM     16  O   UNL     1       1.046  15.138  -5.789  1.00  0.00    -0.550 OA
ATOM     17  O   UNL     1       3.024  15.873  -4.898  1.00  0.00    -0.550 OA
ENDBRANCH  14  15
ENDBRANCH  13  14
ENDBRANCH  12  13
ENDBRANCH  11  12
ENDBRANCH  10  11
ENDBRANCH   9  10
ENDBRANCH   8   9
ENDBRANCH   7   8
ENDBRANCH   6   7
ENDBRANCH   5   6
ENDBRANCH   4   5
ENDBRANCH   3   4
ENDBRANCH   2   3
ENDBRANCH   1   2
BRANCH   1  18
ATOM     18  C   UNL     1       0.212   8.895  -6.855  1.00  0.00     0.000 C 
BRANCH  18  19
ATOM     19  C   UNL     1       1.029   8.416  -8.068  1.00  0.00     0.000 C 
BRANCH  19  20
ATOM     20  C   UNL     1       2.485   8.914  -8.040  1.00  0.00     0.000 C 
BRANCH  20  21
ATOM     21  C   UNL     1       3.164   9.006  -9.420  1.00  0.00     0.000 C 
BRANCH  21  22
ATOM     22  C   UNL     1       3.338  10.434  -9.975  1.00  0.00     0.000 C 
BRANCH  22  23
ATOM     23  C   UNL     1       3.429  10.530 -11.509  1.00  0.00     0.000 C 
BRANCH  23  24
ATOM     24  C   UNL     1       3.350  11.975 -12.022  1.00  0.00    -0.000 C 
BRANCH  24  25
ATOM     25  C   UNL     1       2.430  12.073 -13.249  1.00  0.00    -0.000 C 
BRANCH  25  26
ATOM     26  C   UNL     1       2.300  10.742 -14.011  1.00  0.00    -0.000 C 
BRANCH  26  27
ATOM     27  C   UNL     1       0.917  10.071 -13.921  1.00  0.00    -0.000 C 
BRANCH  27  28
ATOM     28  C   UNL     1       0.970   8.683 -13.263  1.00  0.00    -0.000 C 
BRANCH  28  29
ATOM     29  C   UNL     1      -0.341   7.895 -13.426  1.00  0.00    -0.000 C 
BRANCH  29  30
ATOM     30  C   UNL     1      -0.646   6.891 -12.296  1.00  0.00    -0.000 C 
BRANCH  30  31
ATOM     31  C   UNL     1      -1.446   7.497 -11.124  1.00  0.00    -0.003 C 
ATOM     32  C   UNL     1      -0.636   8.524 -10.335  1.00  0.00     0.004 C 
ENDBRANCH  30  31
ENDBRANCH  29  30
ENDBRANCH  28  29
ENDBRANCH  27  28
ENDBRANCH  26  27
ENDBRANCH  25  26
ENDBRANCH  24  25
ENDBRANCH  23  24
ENDBRANCH  22  23
ENDBRANCH  21  22
ENDBRANCH  20  21
ENDBRANCH  19  20
ENDBRANCH  18  19
ENDBRANCH   1  18
TORSDOF 28
ENDMDL
MODEL 4
REMARK VINA RESULT:    23.473      3.925      7.598
REMARK INTER + INTRA:          60.164
REMARK INTER:                  58.578
REMARK INTRA:                   1.585
REMARK UNBOUND:                -1.731
REMARK SMILES CCCCCCCCCCCCCCCCCCCCCCCCCCCCCC(=O)[O-]
REMARK SMILES IDX 16 1 17 2 18 3 19 4 20 5 21 6 22 7 23 8 24 9 25 10 26 11
REMARK SMILES IDX 27 12 28 13 29 14 30 15 31 16 32 17 15 18 14 19 13 20 12 21
REMARK SMILES IDX 11 22 10 23 9 24 8 25 7 26 6 27 5 28 4 29 3 30 2 31 1 32
REMARK H PARENT
REMARK Flexibility Score: inf
ROOT
ATOM      1  C   UNL     1       0.216   8.486  -5.871  1.00  0.00     0.000 C 
ENDROOT
BRANCH   1   2
ATOM      2  C   UNL     1      -0.100   7.115  -5.245  1.00  0.00     0.000 C 
BRANCH   2   3
ATOM      3  C   UNL     1       0.379   6.996  -3.788  1.00  0.00     0.000 C 
BRANCH   3   4
ATOM      4  C   UNL     1       0.466   8.357  -3.075  1.00  0.00     0.000 C 
BRANCH   4   5
ATOM      5  C   UNL     1      -0.778   9.254  -3.217  1.00  0.00     0.000 C 
BRANCH   5   6
ATOM      6  C   UNL     1      -0.495  10.757  -3.008  1.00  0.00     0.000 C 
BRANCH   6   7
ATOM      7  C   UNL     1      -1.621  11.465  -2.233  1.00  0.00     0.000 C 
BRANCH   7   8
ATOM      8  C   UNL     1      -1.260  11.719  -0.761  1.00  0.00     0.000 C 
BRANCH   8   9
ATOM      9  C   UNL     1      -0.359  12.952  -0.576  1.00  0.00     0.000 C 
BRANCH   9  10
ATOM     10  C   UNL     1      -0.918  14.195  -1.287  1.00  0.00     0.000 C 
BRANCH  10  11
ATOM     11  C   UNL     1      -0.277  15.501  -0.784  1.00  0.00     0.000 C 
BRANCH  11  12
ATOM     12  C   UNL     1       1.046  15.823  -1.495  1.00  0.00     0.000 C 
BRANCH  12  13
ATOM     13  C   UNL     1       0.853  16.185  -2.978  1.00  0.00     0.006 C 
BRANCH  13  14
ATOM     14  C   UNL     1       2.184  16.237  -3.740  1.00  0.00     0.053 C 
BRANCH  14  15
ATOM     15  C   UNL     1       2.107  15.510  -5.048  1.00  0.00     0.041 C 
ATOM     16  O   UNL     1       3.078  14.813  -5.444  1.00  0.00    -0.550 OA
ATOM     17  O   UNL     1       0.957  15.591  -5.824  1.00  0.00    -0.550 OA
ENDBRANCH  14  15
ENDBRANCH  13  14
ENDBRANCH  12  13
ENDBRANCH  11  12
ENDBRANCH  10  11
ENDBRANCH   9  10
ENDBRANCH   8   9
ENDBRANCH   7   8
ENDBRANCH   6   7
ENDBRANCH   5   6
ENDBRANCH   4   5
ENDBRANCH   3   4
ENDBRANCH   2   3
ENDBRANCH   1   2
BRANCH   1  18
ATOM     18  C   UNL     1      -0.251   8.659  -7.329  1.00  0.00     0.000 C 
BRANCH  18  19
ATOM     19  C   UNL     1       0.864   8.371  -8.349  1.00  0.00     0.000 C 
BRANCH  19  20
ATOM     20  C   UNL     1       2.268   8.683  -7.801  1.00  0.00     0.000 C 
BRANCH  20  21
ATOM     21  C   UNL     1       2.370   8.710  -6.264  1.00  0.00     0.000 C 
BRANCH  21  22
ATOM     22  C   UNL     1       3.805   8.661  -5.699  1.00  0.00     0.000 C 
BRANCH  22  23
ATOM     23  C   UNL     1       3.928   8.059  -4.287  1.00  0.00     0.000 C 
BRANCH  23  24
ATOM     24  C   UNL     1       5.067   8.684  -3.469  1.00  0.00    -0.000 C 
BRANCH  24  25
ATOM     25  C   UNL     1       4.988   8.253  -1.997  1.00  0.00    -0.000 C 
BRANCH  25  26
ATOM     26  C   UNL     1       4.771   6.739  -1.824  1.00  0.00    -0.000 C 
BRANCH  26  27
ATOM     27  C   UNL     1       4.751   5.930  -3.134  1.00  0.00    -0.000 C 
BRANCH  27  28
ATOM     28  C   UNL     1       6.066   5.172  -3.384  1.00  0.00    -0.000 C 
BRANCH  28  29
ATOM     29  C   UNL     1       5.944   4.120  -4.501  1.00  0.00    -0.000 C 
BRANCH  29  30
ATOM     30  C   UNL     1       7.025   3.021  -4.485  1.00  0.00    -0.000 C 
BRANCH  30  31
ATOM     31  C   UNL     1       6.851   1.993  -3.348  1.00  0.00    -0.003 C 
ATOM     32  C   UNL     1       7.865   2.193  -2.222  1.00  0.00     0.004 C 
ENDBRANCH  30  31
ENDBRANCH  29  30
ENDBRANCH  28  29
ENDBRANCH  27  28
ENDBRANCH  26  27
ENDBRANCH  25  26
ENDBRANCH  24  25
ENDBRANCH  23  24
ENDBRANCH  22  23
ENDBRANCH  21  22
ENDBRANCH  20  21
ENDBRANCH  19  20
ENDBRANCH  18  19
ENDBRANCH   1  18
TORSDOF 28
ENDMDL
MODEL 5
REMARK VINA RESULT:    23.520      1.581      2.951
REMARK INTER + INTRA:          60.288
REMARK INTER:                  62.311
REMARK INTRA:                  -2.023
REMARK UNBOUND:                -1.731
REMARK SMILES CCCCCCCCCCCCCCCCCCCCCCCCCCCCCC(=O)[O-]
REMARK SMILES IDX 16 1 17 2 18 3 19 4 20 5 21 6 22 7 23 8 24 9 25 10 26 11
REMARK SMILES IDX 27 12 28 13 29 14 30 15 31 16 32 17 15 18 14 19 13 20 12 21
REMARK SMILES IDX 11 22 10 23 9 24 8 25 7 26 6 27 5 28 4 29 3 30 2 31 1 32
REMARK H PARENT
REMARK Flexibility Score: inf
ROOT
ATOM      1  C   UNL     1      -0.154   9.160  -4.060  1.00  0.00     0.000 C 
ENDROOT
BRANCH   1   2
ATOM      2  C   UNL     1       0.653   9.335  -5.361  1.00  0.00     0.000 C 
BRANCH   2   3
ATOM      3  C   UNL     1       0.147   8.440  -6.505  1.00  0.00     0.000 C 
BRANCH   3   4
ATOM      4  C   UNL     1       1.150   8.333  -7.667  1.00  0.00     0.000 C 
BRANCH   4   5
ATOM      5  C   UNL     1       2.321   9.333  -7.620  1.00  0.00     0.000 C 
BRANCH   5   6
ATOM      6  C   UNL     1       3.361   9.136  -8.743  1.00  0.00     0.000 C 
BRANCH   6   7
ATOM      7  C   UNL     1       2.755   9.332 -10.145  1.00  0.00     0.000 C 
BRANCH   7   8
ATOM      8  C   UNL     1       3.565  10.311 -11.010  1.00  0.00     0.000 C 
BRANCH   8   9
ATOM      9  C   UNL     1       2.754  11.553 -11.418  1.00  0.00     0.000 C 
BRANCH   9  10
ATOM     10  C   UNL     1       2.653  11.708 -12.944  1.00  0.00     0.000 C 
BRANCH  10  11
ATOM     11  C   UNL     1       2.457  10.362 -13.663  1.00  0.00     0.000 C 
BRANCH  11  12
ATOM     12  C   UNL     1       1.138  10.297 -14.448  1.00  0.00     0.000 C 
BRANCH  12  13
ATOM     13  C   UNL     1      -0.001   9.644 -13.646  1.00  0.00     0.006 C 
BRANCH  13  14
ATOM     14  C   UNL     1       0.448   8.352 -12.949  1.00  0.00     0.053 C 
BRANCH  14  15
ATOM     15  C   UNL     1      -0.564   7.875 -11.952  1.00  0.00     0.041 C 
ATOM     16  O   UNL     1      -1.426   7.021 -12.283  1.00  0.00    -0.550 OA
ATOM     17  O   UNL     1      -0.545   8.365 -10.651  1.00  0.00    -0.550 OA
ENDBRANCH  14  15
ENDBRANCH  13  14
ENDBRANCH  12  13
ENDBRANCH  11  12
ENDBRANCH  10  11
ENDBRANCH   9  10
ENDBRANCH   8   9
ENDBRANCH   7   8
ENDBRANCH   6   7
ENDBRANCH   5   6
ENDBRANCH   4   5
ENDBRANCH   3   4
ENDBRANCH   2   3
ENDBRANCH   1   2
BRANCH   1  18
ATOM     18  C   UNL     1       0.188   7.897  -3.247  1.00  0.00     0.000 C 
BRANCH  18  19
ATOM     19  C   UNL     1       1.370   7.110  -3.839  1.00  0.00     0.000 C 
BRANCH  19  20
ATOM     20  C   UNL     1       2.532   6.941  -2.844  1.00  0.00     0.000 C 
BRANCH  20  21
ATOM     21  C   UNL     1       3.810   7.725  -3.203  1.00  0.00     0.000 C 
BRANCH  21  22
ATOM     22  C   UNL     1       4.970   7.589  -2.196  1.00  0.00     0.000 C 
BRANCH  22  23
ATOM     23  C   UNL     1       5.937   6.422  -2.472  1.00  0.00     0.000 C 
BRANCH  23  24
ATOM     24  C   UNL     1       5.403   5.442  -3.526  1.00  0.00    -0.000 C 
BRANCH  24  25
ATOM     25  C   UNL     1       6.498   4.460  -3.968  1.00  0.00    -0.000 C 
BRANCH  25  26
ATOM     26  C   UNL     1       6.411   3.099  -3.253  1.00  0.00    -0.000 C 
BRANCH  26  27
ATOM     27  C   UNL     1       7.660   2.210  -3.390  1.00  0.00    -0.000 C 
BRANCH  27  28
ATOM     28  C   UNL     1       7.660   1.378  -4.683  1.00  0.00    -0.000 C 
BRANCH  28  29
ATOM     29  C   UNL     1       6.253   1.202  -5.280  1.00  0.00    -0.000 C 
BRANCH  29  30
ATOM     30  C   UNL     1       6.024   1.904  -6.633  1.00  0.00    -0.000 C 
BRANCH  30  31
ATOM     31  C   UNL     1       4.786   2.825  -6.655  1.00  0.00    -0.003 C 
ATOM     32  C   UNL     1       3.715   2.337  -7.630  1.00  0.00     0.004 C 
ENDBRANCH  30  31
ENDBRANCH  29  30
ENDBRANCH  28  29
ENDBRANCH  27  28
ENDBRANCH  26  27
ENDBRANCH  25  26
ENDBRANCH  24  25
ENDBRANCH  23  24
ENDBRANCH  22  23
ENDBRANCH  21  22
ENDBRANCH  20  21
ENDBRANCH  19  20
ENDBRANCH  18  19
ENDBRANCH   1  18
TORSDOF 28
ENDMDL
MODEL 6
REMARK VINA RESULT:    23.596      1.579      2.594
REMARK INTER + INTRA:          60.490
REMARK INTER:                  59.597
REMARK INTRA:                   0.893
REMARK UNBOUND:                -1.731
REMARK SMILES CCCCCCCCCCCCCCCCCCCCCCCCCCCCCC(=O)[O-]
REMARK SMILES IDX 16 1 17 2 18 3 19 4 20 5 21 6 22 7 23 8 24 9 25 10 26 11
REMARK SMILES IDX 27 12 28 13 29 14 30 15 31 16 32 17 15 18 14 19 13 20 12 21
REMARK SMILES IDX 11 22 10 23 9 24 8 25 7 26 6 27 5 28 4 29 3 30 2 31 1 32
REMARK H PARENT
REMARK Flexibility Score: inf
ROOT
ATOM      1  C   UNL     1      -0.344   8.914  -3.859  1.00  0.00     0.000 C 
ENDROOT
BRANCH   1   2
ATOM      2  C   UNL     1       0.508   9.439  -5.030  1.00  0.00     0.000 C 
BRANCH   2   3
ATOM      3  C   UNL     1       1.139   8.311  -5.865  1.00  0.00     0.000 C 
BRANCH   3   4
ATOM      4  C   UNL     1       1.413   8.728  -7.321  1.00  0.00     0.000 C 
BRANCH   4   5
ATOM      5  C   UNL     1       0.546   8.022  -8.381  1.00  0.00     0.000 C 
BRANCH   5   6
ATOM      6  C   UNL     1      -0.563   8.914  -8.979  1.00  0.00     0.000 C 
BRANCH   6   7
ATOM      7  C   UNL     1      -0.672   8.769 -10.508  1.00  0.00     0.000 C 
BRANCH   7   8
ATOM      8  C   UNL     1      -0.621   7.304 -10.971  1.00  0.00     0.000 C 
BRANCH   8   9
ATOM      9  C   UNL     1      -0.865   7.151 -12.482  1.00  0.00     0.000 C 
BRANCH   9  10
ATOM     10  C   UNL     1      -0.100   8.199 -13.307  1.00  0.00     0.000 C 
BRANCH  10  11
ATOM     11  C   UNL     1       1.408   7.906 -13.381  1.00  0.00     0.000 C 
BRANCH  11  12
ATOM     12  C   UNL     1       2.263   9.181 -13.313  1.00  0.00     0.000 C 
BRANCH  12  13
ATOM     13  C   UNL     1       3.140   9.243 -12.050  1.00  0.00     0.006 C 
BRANCH  13  14
ATOM     14  C   UNL     1       3.666  10.659 -11.780  1.00  0.00     0.053 C 
BRANCH  14  15
ATOM     15  C   UNL     1       2.709  11.710 -12.256  1.00  0.00     0.041 C 
ATOM     16  O   UNL     1       2.167  12.494 -11.434  1.00  0.00    -0.550 OA
ATOM     17  O   UNL     1       2.426  11.832 -13.612  1.00  0.00    -0.550 OA
ENDBRANCH  14  15
ENDBRANCH  13  14
ENDBRANCH  12  13
ENDBRANCH  11  12
ENDBRANCH  10  11
ENDBRANCH   9  10
ENDBRANCH   8   9
ENDBRANCH   7   8
ENDBRANCH   6   7
ENDBRANCH   5   6
ENDBRANCH   4   5
ENDBRANCH   3   4
ENDBRANCH   2   3
ENDBRANCH   1   2
BRANCH   1  18
ATOM     18  C   UNL     1      -0.089   7.444  -3.476  1.00  0.00     0.000 C 
BRANCH  18  19
ATOM     19  C   UNL     1       1.378   7.023  -3.672  1.00  0.00     0.000 C 
BRANCH  19  20
ATOM     20  C   UNL     1       2.043   6.554  -2.366  1.00  0.00     0.000 C 
BRANCH  20  21
ATOM     21  C   UNL     1       3.485   7.056  -2.157  1.00  0.00     0.000 C 
BRANCH  21  22
ATOM     22  C   UNL     1       4.029   7.976  -3.270  1.00  0.00     0.000 C 
BRANCH  22  23
ATOM     23  C   UNL     1       5.380   8.645  -2.958  1.00  0.00     0.000 C 
BRANCH  23  24
ATOM     24  C   UNL     1       5.828   8.433  -1.505  1.00  0.00    -0.000 C 
BRANCH  24  25
ATOM     25  C   UNL     1       6.561   7.092  -1.345  1.00  0.00    -0.000 C 
BRANCH  25  26
ATOM     26  C   UNL     1       6.685   6.313  -2.667  1.00  0.00    -0.000 C 
BRANCH  26  27
ATOM     27  C   UNL     1       5.681   5.159  -2.840  1.00  0.00    -0.000 C 
BRANCH  27  28
ATOM     28  C   UNL     1       5.542   4.705  -4.303  1.00  0.00    -0.000 C 
BRANCH  28  29
ATOM     29  C   UNL     1       6.836   4.086  -4.861  1.00  0.00    -0.000 C 
BRANCH  29  30
ATOM     30  C   UNL     1       6.962   2.560  -4.678  1.00  0.00    -0.000 C 
BRANCH  30  31
ATOM     31  C   UNL     1       6.719   2.084  -3.231  1.00  0.00    -0.003 C 
ATOM     32  C   UNL     1       7.872   2.448  -2.296  1.00  0.00     0.004 C 
ENDBRANCH  30  31
ENDBRANCH  29  30
ENDBRANCH  28  29
ENDBRANCH  27  28
ENDBRANCH  26  27
ENDBRANCH  25  26
ENDBRANCH  24  25
ENDBRANCH  23  24
ENDBRANCH  22  23
ENDBRANCH  21  22
ENDBRANCH  20  21
ENDBRANCH  19  20
ENDBRANCH  18  19
ENDBRANCH   1  18
TORSDOF 28
ENDMDL
MODEL 7
REMARK VINA RESULT:    23.685      3.187     10.498
REMARK INTER + INTRA:          60.725
REMARK INTER:                  59.362
REMARK INTRA:                   1.362
REMARK UNBOUND:                -1.731
REMARK SMILES CCCCCCCCCCCCCCCCCCCCCCCCCCCCCC(=O)[O-]
REMARK SMILES IDX 16 1 17 2 18 3 19 4 20 5 21 6 22 7 23 8 24 9 25 10 26 11
REMARK SMILES IDX 27 12 28 13 29 14 30 15 31 16 32 17 15 18 14 19 13 20 12 21
REMARK SMILES IDX 11 22 10 23 9 24 8 25 7 26 6 27 5 28 4 29 3 30 2 31 1 32
REMARK H PARENT
REMARK Flexibility Score: inf
ROOT
ATOM      1  C   UNL     1       0.400   9.592  -4.827  1.00  0.00     0.000 C 
ENDROOT
BRANCH   1   2
ATOM      2  C   UNL     1      -0.169   8.729  -3.685  1.00  0.00     0.000 C 
BRANCH   2   3
ATOM      3  C   UNL     1       0.467   7.330  -3.616  1.00  0.00     0.000 C 
BRANCH   3   4
ATOM      4  C   UNL     1       0.829   6.909  -2.182  1.00  0.00     0.000 C 
BRANCH   4   5
ATOM      5  C   UNL     1       2.330   6.670  -1.926  1.00  0.00     0.000 C 
BRANCH   5   6
ATOM      6  C   UNL     1       3.172   6.536  -3.213  1.00  0.00     0.000 C 
BRANCH   6   7
ATOM      7  C   UNL     1       4.256   7.624  -3.321  1.00  0.00     0.000 C 
BRANCH   7   8
ATOM      8  C   UNL     1       4.596   8.260  -1.964  1.00  0.00     0.000 C 
BRANCH   8   9
ATOM      9  C   UNL     1       6.089   8.143  -1.611  1.00  0.00     0.000 C 
BRANCH   9  10
ATOM     10  C   UNL     1       6.684   6.791  -2.034  1.00  0.00     0.000 C 
BRANCH  10  11
ATOM     11  C   UNL     1       5.705   5.949  -2.870  1.00  0.00     0.000 C 
BRANCH  11  12
ATOM     12  C   UNL     1       6.371   5.312  -4.099  1.00  0.00     0.000 C 
BRANCH  12  13
ATOM     13  C   UNL     1       5.833   3.903  -4.404  1.00  0.00     0.006 C 
BRANCH  13  14
ATOM     14  C   UNL     1       6.931   2.833  -4.320  1.00  0.00     0.053 C 
BRANCH  14  15
ATOM     15  C   UNL     1       7.119   2.337  -2.918  1.00  0.00     0.041 C 
ATOM     16  O   UNL     1       6.814   1.153  -2.618  1.00  0.00    -0.550 OA
ATOM     17  O   UNL     1       7.646   3.179  -1.946  1.00  0.00    -0.550 OA
ENDBRANCH  14  15
ENDBRANCH  13  14
ENDBRANCH  12  13
ENDBRANCH  11  12
ENDBRANCH  10  11
ENDBRANCH   9  10
ENDBRANCH   8   9
ENDBRANCH   7   8
ENDBRANCH   6   7
ENDBRANCH   5   6
ENDBRANCH   4   5
ENDBRANCH   3   4
ENDBRANCH   2   3
ENDBRANCH   1   2
BRANCH   1  18
ATOM     18  C   UNL     1       1.100   8.805  -5.951  1.00  0.00     0.000 C 
BRANCH  18  19
ATOM     19  C   UNL     1       0.109   8.196  -6.958  1.00  0.00     0.000 C 
BRANCH  19  20
ATOM     20  C   UNL     1       0.601   8.295  -8.413  1.00  0.00     0.000 C 
BRANCH  20  21
ATOM     21  C   UNL     1      -0.515   8.294  -9.475  1.00  0.00     0.000 C 
BRANCH  21  22
ATOM     22  C   UNL     1      -0.033   8.194 -10.937  1.00  0.00     0.000 C 
BRANCH  22  23
ATOM     23  C   UNL     1      -0.978   7.429 -11.882  1.00  0.00     0.000 C 
BRANCH  23  24
ATOM     24  C   UNL     1      -0.627   7.628 -13.364  1.00  0.00    -0.000 C 
BRANCH  24  25
ATOM     25  C   UNL     1       0.478   8.682 -13.531  1.00  0.00    -0.000 C 
BRANCH  25  26
ATOM     26  C   UNL     1      -0.065  10.062 -13.945  1.00  0.00    -0.000 C 
BRANCH  26  27
ATOM     27  C   UNL     1       1.010  11.132 -14.212  1.00  0.00    -0.000 C 
BRANCH  27  28
ATOM     28  C   UNL     1       2.419  10.679 -13.793  1.00  0.00    -0.000 C 
BRANCH  28  29
ATOM     29  C   UNL     1       2.786  11.117 -12.364  1.00  0.00    -0.000 C 
BRANCH  29  30
ATOM     30  C   UNL     1       2.682  10.013 -11.294  1.00  0.00    -0.000 C 
BRANCH  30  31
ATOM     31  C   UNL     1       3.701  10.162 -10.144  1.00  0.00    -0.003 C 
ATOM     32  C   UNL     1       3.367   9.268  -8.951  1.00  0.00     0.004 C 
ENDBRANCH  30  31
ENDBRANCH  29  30
ENDBRANCH  28  29
ENDBRANCH  27  28
ENDBRANCH  26  27
ENDBRANCH  25  26
ENDBRANCH  24  25
ENDBRANCH  23  24
ENDBRANCH  22  23
ENDBRANCH  21  22
ENDBRANCH  20  21
ENDBRANCH  19  20
ENDBRANCH  18  19
ENDBRANCH   1  18
TORSDOF 28
ENDMDL
MODEL 8
REMARK VINA RESULT:    23.737      4.753      7.442
REMARK INTER + INTRA:          60.862
REMARK INTER:                  59.481
REMARK INTRA:                   1.381
REMARK UNBOUND:                -1.731
REMARK SMILES CCCCCCCCCCCCCCCCCCCCCCCCCCCCCC(=O)[O-]
REMARK SMILES IDX 16 1 17 2 18 3 19 4 20 5 21 6 22 7 23 8 24 9 25 10 26 11
REMARK SMILES IDX 27 12 28 13 29 14 30 15 31 16 32 17 15 18 14 19 13 20 12 21
REMARK SMILES IDX 11 22 10 23 9 24 8 25 7 26 6 27 5 28 4 29 3 30 2 31 1 32
REMARK H PARENT
REMARK Flexibility Score: inf
ROOT
ATOM      1  C   UNL     1       0.171   7.447  -5.946  1.00  0.00     0.000 C 
ENDROOT
BRANCH   1   2
ATOM      2  C   UNL     1       0.872   8.818  -5.976  1.00  0.00     0.000 C 
BRANCH   2   3
ATOM      3  C   UNL     1       0.071   9.917  -5.257  1.00  0.00     0.000 C 
BRANCH   3   4
ATOM      4  C   UNL     1       0.089   9.765  -3.726  1.00  0.00     0.000 C 
BRANCH   4   5
ATOM      5  C   UNL     1      -1.285   9.873  -3.038  1.00  0.00     0.000 C 
BRANCH   5   6
ATOM      6  C   UNL     1      -1.655  11.306  -2.599  1.00  0.00     0.000 C 
BRANCH   6   7
ATOM      7  C   UNL     1      -1.775  11.439  -1.069  1.00  0.00     0.000 C 
BRANCH   7   8
ATOM      8  C   UNL     1      -0.753  12.422  -0.477  1.00  0.00     0.000 C 
BRANCH   8   9
ATOM      9  C   UNL     1      -0.566  13.678  -1.346  1.00  0.00     0.000 C 
BRANCH   9  10
ATOM     10  C   UNL     1       0.490  14.635  -0.770  1.00  0.00     0.000 C 
BRANCH  10  11
ATOM     11  C   UNL     1       0.114  16.114  -0.960  1.00  0.00     0.000 C 
BRANCH  11  12
ATOM     12  C   UNL     1       1.237  16.931  -1.618  1.00  0.00     0.000 C 
BRANCH  12  13
ATOM     13  C   UNL     1       1.901  16.192  -2.793  1.00  0.00     0.006 C 
BRANCH  13  14
ATOM     14  C   UNL     1       0.905  15.879  -3.917  1.00  0.00     0.053 C 
BRANCH  14  15
ATOM     15  C   UNL     1       1.600  15.517  -5.195  1.00  0.00     0.041 C 
ATOM     16  O   UNL     1       2.857  15.517  -5.254  1.00  0.00    -0.550 OA
ATOM     17  O   UNL     1       0.859  15.166  -6.317  1.00  0.00    -0.550 OA
ENDBRANCH  14  15
ENDBRANCH  13  14
ENDBRANCH  12  13
ENDBRANCH  11  12
ENDBRANCH  10  11
ENDBRANCH   9  10
ENDBRANCH   8   9
ENDBRANCH   7   8
ENDBRANCH   6   7
ENDBRANCH   5   6
ENDBRANCH   4   5
ENDBRANCH   3   4
ENDBRANCH   2   3
ENDBRANCH   1   2
BRANCH   1  18
ATOM     18  C   UNL     1       0.169   6.747  -4.573  1.00  0.00     0.000 C 
BRANCH  18  19
ATOM     19  C   UNL     1       1.026   7.483  -3.529  1.00  0.00     0.000 C 
BRANCH  19  20
ATOM     20  C   UNL     1       1.905   6.529  -2.701  1.00  0.00     0.000 C 
BRANCH  20  21
ATOM     21  C   UNL     1       3.415   6.837  -2.747  1.00  0.00     0.000 C 
BRANCH  21  22
ATOM     22  C   UNL     1       3.955   7.664  -1.562  1.00  0.00     0.000 C 
BRANCH  22  23
ATOM     23  C   UNL     1       5.474   7.911  -1.581  1.00  0.00     0.000 C 
BRANCH  23  24
ATOM     24  C   UNL     1       6.157   7.333  -2.829  1.00  0.00    -0.000 C 
BRANCH  24  25
ATOM     25  C   UNL     1       6.124   5.797  -2.813  1.00  0.00    -0.000 C 
BRANCH  25  26
ATOM     26  C   UNL     1       5.324   5.200  -3.985  1.00  0.00    -0.000 C 
BRANCH  26  27
ATOM     27  C   UNL     1       6.174   4.713  -5.173  1.00  0.00    -0.000 C 
BRANCH  27  28
ATOM     28  C   UNL     1       5.897   3.246  -5.541  1.00  0.00    -0.000 C 
BRANCH  28  29
ATOM     29  C   UNL     1       7.073   2.313  -5.203  1.00  0.00    -0.000 C 
BRANCH  29  30
ATOM     30  C   UNL     1       7.994   2.806  -4.070  1.00  0.00    -0.000 C 
BRANCH  30  31
ATOM     31  C   UNL     1       7.544   2.360  -2.663  1.00  0.00    -0.003 C 
ATOM     32  C   UNL     1       6.412   1.334  -2.711  1.00  0.00     0.004 C 
ENDBRANCH  30  31
ENDBRANCH  29  30
ENDBRANCH  28  29
ENDBRANCH  27  28
ENDBRANCH  26  27
ENDBRANCH  25  26
ENDBRANCH  24  25
ENDBRANCH  23  24
ENDBRANCH  22  23
ENDBRANCH  21  22
ENDBRANCH  20  21
ENDBRANCH  19  20
ENDBRANCH  18  19
ENDBRANCH   1  18
TORSDOF 28
ENDMDL
MODEL 9
REMARK VINA RESULT:    23.786      4.235      7.963
REMARK INTER + INTRA:          60.990
REMARK INTER:                  61.542
REMARK INTRA:                  -0.552
REMARK UNBOUND:                -1.731
REMARK SMILES CCCCCCCCCCCCCCCCCCCCCCCCCCCCCC(=O)[O-]
REMARK SMILES IDX 16 1 17 2 18 3 19 4 20 5 21 6 22 7 23 8 24 9 25 10 26 11
REMARK SMILES IDX 27 12 28 13 29 14 30 15 31 16 32 17 15 18 14 19 13 20 12 21
REMARK SMILES IDX 11 22 10 23 9 24 8 25 7 26 6 27 5 28 4 29 3 30 2 31 1 32
REMARK H PARENT
REMARK Flexibility Score: inf
ROOT
ATOM      1  C   UNL     1       0.874   8.600  -5.305  1.00  0.00     0.000 C 
ENDROOT
BRANCH   1   2
ATOM      2  C   UNL     1      -0.165   8.134  -6.343  1.00  0.00     0.000 C 
BRANCH   2   3
ATOM      3  C   UNL     1       0.017   8.804  -7.716  1.00  0.00     0.000 C 
BRANCH   3   4
ATOM      4  C   UNL     1       1.254   8.289  -8.472  1.00  0.00     0.000 C 
BRANCH   4   5
ATOM      5  C   UNL     1       2.609   8.789  -7.936  1.00  0.00     0.000 C 
BRANCH   5   6
ATOM      6  C   UNL     1       3.526   9.399  -9.018  1.00  0.00     0.000 C 
BRANCH   6   7
ATOM      7  C   UNL     1       2.742   9.862 -10.259  1.00  0.00     0.000 C 
BRANCH   7   8
ATOM      8  C   UNL     1       3.648  10.479 -11.337  1.00  0.00     0.000 C 
BRANCH   8   9
ATOM      9  C   UNL     1       2.996  11.680 -12.043  1.00  0.00     0.000 C 
BRANCH   9  10
ATOM     10  C   UNL     1       2.473  11.322 -13.443  1.00  0.00     0.000 C 
BRANCH  10  11
ATOM     11  C   UNL     1       1.594  10.058 -13.439  1.00  0.00     0.000 C 
BRANCH  11  12
ATOM     12  C   UNL     1       0.238  10.279 -14.127  1.00  0.00     0.000 C 
BRANCH  12  13
ATOM     13  C   UNL     1      -0.635   9.012 -14.141  1.00  0.00     0.006 C 
BRANCH  13  14
ATOM     14  C   UNL     1      -0.033   7.884 -13.293  1.00  0.00     0.053 C 
BRANCH  14  15
ATOM     15  C   UNL     1      -0.857   7.601 -12.073  1.00  0.00     0.041 C 
ATOM     16  O   UNL     1      -1.725   6.689 -12.093  1.00  0.00    -0.550 OA
ATOM     17  O   UNL     1      -0.657   8.335 -10.911  1.00  0.00    -0.550 OA
ENDBRANCH  14  15
ENDBRANCH  13  14
ENDBRANCH  12  13
ENDBRANCH  11  12
ENDBRANCH  10  11
ENDBRANCH   9  10
ENDBRANCH   8   9
ENDBRANCH   7   8
ENDBRANCH   6   7
ENDBRANCH   5   6
ENDBRANCH   4   5
ENDBRANCH   3   4
ENDBRANCH   2   3
ENDBRANCH   1   2
BRANCH   1  18
ATOM     18  C   UNL     1       0.864   7.819  -3.978  1.00  0.00     0.000 C 
BRANCH  18  19
ATOM     19  C   UNL     1       0.040   8.517  -2.882  1.00  0.00     0.000 C 
BRANCH  19  20
ATOM     20  C   UNL     1      -0.261   9.990  -3.211  1.00  0.00     0.000 C 
BRANCH  20  21
ATOM     21  C   UNL     1      -1.682  10.457  -2.841  1.00  0.00     0.000 C 
BRANCH  21  22
ATOM     22  C   UNL     1      -1.753  11.754  -2.007  1.00  0.00     0.000 C 
BRANCH  22  23
ATOM     23  C   UNL     1      -0.945  11.729  -0.696  1.00  0.00     0.000 C 
BRANCH  23  24
ATOM     24  C   UNL     1      -0.227  13.056  -0.413  1.00  0.00    -0.000 C 
BRANCH  24  25
ATOM     25  C   UNL     1      -0.474  14.067  -1.543  1.00  0.00    -0.000 C 
BRANCH  25  26
ATOM     26  C   UNL     1      -0.386  15.530  -1.072  1.00  0.00    -0.000 C 
BRANCH  26  27
ATOM     27  C   UNL     1       0.926  16.252  -1.429  1.00  0.00    -0.000 C 
BRANCH  27  28
ATOM     28  C   UNL     1       1.588  15.691  -2.699  1.00  0.00    -0.000 C 
BRANCH  28  29
ATOM     29  C   UNL     1       0.914  16.185  -3.991  1.00  0.00    -0.000 C 
BRANCH  29  30
ATOM     30  C   UNL     1       1.143  15.296  -5.229  1.00  0.00    -0.000 C 
BRANCH  30  31
ATOM     31  C   UNL     1       2.629  14.995  -5.514  1.00  0.00    -0.003 C 
ATOM     32  C   UNL     1       3.569  15.799  -4.618  1.00  0.00     0.004 C 
ENDBRANCH  30  31
ENDBRANCH  29  30
ENDBRANCH  28  29
ENDBRANCH  27  28
ENDBRANCH  26  27
ENDBRANCH  25  26
ENDBRANCH  24  25
ENDBRANCH  23  24
ENDBRANCH  22  23
ENDBRANCH  21  22
ENDBRANCH  20  21
ENDBRANCH  19  20
ENDBRANCH  18  19
ENDBRANCH   1  18
TORSDOF 28
ENDMDL
