MODEL 1
REMARK VINA RESULT:    -5.023      0.000      0.000
REMARK INTER + INTRA:          -6.281
REMARK INTER:                  -6.051
REMARK INTRA:                  -0.230
REMARK UNBOUND:                -0.230
REMARK SMILES O=c1c(O)c(-c2ccc(O)c(O)c2)oc2cc(O)cc(O)c12
REMARK SMILES IDX 5 1 3 2 2 3 1 4 22 5 20 6 19 7 17 8 16 9 15 10 14 11 6 12
REMARK SMILES IDX 7 13 8 14 9 15 13 16 11 17 10 18 12 20 4 22 21 24 18 26
REMARK H PARENT 10 19 12 21 4 23 21 25 18 27
REMARK Flexibility Score: inf
ROOT
ATOM      1  C   UNL     1      44.549  30.667  25.273  1.00  0.00     0.180 A 
ATOM      2  C   UNL     1      45.588  31.302  24.571  1.00  0.00     0.208 A 
ATOM      3  C   UNL     1      45.292  31.970  23.371  1.00  0.00     0.238 A 
ATOM      4  O   UNL     1      46.216  32.583  22.777  1.00  0.00    -0.285 OA
ATOM      5  C   UNL     1      43.964  31.980  22.881  1.00  0.00     0.111 A 
ATOM      6  C   UNL     1      43.557  32.591  21.657  1.00  0.00     0.134 A 
ATOM      7  C   UNL     1      42.195  32.653  21.336  1.00  0.00     0.093 A 
ATOM      8  C   UNL     1      41.232  32.069  22.162  1.00  0.00     0.123 A 
ATOM      9  C   UNL     1      41.625  31.418  23.330  1.00  0.00     0.094 A 
ATOM     10  C   UNL     1      42.972  31.371  23.695  1.00  0.00     0.146 A 
ATOM     11  O   UNL     1      43.304  30.750  24.821  1.00  0.00    -0.452 OA
ENDROOT
BRANCH   1  12
ATOM     12  C   UNL     1      44.789  29.922  26.529  1.00  0.00     0.025 A 
ATOM     13  C   UNL     1      45.508  28.714  26.539  1.00  0.00     0.016 A 
ATOM     14  C   UNL     1      45.701  28.016  27.735  1.00  0.00     0.051 A 
ATOM     15  C   UNL     1      45.167  28.506  28.933  1.00  0.00     0.157 A 
ATOM     16  C   UNL     1      44.238  30.398  27.731  1.00  0.00     0.062 A 
ATOM     17  C   UNL     1      44.430  29.702  28.930  1.00  0.00     0.158 A 
BRANCH  15  18
ATOM     18  O   UNL     1      45.364  27.809  30.125  1.00  0.00    -0.504 OA
ATOM     19  H   UNL     1      44.668  27.167  30.484  1.00  0.00     0.293 HD
ENDBRANCH  15  18
BRANCH  17  20
ATOM     20  O   UNL     1      43.881  30.213  30.106  1.00  0.00    -0.504 OA
ATOM     21  H   UNL     1      44.314  30.068  31.009  1.00  0.00     0.293 HD
ENDBRANCH  17  20
ENDBRANCH   1  12
BRANCH   2  22
ATOM     22  O   UNL     1      46.889  31.299  25.084  1.00  0.00    -0.502 OA
ATOM     23  H   UNL     1      47.092  31.512  26.053  1.00  0.00     0.293 HD
ENDBRANCH   2  22
BRANCH   6  24
ATOM     24  O   UNL     1      44.444  33.123  20.717  1.00  0.00    -0.507 OA
ATOM     25  H   UNL     1      44.178  33.462  19.804  1.00  0.00     0.293 HD
ENDBRANCH   6  24
BRANCH   8  26
ATOM     26  O   UNL     1      39.881  32.120  21.827  1.00  0.00    -0.508 OA
ATOM     27  H   UNL     1      39.345  32.975  21.919  1.00  0.00     0.293 HD
ENDBRANCH   8  26
TORSDOF 6
ENDMDL
MODEL 2
REMARK VINA RESULT:    -4.961      1.971      6.710
REMARK INTER + INTRA:          -6.206
REMARK INTER:                  -5.871
REMARK INTRA:                  -0.335
REMARK UNBOUND:                -0.230
REMARK SMILES O=c1c(O)c(-c2ccc(O)c(O)c2)oc2cc(O)cc(O)c12
REMARK SMILES IDX 5 1 3 2 2 3 1 4 22 5 20 6 19 7 17 8 16 9 15 10 14 11 6 12
REMARK SMILES IDX 7 13 8 14 9 15 13 16 11 17 10 18 12 20 4 22 21 24 18 26
REMARK H PARENT 10 19 12 21 4 23 21 25 18 27
REMARK Flexibility Score: inf
ROOT
ATOM      1  C   UNL     1      44.865  30.529  24.979  1.00  0.00     0.180 A 
ATOM      2  C   UNL     1      46.070  30.493  25.702  1.00  0.00     0.208 A 
ATOM      3  C   UNL     1      46.089  29.884  26.967  1.00  0.00     0.238 A 
ATOM      4  O   UNL     1      47.183  29.807  27.584  1.00  0.00    -0.285 OA
ATOM      5  C   UNL     1      44.899  29.333  27.500  1.00  0.00     0.111 A 
ATOM      6  C   UNL     1      44.793  28.728  28.788  1.00  0.00     0.134 A 
ATOM      7  C   UNL     1      43.598  28.099  29.160  1.00  0.00     0.093 A 
ATOM      8  C   UNL     1      42.485  28.111  28.316  1.00  0.00     0.123 A 
ATOM      9  C   UNL     1      42.560  28.751  27.081  1.00  0.00     0.094 A 
ATOM     10  C   UNL     1      43.749  29.356  26.667  1.00  0.00     0.146 A 
ATOM     11  O   UNL     1      43.781  29.946  25.478  1.00  0.00    -0.452 OA
ENDROOT
BRANCH   1  12
ATOM     12  C   UNL     1      44.761  31.176  23.652  1.00  0.00     0.025 A 
ATOM     13  C   UNL     1      44.449  32.541  23.525  1.00  0.00     0.016 A 
ATOM     14  C   UNL     1      44.333  33.125  22.260  1.00  0.00     0.051 A 
ATOM     15  C   UNL     1      44.514  32.352  21.106  1.00  0.00     0.157 A 
ATOM     16  C   UNL     1      44.920  30.402  22.491  1.00  0.00     0.062 A 
ATOM     17  C   UNL     1      44.806  30.983  21.223  1.00  0.00     0.158 A 
BRANCH  15  18
ATOM     18  O   UNL     1      44.400  32.939  19.845  1.00  0.00    -0.504 OA
ATOM     19  H   UNL     1      45.197  33.029  19.229  1.00  0.00     0.293 HD
ENDBRANCH  15  18
BRANCH  17  20
ATOM     20  O   UNL     1      44.985  30.186  20.093  1.00  0.00    -0.504 OA
ATOM     21  H   UNL     1      45.407  30.542  19.244  1.00  0.00     0.293 HD
ENDBRANCH  17  20
ENDBRANCH   1  12
BRANCH   2  22
ATOM     22  O   UNL     1      47.239  31.024  25.147  1.00  0.00    -0.502 OA
ATOM     23  H   UNL     1      48.098  30.492  25.077  1.00  0.00     0.293 HD
ENDBRANCH   2  22
BRANCH   6  24
ATOM     24  O   UNL     1      45.814  28.739  29.743  1.00  0.00    -0.507 OA
ATOM     25  H   UNL     1      45.691  28.509  30.718  1.00  0.00     0.293 HD
ENDBRANCH   6  24
BRANCH   8  26
ATOM     26  O   UNL     1      41.295  27.498  28.699  1.00  0.00    -0.508 OA
ATOM     27  H   UNL     1      40.399  27.808  28.342  1.00  0.00     0.293 HD
ENDBRANCH   8  26
TORSDOF 6
ENDMDL
MODEL 3
REMARK VINA RESULT:    -4.932      2.049      7.405
REMARK INTER + INTRA:          -6.172
REMARK INTER:                  -5.848
REMARK INTRA:                  -0.324
REMARK UNBOUND:                -0.230
REMARK SMILES O=c1c(O)c(-c2ccc(O)c(O)c2)oc2cc(O)cc(O)c12
REMARK SMILES IDX 5 1 3 2 2 3 1 4 22 5 20 6 19 7 17 8 16 9 15 10 14 11 6 12
REMARK SMILES IDX 7 13 8 14 9 15 13 16 11 17 10 18 12 20 4 22 21 24 18 26
REMARK H PARENT 10 19 12 21 4 23 21 25 18 27
REMARK Flexibility Score: inf
ROOT
ATOM      1  C   UNL     1      44.797  30.317  25.219  1.00  0.00     0.180 A 
ATOM      2  C   UNL     1      43.595  30.068  25.903  1.00  0.00     0.208 A 
ATOM      3  C   UNL     1      43.643  29.456  27.166  1.00  0.00     0.238 A 
ATOM      4  O   UNL     1      42.567  29.286  27.796  1.00  0.00    -0.285 OA
ATOM      5  C   UNL     1      44.891  29.087  27.721  1.00  0.00     0.111 A 
ATOM      6  C   UNL     1      45.056  28.426  28.976  1.00  0.00     0.134 A 
ATOM      7  C   UNL     1      46.344  28.226  29.487  1.00  0.00     0.093 A 
ATOM      8  C   UNL     1      47.475  28.605  28.760  1.00  0.00     0.123 A 
ATOM      9  C   UNL     1      47.326  29.197  27.508  1.00  0.00     0.094 A 
ATOM     10  C   UNL     1      46.053  29.442  26.987  1.00  0.00     0.146 A 
ATOM     11  O   UNL     1      45.955  30.018  25.795  1.00  0.00    -0.452 OA
ENDROOT
BRANCH   1  12
ATOM     12  C   UNL     1      44.825  30.933  23.873  1.00  0.00     0.025 A 
ATOM     13  C   UNL     1      44.878  32.328  23.707  1.00  0.00     0.016 A 
ATOM     14  C   UNL     1      44.880  32.888  22.427  1.00  0.00     0.051 A 
ATOM     15  C   UNL     1      44.813  32.065  21.295  1.00  0.00     0.157 A 
ATOM     16  C   UNL     1      44.737  30.114  22.735  1.00  0.00     0.062 A 
ATOM     17  C   UNL     1      44.739  30.671  21.451  1.00  0.00     0.158 A 
BRANCH  15  18
ATOM     18  O   UNL     1      44.817  32.627  20.019  1.00  0.00    -0.504 OA
ATOM     19  H   UNL     1      43.968  32.973  19.589  1.00  0.00     0.293 HD
ENDBRANCH  15  18
BRANCH  17  20
ATOM     20  O   UNL     1      44.666  29.825  20.345  1.00  0.00    -0.504 OA
ATOM     21  H   UNL     1      45.129  30.041  19.471  1.00  0.00     0.293 HD
ENDBRANCH  17  20
ENDBRANCH   1  12
BRANCH   2  22
ATOM     22  O   UNL     1      42.374  30.461  25.346  1.00  0.00    -0.502 OA
ATOM     23  H   UNL     1      41.896  31.309  25.625  1.00  0.00     0.293 HD
ENDBRANCH   2  22
BRANCH   6  24
ATOM     24  O   UNL     1      43.998  27.926  29.740  1.00  0.00    -0.507 OA
ATOM     25  H   UNL     1      43.533  27.046  29.571  1.00  0.00     0.293 HD
ENDBRANCH   6  24
BRANCH   8  26
ATOM     26  O   UNL     1      48.753  28.388  29.268  1.00  0.00    -0.508 OA
ATOM     27  H   UNL     1      49.486  29.082  29.175  1.00  0.00     0.293 HD
ENDBRANCH   8  26
TORSDOF 6
ENDMDL
MODEL 4
REMARK VINA RESULT:    -4.872      8.437     11.356
REMARK INTER + INTRA:          -6.099
REMARK INTER:                  -5.795
REMARK INTRA:                  -0.304
REMARK UNBOUND:                -0.230
REMARK SMILES O=c1c(O)c(-c2ccc(O)c(O)c2)oc2cc(O)cc(O)c12
REMARK SMILES IDX 5 1 3 2 2 3 1 4 22 5 20 6 19 7 17 8 16 9 15 10 14 11 6 12
REMARK SMILES IDX 7 13 8 14 9 15 13 16 11 17 10 18 12 20 4 22 21 24 18 26
REMARK H PARENT 10 19 12 21 4 23 21 25 18 27
REMARK Flexibility Score: inf
ROOT
ATOM      1  C   UNL     1      34.398  30.674  25.139  1.00  0.00     0.180 A 
ATOM      2  C   UNL     1      34.153  29.827  26.234  1.00  0.00     0.208 A 
ATOM      3  C   UNL     1      32.852  29.750  26.758  1.00  0.00     0.238 A 
ATOM      4  O   UNL     1      32.628  28.949  27.702  1.00  0.00    -0.285 OA
ATOM      5  C   UNL     1      31.818  30.534  26.192  1.00  0.00     0.111 A 
ATOM      6  C   UNL     1      30.473  30.565  26.669  1.00  0.00     0.134 A 
ATOM      7  C   UNL     1      29.503  31.277  25.952  1.00  0.00     0.093 A 
ATOM      8  C   UNL     1      29.843  32.010  24.813  1.00  0.00     0.123 A 
ATOM      9  C   UNL     1      31.165  32.034  24.374  1.00  0.00     0.094 A 
ATOM     10  C   UNL     1      32.147  31.305  25.047  1.00  0.00     0.146 A 
ATOM     11  O   UNL     1      33.394  31.346  24.590  1.00  0.00    -0.452 OA
ENDROOT
BRANCH   1  12
ATOM     12  C   UNL     1      35.747  30.827  24.548  1.00  0.00     0.025 A 
ATOM     13  C   UNL     1      36.252  29.897  23.623  1.00  0.00     0.016 A 
ATOM     14  C   UNL     1      37.537  30.051  23.097  1.00  0.00     0.051 A 
ATOM     15  C   UNL     1      38.342  31.125  23.497  1.00  0.00     0.157 A 
ATOM     16  C   UNL     1      36.566  31.892  24.962  1.00  0.00     0.062 A 
ATOM     17  C   UNL     1      37.854  32.048  24.437  1.00  0.00     0.158 A 
BRANCH  15  18
ATOM     18  O   UNL     1      39.624  31.276  22.969  1.00  0.00    -0.504 OA
ATOM     19  H   UNL     1      39.900  30.818  22.109  1.00  0.00     0.293 HD
ENDBRANCH  15  18
BRANCH  17  20
ATOM     20  O   UNL     1      38.632  33.125  24.860  1.00  0.00    -0.504 OA
ATOM     21  H   UNL     1      38.787  33.938  24.278  1.00  0.00     0.293 HD
ENDBRANCH  17  20
ENDBRANCH   1  12
BRANCH   2  22
ATOM     22  O   UNL     1      35.184  29.045  26.763  1.00  0.00    -0.502 OA
ATOM     23  H   UNL     1      35.269  28.054  26.572  1.00  0.00     0.293 HD
ENDBRANCH   2  22
BRANCH   6  24
ATOM     24  O   UNL     1      30.046  29.943  27.846  1.00  0.00    -0.507 OA
ATOM     25  H   UNL     1      29.118  30.023  28.234  1.00  0.00     0.293 HD
ENDBRANCH   6  24
BRANCH   8  26
ATOM     26  O   UNL     1      28.875  32.728  24.114  1.00  0.00    -0.508 OA
ATOM     27  H   UNL     1      28.608  32.478  23.169  1.00  0.00     0.293 HD
ENDBRANCH   8  26
TORSDOF 6
ENDMDL
MODEL 5
REMARK VINA RESULT:    -4.872      1.558      2.188
REMARK INTER + INTRA:          -6.099
REMARK INTER:                  -5.906
REMARK INTRA:                  -0.193
REMARK UNBOUND:                -0.230
REMARK SMILES O=c1c(O)c(-c2ccc(O)c(O)c2)oc2cc(O)cc(O)c12
REMARK SMILES IDX 5 1 3 2 2 3 1 4 22 5 20 6 19 7 17 8 16 9 15 10 14 11 6 12
REMARK SMILES IDX 7 13 8 14 9 15 13 16 11 17 10 18 12 20 4 22 21 24 18 26
REMARK H PARENT 10 19 12 21 4 23 21 25 18 27
REMARK Flexibility Score: inf
ROOT
ATOM      1  C   UNL     1      44.937  30.147  25.840  1.00  0.00     0.180 A 
ATOM      2  C   UNL     1      45.592  31.213  25.200  1.00  0.00     0.208 A 
ATOM      3  C   UNL     1      44.926  31.909  24.179  1.00  0.00     0.238 A 
ATOM      4  O   UNL     1      45.497  32.897  23.648  1.00  0.00    -0.285 OA
ATOM      5  C   UNL     1      43.619  31.520  23.799  1.00  0.00     0.111 A 
ATOM      6  C   UNL     1      42.865  32.128  22.750  1.00  0.00     0.134 A 
ATOM      7  C   UNL     1      41.532  31.748  22.548  1.00  0.00     0.093 A 
ATOM      8  C   UNL     1      40.947  30.736  23.314  1.00  0.00     0.123 A 
ATOM      9  C   UNL     1      41.694  30.096  24.300  1.00  0.00     0.094 A 
ATOM     10  C   UNL     1      43.014  30.478  24.549  1.00  0.00     0.146 A 
ATOM     11  O   UNL     1      43.687  29.848  25.506  1.00  0.00    -0.452 OA
ENDROOT
BRANCH   1  12
ATOM     12  C   UNL     1      45.584  29.351  26.906  1.00  0.00     0.025 A 
ATOM     13  C   UNL     1      45.154  29.427  28.242  1.00  0.00     0.016 A 
ATOM     14  C   UNL     1      45.796  28.683  29.235  1.00  0.00     0.051 A 
ATOM     15  C   UNL     1      46.885  27.864  28.912  1.00  0.00     0.157 A 
ATOM     16  C   UNL     1      46.690  28.543  26.591  1.00  0.00     0.062 A 
ATOM     17  C   UNL     1      47.335  27.796  27.583  1.00  0.00     0.158 A 
BRANCH  15  18
ATOM     18  O   UNL     1      47.522  27.121  29.906  1.00  0.00    -0.504 OA
ATOM     19  H   UNL     1      47.002  26.679  30.653  1.00  0.00     0.293 HD
ENDBRANCH  15  18
BRANCH  17  20
ATOM     20  O   UNL     1      48.420  26.994  27.230  1.00  0.00    -0.504 OA
ATOM     21  H   UNL     1      48.307  26.027  26.952  1.00  0.00     0.293 HD
ENDBRANCH  17  20
ENDBRANCH   1  12
BRANCH   2  22
ATOM     22  O   UNL     1      46.874  31.596  25.605  1.00  0.00    -0.502 OA
ATOM     23  H   UNL     1      47.700  31.412  25.047  1.00  0.00     0.293 HD
ENDBRANCH   2  22
BRANCH   6  24
ATOM     24  O   UNL     1      43.381  33.082  21.869  1.00  0.00    -0.507 OA
ATOM     25  H   UNL     1      44.085  32.897  21.170  1.00  0.00     0.293 HD
ENDBRANCH   6  24
BRANCH   8  26
ATOM     26  O   UNL     1      39.626  30.353  23.095  1.00  0.00    -0.508 OA
ATOM     27  H   UNL     1      39.397  29.481  22.634  1.00  0.00     0.293 HD
ENDBRANCH   8  26
TORSDOF 6
ENDMDL
MODEL 6
REMARK VINA RESULT:    -4.695      2.201      7.106
REMARK INTER + INTRA:          -5.886
REMARK INTER:                  -5.576
REMARK INTRA:                  -0.309
REMARK UNBOUND:                -0.230
REMARK SMILES O=c1c(O)c(-c2ccc(O)c(O)c2)oc2cc(O)cc(O)c12
REMARK SMILES IDX 5 1 3 2 2 3 1 4 22 5 20 6 19 7 17 8 16 9 15 10 14 11 6 12
REMARK SMILES IDX 7 13 8 14 9 15 13 16 11 17 10 18 12 20 4 22 21 24 18 26
REMARK H PARENT 10 19 12 21 4 23 21 25 18 27
REMARK Flexibility Score: inf
ROOT
ATOM      1  C   UNL     1      45.321  29.205  25.554  1.00  0.00     0.180 A 
ATOM      2  C   UNL     1      46.228  29.804  26.444  1.00  0.00     0.208 A 
ATOM      3  C   UNL     1      46.759  29.038  27.495  1.00  0.00     0.238 A 
ATOM      4  O   UNL     1      47.612  29.565  28.255  1.00  0.00    -0.285 OA
ATOM      5  C   UNL     1      46.363  27.688  27.651  1.00  0.00     0.111 A 
ATOM      6  C   UNL     1      46.806  26.831  28.703  1.00  0.00     0.134 A 
ATOM      7  C   UNL     1      46.451  25.476  28.685  1.00  0.00     0.093 A 
ATOM      8  C   UNL     1      45.617  24.963  27.689  1.00  0.00     0.123 A 
ATOM      9  C   UNL     1      45.131  25.805  26.691  1.00  0.00     0.094 A 
ATOM     10  C   UNL     1      45.496  27.153  26.662  1.00  0.00     0.146 A 
ATOM     11  O   UNL     1      45.019  27.919  25.688  1.00  0.00    -0.452 OA
ENDROOT
BRANCH   1  12
ATOM     12  C   UNL     1      44.700  29.955  24.439  1.00  0.00     0.025 A 
ATOM     13  C   UNL     1      45.367  30.132  23.214  1.00  0.00     0.016 A 
ATOM     14  C   UNL     1      44.770  30.864  22.184  1.00  0.00     0.051 A 
ATOM     15  C   UNL     1      43.506  31.441  22.366  1.00  0.00     0.157 A 
ATOM     16  C   UNL     1      43.442  30.553  24.623  1.00  0.00     0.062 A 
ATOM     17  C   UNL     1      42.841  31.286  23.594  1.00  0.00     0.158 A 
BRANCH  15  18
ATOM     18  O   UNL     1      42.913  32.169  21.336  1.00  0.00    -0.504 OA
ATOM     19  H   UNL     1      43.290  33.058  21.029  1.00  0.00     0.293 HD
ENDBRANCH  15  18
BRANCH  17  20
ATOM     20  O   UNL     1      41.586  31.853  23.809  1.00  0.00    -0.504 OA
ATOM     21  H   UNL     1      40.748  31.485  23.375  1.00  0.00     0.293 HD
ENDBRANCH  17  20
ENDBRANCH   1  12
BRANCH   2  22
ATOM     22  O   UNL     1      46.623  31.132  26.259  1.00  0.00    -0.502 OA
ATOM     23  H   UNL     1      46.710  31.551  25.341  1.00  0.00     0.293 HD
ENDBRANCH   2  22
BRANCH   6  24
ATOM     24  O   UNL     1      47.566  27.261  29.794  1.00  0.00    -0.507 OA
ATOM     25  H   UNL     1      48.421  27.793  29.724  1.00  0.00     0.293 HD
ENDBRANCH   6  24
BRANCH   8  26
ATOM     26  O   UNL     1      45.256  23.617  27.687  1.00  0.00    -0.508 OA
ATOM     27  H   UNL     1      44.668  23.225  28.413  1.00  0.00     0.293 HD
ENDBRANCH   8  26
TORSDOF 6
ENDMDL
MODEL 7
REMARK VINA RESULT:    -4.690     11.658     13.213
REMARK INTER + INTRA:          -5.880
REMARK INTER:                  -5.600
REMARK INTRA:                  -0.280
REMARK UNBOUND:                -0.230
REMARK SMILES O=c1c(O)c(-c2ccc(O)c(O)c2)oc2cc(O)cc(O)c12
REMARK SMILES IDX 5 1 3 2 2 3 1 4 22 5 20 6 19 7 17 8 16 9 15 10 14 11 6 12
REMARK SMILES IDX 7 13 8 14 9 15 13 16 11 17 10 18 12 20 4 22 21 24 18 26
REMARK H PARENT 10 19 12 21 4 23 21 25 18 27
REMARK Flexibility Score: inf
ROOT
ATOM      1  C   UNL     1      31.294  28.732  26.401  1.00  0.00     0.180 A 
ATOM      2  C   UNL     1      30.435  29.745  26.862  1.00  0.00     0.208 A 
ATOM      3  C   UNL     1      29.936  30.685  25.946  1.00  0.00     0.238 A 
ATOM      4  O   UNL     1      29.124  31.555  26.356  1.00  0.00    -0.285 OA
ATOM      5  C   UNL     1      30.315  30.610  24.585  1.00  0.00     0.111 A 
ATOM      6  C   UNL     1      29.902  31.533  23.577  1.00  0.00     0.134 A 
ATOM      7  C   UNL     1      30.232  31.288  22.238  1.00  0.00     0.093 A 
ATOM      8  C   UNL     1      31.015  30.188  21.880  1.00  0.00     0.123 A 
ATOM      9  C   UNL     1      31.473  29.314  22.863  1.00  0.00     0.094 A 
ATOM     10  C   UNL     1      31.130  29.513  24.202  1.00  0.00     0.146 A 
ATOM     11  O   UNL     1      31.579  28.650  25.107  1.00  0.00    -0.452 OA
ENDROOT
BRANCH   1  12
ATOM     12  C   UNL     1      31.881  27.722  27.310  1.00  0.00     0.025 A 
ATOM     13  C   UNL     1      31.125  26.635  27.783  1.00  0.00     0.016 A 
ATOM     14  C   UNL     1      31.694  25.707  28.659  1.00  0.00     0.051 A 
ATOM     15  C   UNL     1      33.019  25.858  29.087  1.00  0.00     0.157 A 
ATOM     16  C   UNL     1      33.202  27.880  27.759  1.00  0.00     0.062 A 
ATOM     17  C   UNL     1      33.775  26.953  28.637  1.00  0.00     0.158 A 
BRANCH  15  18
ATOM     18  O   UNL     1      33.584  24.929  29.961  1.00  0.00    -0.504 OA
ATOM     19  H   UNL     1      33.170  24.731  30.864  1.00  0.00     0.293 HD
ENDBRANCH  15  18
BRANCH  17  20
ATOM     20  O   UNL     1      35.094  27.135  29.049  1.00  0.00    -0.504 OA
ATOM     21  H   UNL     1      35.881  26.852  28.478  1.00  0.00     0.293 HD
ENDBRANCH  17  20
ENDBRANCH   1  12
BRANCH   2  22
ATOM     22  O   UNL     1      30.056  29.787  28.207  1.00  0.00    -0.502 OA
ATOM     23  H   UNL     1      30.062  28.966  28.801  1.00  0.00     0.293 HD
ENDBRANCH   2  22
BRANCH   6  24
ATOM     24  O   UNL     1      29.195  32.711  23.839  1.00  0.00    -0.507 OA
ATOM     25  H   UNL     1      28.501  32.815  24.564  1.00  0.00     0.293 HD
ENDBRANCH   6  24
BRANCH   8  26
ATOM     26  O   UNL     1      31.352  29.960  20.547  1.00  0.00    -0.508 OA
ATOM     27  H   UNL     1      31.371  30.713  19.869  1.00  0.00     0.293 HD
ENDBRANCH   8  26
TORSDOF 6
ENDMDL
MODEL 8
REMARK VINA RESULT:    -4.673     11.085     14.576
REMARK INTER + INTRA:          -5.859
REMARK INTER:                  -5.657
REMARK INTRA:                  -0.202
REMARK UNBOUND:                -0.230
REMARK SMILES O=c1c(O)c(-c2ccc(O)c(O)c2)oc2cc(O)cc(O)c12
REMARK SMILES IDX 5 1 3 2 2 3 1 4 22 5 20 6 19 7 17 8 16 9 15 10 14 11 6 12
REMARK SMILES IDX 7 13 8 14 9 15 13 16 11 17 10 18 12 20 4 22 21 24 18 26
REMARK H PARENT 10 19 12 21 4 23 21 25 18 27
REMARK Flexibility Score: inf
ROOT
ATOM      1  C   UNL     1      31.380  31.255  23.467  1.00  0.00     0.180 A 
ATOM      2  C   UNL     1      30.255  31.565  24.251  1.00  0.00     0.208 A 
ATOM      3  C   UNL     1      30.185  31.080  25.567  1.00  0.00     0.238 A 
ATOM      4  O   UNL     1      29.202  31.407  26.280  1.00  0.00    -0.285 OA
ATOM      5  C   UNL     1      31.233  30.275  26.076  1.00  0.00     0.111 A 
ATOM      6  C   UNL     1      31.248  29.696  27.380  1.00  0.00     0.134 A 
ATOM      7  C   UNL     1      32.395  29.027  27.825  1.00  0.00     0.093 A 
ATOM      8  C   UNL     1      33.502  28.860  26.990  1.00  0.00     0.123 A 
ATOM      9  C   UNL     1      33.473  29.371  25.694  1.00  0.00     0.094 A 
ATOM     10  C   UNL     1      32.358  30.074  25.234  1.00  0.00     0.146 A 
ATOM     11  O   UNL     1      32.376  30.553  23.995  1.00  0.00    -0.452 OA
ENDROOT
BRANCH   1  12
ATOM     12  C   UNL     1      31.512  31.708  22.065  1.00  0.00     0.025 A 
ATOM     13  C   UNL     1      32.445  32.695  21.698  1.00  0.00     0.016 A 
ATOM     14  C   UNL     1      32.535  33.124  20.372  1.00  0.00     0.051 A 
ATOM     15  C   UNL     1      31.688  32.586  19.395  1.00  0.00     0.157 A 
ATOM     16  C   UNL     1      30.651  31.187  21.085  1.00  0.00     0.062 A 
ATOM     17  C   UNL     1      30.739  31.614  19.755  1.00  0.00     0.158 A 
BRANCH  15  18
ATOM     18  O   UNL     1      31.782  33.015  18.071  1.00  0.00    -0.504 OA
ATOM     19  H   UNL     1      31.172  32.650  17.351  1.00  0.00     0.293 HD
ENDBRANCH  15  18
BRANCH  17  20
ATOM     20  O   UNL     1      29.877  31.064  18.808  1.00  0.00    -0.504 OA
ATOM     21  H   UNL     1      30.218  30.594  17.978  1.00  0.00     0.293 HD
ENDBRANCH  17  20
ENDBRANCH   1  12
BRANCH   2  22
ATOM     22  O   UNL     1      29.242  32.379  23.736  1.00  0.00    -0.502 OA
ATOM     23  H   UNL     1      28.643  32.943  24.327  1.00  0.00     0.293 HD
ENDBRANCH   2  22
BRANCH   6  24
ATOM     24  O   UNL     1      30.163  29.726  28.261  1.00  0.00    -0.507 OA
ATOM     25  H   UNL     1      30.236  29.864  29.258  1.00  0.00     0.293 HD
ENDBRANCH   6  24
BRANCH   8  26
ATOM     26  O   UNL     1      34.633  28.179  27.434  1.00  0.00    -0.508 OA
ATOM     27  H   UNL     1      35.270  27.731  26.787  1.00  0.00     0.293 HD
ENDBRANCH   8  26
TORSDOF 6
ENDMDL
