MODEL 1
REMARK VINA RESULT:    -4.049      0.000      0.000
REMARK INTER + INTRA:          -9.246
REMARK INTER:                  -7.363
REMARK INTRA:                  -1.884
REMARK UNBOUND:                -1.884
REMARK SMILES CCCCCCCCCCCCCCCC(=O)[O-]
REMARK SMILES IDX 9 1 10 2 11 3 12 4 13 5 14 6 15 7 16 8 17 9 18 10 8 11 7 12
REMARK SMILES IDX 6 13 5 14 4 15 3 16 2 17 1 18
REMARK H PARENT
REMARK Flexibility Score: inf
ROOT
ATOM      1  C   UNL     1     -22.306  -0.927 -22.266  1.00  0.00     0.000 C 
ENDROOT
BRANCH   1   2
ATOM      2  C   UNL     1     -21.341  -1.605 -23.250  1.00  0.00     0.000 C 
BRANCH   2   3
ATOM      3  C   UNL     1     -22.078  -2.067 -24.513  1.00  0.00     0.000 C 
BRANCH   3   4
ATOM      4  C   UNL     1     -23.579  -1.732 -24.485  1.00  0.00     0.000 C 
BRANCH   4   5
ATOM      5  C   UNL     1     -24.490  -2.978 -24.577  1.00  0.00     0.000 C 
BRANCH   5   6
ATOM      6  C   UNL     1     -25.855  -2.791 -23.879  1.00  0.00     0.006 C 
BRANCH   6   7
ATOM      7  C   UNL     1     -26.188  -3.912 -22.882  1.00  0.00     0.053 C 
BRANCH   7   8
ATOM      8  C   UNL     1     -27.658  -4.033 -22.634  1.00  0.00     0.041 C 
ATOM      9  O   UNL     1     -28.079  -4.519 -21.551  1.00  0.00    -0.550 OA
ATOM     10  O   UNL     1     -28.565  -3.572 -23.580  1.00  0.00    -0.550 OA
ENDBRANCH   7   8
ENDBRANCH   6   7
ENDBRANCH   5   6
ENDBRANCH   4   5
ENDBRANCH   3   4
ENDBRANCH   2   3
ENDBRANCH   1   2
BRANCH   1  11
ATOM     11  C   UNL     1     -22.671  -1.832 -21.079  1.00  0.00     0.000 C 
BRANCH  11  12
ATOM     12  C   UNL     1     -24.050  -1.497 -20.483  1.00  0.00    -0.000 C 
BRANCH  12  13
ATOM     13  C   UNL     1     -24.456  -0.033 -20.714  1.00  0.00    -0.000 C 
BRANCH  13  14
ATOM     14  C   UNL     1     -25.061   0.617 -19.458  1.00  0.00    -0.000 C 
BRANCH  14  15
ATOM     15  C   UNL     1     -24.028   1.422 -18.652  1.00  0.00    -0.000 C 
BRANCH  15  16
ATOM     16  C   UNL     1     -23.013   2.148 -19.548  1.00  0.00    -0.000 C 
BRANCH  16  17
ATOM     17  C   UNL     1     -21.592   1.631 -19.296  1.00  0.00    -0.003 C 
ATOM     18  C   UNL     1     -21.574   0.584 -18.186  1.00  0.00     0.004 C 
ENDBRANCH  16  17
ENDBRANCH  15  16
ENDBRANCH  14  15
ENDBRANCH  13  14
ENDBRANCH  12  13
ENDBRANCH  11  12
ENDBRANCH   1  11
TORSDOF 14
ENDMDL
MODEL 2
REMARK VINA RESULT:    -4.047      3.848      7.334
REMARK INTER + INTRA:          -9.243
REMARK INTER:                  -7.419
REMARK INTRA:                  -1.824
REMARK UNBOUND:                -1.884
REMARK SMILES CCCCCCCCCCCCCCCC(=O)[O-]
REMARK SMILES IDX 9 1 10 2 11 3 12 4 13 5 14 6 15 7 16 8 17 9 18 10 8 11 7 12
REMARK SMILES IDX 6 13 5 14 4 15 3 16 2 17 1 18
REMARK H PARENT
REMARK Flexibility Score: inf
ROOT
ATOM      1  C   UNL     1     -27.278  -0.582 -20.363  1.00  0.00     0.000 C 
ENDROOT
BRANCH   1   2
ATOM      2  C   UNL     1     -27.621   0.383 -19.219  1.00  0.00     0.000 C 
BRANCH   2   3
ATOM      3  C   UNL     1     -27.285   1.830 -19.602  1.00  0.00     0.000 C 
BRANCH   3   4
ATOM      4  C   UNL     1     -25.954   1.953 -20.361  1.00  0.00     0.000 C 
BRANCH   4   5
ATOM      5  C   UNL     1     -24.763   2.350 -19.458  1.00  0.00     0.000 C 
BRANCH   5   6
ATOM      6  C   UNL     1     -24.319   1.222 -18.501  1.00  0.00     0.006 C 
BRANCH   6   7
ATOM      7  C   UNL     1     -23.152   0.384 -19.047  1.00  0.00     0.053 C 
BRANCH   7   8
ATOM      8  C   UNL     1     -21.844   0.759 -18.423  1.00  0.00     0.041 C 
ATOM      9  O   UNL     1     -21.209   1.763 -18.839  1.00  0.00    -0.550 OA
ATOM     10  O   UNL     1     -21.346   0.024 -17.355  1.00  0.00    -0.550 OA
ENDBRANCH   7   8
ENDBRANCH   6   7
ENDBRANCH   5   6
ENDBRANCH   4   5
ENDBRANCH   3   4
ENDBRANCH   2   3
ENDBRANCH   1   2
BRANCH   1  11
ATOM     11  C   UNL     1     -28.216  -0.426 -21.570  1.00  0.00     0.000 C 
BRANCH  11  12
ATOM     12  C   UNL     1     -27.464  -0.467 -22.912  1.00  0.00    -0.000 C 
BRANCH  12  13
ATOM     13  C   UNL     1     -25.987  -0.863 -22.752  1.00  0.00    -0.000 C 
BRANCH  13  14
ATOM     14  C   UNL     1     -25.537  -1.896 -23.800  1.00  0.00    -0.000 C 
BRANCH  14  15
ATOM     15  C   UNL     1     -26.382  -3.180 -23.765  1.00  0.00    -0.000 C 
BRANCH  15  16
ATOM     16  C   UNL     1     -26.199  -3.975 -22.464  1.00  0.00    -0.000 C 
BRANCH  16  17
ATOM     17  C   UNL     1     -27.543  -4.183 -21.756  1.00  0.00    -0.003 C 
ATOM     18  C   UNL     1     -28.712  -3.966 -22.713  1.00  0.00     0.004 C 
ENDBRANCH  16  17
ENDBRANCH  15  16
ENDBRANCH  14  15
ENDBRANCH  13  14
ENDBRANCH  12  13
ENDBRANCH  11  12
ENDBRANCH   1  11
TORSDOF 14
ENDMDL
MODEL 3
REMARK VINA RESULT:    -3.992      3.095      5.565
REMARK INTER + INTRA:          -9.142
REMARK INTER:                  -7.273
REMARK INTRA:                  -1.869
REMARK UNBOUND:                -1.884
REMARK SMILES CCCCCCCCCCCCCCCC(=O)[O-]
REMARK SMILES IDX 9 1 10 2 11 3 12 4 13 5 14 6 15 7 16 8 17 9 18 10 8 11 7 12
REMARK SMILES IDX 6 13 5 14 4 15 3 16 2 17 1 18
REMARK H PARENT
REMARK Flexibility Score: inf
ROOT
ATOM      1  C   UNL     1     -21.596   0.725 -17.858  1.00  0.00     0.000 C 
ENDROOT
BRANCH   1   2
ATOM      2  C   UNL     1     -21.184   1.255 -19.239  1.00  0.00     0.000 C 
BRANCH   2   3
ATOM      3  C   UNL     1     -22.184   2.302 -19.747  1.00  0.00     0.000 C 
BRANCH   3   4
ATOM      4  C   UNL     1     -23.587   2.131 -19.140  1.00  0.00     0.000 C 
BRANCH   4   5
ATOM      5  C   UNL     1     -24.685   1.855 -20.193  1.00  0.00     0.000 C 
BRANCH   5   6
ATOM      6  C   UNL     1     -26.105   2.219 -19.707  1.00  0.00     0.006 C 
BRANCH   6   7
ATOM      7  C   UNL     1     -27.211   1.784 -20.681  1.00  0.00     0.053 C 
BRANCH   7   8
ATOM      8  C   UNL     1     -28.472   2.568 -20.494  1.00  0.00     0.041 C 
ATOM      9  O   UNL     1     -29.515   1.999 -20.077  1.00  0.00    -0.550 OA
ATOM     10  O   UNL     1     -28.485   3.935 -20.741  1.00  0.00    -0.550 OA
ENDBRANCH   7   8
ENDBRANCH   6   7
ENDBRANCH   5   6
ENDBRANCH   4   5
ENDBRANCH   3   4
ENDBRANCH   2   3
ENDBRANCH   1   2
BRANCH   1  11
ATOM     11  C   UNL     1     -21.725  -0.806 -17.827  1.00  0.00     0.000 C 
BRANCH  11  12
ATOM     12  C   UNL     1     -23.188  -1.274 -17.728  1.00  0.00    -0.000 C 
BRANCH  12  13
ATOM     13  C   UNL     1     -23.796  -1.613 -19.098  1.00  0.00    -0.000 C 
BRANCH  13  14
ATOM     14  C   UNL     1     -22.728  -1.964 -20.147  1.00  0.00    -0.000 C 
BRANCH  14  15
ATOM     15  C   UNL     1     -23.073  -1.424 -21.545  1.00  0.00    -0.000 C 
BRANCH  15  16
ATOM     16  C   UNL     1     -21.882  -0.732 -22.225  1.00  0.00    -0.000 C 
BRANCH  16  17
ATOM     17  C   UNL     1     -21.343  -1.581 -23.382  1.00  0.00    -0.003 C 
ATOM     18  C   UNL     1     -22.229  -2.798 -23.634  1.00  0.00     0.004 C 
ENDBRANCH  16  17
ENDBRANCH  15  16
ENDBRANCH  14  15
ENDBRANCH  13  14
ENDBRANCH  12  13
ENDBRANCH  11  12
ENDBRANCH   1  11
TORSDOF 14
ENDMDL
MODEL 4
REMARK VINA RESULT:    -3.985      3.132      5.784
REMARK INTER + INTRA:          -9.130
REMARK INTER:                  -6.710
REMARK INTRA:                  -2.421
REMARK UNBOUND:                -1.884
REMARK SMILES CCCCCCCCCCCCCCCC(=O)[O-]
REMARK SMILES IDX 9 1 10 2 11 3 12 4 13 5 14 6 15 7 16 8 17 9 18 10 8 11 7 12
REMARK SMILES IDX 6 13 5 14 4 15 3 16 2 17 1 18
REMARK H PARENT
REMARK Flexibility Score: inf
ROOT
ATOM      1  C   UNL     1     -28.024  -4.154 -20.717  1.00  0.00     0.000 C 
ENDROOT
BRANCH   1   2
ATOM      2  C   UNL     1     -26.573  -4.562 -20.423  1.00  0.00     0.000 C 
BRANCH   2   3
ATOM      3  C   UNL     1     -25.792  -3.400 -19.796  1.00  0.00     0.000 C 
BRANCH   3   4
ATOM      4  C   UNL     1     -26.637  -2.123 -19.649  1.00  0.00     0.000 C 
BRANCH   4   5
ATOM      5  C   UNL     1     -26.024  -0.892 -20.356  1.00  0.00     0.000 C 
BRANCH   5   6
ATOM      6  C   UNL     1     -27.025  -0.148 -21.267  1.00  0.00     0.006 C 
BRANCH   6   7
ATOM      7  C   UNL     1     -28.493  -0.375 -20.871  1.00  0.00     0.053 C 
BRANCH   7   8
ATOM      8  C   UNL     1     -29.159   0.885 -20.417  1.00  0.00     0.041 C 
ATOM      9  O   UNL     1     -28.534   1.978 -20.448  1.00  0.00    -0.550 OA
ATOM     10  O   UNL     1     -30.483   0.861 -19.998  1.00  0.00    -0.550 OA
ENDBRANCH   7   8
ENDBRANCH   6   7
ENDBRANCH   5   6
ENDBRANCH   4   5
ENDBRANCH   3   4
ENDBRANCH   2   3
ENDBRANCH   1   2
BRANCH   1  11
ATOM     11  C   UNL     1     -28.436  -4.443 -22.170  1.00  0.00     0.000 C 
BRANCH  11  12
ATOM     12  C   UNL     1     -28.145  -3.261 -23.112  1.00  0.00    -0.000 C 
BRANCH  12  13
ATOM     13  C   UNL     1     -26.918  -3.503 -24.005  1.00  0.00    -0.000 C 
BRANCH  13  14
ATOM     14  C   UNL     1     -25.684  -2.711 -23.540  1.00  0.00    -0.000 C 
BRANCH  14  15
ATOM     15  C   UNL     1     -24.455  -2.955 -24.431  1.00  0.00    -0.000 C 
BRANCH  15  16
ATOM     16  C   UNL     1     -23.153  -3.075 -23.625  1.00  0.00    -0.000 C 
BRANCH  16  17
ATOM     17  C   UNL     1     -23.154  -2.107 -22.436  1.00  0.00    -0.003 C 
ATOM     18  C   UNL     1     -22.540  -2.753 -21.197  1.00  0.00     0.004 C 
ENDBRANCH  16  17
ENDBRANCH  15  16
ENDBRANCH  14  15
ENDBRANCH  13  14
ENDBRANCH  12  13
ENDBRANCH  11  12
ENDBRANCH   1  11
TORSDOF 14
ENDMDL
MODEL 5
REMARK VINA RESULT:    -3.980      2.902      5.496
REMARK INTER + INTRA:          -9.121
REMARK INTER:                  -6.645
REMARK INTRA:                  -2.476
REMARK UNBOUND:                -1.884
REMARK SMILES CCCCCCCCCCCCCCCC(=O)[O-]
REMARK SMILES IDX 9 1 10 2 11 3 12 4 13 5 14 6 15 7 16 8 17 9 18 10 8 11 7 12
REMARK SMILES IDX 6 13 5 14 4 15 3 16 2 17 1 18
REMARK H PARENT
REMARK Flexibility Score: inf
ROOT
ATOM      1  C   UNL     1     -22.759  -1.140 -17.721  1.00  0.00     0.000 C 
ENDROOT
BRANCH   1   2
ATOM      2  C   UNL     1     -24.046  -0.359 -17.416  1.00  0.00     0.000 C 
BRANCH   2   3
ATOM      3  C   UNL     1     -25.195  -0.815 -18.324  1.00  0.00     0.000 C 
BRANCH   3   4
ATOM      4  C   UNL     1     -25.470   0.166 -19.476  1.00  0.00     0.000 C 
BRANCH   4   5
ATOM      5  C   UNL     1     -25.089   1.628 -19.147  1.00  0.00     0.000 C 
BRANCH   5   6
ATOM      6  C   UNL     1     -26.021   2.667 -19.807  1.00  0.00     0.006 C 
BRANCH   6   7
ATOM      7  C   UNL     1     -26.634   2.181 -21.130  1.00  0.00     0.053 C 
BRANCH   7   8
ATOM      8  C   UNL     1     -28.127   2.276 -21.132  1.00  0.00     0.041 C 
ATOM      9  O   UNL     1     -28.828   1.229 -21.115  1.00  0.00    -0.550 OA
ATOM     10  O   UNL     1     -28.747   3.518 -21.112  1.00  0.00    -0.550 OA
ENDBRANCH   7   8
ENDBRANCH   6   7
ENDBRANCH   5   6
ENDBRANCH   4   5
ENDBRANCH   3   4
ENDBRANCH   2   3
ENDBRANCH   1   2
BRANCH   1  11
ATOM     11  C   UNL     1     -21.493  -0.289 -17.532  1.00  0.00     0.000 C 
BRANCH  11  12
ATOM     12  C   UNL     1     -21.610   1.098 -18.189  1.00  0.00    -0.000 C 
BRANCH  12  13
ATOM     13  C   UNL     1     -20.991   1.142 -19.595  1.00  0.00    -0.000 C 
BRANCH  13  14
ATOM     14  C   UNL     1     -21.888   1.868 -20.612  1.00  0.00    -0.000 C 
BRANCH  14  15
ATOM     15  C   UNL     1     -22.464   0.919 -21.676  1.00  0.00    -0.000 C 
BRANCH  15  16
ATOM     16  C   UNL     1     -22.198  -0.560 -21.358  1.00  0.00    -0.000 C 
BRANCH  16  17
ATOM     17  C   UNL     1     -23.290  -1.454 -21.956  1.00  0.00    -0.003 C 
ATOM     18  C   UNL     1     -23.485  -2.720 -21.125  1.00  0.00     0.004 C 
ENDBRANCH  16  17
ENDBRANCH  15  16
ENDBRANCH  14  15
ENDBRANCH  13  14
ENDBRANCH  12  13
ENDBRANCH  11  12
ENDBRANCH   1  11
TORSDOF 14
ENDMDL
MODEL 6
REMARK VINA RESULT:    -3.945      3.022      4.347
REMARK INTER + INTRA:          -9.057
REMARK INTER:                  -7.144
REMARK INTRA:                  -1.913
REMARK UNBOUND:                -1.884
REMARK SMILES CCCCCCCCCCCCCCCC(=O)[O-]
REMARK SMILES IDX 9 1 10 2 11 3 12 4 13 5 14 6 15 7 16 8 17 9 18 10 8 11 7 12
REMARK SMILES IDX 6 13 5 14 4 15 3 16 2 17 1 18
REMARK H PARENT
REMARK Flexibility Score: inf
ROOT
ATOM      1  C   UNL     1     -25.783  -2.941 -23.824  1.00  0.00     0.000 C 
ENDROOT
BRANCH   1   2
ATOM      2  C   UNL     1     -24.762  -2.589 -24.916  1.00  0.00     0.000 C 
BRANCH   2   3
ATOM      3  C   UNL     1     -23.348  -3.022 -24.508  1.00  0.00     0.000 C 
BRANCH   3   4
ATOM      4  C   UNL     1     -22.339  -1.861 -24.530  1.00  0.00     0.000 C 
BRANCH   4   5
ATOM      5  C   UNL     1     -21.247  -1.972 -23.441  1.00  0.00     0.000 C 
BRANCH   5   6
ATOM      6  C   UNL     1     -21.527  -3.082 -22.404  1.00  0.00     0.006 C 
BRANCH   6   7
ATOM      7  C   UNL     1     -20.401  -4.124 -22.309  1.00  0.00     0.053 C 
BRANCH   7   8
ATOM      8  C   UNL     1     -20.417  -4.860 -21.007  1.00  0.00     0.041 C 
ATOM      9  O   UNL     1     -19.557  -5.749 -20.771  1.00  0.00    -0.550 OA
ATOM     10  O   UNL     1     -21.355  -4.536 -20.035  1.00  0.00    -0.550 OA
ENDBRANCH   7   8
ENDBRANCH   6   7
ENDBRANCH   5   6
ENDBRANCH   4   5
ENDBRANCH   3   4
ENDBRANCH   2   3
ENDBRANCH   1   2
BRANCH   1  11
ATOM     11  C   UNL     1     -25.158  -3.735 -22.666  1.00  0.00     0.000 C 
BRANCH  11  12
ATOM     12  C   UNL     1     -25.177  -2.956 -21.338  1.00  0.00    -0.000 C 
BRANCH  12  13
ATOM     13  C   UNL     1     -25.056  -1.437 -21.541  1.00  0.00    -0.000 C 
BRANCH  13  14
ATOM     14  C   UNL     1     -23.927  -0.818 -20.699  1.00  0.00    -0.000 C 
BRANCH  14  15
ATOM     15  C   UNL     1     -23.586   0.618 -21.132  1.00  0.00    -0.000 C 
BRANCH  15  16
ATOM     16  C   UNL     1     -22.074   0.878 -21.184  1.00  0.00    -0.000 C 
BRANCH  16  17
ATOM     17  C   UNL     1     -21.670   1.964 -20.180  1.00  0.00    -0.003 C 
ATOM     18  C   UNL     1     -21.587   1.403 -18.763  1.00  0.00     0.004 C 
ENDBRANCH  16  17
ENDBRANCH  15  16
ENDBRANCH  14  15
ENDBRANCH  13  14
ENDBRANCH  12  13
ENDBRANCH  11  12
ENDBRANCH   1  11
TORSDOF 14
ENDMDL
MODEL 7
REMARK VINA RESULT:    -3.937      2.911      4.860
REMARK INTER + INTRA:          -9.043
REMARK INTER:                  -6.638
REMARK INTRA:                  -2.405
REMARK UNBOUND:                -1.884
REMARK SMILES CCCCCCCCCCCCCCCC(=O)[O-]
REMARK SMILES IDX 9 1 10 2 11 3 12 4 13 5 14 6 15 7 16 8 17 9 18 10 8 11 7 12
REMARK SMILES IDX 6 13 5 14 4 15 3 16 2 17 1 18
REMARK H PARENT
REMARK Flexibility Score: inf
ROOT
ATOM      1  C   UNL     1     -27.910  -4.629 -20.470  1.00  0.00     0.000 C 
ENDROOT
BRANCH   1   2
ATOM      2  C   UNL     1     -28.350  -4.680 -21.940  1.00  0.00     0.000 C 
BRANCH   2   3
ATOM      3  C   UNL     1     -28.825  -3.303 -22.421  1.00  0.00     0.000 C 
BRANCH   3   4
ATOM      4  C   UNL     1     -27.739  -2.533 -23.191  1.00  0.00     0.000 C 
BRANCH   4   5
ATOM      5  C   UNL     1     -26.656  -3.447 -23.810  1.00  0.00     0.000 C 
BRANCH   5   6
ATOM      6  C   UNL     1     -25.222  -2.899 -23.643  1.00  0.00     0.006 C 
BRANCH   6   7
ATOM      7  C   UNL     1     -24.450  -2.799 -24.968  1.00  0.00     0.053 C 
BRANCH   7   8
ATOM      8  C   UNL     1     -22.970  -2.746 -24.759  1.00  0.00     0.041 C 
ATOM      9  O   UNL     1     -22.213  -2.360 -25.689  1.00  0.00    -0.550 OA
ATOM     10  O   UNL     1     -22.427  -3.082 -23.525  1.00  0.00    -0.550 OA
ENDBRANCH   7   8
ENDBRANCH   6   7
ENDBRANCH   5   6
ENDBRANCH   4   5
ENDBRANCH   3   4
ENDBRANCH   2   3
ENDBRANCH   1   2
BRANCH   1  11
ATOM     11  C   UNL     1     -26.385  -4.716 -20.306  1.00  0.00     0.000 C 
BRANCH  11  12
ATOM     12  C   UNL     1     -25.731  -3.336 -20.116  1.00  0.00    -0.000 C 
BRANCH  12  13
ATOM     13  C   UNL     1     -26.698  -2.299 -19.522  1.00  0.00    -0.000 C 
BRANCH  13  14
ATOM     14  C   UNL     1     -26.135  -0.869 -19.575  1.00  0.00    -0.000 C 
BRANCH  14  15
ATOM     15  C   UNL     1     -26.787  -0.017 -20.677  1.00  0.00    -0.000 C 
BRANCH  15  16
ATOM     16  C   UNL     1     -25.793   0.399 -21.771  1.00  0.00    -0.000 C 
BRANCH  16  17
ATOM     17  C   UNL     1     -24.347   0.243 -21.286  1.00  0.00    -0.003 C 
ATOM     18  C   UNL     1     -23.371   0.210 -22.458  1.00  0.00     0.004 C 
ENDBRANCH  16  17
ENDBRANCH  15  16
ENDBRANCH  14  15
ENDBRANCH  13  14
ENDBRANCH  12  13
ENDBRANCH  11  12
ENDBRANCH   1  11
TORSDOF 14
ENDMDL
MODEL 8
REMARK VINA RESULT:    -3.906      3.161      6.715
REMARK INTER + INTRA:          -8.987
REMARK INTER:                  -6.792
REMARK INTRA:                  -2.195
REMARK UNBOUND:                -1.884
REMARK SMILES CCCCCCCCCCCCCCCC(=O)[O-]
REMARK SMILES IDX 9 1 10 2 11 3 12 4 13 5 14 6 15 7 16 8 17 9 18 10 8 11 7 12
REMARK SMILES IDX 6 13 5 14 4 15 3 16 2 17 1 18
REMARK H PARENT
REMARK Flexibility Score: inf
ROOT
ATOM      1  C   UNL     1     -27.555  -0.913 -19.763  1.00  0.00     0.000 C 
ENDROOT
BRANCH   1   2
ATOM      2  C   UNL     1     -28.271  -0.377 -21.011  1.00  0.00     0.000 C 
BRANCH   2   3
ATOM      3  C   UNL     1     -28.440   1.146 -20.937  1.00  0.00     0.000 C 
BRANCH   3   4
ATOM      4  C   UNL     1     -27.696   1.772 -19.746  1.00  0.00     0.000 C 
BRANCH   4   5
ATOM      5  C   UNL     1     -26.604   2.783 -20.162  1.00  0.00     0.000 C 
BRANCH   5   6
ATOM      6  C   UNL     1     -25.182   2.364 -19.727  1.00  0.00     0.006 C 
BRANCH   6   7
ATOM      7  C   UNL     1     -24.580   1.255 -20.605  1.00  0.00     0.053 C 
BRANCH   7   8
ATOM      8  C   UNL     1     -23.686   0.340 -19.829  1.00  0.00     0.041 C 
ATOM      9  O   UNL     1     -22.561   0.012 -20.290  1.00  0.00    -0.550 OA
ATOM     10  O   UNL     1     -24.076  -0.119 -18.577  1.00  0.00    -0.550 OA
ENDBRANCH   7   8
ENDBRANCH   6   7
ENDBRANCH   5   6
ENDBRANCH   4   5
ENDBRANCH   3   4
ENDBRANCH   2   3
ENDBRANCH   1   2
BRANCH   1  11
ATOM     11  C   UNL     1     -26.648  -2.114 -20.072  1.00  0.00     0.000 C 
BRANCH  11  12
ATOM     12  C   UNL     1     -27.357  -3.462 -19.848  1.00  0.00    -0.000 C 
BRANCH  12  13
ATOM     13  C   UNL     1     -27.308  -4.372 -21.086  1.00  0.00    -0.000 C 
BRANCH  13  14
ATOM     14  C   UNL     1     -28.535  -4.196 -21.996  1.00  0.00    -0.000 C 
BRANCH  14  15
ATOM     15  C   UNL     1     -28.218  -3.392 -23.268  1.00  0.00    -0.000 C 
BRANCH  15  16
ATOM     16  C   UNL     1     -26.732  -3.452 -23.652  1.00  0.00    -0.000 C 
BRANCH  16  17
ATOM     17  C   UNL     1     -26.101  -2.055 -23.620  1.00  0.00    -0.003 C 
ATOM     18  C   UNL     1     -24.625  -2.124 -23.234  1.00  0.00     0.004 C 
ENDBRANCH  16  17
ENDBRANCH  15  16
ENDBRANCH  14  15
ENDBRANCH  13  14
ENDBRANCH  12  13
ENDBRANCH  11  12
ENDBRANCH   1  11
TORSDOF 14
ENDMDL
MODEL 9
REMARK VINA RESULT:    -3.893      3.346      5.517
REMARK INTER + INTRA:          -8.962
REMARK INTER:                  -6.412
REMARK INTRA:                  -2.550
REMARK UNBOUND:                -1.884
REMARK SMILES CCCCCCCCCCCCCCCC(=O)[O-]
REMARK SMILES IDX 9 1 10 2 11 3 12 4 13 5 14 6 15 7 16 8 17 9 18 10 8 11 7 12
REMARK SMILES IDX 6 13 5 14 4 15 3 16 2 17 1 18
REMARK H PARENT
REMARK Flexibility Score: inf
ROOT
ATOM      1  C   UNL     1     -28.738  -3.930 -22.278  1.00  0.00     0.000 C 
ENDROOT
BRANCH   1   2
ATOM      2  C   UNL     1     -28.016  -3.413 -23.531  1.00  0.00     0.000 C 
BRANCH   2   3
ATOM      3  C   UNL     1     -26.515  -3.723 -23.468  1.00  0.00     0.000 C 
BRANCH   3   4
ATOM      4  C   UNL     1     -25.642  -2.544 -23.931  1.00  0.00     0.000 C 
BRANCH   4   5
ATOM      5  C   UNL     1     -24.140  -2.728 -23.616  1.00  0.00     0.000 C 
BRANCH   5   6
ATOM      6  C   UNL     1     -23.547  -1.582 -22.767  1.00  0.00     0.006 C 
BRANCH   6   7
ATOM      7  C   UNL     1     -22.046  -1.750 -22.483  1.00  0.00     0.053 C 
BRANCH   7   8
ATOM      8  C   UNL     1     -21.707  -3.131 -22.017  1.00  0.00     0.041 C 
ATOM      9  O   UNL     1     -20.919  -3.849 -22.687  1.00  0.00    -0.550 OA
ATOM     10  O   UNL     1     -22.229  -3.612 -20.823  1.00  0.00    -0.550 OA
ENDBRANCH   7   8
ENDBRANCH   6   7
ENDBRANCH   5   6
ENDBRANCH   4   5
ENDBRANCH   3   4
ENDBRANCH   2   3
ENDBRANCH   1   2
BRANCH   1  11
ATOM     11  C   UNL     1     -27.864  -4.877 -21.441  1.00  0.00     0.000 C 
BRANCH  11  12
ATOM     12  C   UNL     1     -28.235  -4.857 -19.947  1.00  0.00    -0.000 C 
BRANCH  12  13
ATOM     13  C   UNL     1     -27.080  -4.371 -19.056  1.00  0.00    -0.000 C 
BRANCH  13  14
ATOM     14  C   UNL     1     -25.820  -4.017 -19.865  1.00  0.00    -0.000 C 
BRANCH  14  15
ATOM     15  C   UNL     1     -25.443  -2.531 -19.752  1.00  0.00    -0.000 C 
BRANCH  15  16
ATOM     16  C   UNL     1     -26.672  -1.611 -19.686  1.00  0.00    -0.000 C 
BRANCH  16  17
ATOM     17  C   UNL     1     -26.803  -0.780 -20.967  1.00  0.00    -0.003 C 
ATOM     18  C   UNL     1     -28.238  -0.300 -21.170  1.00  0.00     0.004 C 
ENDBRANCH  16  17
ENDBRANCH  15  16
ENDBRANCH  14  15
ENDBRANCH  13  14
ENDBRANCH  12  13
ENDBRANCH  11  12
ENDBRANCH   1  11
TORSDOF 14
ENDMDL
