MODEL 1
REMARK VINA RESULT:    -4.972      0.000      0.000
REMARK INTER + INTRA:         -11.739
REMARK INTER:                  -9.623
REMARK INTRA:                  -2.116
REMARK UNBOUND:                -2.116
REMARK SMILES CCCCCCCCCCCCCCCCCC(=O)[O-]
REMARK SMILES IDX 10 1 11 2 12 3 13 4 14 5 15 6 16 7 17 8 18 9 19 10 20 11
REMARK SMILES IDX 9 12 8 13 7 14 6 15 5 16 4 17 3 18 2 19 1 20
REMARK H PARENT
REMARK Flexibility Score: inf
ROOT
ATOM      1  C   UNL     1      64.510  31.167   9.774  1.00  0.00     0.000 C 
ENDROOT
BRANCH   1   2
ATOM      2  C   UNL     1      63.999  31.143  11.227  1.00  0.00     0.000 C 
BRANCH   2   3
ATOM      3  C   UNL     1      64.252  32.433  12.033  1.00  0.00     0.000 C 
BRANCH   3   4
ATOM      4  C   UNL     1      63.524  32.508  13.390  1.00  0.00     0.000 C 
BRANCH   4   5
ATOM      5  C   UNL     1      61.985  32.465  13.307  1.00  0.00     0.000 C 
BRANCH   5   6
ATOM      6  C   UNL     1      61.251  33.098  14.503  1.00  0.00     0.000 C 
BRANCH   6   7
ATOM      7  C   UNL     1      62.184  33.398  15.686  1.00  0.00     0.006 C 
BRANCH   7   8
ATOM      8  C   UNL     1      61.402  33.441  17.002  1.00  0.00     0.053 C 
BRANCH   8   9
ATOM      9  C   UNL     1      62.263  33.974  18.104  1.00  0.00     0.041 C 
ATOM     10  O   UNL     1      62.262  33.419  19.234  1.00  0.00    -0.550 OA
ATOM     11  O   UNL     1      63.029  35.115  17.898  1.00  0.00    -0.550 OA
ENDBRANCH   8   9
ENDBRANCH   7   8
ENDBRANCH   6   7
ENDBRANCH   5   6
ENDBRANCH   4   5
ENDBRANCH   3   4
ENDBRANCH   2   3
ENDBRANCH   1   2
BRANCH   1  12
ATOM     12  C   UNL     1      64.165  29.884   8.999  1.00  0.00     0.000 C 
BRANCH  12  13
ATOM     13  C   UNL     1      63.248  28.933   9.791  1.00  0.00    -0.000 C 
BRANCH  13  14
ATOM     14  C   UNL     1      62.048  28.370   9.006  1.00  0.00    -0.000 C 
BRANCH  14  15
ATOM     15  C   UNL     1      60.725  28.457   9.787  1.00  0.00    -0.000 C 
BRANCH  15  16
ATOM     16  C   UNL     1      60.356  29.902  10.161  1.00  0.00    -0.000 C 
BRANCH  16  17
ATOM     17  C   UNL     1      59.905  30.034  11.626  1.00  0.00    -0.000 C 
BRANCH  17  18
ATOM     18  C   UNL     1      60.042  28.719  12.415  1.00  0.00    -0.000 C 
BRANCH  18  19
ATOM     19  C   UNL     1      60.916  28.808  13.679  1.00  0.00    -0.003 C 
ATOM     20  C   UNL     1      62.412  28.730  13.381  1.00  0.00     0.004 C 
ENDBRANCH  18  19
ENDBRANCH  17  18
ENDBRANCH  16  17
ENDBRANCH  15  16
ENDBRANCH  14  15
ENDBRANCH  13  14
ENDBRANCH  12  13
ENDBRANCH   1  12
TORSDOF 16
ENDMDL
MODEL 2
REMARK VINA RESULT:    -4.948      2.968      6.337
REMARK INTER + INTRA:         -11.692
REMARK INTER:                  -9.237
REMARK INTRA:                  -2.456
REMARK UNBOUND:                -2.116
REMARK SMILES CCCCCCCCCCCCCCCCCC(=O)[O-]
REMARK SMILES IDX 10 1 11 2 12 3 13 4 14 5 15 6 16 7 17 8 18 9 19 10 20 11
REMARK SMILES IDX 9 12 8 13 7 14 6 15 5 16 4 17 3 18 2 19 1 20
REMARK H PARENT
REMARK Flexibility Score: inf
ROOT
ATOM      1  C   UNL     1      63.493  30.801  13.245  1.00  0.00     0.000 C 
ENDROOT
BRANCH   1   2
ATOM      2  C   UNL     1      63.708  29.699  12.191  1.00  0.00     0.000 C 
BRANCH   2   3
ATOM      3  C   UNL     1      63.720  30.182  10.727  1.00  0.00     0.000 C 
BRANCH   3   4
ATOM      4  C   UNL     1      63.557  29.071   9.671  1.00  0.00     0.000 C 
BRANCH   4   5
ATOM      5  C   UNL     1      62.174  29.014   8.993  1.00  0.00     0.000 C 
BRANCH   5   6
ATOM      6  C   UNL     1      61.091  28.260   9.786  1.00  0.00     0.000 C 
BRANCH   6   7
ATOM      7  C   UNL     1      59.889  29.146  10.148  1.00  0.00     0.006 C 
BRANCH   7   8
ATOM      8  C   UNL     1      60.030  29.707  11.566  1.00  0.00     0.053 C 
BRANCH   8   9
ATOM      9  C   UNL     1      59.755  28.641  12.580  1.00  0.00     0.041 C 
ATOM     10  O   UNL     1      60.670  28.250  13.352  1.00  0.00    -0.550 OA
ATOM     11  O   UNL     1      58.503  28.043  12.638  1.00  0.00    -0.550 OA
ENDBRANCH   8   9
ENDBRANCH   7   8
ENDBRANCH   6   7
ENDBRANCH   5   6
ENDBRANCH   4   5
ENDBRANCH   3   4
ENDBRANCH   2   3
ENDBRANCH   1   2
BRANCH   1  12
ATOM     12  C   UNL     1      63.371  32.204  12.625  1.00  0.00     0.000 C 
BRANCH  12  13
ATOM     13  C   UNL     1      64.501  33.154  13.064  1.00  0.00    -0.000 C 
BRANCH  13  14
ATOM     14  C   UNL     1      64.886  33.076  14.553  1.00  0.00    -0.000 C 
BRANCH  14  15
ATOM     15  C   UNL     1      63.856  33.751  15.476  1.00  0.00    -0.000 C 
BRANCH  15  16
ATOM     16  C   UNL     1      63.321  32.800  16.558  1.00  0.00    -0.000 C 
BRANCH  16  17
ATOM     17  C   UNL     1      61.783  32.773  16.610  1.00  0.00    -0.000 C 
BRANCH  17  18
ATOM     18  C   UNL     1      61.137  33.875  15.750  1.00  0.00    -0.000 C 
BRANCH  18  19
ATOM     19  C   UNL     1      60.377  33.368  14.510  1.00  0.00    -0.003 C 
ATOM     20  C   UNL     1      60.143  31.859  14.525  1.00  0.00     0.004 C 
ENDBRANCH  18  19
ENDBRANCH  17  18
ENDBRANCH  16  17
ENDBRANCH  15  16
ENDBRANCH  14  15
ENDBRANCH  13  14
ENDBRANCH  12  13
ENDBRANCH   1  12
TORSDOF 16
ENDMDL
MODEL 3
REMARK VINA RESULT:    -4.931      1.117      3.322
REMARK INTER + INTRA:         -11.659
REMARK INTER:                  -9.550
REMARK INTRA:                  -2.108
REMARK UNBOUND:                -2.116
REMARK SMILES CCCCCCCCCCCCCCCCCC(=O)[O-]
REMARK SMILES IDX 10 1 11 2 12 3 13 4 14 5 15 6 16 7 17 8 18 9 19 10 20 11
REMARK SMILES IDX 9 12 8 13 7 14 6 15 5 16 4 17 3 18 2 19 1 20
REMARK H PARENT
REMARK Flexibility Score: inf
ROOT
ATOM      1  C   UNL     1      60.423  28.617  13.320  1.00  0.00     0.000 C 
ENDROOT
BRANCH   1   2
ATOM      2  C   UNL     1      61.579  29.359  14.015  1.00  0.00     0.000 C 
BRANCH   2   3
ATOM      3  C   UNL     1      61.167  30.596  14.838  1.00  0.00     0.000 C 
BRANCH   3   4
ATOM      4  C   UNL     1      60.129  31.513  14.162  1.00  0.00     0.000 C 
BRANCH   4   5
ATOM      5  C   UNL     1      60.388  33.024  14.327  1.00  0.00     0.000 C 
BRANCH   5   6
ATOM      6  C   UNL     1      61.661  33.384  15.114  1.00  0.00     0.000 C 
BRANCH   6   7
ATOM      7  C   UNL     1      61.361  33.985  16.495  1.00  0.00     0.006 C 
BRANCH   7   8
ATOM      8  C   UNL     1      61.969  33.128  17.609  1.00  0.00     0.053 C 
BRANCH   8   9
ATOM      9  C   UNL     1      61.877  33.839  18.924  1.00  0.00     0.041 C 
ATOM     10  O   UNL     1      60.752  34.124  19.412  1.00  0.00    -0.550 OA
ATOM     11  O   UNL     1      63.035  34.230  19.584  1.00  0.00    -0.550 OA
ENDBRANCH   8   9
ENDBRANCH   7   8
ENDBRANCH   6   7
ENDBRANCH   5   6
ENDBRANCH   4   5
ENDBRANCH   3   4
ENDBRANCH   2   3
ENDBRANCH   1   2
BRANCH   1  12
ATOM     12  C   UNL     1      60.615  28.503  11.798  1.00  0.00     0.000 C 
BRANCH  12  13
ATOM     13  C   UNL     1      60.028  29.700  11.028  1.00  0.00    -0.000 C 
BRANCH  13  14
ATOM     14  C   UNL     1      60.024  29.559   9.494  1.00  0.00    -0.000 C 
BRANCH  14  15
ATOM     15  C   UNL     1      61.258  28.815   8.956  1.00  0.00    -0.000 C 
BRANCH  15  16
ATOM     16  C   UNL     1      62.507  29.709   8.899  1.00  0.00    -0.000 C 
BRANCH  16  17
ATOM     17  C   UNL     1      63.679  29.135   9.715  1.00  0.00    -0.000 C 
BRANCH  17  18
ATOM     18  C   UNL     1      63.854  29.827  11.078  1.00  0.00    -0.000 C 
BRANCH  18  19
ATOM     19  C   UNL     1      63.891  31.366  11.026  1.00  0.00    -0.003 C 
ATOM     20  C   UNL     1      63.653  32.018  12.386  1.00  0.00     0.004 C 
ENDBRANCH  18  19
ENDBRANCH  17  18
ENDBRANCH  16  17
ENDBRANCH  15  16
ENDBRANCH  14  15
ENDBRANCH  13  14
ENDBRANCH  12  13
ENDBRANCH   1  12
TORSDOF 16
ENDMDL
MODEL 4
REMARK VINA RESULT:    -4.909      3.798      6.945
REMARK INTER + INTRA:         -11.617
REMARK INTER:                  -9.121
REMARK INTRA:                  -2.496
REMARK UNBOUND:                -2.116
REMARK SMILES CCCCCCCCCCCCCCCCCC(=O)[O-]
REMARK SMILES IDX 10 1 11 2 12 3 13 4 14 5 15 6 16 7 17 8 18 9 19 10 20 11
REMARK SMILES IDX 9 12 8 13 7 14 6 15 5 16 4 17 3 18 2 19 1 20
REMARK H PARENT
REMARK Flexibility Score: inf
ROOT
ATOM      1  C   UNL     1      61.177  29.491  13.940  1.00  0.00     0.000 C 
ENDROOT
BRANCH   1   2
ATOM      2  C   UNL     1      62.320  28.698  13.280  1.00  0.00     0.000 C 
BRANCH   2   3
ATOM      3  C   UNL     1      63.691  29.403  13.274  1.00  0.00     0.000 C 
BRANCH   3   4
ATOM      4  C   UNL     1      63.880  30.457  12.166  1.00  0.00     0.000 C 
BRANCH   4   5
ATOM      5  C   UNL     1      63.020  30.238  10.905  1.00  0.00     0.000 C 
BRANCH   5   6
ATOM      6  C   UNL     1      63.530  29.143   9.951  1.00  0.00     0.000 C 
BRANCH   6   7
ATOM      7  C   UNL     1      62.454  28.660   8.967  1.00  0.00     0.006 C 
BRANCH   7   8
ATOM      8  C   UNL     1      61.189  28.223   9.711  1.00  0.00     0.053 C 
BRANCH   8   9
ATOM      9  C   UNL     1      59.984  28.902   9.138  1.00  0.00     0.041 C 
ATOM     10  O   UNL     1      59.994  30.145   8.935  1.00  0.00    -0.550 OA
ATOM     11  O   UNL     1      58.833  28.171   8.875  1.00  0.00    -0.550 OA
ENDBRANCH   8   9
ENDBRANCH   7   8
ENDBRANCH   6   7
ENDBRANCH   5   6
ENDBRANCH   4   5
ENDBRANCH   3   4
ENDBRANCH   2   3
ENDBRANCH   1   2
BRANCH   1  12
ATOM     12  C   UNL     1      60.010  29.770  12.977  1.00  0.00     0.000 C 
BRANCH  12  13
ATOM     13  C   UNL     1      59.910  31.252  12.569  1.00  0.00    -0.000 C 
BRANCH  13  14
ATOM     14  C   UNL     1      60.932  32.190  13.238  1.00  0.00    -0.000 C 
BRANCH  14  15
ATOM     15  C   UNL     1      60.362  32.921  14.466  1.00  0.00    -0.000 C 
BRANCH  15  16
ATOM     16  C   UNL     1      61.461  33.409  15.424  1.00  0.00    -0.000 C 
BRANCH  16  17
ATOM     17  C   UNL     1      62.553  32.350  15.655  1.00  0.00    -0.000 C 
BRANCH  17  18
ATOM     18  C   UNL     1      63.882  32.958  16.139  1.00  0.00    -0.000 C 
BRANCH  18  19
ATOM     19  C   UNL     1      64.454  34.069  15.239  1.00  0.00    -0.003 C 
ATOM     20  C   UNL     1      64.824  33.578  13.841  1.00  0.00     0.004 C 
ENDBRANCH  18  19
ENDBRANCH  17  18
ENDBRANCH  16  17
ENDBRANCH  15  16
ENDBRANCH  14  15
ENDBRANCH  13  14
ENDBRANCH  12  13
ENDBRANCH   1  12
TORSDOF 16
ENDMDL
MODEL 5
REMARK VINA RESULT:    -4.880      1.171      3.413
REMARK INTER + INTRA:         -11.561
REMARK INTER:                  -9.164
REMARK INTRA:                  -2.397
REMARK UNBOUND:                -2.116
REMARK SMILES CCCCCCCCCCCCCCCCCC(=O)[O-]
REMARK SMILES IDX 10 1 11 2 12 3 13 4 14 5 15 6 16 7 17 8 18 9 19 10 20 11
REMARK SMILES IDX 9 12 8 13 7 14 6 15 5 16 4 17 3 18 2 19 1 20
REMARK H PARENT
REMARK Flexibility Score: inf
ROOT
ATOM      1  C   UNL     1      61.852  28.663  12.436  1.00  0.00     0.000 C 
ENDROOT
BRANCH   1   2
ATOM      2  C   UNL     1      60.896  29.161  13.536  1.00  0.00     0.000 C 
BRANCH   2   3
ATOM      3  C   UNL     1      59.734  30.048  13.046  1.00  0.00     0.000 C 
BRANCH   3   4
ATOM      4  C   UNL     1      60.000  31.564  13.100  1.00  0.00     0.000 C 
BRANCH   4   5
ATOM      5  C   UNL     1      60.074  32.163  14.519  1.00  0.00     0.000 C 
BRANCH   5   6
ATOM      6  C   UNL     1      60.719  33.559  14.603  1.00  0.00     0.000 C 
BRANCH   6   7
ATOM      7  C   UNL     1      60.717  34.131  16.029  1.00  0.00     0.006 C 
BRANCH   7   8
ATOM      8  C   UNL     1      61.839  33.512  16.868  1.00  0.00     0.053 C 
BRANCH   8   9
ATOM      9  C   UNL     1      62.203  34.418  18.003  1.00  0.00     0.041 C 
ATOM     10  O   UNL     1      61.431  34.536  18.992  1.00  0.00    -0.550 OA
ATOM     11  O   UNL     1      63.369  35.169  17.947  1.00  0.00    -0.550 OA
ENDBRANCH   8   9
ENDBRANCH   7   8
ENDBRANCH   6   7
ENDBRANCH   5   6
ENDBRANCH   4   5
ENDBRANCH   3   4
ENDBRANCH   2   3
ENDBRANCH   1   2
BRANCH   1  12
ATOM     12  C   UNL     1      61.178  28.570  11.057  1.00  0.00     0.000 C 
BRANCH  12  13
ATOM     13  C   UNL     1      62.129  28.927   9.899  1.00  0.00    -0.000 C 
BRANCH  13  14
ATOM     14  C   UNL     1      63.554  29.331  10.318  1.00  0.00    -0.000 C 
BRANCH  14  15
ATOM     15  C   UNL     1      63.966  30.716   9.788  1.00  0.00    -0.000 C 
BRANCH  15  16
ATOM     16  C   UNL     1      64.529  31.626  10.890  1.00  0.00    -0.000 C 
BRANCH  16  17
ATOM     17  C   UNL     1      63.545  31.813  12.059  1.00  0.00    -0.000 C 
BRANCH  17  18
ATOM     18  C   UNL     1      64.016  32.870  13.074  1.00  0.00    -0.000 C 
BRANCH  18  19
ATOM     19  C   UNL     1      64.460  32.309  14.437  1.00  0.00    -0.003 C 
ATOM     20  C   UNL     1      63.759  31.003  14.806  1.00  0.00     0.004 C 
ENDBRANCH  18  19
ENDBRANCH  17  18
ENDBRANCH  16  17
ENDBRANCH  15  16
ENDBRANCH  14  15
ENDBRANCH  13  14
ENDBRANCH  12  13
ENDBRANCH   1  12
TORSDOF 16
ENDMDL
MODEL 6
REMARK VINA RESULT:    -4.860     11.319     13.960
REMARK INTER + INTRA:         -11.521
REMARK INTER:                  -9.026
REMARK INTRA:                  -2.495
REMARK UNBOUND:                -2.116
REMARK SMILES CCCCCCCCCCCCCCCCCC(=O)[O-]
REMARK SMILES IDX 10 1 11 2 12 3 13 4 14 5 15 6 16 7 17 8 18 9 19 10 20 11
REMARK SMILES IDX 9 12 8 13 7 14 6 15 5 16 4 17 3 18 2 19 1 20
REMARK H PARENT
REMARK Flexibility Score: inf
ROOT
ATOM      1  C   UNL     1      62.192  27.814  28.703  1.00  0.00     0.000 C 
ENDROOT
BRANCH   1   2
ATOM      2  C   UNL     1      61.483  29.175  28.825  1.00  0.00     0.000 C 
BRANCH   2   3
ATOM      3  C   UNL     1      62.408  30.407  28.759  1.00  0.00     0.000 C 
BRANCH   3   4
ATOM      4  C   UNL     1      63.443  30.386  27.617  1.00  0.00     0.000 C 
BRANCH   4   5
ATOM      5  C   UNL     1      64.859  30.853  28.012  1.00  0.00     0.000 C 
BRANCH   5   6
ATOM      6  C   UNL     1      66.009  30.051  27.378  1.00  0.00     0.000 C 
BRANCH   6   7
ATOM      7  C   UNL     1      65.548  29.162  26.214  1.00  0.00     0.006 C 
BRANCH   7   8
ATOM      8  C   UNL     1      66.487  29.302  25.012  1.00  0.00     0.053 C 
BRANCH   8   9
ATOM      9  C   UNL     1      65.924  30.270  24.019  1.00  0.00     0.041 C 
ATOM     10  O   UNL     1      64.762  30.731  24.171  1.00  0.00    -0.550 OA
ATOM     11  O   UNL     1      66.664  30.623  22.897  1.00  0.00    -0.550 OA
ENDBRANCH   8   9
ENDBRANCH   7   8
ENDBRANCH   6   7
ENDBRANCH   5   6
ENDBRANCH   4   5
ENDBRANCH   3   4
ENDBRANCH   2   3
ENDBRANCH   1   2
BRANCH   1  12
ATOM     12  C   UNL     1      61.956  27.137  27.342  1.00  0.00     0.000 C 
BRANCH  12  13
ATOM     13  C   UNL     1      60.757  27.729  26.578  1.00  0.00    -0.000 C 
BRANCH  13  14
ATOM     14  C   UNL     1      60.928  27.818  25.050  1.00  0.00    -0.000 C 
BRANCH  14  15
ATOM     15  C   UNL     1      62.259  28.467  24.631  1.00  0.00    -0.000 C 
BRANCH  15  16
ATOM     16  C   UNL     1      63.042  27.611  23.623  1.00  0.00    -0.000 C 
BRANCH  16  17
ATOM     17  C   UNL     1      63.493  26.265  24.219  1.00  0.00    -0.000 C 
BRANCH  17  18
ATOM     18  C   UNL     1      65.018  26.068  24.162  1.00  0.00    -0.000 C 
BRANCH  18  19
ATOM     19  C   UNL     1      65.585  25.785  22.758  1.00  0.00    -0.003 C 
ATOM     20  C   UNL     1      66.337  26.974  22.164  1.00  0.00     0.004 C 
ENDBRANCH  18  19
ENDBRANCH  17  18
ENDBRANCH  16  17
ENDBRANCH  15  16
ENDBRANCH  14  15
ENDBRANCH  13  14
ENDBRANCH  12  13
ENDBRANCH   1  12
TORSDOF 16
ENDMDL
MODEL 7
REMARK VINA RESULT:    -4.854      1.956      2.447
REMARK INTER + INTRA:         -11.510
REMARK INTER:                  -9.199
REMARK INTRA:                  -2.312
REMARK UNBOUND:                -2.116
REMARK SMILES CCCCCCCCCCCCCCCCCC(=O)[O-]
REMARK SMILES IDX 10 1 11 2 12 3 13 4 14 5 15 6 16 7 17 8 18 9 19 10 20 11
REMARK SMILES IDX 9 12 8 13 7 14 6 15 5 16 4 17 3 18 2 19 1 20
REMARK H PARENT
REMARK Flexibility Score: inf
ROOT
ATOM      1  C   UNL     1      64.027  30.768  11.612  1.00  0.00     0.000 C 
ENDROOT
BRANCH   1   2
ATOM      2  C   UNL     1      63.545  31.982  12.428  1.00  0.00     0.000 C 
BRANCH   2   3
ATOM      3  C   UNL     1      64.586  33.105  12.611  1.00  0.00     0.000 C 
BRANCH   3   4
ATOM      4  C   UNL     1      64.898  33.474  14.074  1.00  0.00     0.000 C 
BRANCH   4   5
ATOM      5  C   UNL     1      63.917  32.900  15.116  1.00  0.00     0.000 C 
BRANCH   5   6
ATOM      6  C   UNL     1      63.177  33.951  15.962  1.00  0.00     0.000 C 
BRANCH   6   7
ATOM      7  C   UNL     1      61.712  33.576  16.231  1.00  0.00     0.006 C 
BRANCH   7   8
ATOM      8  C   UNL     1      60.952  33.359  14.918  1.00  0.00     0.053 C 
BRANCH   8   9
ATOM      9  C   UNL     1      60.287  32.019  14.915  1.00  0.00     0.041 C 
ATOM     10  O   UNL     1      60.657  31.125  15.722  1.00  0.00    -0.550 OA
ATOM     11  O   UNL     1      59.292  31.739  13.986  1.00  0.00    -0.550 OA
ENDBRANCH   8   9
ENDBRANCH   7   8
ENDBRANCH   6   7
ENDBRANCH   5   6
ENDBRANCH   4   5
ENDBRANCH   3   4
ENDBRANCH   2   3
ENDBRANCH   1   2
BRANCH   1  12
ATOM     12  C   UNL     1      64.351  31.121  10.151  1.00  0.00     0.000 C 
BRANCH  12  13
ATOM     13  C   UNL     1      63.537  30.294   9.138  1.00  0.00    -0.000 C 
BRANCH  13  14
ATOM     14  C   UNL     1      63.145  28.880   9.606  1.00  0.00    -0.000 C 
BRANCH  14  15
ATOM     15  C   UNL     1      61.654  28.567   9.391  1.00  0.00    -0.000 C 
BRANCH  15  16
ATOM     16  C   UNL     1      60.755  29.791   9.629  1.00  0.00    -0.000 C 
BRANCH  16  17
ATOM     17  C   UNL     1      60.455  30.020  11.121  1.00  0.00    -0.000 C 
BRANCH  17  18
ATOM     18  C   UNL     1      59.576  28.914  11.731  1.00  0.00    -0.000 C 
BRANCH  18  19
ATOM     19  C   UNL     1      60.121  28.294  13.031  1.00  0.00    -0.003 C 
ATOM     20  C   UNL     1      61.578  28.660  13.305  1.00  0.00     0.004 C 
ENDBRANCH  18  19
ENDBRANCH  17  18
ENDBRANCH  16  17
ENDBRANCH  15  16
ENDBRANCH  14  15
ENDBRANCH  13  14
ENDBRANCH  12  13
ENDBRANCH   1  12
TORSDOF 16
ENDMDL
MODEL 8
REMARK VINA RESULT:    -4.853      3.489      6.598
REMARK INTER + INTRA:         -11.507
REMARK INTER:                  -9.410
REMARK INTRA:                  -2.097
REMARK UNBOUND:                -2.116
REMARK SMILES CCCCCCCCCCCCCCCCCC(=O)[O-]
REMARK SMILES IDX 10 1 11 2 12 3 13 4 14 5 15 6 16 7 17 8 18 9 19 10 20 11
REMARK SMILES IDX 9 12 8 13 7 14 6 15 5 16 4 17 3 18 2 19 1 20
REMARK H PARENT
REMARK Flexibility Score: inf
ROOT
ATOM      1  C   UNL     1      63.678  30.106  14.123  1.00  0.00     0.000 C 
ENDROOT
BRANCH   1   2
ATOM      2  C   UNL     1      64.084  31.358  13.323  1.00  0.00     0.000 C 
BRANCH   2   3
ATOM      3  C   UNL     1      63.453  31.476  11.921  1.00  0.00     0.000 C 
BRANCH   3   4
ATOM      4  C   UNL     1      64.456  31.656  10.765  1.00  0.00     0.000 C 
BRANCH   4   5
ATOM      5  C   UNL     1      64.241  30.717   9.562  1.00  0.00     0.000 C 
BRANCH   5   6
ATOM      6  C   UNL     1      63.707  29.317   9.916  1.00  0.00     0.000 C 
BRANCH   6   7
ATOM      7  C   UNL     1      62.425  28.956   9.151  1.00  0.00     0.006 C 
BRANCH   7   8
ATOM      8  C   UNL     1      61.443  28.205  10.054  1.00  0.00     0.053 C 
BRANCH   8   9
ATOM      9  C   UNL     1      60.099  28.863  10.026  1.00  0.00     0.041 C 
ATOM     10  O   UNL     1      59.241  28.517   9.172  1.00  0.00    -0.550 OA
ATOM     11  O   UNL     1      59.811  29.894  10.911  1.00  0.00    -0.550 OA
ENDBRANCH   8   9
ENDBRANCH   7   8
ENDBRANCH   6   7
ENDBRANCH   5   6
ENDBRANCH   4   5
ENDBRANCH   3   4
ENDBRANCH   2   3
ENDBRANCH   1   2
BRANCH   1  12
ATOM     12  C   UNL     1      62.590  29.275  13.420  1.00  0.00     0.000 C 
BRANCH  12  13
ATOM     13  C   UNL     1      61.224  29.354  14.127  1.00  0.00    -0.000 C 
BRANCH  13  14
ATOM     14  C   UNL     1      60.914  30.698  14.813  1.00  0.00    -0.000 C 
BRANCH  14  15
ATOM     15  C   UNL     1      60.154  31.676  13.900  1.00  0.00    -0.000 C 
BRANCH  15  16
ATOM     16  C   UNL     1      60.454  33.146  14.232  1.00  0.00    -0.000 C 
BRANCH  16  17
ATOM     17  C   UNL     1      61.616  33.300  15.229  1.00  0.00    -0.000 C 
BRANCH  17  18
ATOM     18  C   UNL     1      61.236  34.134  16.465  1.00  0.00    -0.000 C 
BRANCH  18  19
ATOM     19  C   UNL     1      62.131  33.912  17.698  1.00  0.00    -0.003 C 
ATOM     20  C   UNL     1      61.344  33.829  19.004  1.00  0.00     0.004 C 
ENDBRANCH  18  19
ENDBRANCH  17  18
ENDBRANCH  16  17
ENDBRANCH  15  16
ENDBRANCH  14  15
ENDBRANCH  13  14
ENDBRANCH  12  13
ENDBRANCH   1  12
TORSDOF 16
ENDMDL
MODEL 9
REMARK VINA RESULT:    -4.801     11.126     14.674
REMARK INTER + INTRA:         -11.408
REMARK INTER:                  -9.095
REMARK INTRA:                  -2.312
REMARK UNBOUND:                -2.116
REMARK SMILES CCCCCCCCCCCCCCCCCC(=O)[O-]
REMARK SMILES IDX 10 1 11 2 12 3 13 4 14 5 15 6 16 7 17 8 18 9 19 10 20 11
REMARK SMILES IDX 9 12 8 13 7 14 6 15 5 16 4 17 3 18 2 19 1 20
REMARK H PARENT
REMARK Flexibility Score: inf
ROOT
ATOM      1  C   UNL     1      61.588  27.011  26.681  1.00  0.00     0.000 C 
ENDROOT
BRANCH   1   2
ATOM      2  C   UNL     1      60.855  27.898  25.657  1.00  0.00     0.000 C 
BRANCH   2   3
ATOM      3  C   UNL     1      61.704  29.028  25.040  1.00  0.00     0.000 C 
BRANCH   3   4
ATOM      4  C   UNL     1      63.079  28.592  24.498  1.00  0.00     0.000 C 
BRANCH   4   5
ATOM      5  C   UNL     1      63.030  27.595  23.322  1.00  0.00     0.000 C 
BRANCH   5   6
ATOM      6  C   UNL     1      63.645  26.214  23.613  1.00  0.00     0.000 C 
BRANCH   6   7
ATOM      7  C   UNL     1      65.164  26.272  23.834  1.00  0.00     0.006 C 
BRANCH   7   8
ATOM      8  C   UNL     1      65.907  25.529  22.720  1.00  0.00     0.053 C 
BRANCH   8   9
ATOM      9  C   UNL     1      66.228  26.461  21.594  1.00  0.00     0.041 C 
ATOM     10  O   UNL     1      66.207  26.048  20.404  1.00  0.00    -0.550 OA
ATOM     11  O   UNL     1      66.600  27.772  21.861  1.00  0.00    -0.550 OA
ENDBRANCH   8   9
ENDBRANCH   7   8
ENDBRANCH   6   7
ENDBRANCH   5   6
ENDBRANCH   4   5
ENDBRANCH   3   4
ENDBRANCH   2   3
ENDBRANCH   1   2
BRANCH   1  12
ATOM     12  C   UNL     1      61.008  27.133  28.100  1.00  0.00     0.000 C 
BRANCH  12  13
ATOM     13  C   UNL     1      61.870  28.009  29.028  1.00  0.00    -0.000 C 
BRANCH  13  14
ATOM     14  C   UNL     1      61.482  29.498  29.075  1.00  0.00    -0.000 C 
BRANCH  14  15
ATOM     15  C   UNL     1      62.661  30.436  28.763  1.00  0.00    -0.000 C 
BRANCH  15  16
ATOM     16  C   UNL     1      63.899  29.680  28.257  1.00  0.00    -0.000 C 
BRANCH  16  17
ATOM     17  C   UNL     1      64.639  30.438  27.141  1.00  0.00    -0.000 C 
BRANCH  17  18
ATOM     18  C   UNL     1      66.111  30.010  27.001  1.00  0.00    -0.000 C 
BRANCH  18  19
ATOM     19  C   UNL     1      66.438  29.219  25.722  1.00  0.00    -0.003 C 
ATOM     20  C   UNL     1      66.507  30.098  24.474  1.00  0.00     0.004 C 
ENDBRANCH  18  19
ENDBRANCH  17  18
ENDBRANCH  16  17
ENDBRANCH  15  16
ENDBRANCH  14  15
ENDBRANCH  13  14
ENDBRANCH  12  13
ENDBRANCH   1  12
TORSDOF 16
ENDMDL
