MODEL 1
REMARK VINA RESULT:    -3.105      0.000      0.000
REMARK INTER + INTRA:         -14.568
REMARK INTER:                  -8.186
REMARK INTRA:                  -6.382
REMARK UNBOUND:                -6.382
REMARK SMILES CCCCCCCCCCCCCCCCCCCCCCCCCCCCCC(=O)[O-]
REMARK SMILES IDX 16 1 17 2 18 3 19 4 20 5 21 6 22 7 23 8 24 9 25 10 26 11
REMARK SMILES IDX 27 12 28 13 29 14 30 15 31 16 32 17 15 18 14 19 13 20 12 21
REMARK SMILES IDX 11 22 10 23 9 24 8 25 7 26 6 27 5 28 4 29 3 30 2 31 1 32
REMARK H PARENT
REMARK Flexibility Score: inf
ROOT
ATOM      1  C   UNL     1     186.931 175.654 175.201  1.00  0.00     0.000 C 
ENDROOT
BRANCH   1   2
ATOM      2  C   UNL     1     186.365 176.907 175.895  1.00  0.00     0.000 C 
BRANCH   2   3
ATOM      3  C   UNL     1     187.141 177.286 177.168  1.00  0.00     0.000 C 
BRANCH   3   4
ATOM      4  C   UNL     1     188.316 178.232 176.868  1.00  0.00     0.000 C 
BRANCH   4   5
ATOM      5  C   UNL     1     189.229 178.421 178.092  1.00  0.00     0.000 C 
BRANCH   5   6
ATOM      6  C   UNL     1     190.722 178.490 177.710  1.00  0.00     0.000 C 
BRANCH   6   7
ATOM      7  C   UNL     1     191.678 178.448 178.915  1.00  0.00     0.000 C 
BRANCH   7   8
ATOM      8  C   UNL     1     190.997 178.833 180.235  1.00  0.00     0.000 C 
BRANCH   8   9
ATOM      9  C   UNL     1     191.346 177.830 181.345  1.00  0.00     0.000 C 
BRANCH   9  10
ATOM     10  C   UNL     1     190.129 177.010 181.808  1.00  0.00     0.000 C 
BRANCH  10  11
ATOM     11  C   UNL     1     188.782 177.761 181.763  1.00  0.00     0.000 C 
BRANCH  11  12
ATOM     12  C   UNL     1     187.551 176.830 181.756  1.00  0.00     0.000 C 
BRANCH  12  13
ATOM     13  C   UNL     1     186.455 177.325 180.795  1.00  0.00     0.006 C 
BRANCH  13  14
ATOM     14  C   UNL     1     185.047 177.167 181.386  1.00  0.00     0.053 C 
BRANCH  14  15
ATOM     15  C   UNL     1     184.311 175.995 180.807  1.00  0.00     0.041 C 
ATOM     16  O   UNL     1     183.650 176.117 179.741  1.00  0.00    -0.550 OA
ATOM     17  O   UNL     1     184.330 174.773 181.468  1.00  0.00    -0.550 OA
ENDBRANCH  14  15
ENDBRANCH  13  14
ENDBRANCH  12  13
ENDBRANCH  11  12
ENDBRANCH  10  11
ENDBRANCH   9  10
ENDBRANCH   8   9
ENDBRANCH   7   8
ENDBRANCH   6   7
ENDBRANCH   5   6
ENDBRANCH   4   5
ENDBRANCH   3   4
ENDBRANCH   2   3
ENDBRANCH   1   2
BRANCH   1  18
ATOM     18  C   UNL     1     186.067 174.388 175.361  1.00  0.00     0.000 C 
BRANCH  18  19
ATOM     19  C   UNL     1     186.554 173.468 176.491  1.00  0.00     0.000 C 
BRANCH  19  20
ATOM     20  C   UNL     1     185.798 173.755 177.796  1.00  0.00     0.000 C 
BRANCH  20  21
ATOM     21  C   UNL     1     186.737 174.124 178.959  1.00  0.00     0.000 C 
BRANCH  21  22
ATOM     22  C   UNL     1     188.212 173.720 178.755  1.00  0.00     0.000 C 
BRANCH  22  23
ATOM     23  C   UNL     1     189.241 174.839 179.023  1.00  0.00     0.000 C 
BRANCH  23  24
ATOM     24  C   UNL     1     190.432 174.878 178.048  1.00  0.00    -0.000 C 
BRANCH  24  25
ATOM     25  C   UNL     1     189.999 174.863 176.573  1.00  0.00    -0.000 C 
BRANCH  25  26
ATOM     26  C   UNL     1     190.986 174.101 175.673  1.00  0.00    -0.000 C 
BRANCH  26  27
ATOM     27  C   UNL     1     190.333 173.246 174.568  1.00  0.00    -0.000 C 
BRANCH  27  28
ATOM     28  C   UNL     1     189.744 174.073 173.406  1.00  0.00    -0.000 C 
BRANCH  28  29
ATOM     29  C   UNL     1     190.783 175.004 172.765  1.00  0.00    -0.000 C 
BRANCH  29  30
ATOM     30  C   UNL     1     190.107 176.203 172.091  1.00  0.00    -0.000 C 
BRANCH  30  31
ATOM     31  C   UNL     1     189.571 177.191 173.133  1.00  0.00    -0.003 C 
ATOM     32  C   UNL     1     190.655 177.573 174.137  1.00  0.00     0.004 C 
ENDBRANCH  30  31
ENDBRANCH  29  30
ENDBRANCH  28  29
ENDBRANCH  27  28
ENDBRANCH  26  27
ENDBRANCH  25  26
ENDBRANCH  24  25
ENDBRANCH  23  24
ENDBRANCH  22  23
ENDBRANCH  21  22
ENDBRANCH  20  21
ENDBRANCH  19  20
ENDBRANCH  18  19
ENDBRANCH   1  18
TORSDOF 28
ENDMDL
MODEL 2
REMARK VINA RESULT:    -3.100      1.783      3.635
REMARK INTER + INTRA:         -14.555
REMARK INTER:                  -7.505
REMARK INTRA:                  -7.050
REMARK UNBOUND:                -6.382
REMARK SMILES CCCCCCCCCCCCCCCCCCCCCCCCCCCCCC(=O)[O-]
REMARK SMILES IDX 16 1 17 2 18 3 19 4 20 5 21 6 22 7 23 8 24 9 25 10 26 11
REMARK SMILES IDX 27 12 28 13 29 14 30 15 31 16 32 17 15 18 14 19 13 20 12 21
REMARK SMILES IDX 11 22 10 23 9 24 8 25 7 26 6 27 5 28 4 29 3 30 2 31 1 32
REMARK H PARENT
REMARK Flexibility Score: inf
ROOT
ATOM      1  C   UNL     1     187.180 173.731 178.240  1.00  0.00     0.000 C 
ENDROOT
BRANCH   1   2
ATOM      2  C   UNL     1     188.344 174.585 177.704  1.00  0.00     0.000 C 
BRANCH   2   3
ATOM      3  C   UNL     1     189.405 174.887 178.776  1.00  0.00     0.000 C 
BRANCH   3   4
ATOM      4  C   UNL     1     190.551 175.754 178.226  1.00  0.00     0.000 C 
BRANCH   4   5
ATOM      5  C   UNL     1     190.692 177.079 178.996  1.00  0.00     0.000 C 
BRANCH   5   6
ATOM      6  C   UNL     1     191.311 178.200 178.135  1.00  0.00     0.000 C 
BRANCH   6   7
ATOM      7  C   UNL     1     191.431 177.847 176.643  1.00  0.00     0.000 C 
BRANCH   7   8
ATOM      8  C   UNL     1     190.422 178.599 175.765  1.00  0.00     0.000 C 
BRANCH   8   9
ATOM      9  C   UNL     1     189.009 178.018 175.930  1.00  0.00     0.000 C 
BRANCH   9  10
ATOM     10  C   UNL     1     188.047 178.989 176.636  1.00  0.00     0.000 C 
BRANCH  10  11
ATOM     11  C   UNL     1     186.926 178.315 177.453  1.00  0.00     0.000 C 
BRANCH  11  12
ATOM     12  C   UNL     1     187.308 178.032 178.921  1.00  0.00     0.000 C 
BRANCH  12  13
ATOM     13  C   UNL     1     186.217 177.238 179.662  1.00  0.00     0.006 C 
BRANCH  13  14
ATOM     14  C   UNL     1     186.798 176.341 180.766  1.00  0.00     0.053 C 
BRANCH  14  15
ATOM     15  C   UNL     1     187.607 177.114 181.765  1.00  0.00     0.041 C 
ATOM     16  O   UNL     1     188.818 176.831 181.965  1.00  0.00    -0.550 OA
ATOM     17  O   UNL     1     187.008 178.130 182.500  1.00  0.00    -0.550 OA
ENDBRANCH  14  15
ENDBRANCH  13  14
ENDBRANCH  12  13
ENDBRANCH  11  12
ENDBRANCH  10  11
ENDBRANCH   9  10
ENDBRANCH   8   9
ENDBRANCH   7   8
ENDBRANCH   6   7
ENDBRANCH   5   6
ENDBRANCH   4   5
ENDBRANCH   3   4
ENDBRANCH   2   3
ENDBRANCH   1   2
BRANCH   1  18
ATOM     18  C   UNL     1     185.946 173.682 177.319  1.00  0.00     0.000 C 
BRANCH  18  19
ATOM     19  C   UNL     1     185.535 175.066 176.792  1.00  0.00     0.000 C 
BRANCH  19  20
ATOM     20  C   UNL     1     185.467 175.072 175.259  1.00  0.00     0.000 C 
BRANCH  20  21
ATOM     21  C   UNL     1     186.758 175.601 174.608  1.00  0.00     0.000 C 
BRANCH  21  22
ATOM     22  C   UNL     1     187.130 174.932 173.268  1.00  0.00     0.000 C 
BRANCH  22  23
ATOM     23  C   UNL     1     187.392 173.413 173.345  1.00  0.00     0.000 C 
BRANCH  23  24
ATOM     24  C   UNL     1     188.312 172.966 174.495  1.00  0.00    -0.000 C 
BRANCH  24  25
ATOM     25  C   UNL     1     189.805 173.069 174.140  1.00  0.00    -0.000 C 
BRANCH  25  26
ATOM     26  C   UNL     1     190.493 174.269 174.814  1.00  0.00    -0.000 C 
BRANCH  26  27
ATOM     27  C   UNL     1     190.882 175.416 173.861  1.00  0.00    -0.000 C 
BRANCH  27  28
ATOM     28  C   UNL     1     190.896 175.011 172.371  1.00  0.00    -0.000 C 
BRANCH  28  29
ATOM     29  C   UNL     1     190.352 176.120 171.460  1.00  0.00    -0.000 C 
BRANCH  29  30
ATOM     30  C   UNL     1     189.859 177.316 172.283  1.00  0.00    -0.000 C 
BRANCH  30  31
ATOM     31  C   UNL     1     188.660 177.991 171.608  1.00  0.00    -0.003 C 
ATOM     32  C   UNL     1     187.759 178.670 172.637  1.00  0.00     0.004 C 
ENDBRANCH  30  31
ENDBRANCH  29  30
ENDBRANCH  28  29
ENDBRANCH  27  28
ENDBRANCH  26  27
ENDBRANCH  25  26
ENDBRANCH  24  25
ENDBRANCH  23  24
ENDBRANCH  22  23
ENDBRANCH  21  22
ENDBRANCH  20  21
ENDBRANCH  19  20
ENDBRANCH  18  19
ENDBRANCH   1  18
TORSDOF 28
ENDMDL
MODEL 3
REMARK VINA RESULT:    -3.095      3.044      7.557
REMARK INTER + INTRA:         -14.542
REMARK INTER:                  -8.750
REMARK INTRA:                  -5.793
REMARK UNBOUND:                -6.382
REMARK SMILES CCCCCCCCCCCCCCCCCCCCCCCCCCCCCC(=O)[O-]
REMARK SMILES IDX 16 1 17 2 18 3 19 4 20 5 21 6 22 7 23 8 24 9 25 10 26 11
REMARK SMILES IDX 27 12 28 13 29 14 30 15 31 16 32 17 15 18 14 19 13 20 12 21
REMARK SMILES IDX 11 22 10 23 9 24 8 25 7 26 6 27 5 28 4 29 3 30 2 31 1 32
REMARK H PARENT
REMARK Flexibility Score: inf
ROOT
ATOM      1  C   UNL     1     190.998 177.704 174.789  1.00  0.00     0.000 C 
ENDROOT
BRANCH   1   2
ATOM      2  C   UNL     1     191.384 176.224 174.970  1.00  0.00     0.000 C 
BRANCH   2   3
ATOM      3  C   UNL     1     191.576 175.834 176.446  1.00  0.00     0.000 C 
BRANCH   3   4
ATOM      4  C   UNL     1     190.688 174.644 176.849  1.00  0.00     0.000 C 
BRANCH   4   5
ATOM      5  C   UNL     1     189.988 174.878 178.199  1.00  0.00     0.000 C 
BRANCH   5   6
ATOM      6  C   UNL     1     188.453 174.956 178.063  1.00  0.00     0.000 C 
BRANCH   6   7
ATOM      7  C   UNL     1     187.707 173.788 178.730  1.00  0.00     0.000 C 
BRANCH   7   8
ATOM      8  C   UNL     1     186.221 173.730 178.353  1.00  0.00     0.000 C 
BRANCH   8   9
ATOM      9  C   UNL     1     186.024 173.997 176.852  1.00  0.00     0.000 C 
BRANCH   9  10
ATOM     10  C   UNL     1     186.019 172.706 176.015  1.00  0.00     0.000 C 
BRANCH  10  11
ATOM     11  C   UNL     1     186.993 172.702 174.819  1.00  0.00     0.000 C 
BRANCH  11  12
ATOM     12  C   UNL     1     187.717 174.047 174.601  1.00  0.00     0.000 C 
BRANCH  12  13
ATOM     13  C   UNL     1     188.955 173.899 173.698  1.00  0.00     0.006 C 
BRANCH  13  14
ATOM     14  C   UNL     1     188.904 174.836 172.482  1.00  0.00     0.053 C 
BRANCH  14  15
ATOM     15  C   UNL     1     190.253 175.039 171.858  1.00  0.00     0.041 C 
ATOM     16  O   UNL     1     191.147 174.157 171.963  1.00  0.00    -0.550 OA
ATOM     17  O   UNL     1     190.531 176.222 171.185  1.00  0.00    -0.550 OA
ENDBRANCH  14  15
ENDBRANCH  13  14
ENDBRANCH  12  13
ENDBRANCH  11  12
ENDBRANCH  10  11
ENDBRANCH   9  10
ENDBRANCH   8   9
ENDBRANCH   7   8
ENDBRANCH   6   7
ENDBRANCH   5   6
ENDBRANCH   4   5
ENDBRANCH   3   4
ENDBRANCH   2   3
ENDBRANCH   1   2
BRANCH   1  18
ATOM     18  C   UNL     1     189.502 177.945 174.511  1.00  0.00     0.000 C 
BRANCH  18  19
ATOM     19  C   UNL     1     188.617 177.707 175.745  1.00  0.00     0.000 C 
BRANCH  19  20
ATOM     20  C   UNL     1     188.649 178.920 176.685  1.00  0.00     0.000 C 
BRANCH  20  21
ATOM     21  C   UNL     1     189.180 178.572 178.087  1.00  0.00     0.000 C 
BRANCH  21  22
ATOM     22  C   UNL     1     190.704 178.738 178.263  1.00  0.00     0.000 C 
BRANCH  22  23
ATOM     23  C   UNL     1     191.294 178.075 179.526  1.00  0.00     0.000 C 
BRANCH  23  24
ATOM     24  C   UNL     1     190.710 178.574 180.860  1.00  0.00    -0.000 C 
BRANCH  24  25
ATOM     25  C   UNL     1     190.408 177.432 181.845  1.00  0.00    -0.000 C 
BRANCH  25  26
ATOM     26  C   UNL     1     189.411 176.408 181.277  1.00  0.00    -0.000 C 
BRANCH  26  27
ATOM     27  C   UNL     1     187.949 176.604 181.724  1.00  0.00    -0.000 C 
BRANCH  27  28
ATOM     28  C   UNL     1     187.077 177.350 180.691  1.00  0.00    -0.000 C 
BRANCH  28  29
ATOM     29  C   UNL     1     185.601 177.414 181.111  1.00  0.00    -0.000 C 
BRANCH  29  30
ATOM     30  C   UNL     1     184.769 176.368 180.359  1.00  0.00    -0.000 C 
BRANCH  30  31
ATOM     31  C   UNL     1     183.824 175.627 181.311  1.00  0.00    -0.003 C 
ATOM     32  C   UNL     1     184.080 174.123 181.280  1.00  0.00     0.004 C 
ENDBRANCH  30  31
ENDBRANCH  29  30
ENDBRANCH  28  29
ENDBRANCH  27  28
ENDBRANCH  26  27
ENDBRANCH  25  26
ENDBRANCH  24  25
ENDBRANCH  23  24
ENDBRANCH  22  23
ENDBRANCH  21  22
ENDBRANCH  20  21
ENDBRANCH  19  20
ENDBRANCH  18  19
ENDBRANCH   1  18
TORSDOF 28
ENDMDL
MODEL 4
REMARK VINA RESULT:    -3.049      2.895      6.357
REMARK INTER + INTRA:         -14.422
REMARK INTER:                  -7.730
REMARK INTRA:                  -6.692
REMARK UNBOUND:                -6.382
REMARK SMILES CCCCCCCCCCCCCCCCCCCCCCCCCCCCCC(=O)[O-]
REMARK SMILES IDX 16 1 17 2 18 3 19 4 20 5 21 6 22 7 23 8 24 9 25 10 26 11
REMARK SMILES IDX 27 12 28 13 29 14 30 15 31 16 32 17 15 18 14 19 13 20 12 21
REMARK SMILES IDX 11 22 10 23 9 24 8 25 7 26 6 27 5 28 4 29 3 30 2 31 1 32
REMARK H PARENT
REMARK Flexibility Score: inf
ROOT
ATOM      1  C   UNL     1     187.523 176.442 174.493  1.00  0.00     0.000 C 
ENDROOT
BRANCH   1   2
ATOM      2  C   UNL     1     187.180 176.567 172.997  1.00  0.00     0.000 C 
BRANCH   2   3
ATOM      3  C   UNL     1     188.427 176.727 172.110  1.00  0.00     0.000 C 
BRANCH   3   4
ATOM      4  C   UNL     1     189.000 175.369 171.670  1.00  0.00     0.000 C 
BRANCH   4   5
ATOM      5  C   UNL     1     190.522 175.290 171.885  1.00  0.00     0.000 C 
BRANCH   5   6
ATOM      6  C   UNL     1     190.909 174.311 173.013  1.00  0.00     0.000 C 
BRANCH   6   7
ATOM      7  C   UNL     1     189.711 173.589 173.652  1.00  0.00     0.000 C 
BRANCH   7   8
ATOM      8  C   UNL     1     189.815 173.489 175.180  1.00  0.00     0.000 C 
BRANCH   8   9
ATOM      9  C   UNL     1     191.105 174.151 175.687  1.00  0.00     0.000 C 
BRANCH   9  10
ATOM     10  C   UNL     1     190.890 174.956 176.981  1.00  0.00     0.000 C 
BRANCH  10  11
ATOM     11  C   UNL     1     190.514 176.437 176.772  1.00  0.00     0.000 C 
BRANCH  11  12
ATOM     12  C   UNL     1     191.560 177.238 175.967  1.00  0.00     0.000 C 
BRANCH  12  13
ATOM     13  C   UNL     1     191.017 177.689 174.599  1.00  0.00     0.006 C 
BRANCH  13  14
ATOM     14  C   UNL     1     190.966 179.218 174.468  1.00  0.00     0.053 C 
BRANCH  14  15
ATOM     15  C   UNL     1     190.110 179.667 173.321  1.00  0.00     0.041 C 
ATOM     16  O   UNL     1     190.564 179.675 172.146  1.00  0.00    -0.550 OA
ATOM     17  O   UNL     1     188.813 180.108 173.560  1.00  0.00    -0.550 OA
ENDBRANCH  14  15
ENDBRANCH  13  14
ENDBRANCH  12  13
ENDBRANCH  11  12
ENDBRANCH  10  11
ENDBRANCH   9  10
ENDBRANCH   8   9
ENDBRANCH   7   8
ENDBRANCH   6   7
ENDBRANCH   5   6
ENDBRANCH   4   5
ENDBRANCH   3   4
ENDBRANCH   2   3
ENDBRANCH   1   2
BRANCH   1  18
ATOM     18  C   UNL     1     186.791 175.300 175.224  1.00  0.00     0.000 C 
BRANCH  18  19
ATOM     19  C   UNL     1     186.960 175.360 176.750  1.00  0.00     0.000 C 
BRANCH  19  20
ATOM     20  C   UNL     1     186.968 173.950 177.357  1.00  0.00     0.000 C 
BRANCH  20  21
ATOM     21  C   UNL     1     187.804 173.861 178.646  1.00  0.00     0.000 C 
BRANCH  21  22
ATOM     22  C   UNL     1     187.798 175.137 179.513  1.00  0.00     0.000 C 
BRANCH  22  23
ATOM     23  C   UNL     1     189.172 175.554 180.076  1.00  0.00     0.000 C 
BRANCH  23  24
ATOM     24  C   UNL     1     189.364 177.069 180.277  1.00  0.00    -0.000 C 
BRANCH  24  25
ATOM     25  C   UNL     1     190.189 177.406 181.531  1.00  0.00    -0.000 C 
BRANCH  25  26
ATOM     26  C   UNL     1     191.520 178.100 181.195  1.00  0.00    -0.000 C 
BRANCH  26  27
ATOM     27  C   UNL     1     191.770 178.335 179.692  1.00  0.00    -0.000 C 
BRANCH  27  28
ATOM     28  C   UNL     1     191.959 179.821 179.317  1.00  0.00    -0.000 C 
BRANCH  28  29
ATOM     29  C   UNL     1     191.115 180.227 178.100  1.00  0.00    -0.000 C 
BRANCH  29  30
ATOM     30  C   UNL     1     189.622 180.251 178.449  1.00  0.00    -0.000 C 
BRANCH  30  31
ATOM     31  C   UNL     1     188.762 180.000 177.205  1.00  0.00    -0.003 C 
ATOM     32  C   UNL     1     187.772 178.862 177.442  1.00  0.00     0.004 C 
ENDBRANCH  30  31
ENDBRANCH  29  30
ENDBRANCH  28  29
ENDBRANCH  27  28
ENDBRANCH  26  27
ENDBRANCH  25  26
ENDBRANCH  24  25
ENDBRANCH  23  24
ENDBRANCH  22  23
ENDBRANCH  21  22
ENDBRANCH  20  21
ENDBRANCH  19  20
ENDBRANCH  18  19
ENDBRANCH   1  18
TORSDOF 28
ENDMDL
MODEL 5
REMARK VINA RESULT:    -3.043      2.163      6.510
REMARK INTER + INTRA:         -14.406
REMARK INTER:                  -7.478
REMARK INTRA:                  -6.928
REMARK UNBOUND:                -6.382
REMARK SMILES CCCCCCCCCCCCCCCCCCCCCCCCCCCCCC(=O)[O-]
REMARK SMILES IDX 16 1 17 2 18 3 19 4 20 5 21 6 22 7 23 8 24 9 25 10 26 11
REMARK SMILES IDX 27 12 28 13 29 14 30 15 31 16 32 17 15 18 14 19 13 20 12 21
REMARK SMILES IDX 11 22 10 23 9 24 8 25 7 26 6 27 5 28 4 29 3 30 2 31 1 32
REMARK H PARENT
REMARK Flexibility Score: inf
ROOT
ATOM      1  C   UNL     1     190.952 174.580 176.719  1.00  0.00     0.000 C 
ENDROOT
BRANCH   1   2
ATOM      2  C   UNL     1     189.527 174.909 177.205  1.00  0.00     0.000 C 
BRANCH   2   3
ATOM      3  C   UNL     1     189.362 174.740 178.725  1.00  0.00     0.000 C 
BRANCH   3   4
ATOM      4  C   UNL     1     188.109 173.921 179.081  1.00  0.00     0.000 C 
BRANCH   4   5
ATOM      5  C   UNL     1     187.227 173.654 177.850  1.00  0.00     0.000 C 
BRANCH   5   6
ATOM      6  C   UNL     1     185.791 174.192 178.023  1.00  0.00     0.000 C 
BRANCH   6   7
ATOM      7  C   UNL     1     185.620 175.137 179.225  1.00  0.00     0.000 C 
BRANCH   7   8
ATOM      8  C   UNL     1     185.355 176.591 178.813  1.00  0.00     0.000 C 
BRANCH   8   9
ATOM      9  C   UNL     1     186.656 177.286 178.384  1.00  0.00     0.000 C 
BRANCH   9  10
ATOM     10  C   UNL     1     186.519 178.030 177.045  1.00  0.00     0.000 C 
BRANCH  10  11
ATOM     11  C   UNL     1     185.954 177.185 175.886  1.00  0.00     0.000 C 
BRANCH  11  12
ATOM     12  C   UNL     1     187.011 176.308 175.180  1.00  0.00     0.000 C 
BRANCH  12  13
ATOM     13  C   UNL     1     186.479 175.699 173.870  1.00  0.00     0.006 C 
BRANCH  13  14
ATOM     14  C   UNL     1     185.474 174.565 174.121  1.00  0.00     0.053 C 
BRANCH  14  15
ATOM     15  C   UNL     1     186.054 173.212 173.833  1.00  0.00     0.041 C 
ATOM     16  O   UNL     1     186.309 172.411 174.771  1.00  0.00    -0.550 OA
ATOM     17  O   UNL     1     186.343 172.850 172.522  1.00  0.00    -0.550 OA
ENDBRANCH  14  15
ENDBRANCH  13  14
ENDBRANCH  12  13
ENDBRANCH  11  12
ENDBRANCH  10  11
ENDBRANCH   9  10
ENDBRANCH   8   9
ENDBRANCH   7   8
ENDBRANCH   6   7
ENDBRANCH   5   6
ENDBRANCH   4   5
ENDBRANCH   3   4
ENDBRANCH   2   3
ENDBRANCH   1   2
BRANCH   1  18
ATOM     18  C   UNL     1     191.010 173.807 175.387  1.00  0.00     0.000 C 
BRANCH  18  19
ATOM     19  C   UNL     1     189.637 173.670 174.712  1.00  0.00     0.000 C 
BRANCH  19  20
ATOM     20  C   UNL     1     189.702 174.105 173.242  1.00  0.00     0.000 C 
BRANCH  20  21
ATOM     21  C   UNL     1     190.723 175.231 172.999  1.00  0.00     0.000 C 
BRANCH  21  22
ATOM     22  C   UNL     1     190.170 176.660 173.180  1.00  0.00     0.000 C 
BRANCH  22  23
ATOM     23  C   UNL     1     190.789 177.460 174.346  1.00  0.00     0.000 C 
BRANCH  23  24
ATOM     24  C   UNL     1     189.909 178.594 174.900  1.00  0.00    -0.000 C 
BRANCH  24  25
ATOM     25  C   UNL     1     189.973 178.707 176.433  1.00  0.00    -0.000 C 
BRANCH  25  26
ATOM     26  C   UNL     1     191.329 178.258 177.004  1.00  0.00    -0.000 C 
BRANCH  26  27
ATOM     27  C   UNL     1     191.330 177.952 178.514  1.00  0.00    -0.000 C 
BRANCH  27  28
ATOM     28  C   UNL     1     190.193 178.648 179.293  1.00  0.00    -0.000 C 
BRANCH  28  29
ATOM     29  C   UNL     1     190.612 179.035 180.718  1.00  0.00    -0.000 C 
BRANCH  29  30
ATOM     30  C   UNL     1     189.616 178.495 181.751  1.00  0.00    -0.000 C 
BRANCH  30  31
ATOM     31  C   UNL     1     189.441 176.979 181.606  1.00  0.00    -0.003 C 
ATOM     32  C   UNL     1     187.974 176.579 181.746  1.00  0.00     0.004 C 
ENDBRANCH  30  31
ENDBRANCH  29  30
ENDBRANCH  28  29
ENDBRANCH  27  28
ENDBRANCH  26  27
ENDBRANCH  25  26
ENDBRANCH  24  25
ENDBRANCH  23  24
ENDBRANCH  22  23
ENDBRANCH  21  22
ENDBRANCH  20  21
ENDBRANCH  19  20
ENDBRANCH  18  19
ENDBRANCH   1  18
TORSDOF 28
ENDMDL
MODEL 6
REMARK VINA RESULT:    -2.999      2.794      6.935
REMARK INTER + INTRA:         -14.291
REMARK INTER:                  -8.189
REMARK INTRA:                  -6.102
REMARK UNBOUND:                -6.382
REMARK SMILES CCCCCCCCCCCCCCCCCCCCCCCCCCCCCC(=O)[O-]
REMARK SMILES IDX 16 1 17 2 18 3 19 4 20 5 21 6 22 7 23 8 24 9 25 10 26 11
REMARK SMILES IDX 27 12 28 13 29 14 30 15 31 16 32 17 15 18 14 19 13 20 12 21
REMARK SMILES IDX 11 22 10 23 9 24 8 25 7 26 6 27 5 28 4 29 3 30 2 31 1 32
REMARK H PARENT
REMARK Flexibility Score: inf
ROOT
ATOM      1  C   UNL     1     185.167 178.268 179.854  1.00  0.00     0.000 C 
ENDROOT
BRANCH   1   2
ATOM      2  C   UNL     1     185.758 177.745 181.177  1.00  0.00     0.000 C 
BRANCH   2   3
ATOM      3  C   UNL     1     186.677 178.769 181.866  1.00  0.00     0.000 C 
BRANCH   3   4
ATOM      4  C   UNL     1     188.051 178.170 182.212  1.00  0.00     0.000 C 
BRANCH   4   5
ATOM      5  C   UNL     1     188.164 176.698 181.775  1.00  0.00     0.000 C 
BRANCH   5   6
ATOM      6  C   UNL     1     189.470 176.408 181.007  1.00  0.00     0.000 C 
BRANCH   6   7
ATOM      7  C   UNL     1     190.047 177.630 180.271  1.00  0.00     0.000 C 
BRANCH   7   8
ATOM      8  C   UNL     1     190.729 177.267 178.946  1.00  0.00     0.000 C 
BRANCH   8   9
ATOM      9  C   UNL     1     190.311 175.864 178.480  1.00  0.00     0.000 C 
BRANCH   9  10
ATOM     10  C   UNL     1     190.900 175.494 177.107  1.00  0.00     0.000 C 
BRANCH  10  11
ATOM     11  C   UNL     1     191.363 176.692 176.253  1.00  0.00     0.000 C 
BRANCH  11  12
ATOM     12  C   UNL     1     191.315 176.429 174.733  1.00  0.00     0.000 C 
BRANCH  12  13
ATOM     13  C   UNL     1     189.998 175.758 174.302  1.00  0.00     0.006 C 
BRANCH  13  14
ATOM     14  C   UNL     1     190.235 174.506 173.446  1.00  0.00     0.053 C 
BRANCH  14  15
ATOM     15  C   UNL     1     190.004 173.237 174.212  1.00  0.00     0.041 C 
ATOM     16  O   UNL     1     190.948 172.686 174.840  1.00  0.00    -0.550 OA
ATOM     17  O   UNL     1     188.747 172.645 174.204  1.00  0.00    -0.550 OA
ENDBRANCH  14  15
ENDBRANCH  13  14
ENDBRANCH  12  13
ENDBRANCH  11  12
ENDBRANCH  10  11
ENDBRANCH   9  10
ENDBRANCH   8   9
ENDBRANCH   7   8
ENDBRANCH   6   7
ENDBRANCH   5   6
ENDBRANCH   4   5
ENDBRANCH   3   4
ENDBRANCH   2   3
ENDBRANCH   1   2
BRANCH   1  18
ATOM     18  C   UNL     1     185.612 177.487 178.603  1.00  0.00     0.000 C 
BRANCH  18  19
ATOM     19  C   UNL     1     187.075 177.755 178.218  1.00  0.00     0.000 C 
BRANCH  19  20
ATOM     20  C   UNL     1     187.376 177.229 176.807  1.00  0.00     0.000 C 
BRANCH  20  21
ATOM     21  C   UNL     1     186.557 175.975 176.452  1.00  0.00     0.000 C 
BRANCH  21  22
ATOM     22  C   UNL     1     187.310 174.639 176.619  1.00  0.00     0.000 C 
BRANCH  22  23
ATOM     23  C   UNL     1     186.791 173.731 177.755  1.00  0.00     0.000 C 
BRANCH  23  24
ATOM     24  C   UNL     1     187.279 174.107 179.166  1.00  0.00    -0.000 C 
BRANCH  24  25
ATOM     25  C   UNL     1     186.128 174.256 180.176  1.00  0.00    -0.000 C 
BRANCH  25  26
ATOM     26  C   UNL     1     184.777 173.790 179.608  1.00  0.00    -0.000 C 
BRANCH  26  27
ATOM     27  C   UNL     1     183.846 173.100 180.625  1.00  0.00    -0.000 C 
BRANCH  27  28
ATOM     28  C   UNL     1     183.101 174.082 181.554  1.00  0.00    -0.000 C 
BRANCH  28  29
ATOM     29  C   UNL     1     181.958 174.813 180.836  1.00  0.00    -0.000 C 
BRANCH  29  30
ATOM     30  C   UNL     1     182.238 176.319 180.746  1.00  0.00    -0.000 C 
BRANCH  30  31
ATOM     31  C   UNL     1     181.701 176.901 179.434  1.00  0.00    -0.003 C 
ATOM     32  C   UNL     1     182.199 176.102 178.233  1.00  0.00     0.004 C 
ENDBRANCH  30  31
ENDBRANCH  29  30
ENDBRANCH  28  29
ENDBRANCH  27  28
ENDBRANCH  26  27
ENDBRANCH  25  26
ENDBRANCH  24  25
ENDBRANCH  23  24
ENDBRANCH  22  23
ENDBRANCH  21  22
ENDBRANCH  20  21
ENDBRANCH  19  20
ENDBRANCH  18  19
ENDBRANCH   1  18
TORSDOF 28
ENDMDL
MODEL 7
REMARK VINA RESULT:    -2.992      1.472      5.806
REMARK INTER + INTRA:         -14.272
REMARK INTER:                  -7.784
REMARK INTRA:                  -6.487
REMARK UNBOUND:                -6.382
REMARK SMILES CCCCCCCCCCCCCCCCCCCCCCCCCCCCCC(=O)[O-]
REMARK SMILES IDX 16 1 17 2 18 3 19 4 20 5 21 6 22 7 23 8 24 9 25 10 26 11
REMARK SMILES IDX 27 12 28 13 29 14 30 15 31 16 32 17 15 18 14 19 13 20 12 21
REMARK SMILES IDX 11 22 10 23 9 24 8 25 7 26 6 27 5 28 4 29 3 30 2 31 1 32
REMARK H PARENT
REMARK Flexibility Score: inf
ROOT
ATOM      1  C   UNL     1     188.181 177.685 175.204  1.00  0.00     0.000 C 
ENDROOT
BRANCH   1   2
ATOM      2  C   UNL     1     187.331 176.408 175.347  1.00  0.00     0.000 C 
BRANCH   2   3
ATOM      3  C   UNL     1     187.591 175.389 174.223  1.00  0.00     0.000 C 
BRANCH   3   4
ATOM      4  C   UNL     1     187.644 173.946 174.754  1.00  0.00     0.000 C 
BRANCH   4   5
ATOM      5  C   UNL     1     189.053 173.339 174.630  1.00  0.00     0.000 C 
BRANCH   5   6
ATOM      6  C   UNL     1     190.081 174.343 174.069  1.00  0.00     0.000 C 
BRANCH   6   7
ATOM      7  C   UNL     1     191.054 174.896 175.125  1.00  0.00     0.000 C 
BRANCH   7   8
ATOM      8  C   UNL     1     190.679 174.492 176.557  1.00  0.00     0.000 C 
BRANCH   8   9
ATOM      9  C   UNL     1     190.410 175.730 177.425  1.00  0.00     0.000 C 
BRANCH   9  10
ATOM     10  C   UNL     1     189.175 175.566 178.328  1.00  0.00     0.000 C 
BRANCH  10  11
ATOM     11  C   UNL     1     188.815 174.108 178.679  1.00  0.00     0.000 C 
BRANCH  11  12
ATOM     12  C   UNL     1     187.339 173.749 178.408  1.00  0.00     0.000 C 
BRANCH  12  13
ATOM     13  C   UNL     1     186.370 174.787 179.002  1.00  0.00     0.006 C 
BRANCH  13  14
ATOM     14  C   UNL     1     186.032 174.494 180.471  1.00  0.00     0.053 C 
BRANCH  14  15
ATOM     15  C   UNL     1     184.643 173.954 180.642  1.00  0.00     0.041 C 
ATOM     16  O   UNL     1     184.162 173.144 179.805  1.00  0.00    -0.550 OA
ATOM     17  O   UNL     1     183.866 174.374 181.715  1.00  0.00    -0.550 OA
ENDBRANCH  14  15
ENDBRANCH  13  14
ENDBRANCH  12  13
ENDBRANCH  11  12
ENDBRANCH  10  11
ENDBRANCH   9  10
ENDBRANCH   8   9
ENDBRANCH   7   8
ENDBRANCH   6   7
ENDBRANCH   5   6
ENDBRANCH   4   5
ENDBRANCH   3   4
ENDBRANCH   2   3
ENDBRANCH   1   2
BRANCH   1  18
ATOM     18  C   UNL     1     188.907 177.822 173.852  1.00  0.00     0.000 C 
BRANCH  18  19
ATOM     19  C   UNL     1     190.039 178.860 173.882  1.00  0.00     0.000 C 
BRANCH  19  20
ATOM     20  C   UNL     1     191.080 178.507 174.953  1.00  0.00     0.000 C 
BRANCH  20  21
ATOM     21  C   UNL     1     191.430 179.700 175.859  1.00  0.00     0.000 C 
BRANCH  21  22
ATOM     22  C   UNL     1     190.644 179.760 177.186  1.00  0.00     0.000 C 
BRANCH  22  23
ATOM     23  C   UNL     1     191.260 178.955 178.349  1.00  0.00     0.000 C 
BRANCH  23  24
ATOM     24  C   UNL     1     191.840 179.804 179.495  1.00  0.00    -0.000 C 
BRANCH  24  25
ATOM     25  C   UNL     1     191.712 179.122 180.868  1.00  0.00    -0.000 C 
BRANCH  25  26
ATOM     26  C   UNL     1     191.097 177.716 180.776  1.00  0.00    -0.000 C 
BRANCH  26  27
ATOM     27  C   UNL     1     190.323 177.261 182.030  1.00  0.00    -0.000 C 
BRANCH  27  28
ATOM     28  C   UNL     1     188.908 176.722 181.726  1.00  0.00    -0.000 C 
BRANCH  28  29
ATOM     29  C   UNL     1     187.853 177.838 181.693  1.00  0.00    -0.000 C 
BRANCH  29  30
ATOM     30  C   UNL     1     187.317 178.047 180.272  1.00  0.00    -0.000 C 
BRANCH  30  31
ATOM     31  C   UNL     1     187.869 179.339 179.660  1.00  0.00    -0.003 C 
ATOM     32  C   UNL     1     188.190 180.367 180.742  1.00  0.00     0.004 C 
ENDBRANCH  30  31
ENDBRANCH  29  30
ENDBRANCH  28  29
ENDBRANCH  27  28
ENDBRANCH  26  27
ENDBRANCH  25  26
ENDBRANCH  24  25
ENDBRANCH  23  24
ENDBRANCH  22  23
ENDBRANCH  21  22
ENDBRANCH  20  21
ENDBRANCH  19  20
ENDBRANCH  18  19
ENDBRANCH   1  18
TORSDOF 28
ENDMDL
MODEL 8
REMARK VINA RESULT:    -2.972      1.791      4.603
REMARK INTER + INTRA:         -14.218
REMARK INTER:                  -8.131
REMARK INTRA:                  -6.087
REMARK UNBOUND:                -6.382
REMARK SMILES CCCCCCCCCCCCCCCCCCCCCCCCCCCCCC(=O)[O-]
REMARK SMILES IDX 16 1 17 2 18 3 19 4 20 5 21 6 22 7 23 8 24 9 25 10 26 11
REMARK SMILES IDX 27 12 28 13 29 14 30 15 31 16 32 17 15 18 14 19 13 20 12 21
REMARK SMILES IDX 11 22 10 23 9 24 8 25 7 26 6 27 5 28 4 29 3 30 2 31 1 32
REMARK H PARENT
REMARK Flexibility Score: inf
ROOT
ATOM      1  C   UNL     1     186.944 175.499 174.805  1.00  0.00     0.000 C 
ENDROOT
BRANCH   1   2
ATOM      2  C   UNL     1     186.606 174.001 174.923  1.00  0.00     0.000 C 
BRANCH   2   3
ATOM      3  C   UNL     1     186.955 173.418 176.304  1.00  0.00     0.000 C 
BRANCH   3   4
ATOM      4  C   UNL     1     185.861 173.709 177.346  1.00  0.00     0.000 C 
BRANCH   4   5
ATOM      5  C   UNL     1     186.453 174.010 178.734  1.00  0.00     0.000 C 
BRANCH   5   6
ATOM      6  C   UNL     1     187.969 173.728 178.803  1.00  0.00     0.000 C 
BRANCH   6   7
ATOM      7  C   UNL     1     188.809 174.937 179.246  1.00  0.00     0.000 C 
BRANCH   7   8
ATOM      8  C   UNL     1     188.165 176.282 178.884  1.00  0.00     0.000 C 
BRANCH   8   9
ATOM      9  C   UNL     1     189.231 177.309 178.471  1.00  0.00     0.000 C 
BRANCH   9  10
ATOM     10  C   UNL     1     190.605 177.024 179.102  1.00  0.00     0.000 C 
BRANCH  10  11
ATOM     11  C   UNL     1     191.110 178.106 180.078  1.00  0.00     0.000 C 
BRANCH  11  12
ATOM     12  C   UNL     1     190.093 179.238 180.334  1.00  0.00     0.000 C 
BRANCH  12  13
ATOM     13  C   UNL     1     189.585 179.244 181.787  1.00  0.00     0.006 C 
BRANCH  13  14
ATOM     14  C   UNL     1     188.905 177.922 182.171  1.00  0.00     0.053 C 
BRANCH  14  15
ATOM     15  C   UNL     1     187.457 178.102 182.517  1.00  0.00     0.041 C 
ATOM     16  O   UNL     1     186.558 177.825 181.678  1.00  0.00    -0.550 OA
ATOM     17  O   UNL     1     187.103 178.609 183.762  1.00  0.00    -0.550 OA
ENDBRANCH  14  15
ENDBRANCH  13  14
ENDBRANCH  12  13
ENDBRANCH  11  12
ENDBRANCH  10  11
ENDBRANCH   9  10
ENDBRANCH   8   9
ENDBRANCH   7   8
ENDBRANCH   6   7
ENDBRANCH   5   6
ENDBRANCH   4   5
ENDBRANCH   3   4
ENDBRANCH   2   3
ENDBRANCH   1   2
BRANCH   1  18
ATOM     18  C   UNL     1     187.610 175.902 173.475  1.00  0.00     0.000 C 
BRANCH  18  19
ATOM     19  C   UNL     1     188.136 174.697 172.679  1.00  0.00     0.000 C 
BRANCH  19  20
ATOM     20  C   UNL     1     189.541 174.974 172.128  1.00  0.00     0.000 C 
BRANCH  20  21
ATOM     21  C   UNL     1     190.618 174.080 172.767  1.00  0.00     0.000 C 
BRANCH  21  22
ATOM     22  C   UNL     1     190.164 173.318 174.029  1.00  0.00     0.000 C 
BRANCH  22  23
ATOM     23  C   UNL     1     190.852 173.752 175.340  1.00  0.00     0.000 C 
BRANCH  23  24
ATOM     24  C   UNL     1     190.393 175.111 175.900  1.00  0.00    -0.000 C 
BRANCH  24  25
ATOM     25  C   UNL     1     191.348 176.261 175.536  1.00  0.00    -0.000 C 
BRANCH  25  26
ATOM     26  C   UNL     1     190.692 177.311 174.625  1.00  0.00    -0.000 C 
BRANCH  26  27
ATOM     27  C   UNL     1     191.052 178.774 174.953  1.00  0.00    -0.000 C 
BRANCH  27  28
ATOM     28  C   UNL     1     191.708 178.959 176.339  1.00  0.00    -0.000 C 
BRANCH  28  29
ATOM     29  C   UNL     1     191.449 180.353 176.926  1.00  0.00    -0.000 C 
BRANCH  29  30
ATOM     30  C   UNL     1     190.219 181.003 176.279  1.00  0.00    -0.000 C 
BRANCH  30  31
ATOM     31  C   UNL     1     188.982 180.848 177.171  1.00  0.00    -0.003 C 
ATOM     32  C   UNL     1     187.901 180.026 176.474  1.00  0.00     0.004 C 
ENDBRANCH  30  31
ENDBRANCH  29  30
ENDBRANCH  28  29
ENDBRANCH  27  28
ENDBRANCH  26  27
ENDBRANCH  25  26
ENDBRANCH  24  25
ENDBRANCH  23  24
ENDBRANCH  22  23
ENDBRANCH  21  22
ENDBRANCH  20  21
ENDBRANCH  19  20
ENDBRANCH  18  19
ENDBRANCH   1  18
TORSDOF 28
ENDMDL
MODEL 9
REMARK VINA RESULT:    -2.933      2.656      5.051
REMARK INTER + INTRA:         -14.116
REMARK INTER:                  -7.727
REMARK INTRA:                  -6.389
REMARK UNBOUND:                -6.382
REMARK SMILES CCCCCCCCCCCCCCCCCCCCCCCCCCCCCC(=O)[O-]
REMARK SMILES IDX 16 1 17 2 18 3 19 4 20 5 21 6 22 7 23 8 24 9 25 10 26 11
REMARK SMILES IDX 27 12 28 13 29 14 30 15 31 16 32 17 15 18 14 19 13 20 12 21
REMARK SMILES IDX 11 22 10 23 9 24 8 25 7 26 6 27 5 28 4 29 3 30 2 31 1 32
REMARK H PARENT
REMARK Flexibility Score: inf
ROOT
ATOM      1  C   UNL     1     188.823 178.059 177.280  1.00  0.00     0.000 C 
ENDROOT
BRANCH   1   2
ATOM      2  C   UNL     1     187.634 177.579 176.426  1.00  0.00     0.000 C 
BRANCH   2   3
ATOM      3  C   UNL     1     188.075 176.883 175.127  1.00  0.00     0.000 C 
BRANCH   3   4
ATOM      4  C   UNL     1     187.469 175.475 174.993  1.00  0.00     0.000 C 
BRANCH   4   5
ATOM      5  C   UNL     1     186.723 175.046 176.268  1.00  0.00     0.000 C 
BRANCH   5   6
ATOM      6  C   UNL     1     187.280 173.738 176.866  1.00  0.00     0.000 C 
BRANCH   6   7
ATOM      7  C   UNL     1     187.341 173.730 178.403  1.00  0.00     0.000 C 
BRANCH   7   8
ATOM      8  C   UNL     1     186.860 175.046 179.030  1.00  0.00     0.000 C 
BRANCH   8   9
ATOM      9  C   UNL     1     187.913 175.610 179.997  1.00  0.00     0.000 C 
BRANCH   9  10
ATOM     10  C   UNL     1     187.526 176.990 180.556  1.00  0.00     0.000 C 
BRANCH  10  11
ATOM     11  C   UNL     1     188.651 177.723 181.316  1.00  0.00     0.000 C 
BRANCH  11  12
ATOM     12  C   UNL     1     189.956 176.908 181.434  1.00  0.00     0.000 C 
BRANCH  12  13
ATOM     13  C   UNL     1     191.168 177.799 181.765  1.00  0.00     0.006 C 
BRANCH  13  14
ATOM     14  C   UNL     1     191.868 178.321 180.502  1.00  0.00     0.053 C 
BRANCH  14  15
ATOM     15  C   UNL     1     191.634 179.787 180.282  1.00  0.00     0.041 C 
ATOM     16  O   UNL     1     191.621 180.587 181.255  1.00  0.00    -0.550 OA
ATOM     17  O   UNL     1     191.399 180.263 178.997  1.00  0.00    -0.550 OA
ENDBRANCH  14  15
ENDBRANCH  13  14
ENDBRANCH  12  13
ENDBRANCH  11  12
ENDBRANCH  10  11
ENDBRANCH   9  10
ENDBRANCH   8   9
ENDBRANCH   7   8
ENDBRANCH   6   7
ENDBRANCH   5   6
ENDBRANCH   4   5
ENDBRANCH   3   4
ENDBRANCH   2   3
ENDBRANCH   1   2
BRANCH   1  18
ATOM     18  C   UNL     1     190.140 178.238 176.499  1.00  0.00     0.000 C 
BRANCH  18  19
ATOM     19  C   UNL     1     191.229 177.241 176.925  1.00  0.00     0.000 C 
BRANCH  19  20
ATOM     20  C   UNL     1     190.653 176.161 177.852  1.00  0.00     0.000 C 
BRANCH  20  21
ATOM     21  C   UNL     1     190.760 174.746 177.256  1.00  0.00     0.000 C 
BRANCH  21  22
ATOM     22  C   UNL     1     191.027 174.701 175.737  1.00  0.00     0.000 C 
BRANCH  22  23
ATOM     23  C   UNL     1     190.621 173.385 175.039  1.00  0.00     0.000 C 
BRANCH  23  24
ATOM     24  C   UNL     1     190.253 173.522 173.550  1.00  0.00    -0.000 C 
BRANCH  24  25
ATOM     25  C   UNL     1     190.751 174.838 172.930  1.00  0.00    -0.000 C 
BRANCH  25  26
ATOM     26  C   UNL     1     189.898 175.288 171.732  1.00  0.00    -0.000 C 
BRANCH  26  27
ATOM     27  C   UNL     1     190.217 176.699 171.199  1.00  0.00    -0.000 C 
BRANCH  27  28
ATOM     28  C   UNL     1     189.392 177.819 171.869  1.00  0.00    -0.000 C 
BRANCH  28  29
ATOM     29  C   UNL     1     190.247 178.704 172.788  1.00  0.00    -0.000 C 
BRANCH  29  30
ATOM     30  C   UNL     1     189.690 180.131 172.852  1.00  0.00    -0.000 C 
BRANCH  30  31
ATOM     31  C   UNL     1     188.274 180.143 173.438  1.00  0.00    -0.003 C 
ATOM     32  C   UNL     1     188.230 180.915 174.754  1.00  0.00     0.004 C 
ENDBRANCH  30  31
ENDBRANCH  29  30
ENDBRANCH  28  29
ENDBRANCH  27  28
ENDBRANCH  26  27
ENDBRANCH  25  26
ENDBRANCH  24  25
ENDBRANCH  23  24
ENDBRANCH  22  23
ENDBRANCH  21  22
ENDBRANCH  20  21
ENDBRANCH  19  20
ENDBRANCH  18  19
ENDBRANCH   1  18
TORSDOF 28
ENDMDL
