MODEL 1
REMARK VINA RESULT:    -4.603      0.000      0.000
REMARK INTER + INTRA:          -7.790
REMARK INTER:                  -7.294
REMARK INTRA:                  -0.496
REMARK UNBOUND:                -0.496
REMARK SMILES CCCCCCCCCCCC(=O)[O-]
REMARK SMILES IDX 7 1 8 2 9 3 10 4 11 5 12 6 13 7 14 8 6 9 5 10 4 11 3 12 2 13
REMARK SMILES IDX 1 14
REMARK H PARENT
REMARK Flexibility Score: inf
ROOT
ATOM      1  C   UNL     1      18.806  69.223  36.222  1.00  0.00     0.000 C 
ENDROOT
BRANCH   1   2
ATOM      2  C   UNL     1      19.593  68.985  37.523  1.00  0.00     0.000 C 
BRANCH   2   3
ATOM      3  C   UNL     1      18.851  69.362  38.821  1.00  0.00     0.000 C 
BRANCH   3   4
ATOM      4  C   UNL     1      18.824  68.264  39.903  1.00  0.00     0.006 C 
BRANCH   4   5
ATOM      5  C   UNL     1      19.943  68.380  40.951  1.00  0.00     0.053 C 
BRANCH   5   6
ATOM      6  C   UNL     1      20.931  67.259  40.841  1.00  0.00     0.041 C 
ATOM      7  O   UNL     1      21.851  67.141  41.692  1.00  0.00    -0.550 OA
ATOM      8  O   UNL     1      20.813  66.325  39.819  1.00  0.00    -0.550 OA
ENDBRANCH   5   6
ENDBRANCH   4   5
ENDBRANCH   3   4
ENDBRANCH   2   3
ENDBRANCH   1   2
BRANCH   1   9
ATOM      9  C   UNL     1      17.538  68.356  36.123  1.00  0.00     0.000 C 
BRANCH   9  10
ATOM     10  C   UNL     1      16.708  68.654  34.863  1.00  0.00    -0.000 C 
BRANCH  10  11
ATOM     11  C   UNL     1      17.431  69.478  33.779  1.00  0.00    -0.000 C 
BRANCH  11  12
ATOM     12  C   UNL     1      16.634  69.694  32.477  1.00  0.00    -0.000 C 
BRANCH  12  13
ATOM     13  C   UNL     1      15.282  68.962  32.419  1.00  0.00    -0.003 C 
ATOM     14  C   UNL     1      14.523  69.217  31.116  1.00  0.00     0.004 C 
ENDBRANCH  12  13
ENDBRANCH  11  12
ENDBRANCH  10  11
ENDBRANCH   9  10
ENDBRANCH   1   9
TORSDOF 10
ENDMDL
MODEL 2
REMARK VINA RESULT:    -4.592      2.034      2.536
REMARK INTER + INTRA:          -7.771
REMARK INTER:                  -7.097
REMARK INTRA:                  -0.674
REMARK UNBOUND:                -0.496
REMARK SMILES CCCCCCCCCCCC(=O)[O-]
REMARK SMILES IDX 7 1 8 2 9 3 10 4 11 5 12 6 13 7 14 8 6 9 5 10 4 11 3 12 2 13
REMARK SMILES IDX 1 14
REMARK H PARENT
REMARK Flexibility Score: inf
ROOT
ATOM      1  C   UNL     1      17.131  66.520  36.724  1.00  0.00     0.000 C 
ENDROOT
BRANCH   1   2
ATOM      2  C   UNL     1      18.434  65.770  37.051  1.00  0.00     0.000 C 
BRANCH   2   3
ATOM      3  C   UNL     1      19.596  66.654  37.550  1.00  0.00     0.000 C 
BRANCH   3   4
ATOM      4  C   UNL     1      19.900  66.548  39.057  1.00  0.00     0.006 C 
BRANCH   4   5
ATOM      5  C   UNL     1      19.869  67.890  39.806  1.00  0.00     0.053 C 
BRANCH   5   6
ATOM      6  C   UNL     1      18.730  68.754  39.359  1.00  0.00     0.041 C 
ATOM      7  O   UNL     1      17.552  68.477  39.706  1.00  0.00    -0.550 OA
ATOM      8  O   UNL     1      18.973  69.885  38.590  1.00  0.00    -0.550 OA
ENDBRANCH   5   6
ENDBRANCH   4   5
ENDBRANCH   3   4
ENDBRANCH   2   3
ENDBRANCH   1   2
BRANCH   1   9
ATOM      9  C   UNL     1      17.378  67.910  36.112  1.00  0.00     0.000 C 
BRANCH   9  10
ATOM     10  C   UNL     1      16.656  68.107  34.767  1.00  0.00    -0.000 C 
BRANCH  10  11
ATOM     11  C   UNL     1      17.376  69.030  33.764  1.00  0.00    -0.000 C 
BRANCH  11  12
ATOM     12  C   UNL     1      16.476  69.642  32.672  1.00  0.00    -0.000 C 
BRANCH  12  13
ATOM     13  C   UNL     1      15.177  68.865  32.396  1.00  0.00    -0.003 C 
ATOM     14  C   UNL     1      14.552  69.213  31.045  1.00  0.00     0.004 C 
ENDBRANCH  12  13
ENDBRANCH  11  12
ENDBRANCH  10  11
ENDBRANCH   9  10
ENDBRANCH   1   9
TORSDOF 10
ENDMDL
MODEL 3
REMARK VINA RESULT:    -4.511      5.404      7.509
REMARK INTER + INTRA:          -7.644
REMARK INTER:                  -6.703
REMARK INTRA:                  -0.941
REMARK UNBOUND:                -0.496
REMARK SMILES CCCCCCCCCCCC(=O)[O-]
REMARK SMILES IDX 7 1 8 2 9 3 10 4 11 5 12 6 13 7 14 8 6 9 5 10 4 11 3 12 2 13
REMARK SMILES IDX 1 14
REMARK H PARENT
REMARK Flexibility Score: inf
ROOT
ATOM      1  C   UNL     1      15.685  66.566  34.904  1.00  0.00     0.000 C 
ENDROOT
BRANCH   1   2
ATOM      2  C   UNL     1      15.957  65.930  33.530  1.00  0.00     0.000 C 
BRANCH   2   3
ATOM      3  C   UNL     1      14.702  65.509  32.739  1.00  0.00     0.000 C 
BRANCH   3   4
ATOM      4  C   UNL     1      14.850  64.213  31.916  1.00  0.00     0.006 C 
BRANCH   4   5
ATOM      5  C   UNL     1      13.568  63.370  31.825  1.00  0.00     0.053 C 
BRANCH   5   6
ATOM      6  C   UNL     1      13.071  62.960  33.177  1.00  0.00     0.041 C 
ATOM      7  O   UNL     1      13.731  62.145  33.874  1.00  0.00    -0.550 OA
ATOM      8  O   UNL     1      11.897  63.504  33.683  1.00  0.00    -0.550 OA
ENDBRANCH   5   6
ENDBRANCH   4   5
ENDBRANCH   3   4
ENDBRANCH   2   3
ENDBRANCH   1   2
BRANCH   1   9
ATOM      9  C   UNL     1      16.860  67.422  35.410  1.00  0.00     0.000 C 
BRANCH   9  10
ATOM     10  C   UNL     1      16.806  68.871  34.896  1.00  0.00    -0.000 C 
BRANCH  10  11
ATOM     11  C   UNL     1      17.541  69.124  33.564  1.00  0.00    -0.000 C 
BRANCH  11  12
ATOM     12  C   UNL     1      16.674  69.722  32.438  1.00  0.00    -0.000 C 
BRANCH  12  13
ATOM     13  C   UNL     1      15.194  69.302  32.471  1.00  0.00    -0.003 C 
ATOM     14  C   UNL     1      14.621  69.036  31.078  1.00  0.00     0.004 C 
ENDBRANCH  12  13
ENDBRANCH  11  12
ENDBRANCH  10  11
ENDBRANCH   9  10
ENDBRANCH   1   9
TORSDOF 10
ENDMDL
MODEL 4
REMARK VINA RESULT:    -4.509      4.154      6.225
REMARK INTER + INTRA:          -7.641
REMARK INTER:                  -7.198
REMARK INTRA:                  -0.443
REMARK UNBOUND:                -0.496
REMARK SMILES CCCCCCCCCCCC(=O)[O-]
REMARK SMILES IDX 7 1 8 2 9 3 10 4 11 5 12 6 13 7 14 8 6 9 5 10 4 11 3 12 2 13
REMARK SMILES IDX 1 14
REMARK H PARENT
REMARK Flexibility Score: inf
ROOT
ATOM      1  C   UNL     1      15.274  67.392  33.216  1.00  0.00     0.000 C 
ENDROOT
BRANCH   1   2
ATOM      2  C   UNL     1      15.296  68.683  32.378  1.00  0.00     0.000 C 
BRANCH   2   3
ATOM      3  C   UNL     1      16.295  69.758  32.849  1.00  0.00     0.000 C 
BRANCH   3   4
ATOM      4  C   UNL     1      17.544  69.220  33.576  1.00  0.00     0.006 C 
BRANCH   4   5
ATOM      5  C   UNL     1      17.908  69.983  34.860  1.00  0.00     0.053 C 
BRANCH   5   6
ATOM      6  C   UNL     1      18.208  69.055  35.997  1.00  0.00     0.041 C 
ATOM      7  O   UNL     1      19.244  69.219  36.693  1.00  0.00    -0.550 OA
ATOM      8  O   UNL     1      17.324  68.030  36.310  1.00  0.00    -0.550 OA
ENDBRANCH   5   6
ENDBRANCH   4   5
ENDBRANCH   3   4
ENDBRANCH   2   3
ENDBRANCH   1   2
BRANCH   1   9
ATOM      9  C   UNL     1      14.781  66.171  32.421  1.00  0.00     0.000 C 
BRANCH   9  10
ATOM     10  C   UNL     1      14.589  64.924  33.301  1.00  0.00    -0.000 C 
BRANCH  10  11
ATOM     11  C   UNL     1      13.782  63.780  32.654  1.00  0.00    -0.000 C 
BRANCH  11  12
ATOM     12  C   UNL     1      12.379  63.547  33.249  1.00  0.00    -0.000 C 
BRANCH  12  13
ATOM     13  C   UNL     1      11.320  63.076  32.238  1.00  0.00    -0.003 C 
ATOM     14  C   UNL     1      11.843  63.039  30.802  1.00  0.00     0.004 C 
ENDBRANCH  12  13
ENDBRANCH  11  12
ENDBRANCH  10  11
ENDBRANCH   9  10
ENDBRANCH   1   9
TORSDOF 10
ENDMDL
MODEL 5
REMARK VINA RESULT:    -4.474      5.273      7.651
REMARK INTER + INTRA:          -7.586
REMARK INTER:                  -7.041
REMARK INTRA:                  -0.545
REMARK UNBOUND:                -0.496
REMARK SMILES CCCCCCCCCCCC(=O)[O-]
REMARK SMILES IDX 7 1 8 2 9 3 10 4 11 5 12 6 13 7 14 8 6 9 5 10 4 11 3 12 2 13
REMARK SMILES IDX 1 14
REMARK H PARENT
REMARK Flexibility Score: inf
ROOT
ATOM      1  C   UNL     1      15.756  65.313  33.203  1.00  0.00     0.000 C 
ENDROOT
BRANCH   1   2
ATOM      2  C   UNL     1      14.934  66.598  33.405  1.00  0.00     0.000 C 
BRANCH   2   3
ATOM      3  C   UNL     1      15.012  67.618  32.251  1.00  0.00     0.000 C 
BRANCH   3   4
ATOM      4  C   UNL     1      15.190  69.087  32.685  1.00  0.00     0.006 C 
BRANCH   4   5
ATOM      5  C   UNL     1      16.653  69.546  32.785  1.00  0.00     0.053 C 
BRANCH   5   6
ATOM      6  C   UNL     1      17.009  69.983  34.173  1.00  0.00     0.041 C 
ATOM      7  O   UNL     1      17.043  69.144  35.112  1.00  0.00    -0.550 OA
ATOM      8  O   UNL     1      17.337  71.309  34.423  1.00  0.00    -0.550 OA
ENDBRANCH   5   6
ENDBRANCH   4   5
ENDBRANCH   3   4
ENDBRANCH   2   3
ENDBRANCH   1   2
BRANCH   1   9
ATOM      9  C   UNL     1      15.314  64.508  31.969  1.00  0.00     0.000 C 
BRANCH   9  10
ATOM     10  C   UNL     1      14.241  63.454  32.296  1.00  0.00    -0.000 C 
BRANCH  10  11
ATOM     11  C   UNL     1      12.894  63.640  31.569  1.00  0.00    -0.000 C 
BRANCH  11  12
ATOM     12  C   UNL     1      11.644  63.300  32.405  1.00  0.00    -0.000 C 
BRANCH  12  13
ATOM     13  C   UNL     1      11.938  62.708  33.794  1.00  0.00    -0.003 C 
ATOM     14  C   UNL     1      12.052  61.184  33.779  1.00  0.00     0.004 C 
ENDBRANCH  12  13
ENDBRANCH  11  12
ENDBRANCH  10  11
ENDBRANCH   9  10
ENDBRANCH   1   9
TORSDOF 10
ENDMDL
MODEL 6
REMARK VINA RESULT:    -4.464      3.979      7.094
REMARK INTER + INTRA:          -7.569
REMARK INTER:                  -6.321
REMARK INTRA:                  -1.249
REMARK UNBOUND:                -0.496
REMARK SMILES CCCCCCCCCCCC(=O)[O-]
REMARK SMILES IDX 7 1 8 2 9 3 10 4 11 5 12 6 13 7 14 8 6 9 5 10 4 11 3 12 2 13
REMARK SMILES IDX 1 14
REMARK H PARENT
REMARK Flexibility Score: inf
ROOT
ATOM      1  C   UNL     1      18.009  65.433  37.935  1.00  0.00     0.000 C 
ENDROOT
BRANCH   1   2
ATOM      2  C   UNL     1      16.873  66.212  37.249  1.00  0.00     0.000 C 
BRANCH   2   3
ATOM      3  C   UNL     1      17.276  66.980  35.974  1.00  0.00     0.000 C 
BRANCH   3   4
ATOM      4  C   UNL     1      16.455  68.253  35.688  1.00  0.00     0.006 C 
BRANCH   4   5
ATOM      5  C   UNL     1      17.105  69.213  34.678  1.00  0.00     0.053 C 
BRANCH   5   6
ATOM      6  C   UNL     1      16.408  69.187  33.353  1.00  0.00     0.041 C 
ATOM      7  O   UNL     1      16.854  69.864  32.389  1.00  0.00    -0.550 OA
ATOM      8  O   UNL     1      15.286  68.388  33.171  1.00  0.00    -0.550 OA
ENDBRANCH   5   6
ENDBRANCH   4   5
ENDBRANCH   3   4
ENDBRANCH   2   3
ENDBRANCH   1   2
BRANCH   1   9
ATOM      9  C   UNL     1      19.406  65.917  37.511  1.00  0.00     0.000 C 
BRANCH   9  10
ATOM     10  C   UNL     1      20.366  66.088  38.702  1.00  0.00    -0.000 C 
BRANCH  10  11
ATOM     11  C   UNL     1      19.703  66.531  40.021  1.00  0.00    -0.000 C 
BRANCH  11  12
ATOM     12  C   UNL     1      19.680  68.054  40.265  1.00  0.00    -0.000 C 
BRANCH  12  13
ATOM     13  C   UNL     1      18.428  68.773  39.735  1.00  0.00    -0.003 C 
ATOM     14  C   UNL     1      18.679  69.510  38.419  1.00  0.00     0.004 C 
ENDBRANCH  12  13
ENDBRANCH  11  12
ENDBRANCH  10  11
ENDBRANCH   9  10
ENDBRANCH   1   9
TORSDOF 10
ENDMDL
MODEL 7
REMARK VINA RESULT:    -4.450      6.143      8.513
REMARK INTER + INTRA:          -7.547
REMARK INTER:                  -6.618
REMARK INTRA:                  -0.929
REMARK UNBOUND:                -0.496
REMARK SMILES CCCCCCCCCCCC(=O)[O-]
REMARK SMILES IDX 7 1 8 2 9 3 10 4 11 5 12 6 13 7 14 8 6 9 5 10 4 11 3 12 2 13
REMARK SMILES IDX 1 14
REMARK H PARENT
REMARK Flexibility Score: inf
ROOT
ATOM      1  C   UNL     1      15.066  62.823  32.303  1.00  0.00     0.000 C 
ENDROOT
BRANCH   1   2
ATOM      2  C   UNL     1      15.334  64.004  33.252  1.00  0.00     0.000 C 
BRANCH   2   3
ATOM      3  C   UNL     1      14.694  65.343  32.834  1.00  0.00     0.000 C 
BRANCH   3   4
ATOM      4  C   UNL     1      15.202  66.581  33.601  1.00  0.00     0.006 C 
BRANCH   4   5
ATOM      5  C   UNL     1      15.215  67.877  32.776  1.00  0.00     0.053 C 
BRANCH   5   6
ATOM      6  C   UNL     1      16.162  68.891  33.340  1.00  0.00     0.041 C 
ATOM      7  O   UNL     1      16.399  68.917  34.576  1.00  0.00    -0.550 OA
ATOM      8  O   UNL     1      16.810  69.784  32.496  1.00  0.00    -0.550 OA
ENDBRANCH   5   6
ENDBRANCH   4   5
ENDBRANCH   3   4
ENDBRANCH   2   3
ENDBRANCH   1   2
BRANCH   1   9
ATOM      9  C   UNL     1      14.568  63.269  30.918  1.00  0.00     0.000 C 
BRANCH   9  10
ATOM     10  C   UNL     1      13.391  62.421  30.405  1.00  0.00    -0.000 C 
BRANCH  10  11
ATOM     11  C   UNL     1      11.994  63.034  30.625  1.00  0.00    -0.000 C 
BRANCH  11  12
ATOM     12  C   UNL     1      11.146  62.363  31.724  1.00  0.00    -0.000 C 
BRANCH  12  13
ATOM     13  C   UNL     1      11.528  62.754  33.162  1.00  0.00    -0.003 C 
ATOM     14  C   UNL     1      12.148  61.598  33.948  1.00  0.00     0.004 C 
ENDBRANCH  12  13
ENDBRANCH  11  12
ENDBRANCH  10  11
ENDBRANCH   9  10
ENDBRANCH   1   9
TORSDOF 10
ENDMDL
MODEL 8
REMARK VINA RESULT:    -4.436      3.981      6.835
REMARK INTER + INTRA:          -7.526
REMARK INTER:                  -6.554
REMARK INTRA:                  -0.972
REMARK UNBOUND:                -0.496
REMARK SMILES CCCCCCCCCCCC(=O)[O-]
REMARK SMILES IDX 7 1 8 2 9 3 10 4 11 5 12 6 13 7 14 8 6 9 5 10 4 11 3 12 2 13
REMARK SMILES IDX 1 14
REMARK H PARENT
REMARK Flexibility Score: inf
ROOT
ATOM      1  C   UNL     1      19.637  69.028  37.393  1.00  0.00     0.000 C 
ENDROOT
BRANCH   1   2
ATOM      2  C   UNL     1      18.287  69.374  36.741  1.00  0.00     0.000 C 
BRANCH   2   3
ATOM      3  C   UNL     1      18.202  69.114  35.223  1.00  0.00     0.000 C 
BRANCH   3   4
ATOM      4  C   UNL     1      17.193  69.997  34.462  1.00  0.00     0.006 C 
BRANCH   4   5
ATOM      5  C   UNL     1      17.012  69.621  32.983  1.00  0.00     0.053 C 
BRANCH   5   6
ATOM      6  C   UNL     1      15.699  68.946  32.733  1.00  0.00     0.041 C 
ATOM      7  O   UNL     1      14.941  69.355  31.815  1.00  0.00    -0.550 OA
ATOM      8  O   UNL     1      15.328  67.843  33.492  1.00  0.00    -0.550 OA
ENDBRANCH   5   6
ENDBRANCH   4   5
ENDBRANCH   3   4
ENDBRANCH   2   3
ENDBRANCH   1   2
BRANCH   1   9
ATOM      9  C   UNL     1      19.508  67.992  38.523  1.00  0.00     0.000 C 
BRANCH   9  10
ATOM     10  C   UNL     1      18.092  67.938  39.124  1.00  0.00    -0.000 C 
BRANCH  10  11
ATOM     11  C   UNL     1      17.429  66.546  39.120  1.00  0.00    -0.000 C 
BRANCH  11  12
ATOM     12  C   UNL     1      18.211  65.448  38.372  1.00  0.00    -0.000 C 
BRANCH  12  13
ATOM     13  C   UNL     1      17.522  64.916  37.103  1.00  0.00    -0.003 C 
ATOM     14  C   UNL     1      16.791  66.008  36.322  1.00  0.00     0.004 C 
ENDBRANCH  12  13
ENDBRANCH  11  12
ENDBRANCH  10  11
ENDBRANCH   9  10
ENDBRANCH   1   9
TORSDOF 10
ENDMDL
MODEL 9
REMARK VINA RESULT:    -4.381      3.288      6.309
REMARK INTER + INTRA:          -7.438
REMARK INTER:                  -6.006
REMARK INTRA:                  -1.433
REMARK UNBOUND:                -0.496
REMARK SMILES CCCCCCCCCCCC(=O)[O-]
REMARK SMILES IDX 7 1 8 2 9 3 10 4 11 5 12 6 13 7 14 8 6 9 5 10 4 11 3 12 2 13
REMARK SMILES IDX 1 14
REMARK H PARENT
REMARK Flexibility Score: inf
ROOT
ATOM      1  C   UNL     1      18.566  68.239  40.201  1.00  0.00     0.000 C 
ENDROOT
BRANCH   1   2
ATOM      2  C   UNL     1      17.967  68.727  38.870  1.00  0.00     0.000 C 
BRANCH   2   3
ATOM      3  C   UNL     1      18.938  69.496  37.952  1.00  0.00     0.000 C 
BRANCH   3   4
ATOM      4  C   UNL     1      18.995  69.000  36.494  1.00  0.00     0.006 C 
BRANCH   4   5
ATOM      5  C   UNL     1      18.204  69.864  35.499  1.00  0.00     0.053 C 
BRANCH   5   6
ATOM      6  C   UNL     1      17.101  69.094  34.841  1.00  0.00     0.041 C 
ATOM      7  O   UNL     1      16.434  69.614  33.908  1.00  0.00    -0.550 OA
ATOM      8  O   UNL     1      16.832  67.789  35.235  1.00  0.00    -0.550 OA
ENDBRANCH   5   6
ENDBRANCH   4   5
ENDBRANCH   3   4
ENDBRANCH   2   3
ENDBRANCH   1   2
BRANCH   1   9
ATOM      9  C   UNL     1      20.069  67.927  40.101  1.00  0.00     0.000 C 
BRANCH   9  10
ATOM     10  C   UNL     1      20.396  66.457  40.419  1.00  0.00    -0.000 C 
BRANCH  10  11
ATOM     11  C   UNL     1      19.805  65.425  39.437  1.00  0.00    -0.000 C 
BRANCH  11  12
ATOM     12  C   UNL     1      20.052  65.722  37.944  1.00  0.00    -0.000 C 
BRANCH  12  13
ATOM     13  C   UNL     1      18.884  65.359  37.012  1.00  0.00    -0.003 C 
ATOM     14  C   UNL     1      17.545  65.266  37.745  1.00  0.00     0.004 C 
ENDBRANCH  12  13
ENDBRANCH  11  12
ENDBRANCH  10  11
ENDBRANCH   9  10
ENDBRANCH   1   9
TORSDOF 10
ENDMDL
