MODEL 1
REMARK VINA RESULT:     2.203      0.000      0.000
REMARK INTER + INTRA:           2.203
REMARK INTER:                   2.203
REMARK INTRA:                   0.000
REMARK UNBOUND:                 0.000
REMARK SMILES CC1(C)O[C@]2(C)CC[C@H]1CC2
REMARK SMILES IDX 1 1 2 2 9 3 10 4 11 5 5 6 4 7 7 8 8 9 6 10 3 11
REMARK H PARENT
REMARK Flexibility Score: inf
ROOT
ATOM      1  C   UNL     1      15.377  96.259   7.252  1.00  0.00     0.042 C 
ATOM      2  C   UNL     1      16.103  96.538   8.586  1.00  0.00     0.066 C 
ATOM      3  C   UNL     1      17.283  95.514   8.803  1.00  0.00     0.021 C 
ATOM      4  C   UNL     1      18.324  95.719   7.677  1.00  0.00     0.009 C 
ATOM      5  C   UNL     1      18.704  97.218   7.604  1.00  0.00     0.035 C 
ATOM      6  C   UNL     1      17.985  98.000   8.740  1.00  0.00     0.066 C 
ATOM      7  O   UNL     1      16.572  97.894   8.562  1.00  0.00    -0.369 OA
ATOM      8  C   UNL     1      18.376  97.374  10.111  1.00  0.00     0.035 C 
ATOM      9  C   UNL     1      18.004  95.872  10.125  1.00  0.00     0.009 C 
ATOM     10  C   UNL     1      18.379  99.480   8.700  1.00  0.00     0.042 C 
ATOM     11  C   UNL     1      15.056  96.412   9.714  1.00  0.00     0.042 C 
ENDROOT
TORSDOF 0
ENDMDL
MODEL 2
REMARK VINA RESULT:     2.339      1.516      3.019
REMARK INTER + INTRA:           2.339
REMARK INTER:                   2.339
REMARK INTRA:                   0.000
REMARK UNBOUND:                 0.000
REMARK SMILES CC1(C)O[C@]2(C)CC[C@H]1CC2
REMARK SMILES IDX 1 1 2 2 9 3 10 4 11 5 5 6 4 7 7 8 8 9 6 10 3 11
REMARK H PARENT
REMARK Flexibility Score: inf
ROOT
ATOM      1  C   UNL     1      18.345  93.916   9.731  1.00  0.00     0.042 C 
ATOM      2  C   UNL     1      17.869  94.753   8.523  1.00  0.00     0.066 C 
ATOM      3  C   UNL     1      16.318  95.024   8.610  1.00  0.00     0.021 C 
ATOM      4  C   UNL     1      16.037  95.868   9.875  1.00  0.00     0.009 C 
ATOM      5  C   UNL     1      16.963  97.108   9.875  1.00  0.00     0.035 C 
ATOM      6  C   UNL     1      17.800  97.140   8.565  1.00  0.00     0.066 C 
ATOM      7  O   UNL     1      18.623  95.974   8.504  1.00  0.00    -0.369 OA
ATOM      8  C   UNL     1      16.831  97.146   7.346  1.00  0.00     0.035 C 
ATOM      9  C   UNL     1      15.908  95.906   7.406  1.00  0.00     0.009 C 
ATOM     10  C   UNL     1      18.698  98.381   8.536  1.00  0.00     0.042 C 
ATOM     11  C   UNL     1      18.215  93.955   7.248  1.00  0.00     0.042 C 
ENDROOT
TORSDOF 0
ENDMDL
MODEL 3
REMARK VINA RESULT:     2.528      1.001      3.298
REMARK INTER + INTRA:           2.528
REMARK INTER:                   2.528
REMARK INTRA:                   0.000
REMARK UNBOUND:                 0.000
REMARK SMILES CC1(C)O[C@]2(C)CC[C@H]1CC2
REMARK SMILES IDX 1 1 2 2 9 3 10 4 11 5 5 6 4 7 7 8 8 9 6 10 3 11
REMARK H PARENT
REMARK Flexibility Score: inf
ROOT
ATOM      1  C   UNL     1      19.141  98.406   9.853  1.00  0.00     0.042 C 
ATOM      2  C   UNL     1      18.015  98.170   8.822  1.00  0.00     0.066 C 
ATOM      3  C   UNL     1      18.270  96.839   8.014  1.00  0.00     0.021 C 
ATOM      4  C   UNL     1      18.227  95.650   9.002  1.00  0.00     0.009 C 
ATOM      5  C   UNL     1      16.922  95.724   9.831  1.00  0.00     0.035 C 
ATOM      6  C   UNL     1      16.050  96.913   9.334  1.00  0.00     0.066 C 
ATOM      7  O   UNL     1      16.766  98.134   9.528  1.00  0.00    -0.369 OA
ATOM      8  C   UNL     1      15.758  96.727   7.817  1.00  0.00     0.035 C 
ATOM      9  C   UNL     1      17.090  96.628   7.036  1.00  0.00     0.009 C 
ATOM     10  C   UNL     1      14.739  96.978  10.125  1.00  0.00     0.042 C 
ATOM     11  C   UNL     1      17.997  99.389   7.876  1.00  0.00     0.042 C 
ENDROOT
TORSDOF 0
ENDMDL
MODEL 4
REMARK VINA RESULT:     2.777      1.297      3.109
REMARK INTER + INTRA:           2.777
REMARK INTER:                   2.777
REMARK INTRA:                   0.000
REMARK UNBOUND:                 0.000
REMARK SMILES CC1(C)O[C@]2(C)CC[C@H]1CC2
REMARK SMILES IDX 1 1 2 2 9 3 10 4 11 5 5 6 4 7 7 8 8 9 6 10 3 11
REMARK H PARENT
REMARK Flexibility Score: inf
ROOT
ATOM      1  C   UNL     1      18.132  99.398   7.872  1.00  0.00     0.042 C 
ATOM      2  C   UNL     1      18.184  98.150   8.781  1.00  0.00     0.066 C 
ATOM      3  C   UNL     1      16.736  97.750   9.263  1.00  0.00     0.021 C 
ATOM      4  C   UNL     1      15.896  97.364   8.022  1.00  0.00     0.009 C 
ATOM      5  C   UNL     1      16.670  96.312   7.191  1.00  0.00     0.035 C 
ATOM      6  C   UNL     1      17.988  95.929   7.923  1.00  0.00     0.066 C 
ATOM      7  O   UNL     1      18.812  97.090   8.046  1.00  0.00    -0.369 OA
ATOM      8  C   UNL     1      17.641  95.397   9.344  1.00  0.00     0.035 C 
ATOM      9  C   UNL     1      16.844  96.469  10.124  1.00  0.00     0.009 C 
ATOM     10  C   UNL     1      18.749  94.864   7.127  1.00  0.00     0.042 C 
ATOM     11  C   UNL     1      19.084  98.497   9.986  1.00  0.00     0.042 C 
ENDROOT
TORSDOF 0
ENDMDL
MODEL 5
REMARK VINA RESULT:     2.861      1.269      2.506
REMARK INTER + INTRA:           2.861
REMARK INTER:                   2.861
REMARK INTRA:                   0.000
REMARK UNBOUND:                 0.000
REMARK SMILES CC1(C)O[C@]2(C)CC[C@H]1CC2
REMARK SMILES IDX 1 1 2 2 9 3 10 4 11 5 5 6 4 7 7 8 8 9 6 10 3 11
REMARK H PARENT
REMARK Flexibility Score: inf
ROOT
ATOM      1  C   UNL     1      16.667  93.953   8.644  1.00  0.00     0.042 C 
ATOM      2  C   UNL     1      17.365  95.257   9.088  1.00  0.00     0.066 C 
ATOM      3  C   UNL     1      18.017  95.989   7.851  1.00  0.00     0.021 C 
ATOM      4  C   UNL     1      16.891  96.396   6.872  1.00  0.00     0.009 C 
ATOM      5  C   UNL     1      15.800  97.173   7.648  1.00  0.00     0.035 C 
ATOM      6  C   UNL     1      16.240  97.364   9.127  1.00  0.00     0.066 C 
ATOM      7  O   UNL     1      16.391  96.083   9.742  1.00  0.00    -0.369 OA
ATOM      8  C   UNL     1      17.607  98.108   9.156  1.00  0.00     0.035 C 
ATOM      9  C   UNL     1      18.655  97.309   8.345  1.00  0.00     0.009 C 
ATOM     10  C   UNL     1      15.183  98.161   9.899  1.00  0.00     0.042 C 
ATOM     11  C   UNL     1      18.441  94.872  10.125  1.00  0.00     0.042 C 
ENDROOT
TORSDOF 0
ENDMDL
MODEL 6
REMARK VINA RESULT:     3.000      1.408      3.086
REMARK INTER + INTRA:           3.000
REMARK INTER:                   3.000
REMARK INTRA:                   0.000
REMARK UNBOUND:                 0.000
REMARK SMILES CC1(C)O[C@]2(C)CC[C@H]1CC2
REMARK SMILES IDX 1 1 2 2 9 3 10 4 11 5 5 6 4 7 7 8 8 9 6 10 3 11
REMARK H PARENT
REMARK Flexibility Score: inf
ROOT
ATOM      1  C   UNL     1      17.873  98.240   9.207  1.00  0.00     0.042 C 
ATOM      2  C   UNL     1      16.933  97.015   9.227  1.00  0.00     0.066 C 
ATOM      3  C   UNL     1      16.453  96.657   7.767  1.00  0.00     0.021 C 
ATOM      4  C   UNL     1      17.690  96.258   6.928  1.00  0.00     0.009 C 
ATOM      5  C   UNL     1      18.488  95.170   7.686  1.00  0.00     0.035 C 
ATOM      6  C   UNL     1      17.737  94.778   8.991  1.00  0.00     0.066 C 
ATOM      7  O   UNL     1      17.637  95.924   9.838  1.00  0.00    -0.369 OA
ATOM      8  C   UNL     1      16.306  94.289   8.622  1.00  0.00     0.035 C 
ATOM      9  C   UNL     1      15.559  95.396   7.841  1.00  0.00     0.009 C 
ATOM     10  C   UNL     1      18.500  93.677   9.735  1.00  0.00     0.042 C 
ATOM     11  C   UNL     1      15.730  97.373  10.125  1.00  0.00     0.042 C 
ENDROOT
TORSDOF 0
ENDMDL
MODEL 7
REMARK VINA RESULT:     3.151      1.218      2.361
REMARK INTER + INTRA:           3.151
REMARK INTER:                   3.151
REMARK INTRA:                   0.000
REMARK UNBOUND:                 0.000
REMARK SMILES CC1(C)O[C@]2(C)CC[C@H]1CC2
REMARK SMILES IDX 1 1 2 2 9 3 10 4 11 5 5 6 4 7 7 8 8 9 6 10 3 11
REMARK H PARENT
REMARK Flexibility Score: inf
ROOT
ATOM      1  C   UNL     1      15.586  96.133  10.078  1.00  0.00     0.042 C 
ATOM      2  C   UNL     1      16.872  96.109   9.224  1.00  0.00     0.066 C 
ATOM      3  C   UNL     1      16.575  96.603   7.755  1.00  0.00     0.021 C 
ATOM      4  C   UNL     1      16.110  98.077   7.819  1.00  0.00     0.009 C 
ATOM      5  C   UNL     1      17.134  98.899   8.638  1.00  0.00     0.035 C 
ATOM      6  C   UNL     1      18.331  97.992   9.046  1.00  0.00     0.066 C 
ATOM      7  O   UNL     1      17.854  96.929   9.873  1.00  0.00    -0.369 OA
ATOM      8  C   UNL     1      18.971  97.392   7.761  1.00  0.00     0.035 C 
ATOM      9  C   UNL     1      17.904  96.607   6.962  1.00  0.00     0.009 C 
ATOM     10  C   UNL     1      19.369  98.802   9.830  1.00  0.00     0.042 C 
ATOM     11  C   UNL     1      17.391  94.655   9.216  1.00  0.00     0.042 C 
ENDROOT
TORSDOF 0
ENDMDL
MODEL 8
REMARK VINA RESULT:     3.507      1.071      3.059
REMARK INTER + INTRA:           3.507
REMARK INTER:                   3.507
REMARK INTRA:                   0.000
REMARK UNBOUND:                 0.000
REMARK SMILES CC1(C)O[C@]2(C)CC[C@H]1CC2
REMARK SMILES IDX 1 1 2 2 9 3 10 4 11 5 5 6 4 7 7 8 8 9 6 10 3 11
REMARK H PARENT
REMARK Flexibility Score: inf
ROOT
ATOM      1  C   UNL     1      15.172  97.374   9.764  1.00  0.00     0.042 C 
ATOM      2  C   UNL     1      16.142  97.011   8.618  1.00  0.00     0.066 C 
ATOM      3  C   UNL     1      17.532  97.730   8.817  1.00  0.00     0.021 C 
ATOM      4  C   UNL     1      18.172  97.208  10.125  1.00  0.00     0.009 C 
ATOM      5  C   UNL     1      18.183  95.660  10.103  1.00  0.00     0.035 C 
ATOM      6  C   UNL     1      17.632  95.149   8.741  1.00  0.00     0.066 C 
ATOM      7  O   UNL     1      16.280  95.583   8.587  1.00  0.00    -0.369 OA
ATOM      8  C   UNL     1      18.494  95.746   7.591  1.00  0.00     0.035 C 
ATOM      9  C   UNL     1      18.476  97.292   7.672  1.00  0.00     0.009 C 
ATOM     10  C   UNL     1      17.669  93.618   8.693  1.00  0.00     0.042 C 
ATOM     11  C   UNL     1      15.479  97.458   7.297  1.00  0.00     0.042 C 
ENDROOT
TORSDOF 0
ENDMDL
MODEL 9
REMARK VINA RESULT:     3.955      0.997      2.192
REMARK INTER + INTRA:           3.955
REMARK INTER:                   3.955
REMARK INTRA:                   0.000
REMARK UNBOUND:                 0.000
REMARK SMILES CC1(C)O[C@]2(C)CC[C@H]1CC2
REMARK SMILES IDX 1 1 2 2 9 3 10 4 11 5 5 6 4 7 7 8 8 9 6 10 3 11
REMARK H PARENT
REMARK Flexibility Score: inf
ROOT
ATOM      1  C   UNL     1      18.212  95.096   7.248  1.00  0.00     0.042 C 
ATOM      2  C   UNL     1      17.176  96.168   7.651  1.00  0.00     0.066 C 
ATOM      3  C   UNL     1      16.504  95.803   9.031  1.00  0.00     0.021 C 
ATOM      4  C   UNL     1      17.597  95.805  10.125  1.00  0.00     0.009 C 
ATOM      5  C   UNL     1      18.378  97.140  10.060  1.00  0.00     0.035 C 
ATOM      6  C   UNL     1      17.748  98.067   8.982  1.00  0.00     0.066 C 
ATOM      7  O   UNL     1      17.846  97.436   7.704  1.00  0.00    -0.369 OA
ATOM      8  C   UNL     1      16.247  98.295   9.326  1.00  0.00     0.035 C 
ATOM      9  C   UNL     1      15.517  96.933   9.408  1.00  0.00     0.009 C 
ATOM     10  C   UNL     1      18.491  99.406   8.931  1.00  0.00     0.042 C 
ATOM     11  C   UNL     1      16.119  96.231   6.528  1.00  0.00     0.042 C 
ENDROOT
TORSDOF 0
ENDMDL
