MODEL 1
REMARK VINA RESULT:    -3.216      0.000      0.000
REMARK INTER + INTRA:          -6.179
REMARK INTER:                  -5.097
REMARK INTRA:                  -1.083
REMARK UNBOUND:                -1.083
REMARK SMILES CCCCCCCCCCCC(=O)[O-]
REMARK SMILES IDX 7 1 8 2 9 3 10 4 11 5 12 6 13 7 14 8 6 9 5 10 4 11 3 12 2 13
REMARK SMILES IDX 1 14
REMARK H PARENT
REMARK Flexibility Score: inf
ROOT
ATOM      1  C   UNL     1      43.148  21.750  79.860  1.00  0.00     0.000 C 
ENDROOT
BRANCH   1   2
ATOM      2  C   UNL     1      43.821  20.601  79.091  1.00  0.00     0.000 C 
BRANCH   2   3
ATOM      3  C   UNL     1      44.033  20.926  77.601  1.00  0.00     0.000 C 
BRANCH   3   4
ATOM      4  C   UNL     1      45.296  20.265  77.028  1.00  0.00     0.006 C 
BRANCH   4   5
ATOM      5  C   UNL     1      45.574  18.889  77.648  1.00  0.00     0.053 C 
BRANCH   5   6
ATOM      6  C   UNL     1      45.657  17.843  76.583  1.00  0.00     0.041 C 
ATOM      7  O   UNL     1      45.654  16.622  76.893  1.00  0.00    -0.550 OA
ATOM      8  O   UNL     1      45.787  18.215  75.251  1.00  0.00    -0.550 OA
ENDBRANCH   5   6
ENDBRANCH   4   5
ENDBRANCH   3   4
ENDBRANCH   2   3
ENDBRANCH   1   2
BRANCH   1   9
ATOM      9  C   UNL     1      41.818  21.327  80.506  1.00  0.00     0.000 C 
BRANCH   9  10
ATOM     10  C   UNL     1      41.268  20.008  79.930  1.00  0.00    -0.000 C 
BRANCH  10  11
ATOM     11  C   UNL     1      40.132  20.168  78.898  1.00  0.00    -0.000 C 
BRANCH  11  12
ATOM     12  C   UNL     1      39.581  21.599  78.746  1.00  0.00    -0.000 C 
BRANCH  12  13
ATOM     13  C   UNL     1      40.042  22.337  77.477  1.00  0.00    -0.003 C 
ATOM     14  C   UNL     1      40.573  21.393  76.399  1.00  0.00     0.004 C 
ENDBRANCH  12  13
ENDBRANCH  11  12
ENDBRANCH  10  11
ENDBRANCH   9  10
ENDBRANCH   1   9
TORSDOF 10
ENDMDL
MODEL 2
REMARK VINA RESULT:    -3.153      4.082      6.670
REMARK INTER + INTRA:          -6.079
REMARK INTER:                  -5.701
REMARK INTRA:                  -0.377
REMARK UNBOUND:                -1.083
REMARK SMILES CCCCCCCCCCCC(=O)[O-]
REMARK SMILES IDX 7 1 8 2 9 3 10 4 11 5 12 6 13 7 14 8 6 9 5 10 4 11 3 12 2 13
REMARK SMILES IDX 1 14
REMARK H PARENT
REMARK Flexibility Score: inf
ROOT
ATOM      1  C   UNL     1      43.360  21.153  79.368  1.00  0.00     0.000 C 
ENDROOT
BRANCH   1   2
ATOM      2  C   UNL     1      42.189  20.205  79.060  1.00  0.00     0.000 C 
BRANCH   2   3
ATOM      3  C   UNL     1      41.122  20.198  80.170  1.00  0.00     0.000 C 
BRANCH   3   4
ATOM      4  C   UNL     1      39.727  19.827  79.644  1.00  0.00     0.006 C 
BRANCH   4   5
ATOM      5  C   UNL     1      38.600  20.498  80.439  1.00  0.00     0.053 C 
BRANCH   5   6
ATOM      6  C   UNL     1      37.613  19.478  80.910  1.00  0.00     0.041 C 
ATOM      7  O   UNL     1      37.274  18.528  80.155  1.00  0.00    -0.550 OA
ATOM      8  O   UNL     1      37.029  19.601  82.164  1.00  0.00    -0.550 OA
ENDBRANCH   5   6
ENDBRANCH   4   5
ENDBRANCH   3   4
ENDBRANCH   2   3
ENDBRANCH   1   2
BRANCH   1   9
ATOM      9  C   UNL     1      44.680  20.686  78.731  1.00  0.00     0.000 C 
BRANCH   9  10
ATOM     10  C   UNL     1      44.583  19.271  78.128  1.00  0.00    -0.000 C 
BRANCH  10  11
ATOM     11  C   UNL     1      45.897  18.718  77.541  1.00  0.00    -0.000 C 
BRANCH  11  12
ATOM     12  C   UNL     1      45.892  18.500  76.014  1.00  0.00    -0.000 C 
BRANCH  12  13
ATOM     13  C   UNL     1      46.053  19.781  75.179  1.00  0.00    -0.003 C 
ATOM     14  C   UNL     1      46.063  19.514  73.674  1.00  0.00     0.004 C 
ENDBRANCH  12  13
ENDBRANCH  11  12
ENDBRANCH  10  11
ENDBRANCH   9  10
ENDBRANCH   1   9
TORSDOF 10
ENDMDL
MODEL 3
REMARK VINA RESULT:    -3.150      3.690      5.527
REMARK INTER + INTRA:          -6.074
REMARK INTER:                  -4.938
REMARK INTRA:                  -1.136
REMARK UNBOUND:                -1.083
REMARK SMILES CCCCCCCCCCCC(=O)[O-]
REMARK SMILES IDX 7 1 8 2 9 3 10 4 11 5 12 6 13 7 14 8 6 9 5 10 4 11 3 12 2 13
REMARK SMILES IDX 1 14
REMARK H PARENT
REMARK Flexibility Score: inf
ROOT
ATOM      1  C   UNL     1      47.655  21.510  77.186  1.00  0.00     0.000 C 
ENDROOT
BRANCH   1   2
ATOM      2  C   UNL     1      47.291  20.137  77.776  1.00  0.00     0.000 C 
BRANCH   2   3
ATOM      3  C   UNL     1      45.817  20.048  78.210  1.00  0.00     0.000 C 
BRANCH   3   4
ATOM      4  C   UNL     1      45.116  18.795  77.662  1.00  0.00     0.006 C 
BRANCH   4   5
ATOM      5  C   UNL     1      45.718  18.316  76.335  1.00  0.00     0.053 C 
BRANCH   5   6
ATOM      6  C   UNL     1      45.844  16.826  76.327  1.00  0.00     0.041 C 
ATOM      7  O   UNL     1      45.990  16.196  77.407  1.00  0.00    -0.550 OA
ATOM      8  O   UNL     1      45.851  16.135  75.121  1.00  0.00    -0.550 OA
ENDBRANCH   5   6
ENDBRANCH   4   5
ENDBRANCH   3   4
ENDBRANCH   2   3
ENDBRANCH   1   2
BRANCH   1   9
ATOM      9  C   UNL     1      48.998  21.491  76.436  1.00  0.00     0.000 C 
BRANCH   9  10
ATOM     10  C   UNL     1      48.827  21.528  74.906  1.00  0.00    -0.000 C 
BRANCH  10  11
ATOM     11  C   UNL     1      47.488  20.969  74.382  1.00  0.00    -0.000 C 
BRANCH  11  12
ATOM     12  C   UNL     1      46.772  21.851  73.340  1.00  0.00    -0.000 C 
BRANCH  12  13
ATOM     13  C   UNL     1      45.423  22.428  73.800  1.00  0.00    -0.003 C 
ATOM     14  C   UNL     1      44.705  21.533  74.808  1.00  0.00     0.004 C 
ENDBRANCH  12  13
ENDBRANCH  11  12
ENDBRANCH  10  11
ENDBRANCH   9  10
ENDBRANCH   1   9
TORSDOF 10
ENDMDL
MODEL 4
REMARK VINA RESULT:    -3.085      1.964      2.331
REMARK INTER + INTRA:          -5.971
REMARK INTER:                  -4.755
REMARK INTRA:                  -1.216
REMARK UNBOUND:                -1.083
REMARK SMILES CCCCCCCCCCCC(=O)[O-]
REMARK SMILES IDX 7 1 8 2 9 3 10 4 11 5 12 6 13 7 14 8 6 9 5 10 4 11 3 12 2 13
REMARK SMILES IDX 1 14
REMARK H PARENT
REMARK Flexibility Score: inf
ROOT
ATOM      1  C   UNL     1      42.175  21.224  80.037  1.00  0.00     0.000 C 
ENDROOT
BRANCH   1   2
ATOM      2  C   UNL     1      43.575  21.148  79.405  1.00  0.00     0.000 C 
BRANCH   2   3
ATOM      3  C   UNL     1      43.749  19.919  78.494  1.00  0.00     0.000 C 
BRANCH   3   4
ATOM      4  C   UNL     1      44.995  20.020  77.600  1.00  0.00     0.006 C 
BRANCH   4   5
ATOM      5  C   UNL     1      46.131  19.101  78.067  1.00  0.00     0.053 C 
BRANCH   5   6
ATOM      6  C   UNL     1      47.370  19.896  78.334  1.00  0.00     0.041 C 
ATOM      7  O   UNL     1      48.223  19.481  79.163  1.00  0.00    -0.550 OA
ATOM      8  O   UNL     1      47.560  21.120  77.705  1.00  0.00    -0.550 OA
ENDBRANCH   5   6
ENDBRANCH   4   5
ENDBRANCH   3   4
ENDBRANCH   2   3
ENDBRANCH   1   2
BRANCH   1   9
ATOM      9  C   UNL     1      41.331  19.970  79.752  1.00  0.00     0.000 C 
BRANCH   9  10
ATOM     10  C   UNL     1      40.083  20.272  78.901  1.00  0.00    -0.000 C 
BRANCH  10  11
ATOM     11  C   UNL     1      40.125  21.604  78.125  1.00  0.00    -0.000 C 
BRANCH  11  12
ATOM     12  C   UNL     1      40.571  21.492  76.653  1.00  0.00    -0.000 C 
BRANCH  12  13
ATOM     13  C   UNL     1      41.831  22.299  76.297  1.00  0.00    -0.003 C 
ATOM     14  C   UNL     1      42.655  21.656  75.183  1.00  0.00     0.004 C 
ENDBRANCH  12  13
ENDBRANCH  11  12
ENDBRANCH  10  11
ENDBRANCH   9  10
ENDBRANCH   1   9
TORSDOF 10
ENDMDL
MODEL 5
REMARK VINA RESULT:    -3.080      1.384      2.665
REMARK INTER + INTRA:          -5.964
REMARK INTER:                  -5.141
REMARK INTRA:                  -0.823
REMARK UNBOUND:                -1.083
REMARK SMILES CCCCCCCCCCCC(=O)[O-]
REMARK SMILES IDX 7 1 8 2 9 3 10 4 11 5 12 6 13 7 14 8 6 9 5 10 4 11 3 12 2 13
REMARK SMILES IDX 1 14
REMARK H PARENT
REMARK Flexibility Score: inf
ROOT
ATOM      1  C   UNL     1      43.008  21.542  76.724  1.00  0.00     0.000 C 
ENDROOT
BRANCH   1   2
ATOM      2  C   UNL     1      43.868  21.383  77.989  1.00  0.00     0.000 C 
BRANCH   2   3
ATOM      3  C   UNL     1      44.026  19.914  78.420  1.00  0.00     0.000 C 
BRANCH   3   4
ATOM      4  C   UNL     1      45.430  19.362  78.130  1.00  0.00     0.006 C 
BRANCH   4   5
ATOM      5  C   UNL     1      45.434  18.328  76.996  1.00  0.00     0.053 C 
BRANCH   5   6
ATOM      6  C   UNL     1      45.961  18.938  75.736  1.00  0.00     0.041 C 
ATOM      7  O   UNL     1      45.926  18.292  74.656  1.00  0.00    -0.550 OA
ATOM      8  O   UNL     1      46.538  20.201  75.763  1.00  0.00    -0.550 OA
ENDBRANCH   5   6
ENDBRANCH   4   5
ENDBRANCH   3   4
ENDBRANCH   2   3
ENDBRANCH   1   2
BRANCH   1   9
ATOM      9  C   UNL     1      41.659  22.223  77.011  1.00  0.00     0.000 C 
BRANCH   9  10
ATOM     10  C   UNL     1      40.554  21.221  77.394  1.00  0.00    -0.000 C 
BRANCH  10  11
ATOM     11  C   UNL     1      40.172  21.206  78.889  1.00  0.00    -0.000 C 
BRANCH  11  12
ATOM     12  C   UNL     1      40.306  19.837  79.586  1.00  0.00    -0.000 C 
BRANCH  12  13
ATOM     13  C   UNL     1      38.976  19.213  80.044  1.00  0.00    -0.003 C 
ATOM     14  C   UNL     1      37.911  20.258  80.375  1.00  0.00     0.004 C 
ENDBRANCH  12  13
ENDBRANCH  11  12
ENDBRANCH  10  11
ENDBRANCH   9  10
ENDBRANCH   1   9
TORSDOF 10
ENDMDL
MODEL 6
REMARK VINA RESULT:    -3.035      4.109      5.750
REMARK INTER + INTRA:          -5.892
REMARK INTER:                  -5.021
REMARK INTRA:                  -0.871
REMARK UNBOUND:                -1.083
REMARK SMILES CCCCCCCCCCCC(=O)[O-]
REMARK SMILES IDX 7 1 8 2 9 3 10 4 11 5 12 6 13 7 14 8 6 9 5 10 4 11 3 12 2 13
REMARK SMILES IDX 1 14
REMARK H PARENT
REMARK Flexibility Score: inf
ROOT
ATOM      1  C   UNL     1      42.442  21.121  78.075  1.00  0.00     0.000 C 
ENDROOT
BRANCH   1   2
ATOM      2  C   UNL     1      42.354  20.069  79.193  1.00  0.00     0.000 C 
BRANCH   2   3
ATOM      3  C   UNL     1      41.128  20.270  80.103  1.00  0.00     0.000 C 
BRANCH   3   4
ATOM      4  C   UNL     1      39.847  19.664  79.508  1.00  0.00     0.006 C 
BRANCH   4   5
ATOM      5  C   UNL     1      38.575  20.317  80.064  1.00  0.00     0.053 C 
BRANCH   5   6
ATOM      6  C   UNL     1      37.689  19.285  80.687  1.00  0.00     0.041 C 
ATOM      7  O   UNL     1      37.234  19.458  81.849  1.00  0.00    -0.550 OA
ATOM      8  O   UNL     1      37.405  18.108  80.005  1.00  0.00    -0.550 OA
ENDBRANCH   5   6
ENDBRANCH   4   5
ENDBRANCH   3   4
ENDBRANCH   2   3
ENDBRANCH   1   2
BRANCH   1   9
ATOM      9  C   UNL     1      41.802  22.461  78.476  1.00  0.00     0.000 C 
BRANCH   9  10
ATOM     10  C   UNL     1      40.628  22.859  77.560  1.00  0.00    -0.000 C 
BRANCH  10  11
ATOM     11  C   UNL     1      40.268  21.828  76.471  1.00  0.00    -0.000 C 
BRANCH  11  12
ATOM     12  C   UNL     1      40.379  22.340  75.021  1.00  0.00    -0.000 C 
BRANCH  12  13
ATOM     13  C   UNL     1      40.677  21.254  73.974  1.00  0.00    -0.003 C 
ATOM     14  C   UNL     1      41.971  21.510  73.202  1.00  0.00     0.004 C 
ENDBRANCH  12  13
ENDBRANCH  11  12
ENDBRANCH  10  11
ENDBRANCH   9  10
ENDBRANCH   1   9
TORSDOF 10
ENDMDL
MODEL 7
REMARK VINA RESULT:    -3.025     16.626     18.091
REMARK INTER + INTRA:          -5.876
REMARK INTER:                  -4.527
REMARK INTRA:                  -1.349
REMARK UNBOUND:                -1.083
REMARK SMILES CCCCCCCCCCCC(=O)[O-]
REMARK SMILES IDX 7 1 8 2 9 3 10 4 11 5 12 6 13 7 14 8 6 9 5 10 4 11 3 12 2 13
REMARK SMILES IDX 1 14
REMARK H PARENT
REMARK Flexibility Score: inf
ROOT
ATOM      1  C   UNL     1      53.511  34.252  86.789  1.00  0.00     0.000 C 
ENDROOT
BRANCH   1   2
ATOM      2  C   UNL     1      52.738  33.097  86.129  1.00  0.00     0.000 C 
BRANCH   2   3
ATOM      3  C   UNL     1      52.645  33.242  84.600  1.00  0.00     0.000 C 
BRANCH   3   4
ATOM      4  C   UNL     1      51.194  33.271  84.097  1.00  0.00     0.006 C 
BRANCH   4   5
ATOM      5  C   UNL     1      50.680  34.699  83.866  1.00  0.00     0.053 C 
BRANCH   5   6
ATOM      6  C   UNL     1      49.455  34.680  83.008  1.00  0.00     0.041 C 
ATOM      7  O   UNL     1      49.559  34.577  81.757  1.00  0.00    -0.550 OA
ATOM      8  O   UNL     1      48.199  34.827  83.584  1.00  0.00    -0.550 OA
ENDBRANCH   5   6
ENDBRANCH   4   5
ENDBRANCH   3   4
ENDBRANCH   2   3
ENDBRANCH   1   2
BRANCH   1   9
ATOM      9  C   UNL     1      52.581  35.363  87.306  1.00  0.00     0.000 C 
BRANCH   9  10
ATOM     10  C   UNL     1      51.176  34.844  87.668  1.00  0.00    -0.000 C 
BRANCH  10  11
ATOM     11  C   UNL     1      50.017  35.805  87.334  1.00  0.00    -0.000 C 
BRANCH  11  12
ATOM     12  C   UNL     1      48.633  35.140  87.196  1.00  0.00    -0.000 C 
BRANCH  12  13
ATOM     13  C   UNL     1      48.668  33.644  86.840  1.00  0.00    -0.003 C 
ATOM     14  C   UNL     1      47.837  32.786  87.794  1.00  0.00     0.004 C 
ENDBRANCH  12  13
ENDBRANCH  11  12
ENDBRANCH  10  11
ENDBRANCH   9  10
ENDBRANCH   1   9
TORSDOF 10
ENDMDL
MODEL 8
REMARK VINA RESULT:    -3.015     17.346     19.040
REMARK INTER + INTRA:          -5.860
REMARK INTER:                  -4.653
REMARK INTRA:                  -1.207
REMARK UNBOUND:                -1.083
REMARK SMILES CCCCCCCCCCCC(=O)[O-]
REMARK SMILES IDX 7 1 8 2 9 3 10 4 11 5 12 6 13 7 14 8 6 9 5 10 4 11 3 12 2 13
REMARK SMILES IDX 1 14
REMARK H PARENT
REMARK Flexibility Score: inf
ROOT
ATOM      1  C   UNL     1      48.781  34.223  86.099  1.00  0.00     0.000 C 
ENDROOT
BRANCH   1   2
ATOM      2  C   UNL     1      48.634  35.465  86.994  1.00  0.00     0.000 C 
BRANCH   2   3
ATOM      3  C   UNL     1      49.988  36.006  87.487  1.00  0.00     0.000 C 
BRANCH   3   4
ATOM      4  C   UNL     1      51.085  34.930  87.494  1.00  0.00     0.006 C 
BRANCH   4   5
ATOM      5  C   UNL     1      52.481  35.511  87.234  1.00  0.00     0.053 C 
BRANCH   5   6
ATOM      6  C   UNL     1      53.525  34.689  87.918  1.00  0.00     0.041 C 
ATOM      7  O   UNL     1      53.763  34.858  89.144  1.00  0.00    -0.550 OA
ATOM      8  O   UNL     1      54.273  33.770  87.193  1.00  0.00    -0.550 OA
ENDBRANCH   5   6
ENDBRANCH   4   5
ENDBRANCH   3   4
ENDBRANCH   2   3
ENDBRANCH   1   2
BRANCH   1   9
ATOM      9  C   UNL     1      48.727  34.566  84.601  1.00  0.00     0.000 C 
BRANCH   9  10
ATOM     10  C   UNL     1      50.122  34.611  83.948  1.00  0.00    -0.000 C 
BRANCH  10  11
ATOM     11  C   UNL     1      50.847  33.252  83.859  1.00  0.00    -0.000 C 
BRANCH  11  12
ATOM     12  C   UNL     1      52.350  33.287  84.202  1.00  0.00    -0.000 C 
BRANCH  12  13
ATOM     13  C   UNL     1      53.073  34.586  83.806  1.00  0.00    -0.003 C 
ATOM     14  C   UNL     1      53.719  34.510  82.424  1.00  0.00     0.004 C 
ENDBRANCH  12  13
ENDBRANCH  11  12
ENDBRANCH  10  11
ENDBRANCH   9  10
ENDBRANCH   1   9
TORSDOF 10
ENDMDL
MODEL 9
REMARK VINA RESULT:    -2.973     16.357     17.649
REMARK INTER + INTRA:          -5.793
REMARK INTER:                  -5.128
REMARK INTRA:                  -0.666
REMARK UNBOUND:                -1.083
REMARK SMILES CCCCCCCCCCCC(=O)[O-]
REMARK SMILES IDX 7 1 8 2 9 3 10 4 11 5 12 6 13 7 14 8 6 9 5 10 4 11 3 12 2 13
REMARK SMILES IDX 1 14
REMARK H PARENT
REMARK Flexibility Score: inf
ROOT
ATOM      1  C   UNL     1      48.887  31.632  88.874  1.00  0.00     0.000 C 
ENDROOT
BRANCH   1   2
ATOM      2  C   UNL     1      48.338  31.292  87.478  1.00  0.00     0.000 C 
BRANCH   2   3
ATOM      3  C   UNL     1      48.175  32.535  86.585  1.00  0.00     0.000 C 
BRANCH   3   4
ATOM      4  C   UNL     1      48.232  33.847  87.383  1.00  0.00     0.006 C 
BRANCH   4   5
ATOM      5  C   UNL     1      49.035  34.939  86.665  1.00  0.00     0.053 C 
BRANCH   5   6
ATOM      6  C   UNL     1      50.502  34.711  86.843  1.00  0.00     0.041 C 
ATOM      7  O   UNL     1      50.956  34.350  87.961  1.00  0.00    -0.550 OA
ATOM      8  O   UNL     1      51.376  34.946  85.789  1.00  0.00    -0.550 OA
ENDBRANCH   5   6
ENDBRANCH   4   5
ENDBRANCH   3   4
ENDBRANCH   2   3
ENDBRANCH   1   2
BRANCH   1   9
ATOM      9  C   UNL     1      47.930  31.211  90.001  1.00  0.00     0.000 C 
BRANCH   9  10
ATOM     10  C   UNL     1      46.467  31.603  89.720  1.00  0.00    -0.000 C 
BRANCH  10  11
ATOM     11  C   UNL     1      45.552  31.656  90.960  1.00  0.00    -0.000 C 
BRANCH  11  12
ATOM     12  C   UNL     1      44.899  30.315  91.350  1.00  0.00    -0.000 C 
BRANCH  12  13
ATOM     13  C   UNL     1      44.091  30.346  92.659  1.00  0.00    -0.003 C 
ATOM     14  C   UNL     1      43.719  31.763  93.095  1.00  0.00     0.004 C 
ENDBRANCH  12  13
ENDBRANCH  11  12
ENDBRANCH  10  11
ENDBRANCH   9  10
ENDBRANCH   1   9
TORSDOF 10
ENDMDL
