MODEL 1
REMARK VINA RESULT:    -8.983      0.000      0.000
REMARK INTER + INTRA:         -10.876
REMARK INTER:                 -10.559
REMARK INTRA:                  -0.318
REMARK UNBOUND:                -0.318
REMARK SMILES O=c1cc(-c2ccc(O)c(O)c2)oc2cc(O)cc(O)c12
REMARK SMILES IDX 4 1 3 2 2 3 1 4 21 5 19 6 18 7 16 8 15 9 14 10 13 11 5 12
REMARK SMILES IDX 6 13 7 14 8 15 12 16 10 17 9 18 11 20 20 22 17 24
REMARK H PARENT 9 19 11 21 20 23 17 25
REMARK Flexibility Score: inf
ROOT
ATOM      1  C   UNL     1     140.296 -18.645  80.842  1.00  0.00     0.138 A 
ATOM      2  C   UNL     1     140.437 -17.251  80.791  1.00  0.00     0.100 A 
ATOM      3  C   UNL     1     140.551 -16.614  79.555  1.00  0.00     0.197 A 
ATOM      4  O   UNL     1     140.614 -15.357  79.537  1.00  0.00    -0.289 OA
ATOM      5  C   UNL     1     140.553 -17.381  78.365  1.00  0.00     0.107 A 
ATOM      6  C   UNL     1     140.703 -16.843  77.052  1.00  0.00     0.134 A 
ATOM      7  C   UNL     1     140.573 -17.688  75.942  1.00  0.00     0.093 A 
ATOM      8  C   UNL     1     140.360 -19.059  76.101  1.00  0.00     0.123 A 
ATOM      9  C   UNL     1     140.267 -19.602  77.380  1.00  0.00     0.094 A 
ATOM     10  C   UNL     1     140.356 -18.781  78.506  1.00  0.00     0.146 A 
ATOM     11  O   UNL     1     140.247 -19.336  79.709  1.00  0.00    -0.456 OA
ENDROOT
BRANCH   1  12
ATOM     12  C   UNL     1     140.174 -19.374  82.131  1.00  0.00     0.021 A 
ATOM     13  C   UNL     1     140.359 -18.727  83.367  1.00  0.00     0.016 A 
ATOM     14  C   UNL     1     140.247 -19.440  84.563  1.00  0.00     0.051 A 
ATOM     15  C   UNL     1     139.958 -20.810  84.546  1.00  0.00     0.157 A 
ATOM     16  C   UNL     1     139.897 -20.752  82.122  1.00  0.00     0.062 A 
ATOM     17  C   UNL     1     139.784 -21.468  83.319  1.00  0.00     0.158 A 
BRANCH  15  18
ATOM     18  O   UNL     1     139.845 -21.517  85.742  1.00  0.00    -0.504 OA
ATOM     19  H   UNL     1     140.636 -22.006  86.146  1.00  0.00     0.293 HD
ENDBRANCH  15  18
BRANCH  17  20
ATOM     20  O   UNL     1     139.499 -22.833  83.268  1.00  0.00    -0.504 OA
ATOM     21  H   UNL     1     138.809 -23.216  82.633  1.00  0.00     0.293 HD
ENDBRANCH  17  20
ENDBRANCH   1  12
BRANCH   6  22
ATOM     22  O   UNL     1     141.003 -15.504  76.786  1.00  0.00    -0.507 OA
ATOM     23  H   UNL     1     141.798 -15.006  77.156  1.00  0.00     0.293 HD
ENDBRANCH   6  22
BRANCH   8  24
ATOM     24  O   UNL     1     140.248 -19.893  74.991  1.00  0.00    -0.508 OA
ATOM     25  H   UNL     1     140.118 -20.894  75.090  1.00  0.00     0.293 HD
ENDBRANCH   8  24
TORSDOF 5
ENDMDL
MODEL 2
REMARK VINA RESULT:    -8.759      0.634      1.466
REMARK INTER + INTRA:         -10.613
REMARK INTER:                 -10.325
REMARK INTRA:                  -0.288
REMARK UNBOUND:                -0.318
REMARK SMILES O=c1cc(-c2ccc(O)c(O)c2)oc2cc(O)cc(O)c12
REMARK SMILES IDX 4 1 3 2 2 3 1 4 21 5 19 6 18 7 16 8 15 9 14 10 13 11 5 12
REMARK SMILES IDX 6 13 7 14 8 15 12 16 10 17 9 18 11 20 20 22 17 24
REMARK H PARENT 9 19 11 21 20 23 17 25
REMARK Flexibility Score: inf
ROOT
ATOM      1  C   UNL     1     140.292 -18.773  80.822  1.00  0.00     0.138 A 
ATOM      2  C   UNL     1     140.416 -17.377  80.810  1.00  0.00     0.100 A 
ATOM      3  C   UNL     1     140.540 -16.706  79.592  1.00  0.00     0.197 A 
ATOM      4  O   UNL     1     140.587 -15.449  79.609  1.00  0.00    -0.289 OA
ATOM      5  C   UNL     1     140.569 -17.441  78.383  1.00  0.00     0.107 A 
ATOM      6  C   UNL     1     140.731 -16.868  77.087  1.00  0.00     0.134 A 
ATOM      7  C   UNL     1     140.628 -17.684  75.954  1.00  0.00     0.093 A 
ATOM      8  C   UNL     1     140.430 -19.062  76.073  1.00  0.00     0.123 A 
ATOM      9  C   UNL     1     140.325 -19.639  77.336  1.00  0.00     0.094 A 
ATOM     10  C   UNL     1     140.388 -18.847  78.484  1.00  0.00     0.146 A 
ATOM     11  O   UNL     1     140.268 -19.435  79.670  1.00  0.00    -0.456 OA
ENDROOT
BRANCH   1  12
ATOM     12  C   UNL     1     140.160 -19.538  82.089  1.00  0.00     0.021 A 
ATOM     13  C   UNL     1     139.501 -20.781  82.137  1.00  0.00     0.016 A 
ATOM     14  C   UNL     1     139.384 -21.474  83.345  1.00  0.00     0.051 A 
ATOM     15  C   UNL     1     139.914 -20.935  84.524  1.00  0.00     0.157 A 
ATOM     16  C   UNL     1     140.678 -18.999  83.279  1.00  0.00     0.062 A 
ATOM     17  C   UNL     1     140.563 -19.690  84.490  1.00  0.00     0.158 A 
BRANCH  15  18
ATOM     18  O   UNL     1     139.796 -21.630  85.727  1.00  0.00    -0.504 OA
ATOM     19  H   UNL     1     140.608 -22.002  86.206  1.00  0.00     0.293 HD
ENDBRANCH  15  18
BRANCH  17  20
ATOM     20  O   UNL     1     141.098 -19.126  85.648  1.00  0.00    -0.504 OA
ATOM     21  H   UNL     1     141.795 -18.392  85.617  1.00  0.00     0.293 HD
ENDBRANCH  17  20
ENDBRANCH   1  12
BRANCH   6  22
ATOM     22  O   UNL     1     141.018 -15.518  76.860  1.00  0.00    -0.507 OA
ATOM     23  H   UNL     1     141.164 -14.830  77.583  1.00  0.00     0.293 HD
ENDBRANCH   6  22
BRANCH   8  24
ATOM     24  O   UNL     1     140.344 -19.868  74.940  1.00  0.00    -0.508 OA
ATOM     25  H   UNL     1     141.102 -19.923  74.269  1.00  0.00     0.293 HD
ENDBRANCH   8  24
TORSDOF 5
ENDMDL
MODEL 3
REMARK VINA RESULT:    -8.562      1.501      2.855
REMARK INTER + INTRA:         -10.381
REMARK INTER:                 -10.090
REMARK INTRA:                  -0.291
REMARK UNBOUND:                -0.318
REMARK SMILES O=c1cc(-c2ccc(O)c(O)c2)oc2cc(O)cc(O)c12
REMARK SMILES IDX 4 1 3 2 2 3 1 4 21 5 19 6 18 7 16 8 15 9 14 10 13 11 5 12
REMARK SMILES IDX 6 13 7 14 8 15 12 16 10 17 9 18 11 20 20 22 17 24
REMARK H PARENT 9 19 11 21 20 23 17 25
REMARK Flexibility Score: inf
ROOT
ATOM      1  C   UNL     1     139.888 -18.576  80.794  1.00  0.00     0.138 A 
ATOM      2  C   UNL     1     139.339 -19.195  79.662  1.00  0.00     0.100 A 
ATOM      3  C   UNL     1     139.243 -18.485  78.464  1.00  0.00     0.197 A 
ATOM      4  O   UNL     1     138.804 -19.087  77.451  1.00  0.00    -0.289 OA
ATOM      5  C   UNL     1     139.672 -17.137  78.409  1.00  0.00     0.107 A 
ATOM      6  C   UNL     1     139.585 -16.304  77.255  1.00  0.00     0.134 A 
ATOM      7  C   UNL     1     140.148 -15.022  77.286  1.00  0.00     0.093 A 
ATOM      8  C   UNL     1     140.740 -14.522  78.449  1.00  0.00     0.123 A 
ATOM      9  C   UNL     1     140.782 -15.309  79.597  1.00  0.00     0.094 A 
ATOM     10  C   UNL     1     140.261 -16.604  79.588  1.00  0.00     0.146 A 
ATOM     11  O   UNL     1     140.333 -17.327  80.700  1.00  0.00    -0.456 OA
ENDROOT
BRANCH   1  12
ATOM     12  C   UNL     1     140.012 -19.284  82.093  1.00  0.00     0.021 A 
ATOM     13  C   UNL     1     140.231 -18.588  83.297  1.00  0.00     0.016 A 
ATOM     14  C   UNL     1     140.353 -19.281  84.504  1.00  0.00     0.051 A 
ATOM     15  C   UNL     1     140.267 -20.678  84.529  1.00  0.00     0.157 A 
ATOM     16  C   UNL     1     139.939 -20.688  82.126  1.00  0.00     0.062 A 
ATOM     17  C   UNL     1     140.061 -21.384  83.333  1.00  0.00     0.158 A 
BRANCH  15  18
ATOM     18  O   UNL     1     140.387 -21.366  85.736  1.00  0.00    -0.504 OA
ATOM     19  H   UNL     1     141.162 -21.198  86.368  1.00  0.00     0.293 HD
ENDBRANCH  15  18
BRANCH  17  20
ATOM     20  O   UNL     1     139.974 -22.776  83.325  1.00  0.00    -0.504 OA
ATOM     21  H   UNL     1     139.662 -23.292  82.511  1.00  0.00     0.293 HD
ENDBRANCH  17  20
ENDBRANCH   1  12
BRANCH   6  22
ATOM     22  O   UNL     1     138.939 -16.673  76.071  1.00  0.00    -0.507 OA
ATOM     23  H   UNL     1     137.977 -16.466  75.850  1.00  0.00     0.293 HD
ENDBRANCH   6  22
BRANCH   8  24
ATOM     24  O   UNL     1     141.284 -13.240  78.474  1.00  0.00    -0.508 OA
ATOM     25  H   UNL     1     141.224 -12.622  77.672  1.00  0.00     0.293 HD
ENDBRANCH   8  24
TORSDOF 5
ENDMDL
MODEL 4
REMARK VINA RESULT:    -8.266      2.352      7.287
REMARK INTER + INTRA:         -10.033
REMARK INTER:                  -9.764
REMARK INTRA:                  -0.269
REMARK UNBOUND:                -0.318
REMARK SMILES O=c1cc(-c2ccc(O)c(O)c2)oc2cc(O)cc(O)c12
REMARK SMILES IDX 4 1 3 2 2 3 1 4 21 5 19 6 18 7 16 8 15 9 14 10 13 11 5 12
REMARK SMILES IDX 6 13 7 14 8 15 12 16 10 17 9 18 11 20 20 22 17 24
REMARK H PARENT 9 19 11 21 20 23 17 25
REMARK Flexibility Score: inf
ROOT
ATOM      1  C   UNL     1     139.952 -18.183  80.756  1.00  0.00     0.138 A 
ATOM      2  C   UNL     1     139.351 -19.385  80.355  1.00  0.00     0.100 A 
ATOM      3  C   UNL     1     139.298 -20.460  81.244  1.00  0.00     0.197 A 
ATOM      4  O   UNL     1     138.699 -21.504  80.879  1.00  0.00    -0.289 OA
ATOM      5  C   UNL     1     139.877 -20.339  82.530  1.00  0.00     0.107 A 
ATOM      6  C   UNL     1     139.919 -21.381  83.504  1.00  0.00     0.134 A 
ATOM      7  C   UNL     1     140.415 -21.108  84.785  1.00  0.00     0.093 A 
ATOM      8  C   UNL     1     140.927 -19.848  85.107  1.00  0.00     0.123 A 
ATOM      9  C   UNL     1     140.941 -18.841  84.146  1.00  0.00     0.094 A 
ATOM     10  C   UNL     1     140.421 -19.071  82.871  1.00  0.00     0.146 A 
ATOM     11  O   UNL     1     140.439 -18.078  81.987  1.00  0.00    -0.456 OA
ENDROOT
BRANCH   1  12
ATOM     12  C   UNL     1     140.037 -17.010  79.849  1.00  0.00     0.021 A 
ATOM     13  C   UNL     1     138.890 -16.296  79.454  1.00  0.00     0.016 A 
ATOM     14  C   UNL     1     138.999 -15.201  78.593  1.00  0.00     0.051 A 
ATOM     15  C   UNL     1     140.251 -14.806  78.106  1.00  0.00     0.157 A 
ATOM     16  C   UNL     1     141.289 -16.614  79.346  1.00  0.00     0.062 A 
ATOM     17  C   UNL     1     141.401 -15.518  78.484  1.00  0.00     0.158 A 
BRANCH  15  18
ATOM     18  O   UNL     1     140.356 -13.712  77.249  1.00  0.00    -0.504 OA
ATOM     19  H   UNL     1     140.177 -13.797  76.255  1.00  0.00     0.293 HD
ENDBRANCH  15  18
BRANCH  17  20
ATOM     20  O   UNL     1     142.662 -15.151  78.013  1.00  0.00    -0.504 OA
ATOM     21  H   UNL     1     142.848 -14.234  77.629  1.00  0.00     0.293 HD
ENDBRANCH  17  20
ENDBRANCH   1  12
BRANCH   6  22
ATOM     22  O   UNL     1     139.512 -22.696  83.259  1.00  0.00    -0.507 OA
ATOM     23  H   UNL     1     140.118 -23.437  82.943  1.00  0.00     0.293 HD
ENDBRANCH   6  22
BRANCH   8  24
ATOM     24  O   UNL     1     141.432 -19.591  86.379  1.00  0.00    -0.508 OA
ATOM     25  H   UNL     1     140.826 -19.326  87.148  1.00  0.00     0.293 HD
ENDBRANCH   8  24
TORSDOF 5
ENDMDL
MODEL 5
REMARK VINA RESULT:    -8.242      2.858      6.469
REMARK INTER + INTRA:         -10.005
REMARK INTER:                  -9.701
REMARK INTRA:                  -0.305
REMARK UNBOUND:                -0.318
REMARK SMILES O=c1cc(-c2ccc(O)c(O)c2)oc2cc(O)cc(O)c12
REMARK SMILES IDX 4 1 3 2 2 3 1 4 21 5 19 6 18 7 16 8 15 9 14 10 13 11 5 12
REMARK SMILES IDX 6 13 7 14 8 15 12 16 10 17 9 18 11 20 20 22 17 24
REMARK H PARENT 9 19 11 21 20 23 17 25
REMARK Flexibility Score: inf
ROOT
ATOM      1  C   UNL     1     139.682 -17.473  79.077  1.00  0.00     0.138 A 
ATOM      2  C   UNL     1     140.161 -18.160  80.201  1.00  0.00     0.100 A 
ATOM      3  C   UNL     1     139.721 -19.460  80.455  1.00  0.00     0.197 A 
ATOM      4  O   UNL     1     140.215 -20.073  81.436  1.00  0.00    -0.289 OA
ATOM      5  C   UNL     1     138.773 -20.063  79.594  1.00  0.00     0.107 A 
ATOM      6  C   UNL     1     138.223 -21.366  79.777  1.00  0.00     0.134 A 
ATOM      7  C   UNL     1     137.380 -21.903  78.795  1.00  0.00     0.093 A 
ATOM      8  C   UNL     1     137.019 -21.159  77.669  1.00  0.00     0.123 A 
ATOM      9  C   UNL     1     137.508 -19.865  77.509  1.00  0.00     0.094 A 
ATOM     10  C   UNL     1     138.379 -19.314  78.452  1.00  0.00     0.146 A 
ATOM     11  O   UNL     1     138.834 -18.081  78.255  1.00  0.00    -0.456 OA
ENDROOT
BRANCH   1  12
ATOM     12  C   UNL     1     140.114 -16.087  78.761  1.00  0.00     0.021 A 
ATOM     13  C   UNL     1     141.391 -15.613  79.117  1.00  0.00     0.016 A 
ATOM     14  C   UNL     1     141.768 -14.301  78.816  1.00  0.00     0.051 A 
ATOM     15  C   UNL     1     140.877 -13.441  78.163  1.00  0.00     0.157 A 
ATOM     16  C   UNL     1     139.221 -15.213  78.118  1.00  0.00     0.062 A 
ATOM     17  C   UNL     1     139.596 -13.900  77.814  1.00  0.00     0.158 A 
BRANCH  15  18
ATOM     18  O   UNL     1     141.257 -12.134  77.862  1.00  0.00    -0.504 OA
ATOM     19  H   UNL     1     141.854 -11.599  78.483  1.00  0.00     0.293 HD
ENDBRANCH  15  18
BRANCH  17  20
ATOM     20  O   UNL     1     138.684 -13.067  77.167  1.00  0.00    -0.504 OA
ATOM     21  H   UNL     1     138.847 -12.712  76.233  1.00  0.00     0.293 HD
ENDBRANCH  17  20
ENDBRANCH   1  12
BRANCH   6  22
ATOM     22  O   UNL     1     138.451 -22.159  80.905  1.00  0.00    -0.507 OA
ATOM     23  H   UNL     1     139.347 -22.284  81.351  1.00  0.00     0.293 HD
ENDBRANCH   6  22
BRANCH   8  24
ATOM     24  O   UNL     1     136.168 -21.696  76.706  1.00  0.00    -0.508 OA
ATOM     25  H   UNL     1     135.353 -21.190  76.377  1.00  0.00     0.293 HD
ENDBRANCH   8  24
TORSDOF 5
ENDMDL
MODEL 6
REMARK VINA RESULT:    -8.103      1.318      2.686
REMARK INTER + INTRA:          -9.841
REMARK INTER:                  -9.550
REMARK INTRA:                  -0.292
REMARK UNBOUND:                -0.318
REMARK SMILES O=c1cc(-c2ccc(O)c(O)c2)oc2cc(O)cc(O)c12
REMARK SMILES IDX 4 1 3 2 2 3 1 4 21 5 19 6 18 7 16 8 15 9 14 10 13 11 5 12
REMARK SMILES IDX 6 13 7 14 8 15 12 16 10 17 9 18 11 20 20 22 17 24
REMARK H PARENT 9 19 11 21 20 23 17 25
REMARK Flexibility Score: inf
ROOT
ATOM      1  C   UNL     1     139.736 -19.582  80.045  1.00  0.00     0.138 A 
ATOM      2  C   UNL     1     138.910 -20.420  79.284  1.00  0.00     0.100 A 
ATOM      3  C   UNL     1     138.790 -20.209  77.909  1.00  0.00     0.197 A 
ATOM      4  O   UNL     1     138.090 -21.014  77.243  1.00  0.00    -0.289 OA
ATOM      5  C   UNL     1     139.478 -19.132  77.300  1.00  0.00     0.107 A 
ATOM      6  C   UNL     1     139.399 -18.796  75.916  1.00  0.00     0.134 A 
ATOM      7  C   UNL     1     140.216 -17.780  75.405  1.00  0.00     0.093 A 
ATOM      8  C   UNL     1     141.064 -17.048  76.240  1.00  0.00     0.123 A 
ATOM      9  C   UNL     1     141.108 -17.333  77.603  1.00  0.00     0.094 A 
ATOM     10  C   UNL     1     140.332 -18.363  78.137  1.00  0.00     0.146 A 
ATOM     11  O   UNL     1     140.414 -18.612  79.439  1.00  0.00    -0.456 OA
ENDROOT
BRANCH   1  12
ATOM     12  C   UNL     1     139.899 -19.761  81.510  1.00  0.00     0.021 A 
ATOM     13  C   UNL     1     140.443 -18.748  82.323  1.00  0.00     0.016 A 
ATOM     14  C   UNL     1     140.592 -18.947  83.698  1.00  0.00     0.051 A 
ATOM     15  C   UNL     1     140.210 -20.161  84.282  1.00  0.00     0.157 A 
ATOM     16  C   UNL     1     139.529 -20.980  82.104  1.00  0.00     0.062 A 
ATOM     17  C   UNL     1     139.678 -21.182  83.480  1.00  0.00     0.158 A 
BRANCH  15  18
ATOM     18  O   UNL     1     140.360 -20.355  85.655  1.00  0.00    -0.504 OA
ATOM     19  H   UNL     1     141.197 -20.775  86.044  1.00  0.00     0.293 HD
ENDBRANCH  15  18
BRANCH  17  20
ATOM     20  O   UNL     1     139.291 -22.404  84.032  1.00  0.00    -0.504 OA
ATOM     21  H   UNL     1     138.390 -22.822  83.837  1.00  0.00     0.293 HD
ENDBRANCH  17  20
ENDBRANCH   1  12
BRANCH   6  22
ATOM     22  O   UNL     1     138.524 -19.407  75.013  1.00  0.00    -0.507 OA
ATOM     23  H   UNL     1     138.377 -20.401  74.935  1.00  0.00     0.293 HD
ENDBRANCH   6  22
BRANCH   8  24
ATOM     24  O   UNL     1     141.862 -16.030  75.725  1.00  0.00    -0.508 OA
ATOM     25  H   UNL     1     141.998 -15.915  74.727  1.00  0.00     0.293 HD
ENDBRANCH   8  24
TORSDOF 5
ENDMDL
MODEL 7
REMARK VINA RESULT:    -7.870      1.939      6.835
REMARK INTER + INTRA:          -9.568
REMARK INTER:                  -9.287
REMARK INTRA:                  -0.281
REMARK UNBOUND:                -0.318
REMARK SMILES O=c1cc(-c2ccc(O)c(O)c2)oc2cc(O)cc(O)c12
REMARK SMILES IDX 4 1 3 2 2 3 1 4 21 5 19 6 18 7 16 8 15 9 14 10 13 11 5 12
REMARK SMILES IDX 6 13 7 14 8 15 12 16 10 17 9 18 11 20 20 22 17 24
REMARK H PARENT 9 19 11 21 20 23 17 25
REMARK Flexibility Score: inf
ROOT
ATOM      1  C   UNL     1     139.794 -19.546  80.600  1.00  0.00     0.138 A 
ATOM      2  C   UNL     1     140.283 -19.551  81.914  1.00  0.00     0.100 A 
ATOM      3  C   UNL     1     139.855 -20.536  82.806  1.00  0.00     0.197 A 
ATOM      4  O   UNL     1     140.358 -20.552  83.959  1.00  0.00    -0.289 OA
ATOM      5  C   UNL     1     138.910 -21.502  82.387  1.00  0.00     0.107 A 
ATOM      6  C   UNL     1     138.372 -22.528  83.220  1.00  0.00     0.134 A 
ATOM      7  C   UNL     1     137.530 -23.499  82.662  1.00  0.00     0.093 A 
ATOM      8  C   UNL     1     137.159 -23.445  81.317  1.00  0.00     0.123 A 
ATOM      9  C   UNL     1     137.636 -22.416  80.508  1.00  0.00     0.094 A 
ATOM     10  C   UNL     1     138.505 -21.453  81.025  1.00  0.00     0.146 A 
ATOM     11  O   UNL     1     138.949 -20.496  80.217  1.00  0.00    -0.456 OA
ENDROOT
BRANCH   1  12
ATOM     12  C   UNL     1     140.214 -18.520  79.611  1.00  0.00     0.021 A 
ATOM     13  C   UNL     1     140.456 -18.848  78.264  1.00  0.00     0.016 A 
ATOM     14  C   UNL     1     140.859 -17.864  77.357  1.00  0.00     0.051 A 
ATOM     15  C   UNL     1     141.035 -16.541  77.781  1.00  0.00     0.157 A 
ATOM     16  C   UNL     1     140.405 -17.192  80.031  1.00  0.00     0.062 A 
ATOM     17  C   UNL     1     140.808 -16.205  79.125  1.00  0.00     0.158 A 
BRANCH  15  18
ATOM     18  O   UNL     1     141.436 -15.562  76.873  1.00  0.00    -0.504 OA
ATOM     19  H   UNL     1     141.252 -15.652  75.880  1.00  0.00     0.293 HD
ENDBRANCH  15  18
BRANCH  17  20
ATOM     20  O   UNL     1     140.979 -14.897  79.579  1.00  0.00    -0.504 OA
ATOM     21  H   UNL     1     140.829 -14.095  78.980  1.00  0.00     0.293 HD
ENDBRANCH  17  20
ENDBRANCH   1  12
BRANCH   6  22
ATOM     22  O   UNL     1     138.610 -22.623  84.594  1.00  0.00    -0.507 OA
ATOM     23  H   UNL     1     138.205 -22.019  85.293  1.00  0.00     0.293 HD
ENDBRANCH   6  22
BRANCH   8  24
ATOM     24  O   UNL     1     136.309 -24.407  80.775  1.00  0.00    -0.508 OA
ATOM     25  H   UNL     1     135.483 -24.149  80.248  1.00  0.00     0.293 HD
ENDBRANCH   8  24
TORSDOF 5
ENDMDL
MODEL 8
REMARK VINA RESULT:    -7.868      3.087      3.913
REMARK INTER + INTRA:          -9.565
REMARK INTER:                  -9.280
REMARK INTRA:                  -0.286
REMARK UNBOUND:                -0.318
REMARK SMILES O=c1cc(-c2ccc(O)c(O)c2)oc2cc(O)cc(O)c12
REMARK SMILES IDX 4 1 3 2 2 3 1 4 21 5 19 6 18 7 16 8 15 9 14 10 13 11 5 12
REMARK SMILES IDX 6 13 7 14 8 15 12 16 10 17 9 18 11 20 20 22 17 24
REMARK H PARENT 9 19 11 21 20 23 17 25
REMARK Flexibility Score: inf
ROOT
ATOM      1  C   UNL     1     139.007 -20.248  78.298  1.00  0.00     0.138 A 
ATOM      2  C   UNL     1     138.616 -18.964  78.701  1.00  0.00     0.100 A 
ATOM      3  C   UNL     1     139.277 -17.847  78.185  1.00  0.00     0.197 A 
ATOM      4  O   UNL     1     138.864 -16.707  78.518  1.00  0.00    -0.289 OA
ATOM      5  C   UNL     1     140.355 -18.022  77.285  1.00  0.00     0.107 A 
ATOM      6  C   UNL     1     141.127 -16.960  76.727  1.00  0.00     0.134 A 
ATOM      7  C   UNL     1     142.095 -17.247  75.756  1.00  0.00     0.093 A 
ATOM      8  C   UNL     1     142.359 -18.563  75.368  1.00  0.00     0.123 A 
ATOM      9  C   UNL     1     141.648 -19.611  75.947  1.00  0.00     0.094 A 
ATOM     10  C   UNL     1     140.652 -19.355  76.892  1.00  0.00     0.146 A 
ATOM     11  O   UNL     1     139.986 -20.382  77.410  1.00  0.00    -0.456 OA
ENDROOT
BRANCH   1  12
ATOM     12  C   UNL     1     138.340 -21.470  78.816  1.00  0.00     0.021 A 
ATOM     13  C   UNL     1     138.224 -22.636  78.037  1.00  0.00     0.016 A 
ATOM     14  C   UNL     1     137.583 -23.768  78.547  1.00  0.00     0.051 A 
ATOM     15  C   UNL     1     137.040 -23.752  79.838  1.00  0.00     0.157 A 
ATOM     16  C   UNL     1     137.781 -21.458  80.106  1.00  0.00     0.062 A 
ATOM     17  C   UNL     1     137.139 -22.590  80.619  1.00  0.00     0.158 A 
BRANCH  15  18
ATOM     18  O   UNL     1     136.402 -24.884  80.344  1.00  0.00    -0.504 OA
ATOM     19  H   UNL     1     136.518 -25.170  81.309  1.00  0.00     0.293 HD
ENDBRANCH  15  18
BRANCH  17  20
ATOM     20  O   UNL     1     136.605 -22.541  81.907  1.00  0.00    -0.504 OA
ATOM     21  H   UNL     1     136.092 -21.738  82.248  1.00  0.00     0.293 HD
ENDBRANCH  17  20
ENDBRANCH   1  12
BRANCH   6  22
ATOM     22  O   UNL     1     141.003 -15.620  77.107  1.00  0.00    -0.507 OA
ATOM     23  H   UNL     1     140.184 -15.052  76.956  1.00  0.00     0.293 HD
ENDBRANCH   6  22
BRANCH   8  24
ATOM     24  O   UNL     1     143.334 -18.840  74.413  1.00  0.00    -0.508 OA
ATOM     25  H   UNL     1     143.843 -18.099  73.944  1.00  0.00     0.293 HD
ENDBRANCH   8  24
TORSDOF 5
ENDMDL
MODEL 9
REMARK VINA RESULT:    -7.783      2.725      4.557
REMARK INTER + INTRA:          -9.466
REMARK INTER:                  -9.148
REMARK INTRA:                  -0.318
REMARK UNBOUND:                -0.318
REMARK SMILES O=c1cc(-c2ccc(O)c(O)c2)oc2cc(O)cc(O)c12
REMARK SMILES IDX 4 1 3 2 2 3 1 4 21 5 19 6 18 7 16 8 15 9 14 10 13 11 5 12
REMARK SMILES IDX 6 13 7 14 8 15 12 16 10 17 9 18 11 20 20 22 17 24
REMARK H PARENT 9 19 11 21 20 23 17 25
REMARK Flexibility Score: inf
ROOT
ATOM      1  C   UNL     1     138.789 -20.668  78.423  1.00  0.00     0.138 A 
ATOM      2  C   UNL     1     139.212 -20.688  77.087  1.00  0.00     0.100 A 
ATOM      3  C   UNL     1     139.839 -19.566  76.544  1.00  0.00     0.197 A 
ATOM      4  O   UNL     1     140.263 -19.636  75.361  1.00  0.00    -0.289 OA
ATOM      5  C   UNL     1     140.017 -18.407  77.336  1.00  0.00     0.107 A 
ATOM      6  C   UNL     1     140.606 -17.191  76.877  1.00  0.00     0.134 A 
ATOM      7  C   UNL     1     140.835 -16.150  77.785  1.00  0.00     0.093 A 
ATOM      8  C   UNL     1     140.439 -16.258  79.121  1.00  0.00     0.123 A 
ATOM      9  C   UNL     1     139.814 -17.420  79.566  1.00  0.00     0.094 A 
ATOM     10  C   UNL     1     139.604 -18.490  78.693  1.00  0.00     0.146 A 
ATOM     11  O   UNL     1     139.017 -19.586  79.161  1.00  0.00    -0.456 OA
ENDROOT
BRANCH   1  12
ATOM     12  C   UNL     1     138.115 -21.833  79.051  1.00  0.00     0.021 A 
ATOM     13  C   UNL     1     137.937 -23.045  78.358  1.00  0.00     0.016 A 
ATOM     14  C   UNL     1     137.290 -24.122  78.970  1.00  0.00     0.051 A 
ATOM     15  C   UNL     1     136.804 -24.005  80.277  1.00  0.00     0.157 A 
ATOM     16  C   UNL     1     137.613 -21.720  80.359  1.00  0.00     0.062 A 
ATOM     17  C   UNL     1     136.965 -22.797  80.974  1.00  0.00     0.158 A 
BRANCH  15  18
ATOM     18  O   UNL     1     136.161 -25.082  80.885  1.00  0.00    -0.504 OA
ATOM     19  H   UNL     1     136.658 -25.724  81.492  1.00  0.00     0.293 HD
ENDBRANCH  15  18
BRANCH  17  20
ATOM     20  O   UNL     1     136.489 -22.647  82.276  1.00  0.00    -0.504 OA
ATOM     21  H   UNL     1     135.760 -21.985  82.511  1.00  0.00     0.293 HD
ENDBRANCH  17  20
ENDBRANCH   1  12
BRANCH   6  22
ATOM     22  O   UNL     1     140.959 -16.948  75.546  1.00  0.00    -0.507 OA
ATOM     23  H   UNL     1     141.418 -16.113  75.215  1.00  0.00     0.293 HD
ENDBRANCH   6  22
BRANCH   8  24
ATOM     24  O   UNL     1     140.657 -15.210  80.013  1.00  0.00    -0.508 OA
ATOM     25  H   UNL     1     140.648 -15.356  81.016  1.00  0.00     0.293 HD
ENDBRANCH   8  24
TORSDOF 5
ENDMDL
