MODEL 1
REMARK VINA RESULT:    -3.871      0.000      0.000
REMARK INTER + INTRA:          -9.673
REMARK INTER:                  -9.754
REMARK INTRA:                   0.081
REMARK UNBOUND:                 0.081
REMARK SMILES CCCCCCCCCCCCCCCCCCCCCCCCCCCC(=O)[O-]
REMARK SMILES IDX 15 1 16 2 17 3 18 4 19 5 20 6 21 7 22 8 23 9 24 10 25 11
REMARK SMILES IDX 26 12 27 13 28 14 29 15 30 16 14 17 13 18 12 19 11 20 10 21
REMARK SMILES IDX 9 22 8 23 7 24 6 25 5 26 4 27 3 28 2 29 1 30
REMARK H PARENT
REMARK Flexibility Score: inf
ROOT
ATOM      1  C   UNL     1      45.727  29.873   2.186  1.00  0.00     0.000 C 
ENDROOT
BRANCH   1   2
ATOM      2  C   UNL     1      44.511  28.944   2.363  1.00  0.00     0.000 C 
BRANCH   2   3
ATOM      3  C   UNL     1      44.713  27.909   3.485  1.00  0.00     0.000 C 
BRANCH   3   4
ATOM      4  C   UNL     1      44.464  26.464   3.011  1.00  0.00     0.000 C 
BRANCH   4   5
ATOM      5  C   UNL     1      45.268  25.392   3.771  1.00  0.00     0.000 C 
BRANCH   5   6
ATOM      6  C   UNL     1      46.686  25.863   4.138  1.00  0.00     0.000 C 
BRANCH   6   7
ATOM      7  C   UNL     1      46.695  27.248   4.805  1.00  0.00     0.000 C 
BRANCH   7   8
ATOM      8  C   UNL     1      46.814  27.170   6.334  1.00  0.00     0.000 C 
BRANCH   8   9
ATOM      9  C   UNL     1      47.081  28.558   6.936  1.00  0.00     0.000 C 
BRANCH   9  10
ATOM     10  C   UNL     1      45.795  29.379   7.121  1.00  0.00     0.000 C 
BRANCH  10  11
ATOM     11  C   UNL     1      45.356  29.465   8.594  1.00  0.00     0.000 C 
BRANCH  11  12
ATOM     12  C   UNL     1      45.333  28.095   9.297  1.00  0.00     0.006 C 
BRANCH  12  13
ATOM     13  C   UNL     1      46.398  27.943  10.397  1.00  0.00     0.053 C 
BRANCH  13  14
ATOM     14  C   UNL     1      46.499  26.537  10.907  1.00  0.00     0.041 C 
ATOM     15  O   UNL     1      46.142  25.573  10.180  1.00  0.00    -0.550 OA
ATOM     16  O   UNL     1      47.030  26.287  12.166  1.00  0.00    -0.550 OA
ENDBRANCH  13  14
ENDBRANCH  12  13
ENDBRANCH  11  12
ENDBRANCH  10  11
ENDBRANCH   9  10
ENDBRANCH   8   9
ENDBRANCH   7   8
ENDBRANCH   6   7
ENDBRANCH   5   6
ENDBRANCH   4   5
ENDBRANCH   3   4
ENDBRANCH   2   3
ENDBRANCH   1   2
BRANCH   1  17
ATOM     17  C   UNL     1      46.987  29.180   1.634  1.00  0.00     0.000 C 
BRANCH  17  18
ATOM     18  C   UNL     1      46.676  28.232   0.462  1.00  0.00     0.000 C 
BRANCH  18  19
ATOM     19  C   UNL     1      46.043  28.958  -0.736  1.00  0.00     0.000 C 
BRANCH  19  20
ATOM     20  C   UNL     1      46.924  30.095  -1.276  1.00  0.00     0.000 C 
BRANCH  20  21
ATOM     21  C   UNL     1      46.948  30.092  -2.812  1.00  0.00     0.000 C 
BRANCH  21  22
ATOM     22  C   UNL     1      45.846  29.212  -3.429  1.00  0.00    -0.000 C 
BRANCH  22  23
ATOM     23  C   UNL     1      46.003  27.698  -3.197  1.00  0.00    -0.000 C 
BRANCH  23  24
ATOM     24  C   UNL     1      46.034  26.889  -4.504  1.00  0.00    -0.000 C 
BRANCH  24  25
ATOM     25  C   UNL     1      46.423  27.738  -5.728  1.00  0.00    -0.000 C 
BRANCH  25  26
ATOM     26  C   UNL     1      45.578  27.490  -6.991  1.00  0.00    -0.000 C 
BRANCH  26  27
ATOM     27  C   UNL     1      44.196  28.164  -6.931  1.00  0.00    -0.000 C 
BRANCH  27  28
ATOM     28  C   UNL     1      43.374  27.715  -5.714  1.00  0.00    -0.000 C 
BRANCH  28  29
ATOM     29  C   UNL     1      42.135  28.593  -5.481  1.00  0.00    -0.003 C 
ATOM     30  C   UNL     1      42.534  30.017  -5.104  1.00  0.00     0.004 C 
ENDBRANCH  28  29
ENDBRANCH  27  28
ENDBRANCH  26  27
ENDBRANCH  25  26
ENDBRANCH  24  25
ENDBRANCH  23  24
ENDBRANCH  22  23
ENDBRANCH  21  22
ENDBRANCH  20  21
ENDBRANCH  19  20
ENDBRANCH  18  19
ENDBRANCH  17  18
ENDBRANCH   1  17
TORSDOF 26
ENDMDL
MODEL 2
REMARK VINA RESULT:    -3.224      1.347      2.227
REMARK INTER + INTRA:          -8.043
REMARK INTER:                  -7.928
REMARK INTRA:                  -0.115
REMARK UNBOUND:                 0.081
REMARK SMILES CCCCCCCCCCCCCCCCCCCCCCCCCCCC(=O)[O-]
REMARK SMILES IDX 15 1 16 2 17 3 18 4 19 5 20 6 21 7 22 8 23 9 24 10 25 11
REMARK SMILES IDX 26 12 27 13 28 14 29 15 30 16 14 17 13 18 12 19 11 20 10 21
REMARK SMILES IDX 9 22 8 23 7 24 6 25 5 26 4 27 3 28 2 29 1 30
REMARK H PARENT
REMARK Flexibility Score: inf
ROOT
ATOM      1  C   UNL     1      44.670  29.261   1.873  1.00  0.00     0.000 C 
ENDROOT
BRANCH   1   2
ATOM      2  C   UNL     1      43.364  30.066   1.730  1.00  0.00     0.000 C 
BRANCH   2   3
ATOM      3  C   UNL     1      42.401  29.847   2.911  1.00  0.00     0.000 C 
BRANCH   3   4
ATOM      4  C   UNL     1      41.556  28.568   2.758  1.00  0.00     0.000 C 
BRANCH   4   5
ATOM      5  C   UNL     1      42.283  27.267   3.150  1.00  0.00     0.000 C 
BRANCH   5   6
ATOM      6  C   UNL     1      43.762  27.265   2.728  1.00  0.00     0.000 C 
BRANCH   6   7
ATOM      7  C   UNL     1      44.532  26.051   3.274  1.00  0.00     0.000 C 
BRANCH   7   8
ATOM      8  C   UNL     1      45.996  26.375   3.604  1.00  0.00     0.000 C 
BRANCH   8   9
ATOM      9  C   UNL     1      46.090  27.298   4.829  1.00  0.00     0.000 C 
BRANCH   9  10
ATOM     10  C   UNL     1      46.282  26.520   6.141  1.00  0.00     0.000 C 
BRANCH  10  11
ATOM     11  C   UNL     1      46.719  27.426   7.306  1.00  0.00     0.000 C 
BRANCH  11  12
ATOM     12  C   UNL     1      45.684  28.515   7.644  1.00  0.00     0.006 C 
BRANCH  12  13
ATOM     13  C   UNL     1      45.242  28.517   9.117  1.00  0.00     0.053 C 
BRANCH  13  14
ATOM     14  C   UNL     1      45.761  27.333   9.875  1.00  0.00     0.041 C 
ATOM     15  O   UNL     1      46.719  27.468  10.681  1.00  0.00    -0.550 OA
ATOM     16  O   UNL     1      45.161  26.089   9.725  1.00  0.00    -0.550 OA
ENDBRANCH  13  14
ENDBRANCH  12  13
ENDBRANCH  11  12
ENDBRANCH  10  11
ENDBRANCH   9  10
ENDBRANCH   8   9
ENDBRANCH   7   8
ENDBRANCH   6   7
ENDBRANCH   5   6
ENDBRANCH   4   5
ENDBRANCH   3   4
ENDBRANCH   2   3
ENDBRANCH   1   2
BRANCH   1  17
ATOM     17  C   UNL     1      45.935  30.122   2.054  1.00  0.00     0.000 C 
BRANCH  17  18
ATOM     18  C   UNL     1      47.104  29.651   1.170  1.00  0.00     0.000 C 
BRANCH  18  19
ATOM     19  C   UNL     1      46.896  28.230   0.620  1.00  0.00     0.000 C 
BRANCH  19  20
ATOM     20  C   UNL     1      47.125  28.140  -0.896  1.00  0.00     0.000 C 
BRANCH  20  21
ATOM     21  C   UNL     1      46.660  29.425  -1.600  1.00  0.00     0.000 C 
BRANCH  21  22
ATOM     22  C   UNL     1      46.815  29.362  -3.131  1.00  0.00    -0.000 C 
BRANCH  22  23
ATOM     23  C   UNL     1      47.123  27.967  -3.706  1.00  0.00    -0.000 C 
BRANCH  23  24
ATOM     24  C   UNL     1      47.035  27.916  -5.241  1.00  0.00    -0.000 C 
BRANCH  24  25
ATOM     25  C   UNL     1      46.904  29.310  -5.882  1.00  0.00    -0.000 C 
BRANCH  25  26
ATOM     26  C   UNL     1      45.615  29.537  -6.694  1.00  0.00    -0.000 C 
BRANCH  26  27
ATOM     27  C   UNL     1      44.365  29.684  -5.807  1.00  0.00    -0.000 C 
BRANCH  27  28
ATOM     28  C   UNL     1      43.605  28.360  -5.636  1.00  0.00    -0.000 C 
BRANCH  28  29
ATOM     29  C   UNL     1      42.095  28.567  -5.443  1.00  0.00    -0.003 C 
ATOM     30  C   UNL     1      41.559  29.624  -6.404  1.00  0.00     0.004 C 
ENDBRANCH  28  29
ENDBRANCH  27  28
ENDBRANCH  26  27
ENDBRANCH  25  26
ENDBRANCH  24  25
ENDBRANCH  23  24
ENDBRANCH  22  23
ENDBRANCH  21  22
ENDBRANCH  20  21
ENDBRANCH  19  20
ENDBRANCH  18  19
ENDBRANCH  17  18
ENDBRANCH   1  17
TORSDOF 26
ENDMDL
MODEL 3
REMARK VINA RESULT:    -3.112      4.497     11.376
REMARK INTER + INTRA:          -7.761
REMARK INTER:                  -6.665
REMARK INTRA:                  -1.096
REMARK UNBOUND:                 0.081
REMARK SMILES CCCCCCCCCCCCCCCCCCCCCCCCCCCC(=O)[O-]
REMARK SMILES IDX 15 1 16 2 17 3 18 4 19 5 20 6 21 7 22 8 23 9 24 10 25 11
REMARK SMILES IDX 26 12 27 13 28 14 29 15 30 16 14 17 13 18 12 19 11 20 10 21
REMARK SMILES IDX 9 22 8 23 7 24 6 25 5 26 4 27 3 28 2 29 1 30
REMARK H PARENT
REMARK Flexibility Score: inf
ROOT
ATOM      1  C   UNL     1      43.645  29.201   2.993  1.00  0.00     0.000 C 
ENDROOT
BRANCH   1   2
ATOM      2  C   UNL     1      44.733  30.124   2.415  1.00  0.00     0.000 C 
BRANCH   2   3
ATOM      3  C   UNL     1      44.893  29.970   0.891  1.00  0.00     0.000 C 
BRANCH   3   4
ATOM      4  C   UNL     1      45.078  28.503   0.459  1.00  0.00     0.000 C 
BRANCH   4   5
ATOM      5  C   UNL     1      46.506  28.142   0.008  1.00  0.00     0.000 C 
BRANCH   5   6
ATOM      6  C   UNL     1      47.103  29.180  -0.958  1.00  0.00     0.000 C 
BRANCH   6   7
ATOM      7  C   UNL     1      46.560  29.037  -2.390  1.00  0.00     0.000 C 
BRANCH   7   8
ATOM      8  C   UNL     1      45.996  27.637  -2.674  1.00  0.00     0.000 C 
BRANCH   8   9
ATOM      9  C   UNL     1      46.478  27.118  -4.037  1.00  0.00     0.000 C 
BRANCH   9  10
ATOM     10  C   UNL     1      47.053  28.233  -4.924  1.00  0.00     0.000 C 
BRANCH  10  11
ATOM     11  C   UNL     1      46.296  28.377  -6.257  1.00  0.00     0.000 C 
BRANCH  11  12
ATOM     12  C   UNL     1      45.155  29.409  -6.194  1.00  0.00     0.006 C 
BRANCH  12  13
ATOM     13  C   UNL     1      43.816  28.889  -6.745  1.00  0.00     0.053 C 
BRANCH  13  14
ATOM     14  C   UNL     1      42.979  28.229  -5.692  1.00  0.00     0.041 C 
ATOM     15  O   UNL     1      43.298  27.094  -5.250  1.00  0.00    -0.550 OA
ATOM     16  O   UNL     1      41.872  28.884  -5.167  1.00  0.00    -0.550 OA
ENDBRANCH  13  14
ENDBRANCH  12  13
ENDBRANCH  11  12
ENDBRANCH  10  11
ENDBRANCH   9  10
ENDBRANCH   8   9
ENDBRANCH   7   8
ENDBRANCH   6   7
ENDBRANCH   5   6
ENDBRANCH   4   5
ENDBRANCH   3   4
ENDBRANCH   2   3
ENDBRANCH   1   2
BRANCH   1  17
ATOM     17  C   UNL     1      42.217  29.776   2.929  1.00  0.00     0.000 C 
BRANCH  17  18
ATOM     18  C   UNL     1      41.189  28.753   2.413  1.00  0.00     0.000 C 
BRANCH  18  19
ATOM     19  C   UNL     1      41.822  27.392   2.079  1.00  0.00     0.000 C 
BRANCH  19  20
ATOM     20  C   UNL     1      42.634  26.813   3.248  1.00  0.00     0.000 C 
BRANCH  20  21
ATOM     21  C   UNL     1      44.025  26.358   2.779  1.00  0.00     0.000 C 
BRANCH  21  22
ATOM     22  C   UNL     1      44.988  26.068   3.945  1.00  0.00    -0.000 C 
BRANCH  22  23
ATOM     23  C   UNL     1      46.444  26.521   3.726  1.00  0.00    -0.000 C 
BRANCH  23  24
ATOM     24  C   UNL     1      47.125  27.003   5.018  1.00  0.00    -0.000 C 
BRANCH  24  25
ATOM     25  C   UNL     1      46.421  28.216   5.653  1.00  0.00    -0.000 C 
BRANCH  25  26
ATOM     26  C   UNL     1      46.023  28.041   7.130  1.00  0.00    -0.000 C 
BRANCH  26  27
ATOM     27  C   UNL     1      46.421  26.667   7.700  1.00  0.00    -0.000 C 
BRANCH  27  28
ATOM     28  C   UNL     1      45.755  26.375   9.053  1.00  0.00    -0.000 C 
BRANCH  28  29
ATOM     29  C   UNL     1      46.580  26.889  10.242  1.00  0.00    -0.003 C 
ATOM     30  C   UNL     1      46.921  25.755  11.204  1.00  0.00     0.004 C 
ENDBRANCH  28  29
ENDBRANCH  27  28
ENDBRANCH  26  27
ENDBRANCH  25  26
ENDBRANCH  24  25
ENDBRANCH  23  24
ENDBRANCH  22  23
ENDBRANCH  21  22
ENDBRANCH  20  21
ENDBRANCH  19  20
ENDBRANCH  18  19
ENDBRANCH  17  18
ENDBRANCH   1  17
TORSDOF 26
ENDMDL
MODEL 4
REMARK VINA RESULT:    -2.526      1.464      2.426
REMARK INTER + INTRA:          -6.285
REMARK INTER:                  -5.166
REMARK INTRA:                  -1.118
REMARK UNBOUND:                 0.081
REMARK SMILES CCCCCCCCCCCCCCCCCCCCCCCCCCCC(=O)[O-]
REMARK SMILES IDX 15 1 16 2 17 3 18 4 19 5 20 6 21 7 22 8 23 9 24 10 25 11
REMARK SMILES IDX 26 12 27 13 28 14 29 15 30 16 14 17 13 18 12 19 11 20 10 21
REMARK SMILES IDX 9 22 8 23 7 24 6 25 5 26 4 27 3 28 2 29 1 30
REMARK H PARENT
REMARK Flexibility Score: inf
ROOT
ATOM      1  C   UNL     1      42.947  27.265   1.521  1.00  0.00     0.000 C 
ENDROOT
BRANCH   1   2
ATOM      2  C   UNL     1      41.974  27.865   2.553  1.00  0.00     0.000 C 
BRANCH   2   3
ATOM      3  C   UNL     1      42.003  29.404   2.570  1.00  0.00     0.000 C 
BRANCH   3   4
ATOM      4  C   UNL     1      42.306  29.978   3.967  1.00  0.00     0.000 C 
BRANCH   4   5
ATOM      5  C   UNL     1      43.806  30.124   4.288  1.00  0.00     0.000 C 
BRANCH   5   6
ATOM      6  C   UNL     1      44.689  30.082   3.029  1.00  0.00     0.000 C 
BRANCH   6   7
ATOM      7  C   UNL     1      46.191  30.125   3.358  1.00  0.00     0.000 C 
BRANCH   7   8
ATOM      8  C   UNL     1      46.693  28.828   4.008  1.00  0.00     0.000 C 
BRANCH   8   9
ATOM      9  C   UNL     1      47.125  29.075   5.461  1.00  0.00     0.000 C 
BRANCH   9  10
ATOM     10  C   UNL     1      46.159  28.448   6.479  1.00  0.00     0.000 C 
BRANCH  10  11
ATOM     11  C   UNL     1      46.161  26.909   6.426  1.00  0.00     0.000 C 
BRANCH  11  12
ATOM     12  C   UNL     1      46.559  26.261   7.764  1.00  0.00     0.006 C 
BRANCH  12  13
ATOM     13  C   UNL     1      45.711  26.729   8.959  1.00  0.00     0.053 C 
BRANCH  13  14
ATOM     14  C   UNL     1      46.313  26.344  10.277  1.00  0.00     0.041 C 
ATOM     15  O   UNL     1      46.704  25.163  10.473  1.00  0.00    -0.550 OA
ATOM     16  O   UNL     1      46.484  27.298  11.272  1.00  0.00    -0.550 OA
ENDBRANCH  13  14
ENDBRANCH  12  13
ENDBRANCH  11  12
ENDBRANCH  10  11
ENDBRANCH   9  10
ENDBRANCH   8   9
ENDBRANCH   7   8
ENDBRANCH   6   7
ENDBRANCH   5   6
ENDBRANCH   4   5
ENDBRANCH   3   4
ENDBRANCH   2   3
ENDBRANCH   1   2
BRANCH   1  17
ATOM     17  C   UNL     1      44.381  27.049   2.042  1.00  0.00     0.000 C 
BRANCH  17  18
ATOM     18  C   UNL     1      45.452  27.410   0.998  1.00  0.00     0.000 C 
BRANCH  18  19
ATOM     19  C   UNL     1      45.118  28.698   0.227  1.00  0.00     0.000 C 
BRANCH  19  20
ATOM     20  C   UNL     1      46.341  29.608   0.034  1.00  0.00     0.000 C 
BRANCH  20  21
ATOM     21  C   UNL     1      46.627  29.837  -1.458  1.00  0.00     0.000 C 
BRANCH  21  22
ATOM     22  C   UNL     1      45.359  29.786  -2.329  1.00  0.00    -0.000 C 
BRANCH  22  23
ATOM     23  C   UNL     1      45.574  29.321  -3.782  1.00  0.00    -0.000 C 
BRANCH  23  24
ATOM     24  C   UNL     1      45.785  27.803  -3.902  1.00  0.00    -0.000 C 
BRANCH  24  25
ATOM     25  C   UNL     1      46.602  27.406  -5.145  1.00  0.00    -0.000 C 
BRANCH  25  26
ATOM     26  C   UNL     1      45.984  27.823  -6.493  1.00  0.00    -0.000 C 
BRANCH  26  27
ATOM     27  C   UNL     1      44.708  28.667  -6.332  1.00  0.00    -0.000 C 
BRANCH  27  28
ATOM     28  C   UNL     1      43.433  27.811  -6.307  1.00  0.00    -0.000 C 
BRANCH  28  29
ATOM     29  C   UNL     1      42.321  28.431  -5.447  1.00  0.00    -0.003 C 
ATOM     30  C   UNL     1      42.273  29.946  -5.621  1.00  0.00     0.004 C 
ENDBRANCH  28  29
ENDBRANCH  27  28
ENDBRANCH  26  27
ENDBRANCH  25  26
ENDBRANCH  24  25
ENDBRANCH  23  24
ENDBRANCH  22  23
ENDBRANCH  21  22
ENDBRANCH  20  21
ENDBRANCH  19  20
ENDBRANCH  18  19
ENDBRANCH  17  18
ENDBRANCH   1  17
TORSDOF 26
ENDMDL
MODEL 5
REMARK VINA RESULT:    -1.525      1.326      2.829
REMARK INTER + INTRA:          -3.762
REMARK INTER:                  -3.517
REMARK INTRA:                  -0.244
REMARK UNBOUND:                 0.081
REMARK SMILES CCCCCCCCCCCCCCCCCCCCCCCCCCCC(=O)[O-]
REMARK SMILES IDX 15 1 16 2 17 3 18 4 19 5 20 6 21 7 22 8 23 9 24 10 25 11
REMARK SMILES IDX 26 12 27 13 28 14 29 15 30 16 14 17 13 18 12 19 11 20 10 21
REMARK SMILES IDX 9 22 8 23 7 24 6 25 5 26 4 27 3 28 2 29 1 30
REMARK H PARENT
REMARK Flexibility Score: inf
ROOT
ATOM      1  C   UNL     1      45.064  30.125   3.847  1.00  0.00     0.000 C 
ENDROOT
BRANCH   1   2
ATOM      2  C   UNL     1      46.214  30.071   2.824  1.00  0.00     0.000 C 
BRANCH   2   3
ATOM      3  C   UNL     1      47.125  28.845   3.021  1.00  0.00     0.000 C 
BRANCH   3   4
ATOM      4  C   UNL     1      46.437  27.525   2.625  1.00  0.00     0.000 C 
BRANCH   4   5
ATOM      5  C   UNL     1      45.337  27.058   3.597  1.00  0.00     0.000 C 
BRANCH   5   6
ATOM      6  C   UNL     1      45.812  25.937   4.537  1.00  0.00     0.000 C 
BRANCH   6   7
ATOM      7  C   UNL     1      47.125  26.286   5.258  1.00  0.00     0.000 C 
BRANCH   7   8
ATOM      8  C   UNL     1      46.905  26.725   6.713  1.00  0.00     0.000 C 
BRANCH   8   9
ATOM      9  C   UNL     1      46.015  27.975   6.780  1.00  0.00     0.000 C 
BRANCH   9  10
ATOM     10  C   UNL     1      46.515  29.000   7.811  1.00  0.00     0.000 C 
BRANCH  10  11
ATOM     11  C   UNL     1      45.394  29.496   8.742  1.00  0.00     0.000 C 
BRANCH  11  12
ATOM     12  C   UNL     1      45.577  29.041  10.201  1.00  0.00     0.006 C 
BRANCH  12  13
ATOM     13  C   UNL     1      46.900  28.299  10.460  1.00  0.00     0.053 C 
BRANCH  13  14
ATOM     14  C   UNL     1      46.690  26.941  11.058  1.00  0.00     0.041 C 
ATOM     15  O   UNL     1      47.007  26.722  12.257  1.00  0.00    -0.550 OA
ATOM     16  O   UNL     1      46.103  25.930  10.308  1.00  0.00    -0.550 OA
ENDBRANCH  13  14
ENDBRANCH  12  13
ENDBRANCH  11  12
ENDBRANCH  10  11
ENDBRANCH   9  10
ENDBRANCH   8   9
ENDBRANCH   7   8
ENDBRANCH   6   7
ENDBRANCH   5   6
ENDBRANCH   4   5
ENDBRANCH   3   4
ENDBRANCH   2   3
ENDBRANCH   1   2
BRANCH   1  17
ATOM     17  C   UNL     1      43.676  29.791   3.268  1.00  0.00     0.000 C 
BRANCH  17  18
ATOM     18  C   UNL     1      43.646  29.844   1.730  1.00  0.00     0.000 C 
BRANCH  18  19
ATOM     19  C   UNL     1      42.640  28.851   1.123  1.00  0.00     0.000 C 
BRANCH  19  20
ATOM     20  C   UNL     1      42.898  27.401   1.560  1.00  0.00     0.000 C 
BRANCH  20  21
ATOM     21  C   UNL     1      43.983  26.749   0.689  1.00  0.00     0.000 C 
BRANCH  21  22
ATOM     22  C   UNL     1      45.089  27.734   0.266  1.00  0.00    -0.000 C 
BRANCH  22  23
ATOM     23  C   UNL     1      45.471  27.696  -1.226  1.00  0.00    -0.000 C 
BRANCH  23  24
ATOM     24  C   UNL     1      46.463  28.801  -1.621  1.00  0.00    -0.000 C 
BRANCH  24  25
ATOM     25  C   UNL     1      45.799  29.960  -2.387  1.00  0.00    -0.000 C 
BRANCH  25  26
ATOM     26  C   UNL     1      45.378  29.632  -3.831  1.00  0.00    -0.000 C 
BRANCH  26  27
ATOM     27  C   UNL     1      43.959  30.124  -4.168  1.00  0.00    -0.000 C 
BRANCH  27  28
ATOM     28  C   UNL     1      43.486  29.656  -5.552  1.00  0.00    -0.000 C 
BRANCH  28  29
ATOM     29  C   UNL     1      44.173  28.359  -6.004  1.00  0.00    -0.003 C 
ATOM     30  C   UNL     1      43.408  27.133  -5.512  1.00  0.00     0.004 C 
ENDBRANCH  28  29
ENDBRANCH  27  28
ENDBRANCH  26  27
ENDBRANCH  25  26
ENDBRANCH  24  25
ENDBRANCH  23  24
ENDBRANCH  22  23
ENDBRANCH  21  22
ENDBRANCH  20  21
ENDBRANCH  19  20
ENDBRANCH  18  19
ENDBRANCH  17  18
ENDBRANCH   1  17
TORSDOF 26
ENDMDL
MODEL 6
REMARK VINA RESULT:    -1.249      4.701     12.359
REMARK INTER + INTRA:          -3.066
REMARK INTER:                  -1.803
REMARK INTRA:                  -1.263
REMARK UNBOUND:                 0.081
REMARK SMILES CCCCCCCCCCCCCCCCCCCCCCCCCCCC(=O)[O-]
REMARK SMILES IDX 15 1 16 2 17 3 18 4 19 5 20 6 21 7 22 8 23 9 24 10 25 11
REMARK SMILES IDX 26 12 27 13 28 14 29 15 30 16 14 17 13 18 12 19 11 20 10 21
REMARK SMILES IDX 9 22 8 23 7 24 6 25 5 26 4 27 3 28 2 29 1 30
REMARK H PARENT
REMARK Flexibility Score: inf
ROOT
ATOM      1  C   UNL     1      44.550  28.554   1.253  1.00  0.00     0.000 C 
ENDROOT
BRANCH   1   2
ATOM      2  C   UNL     1      44.566  28.453  -0.284  1.00  0.00     0.000 C 
BRANCH   2   3
ATOM      3  C   UNL     1      45.754  27.628  -0.812  1.00  0.00     0.000 C 
BRANCH   3   4
ATOM      4  C   UNL     1      46.975  28.501  -1.158  1.00  0.00     0.000 C 
BRANCH   4   5
ATOM      5  C   UNL     1      46.630  29.902  -1.699  1.00  0.00     0.000 C 
BRANCH   5   6
ATOM      6  C   UNL     1      47.125  30.120  -3.139  1.00  0.00     0.000 C 
BRANCH   6   7
ATOM      7  C   UNL     1      46.002  29.971  -4.180  1.00  0.00     0.000 C 
BRANCH   7   8
ATOM      8  C   UNL     1      45.470  28.534  -4.277  1.00  0.00     0.000 C 
BRANCH   8   9
ATOM      9  C   UNL     1      43.934  28.519  -4.315  1.00  0.00     0.000 C 
BRANCH   9  10
ATOM     10  C   UNL     1      43.372  27.259  -4.992  1.00  0.00     0.000 C 
BRANCH  10  11
ATOM     11  C   UNL     1      42.916  27.518  -6.439  1.00  0.00     0.000 C 
BRANCH  11  12
ATOM     12  C   UNL     1      43.700  28.653  -7.124  1.00  0.00     0.006 C 
BRANCH  12  13
ATOM     13  C   UNL     1      43.084  30.047  -6.917  1.00  0.00     0.053 C 
BRANCH  13  14
ATOM     14  C   UNL     1      41.729  29.988  -6.278  1.00  0.00     0.041 C 
ATOM     15  O   UNL     1      40.706  29.786  -6.984  1.00  0.00    -0.550 OA
ATOM     16  O   UNL     1      41.599  30.110  -4.901  1.00  0.00    -0.550 OA
ENDBRANCH  13  14
ENDBRANCH  12  13
ENDBRANCH  11  12
ENDBRANCH  10  11
ENDBRANCH   9  10
ENDBRANCH   8   9
ENDBRANCH   7   8
ENDBRANCH   6   7
ENDBRANCH   5   6
ENDBRANCH   4   5
ENDBRANCH   3   4
ENDBRANCH   2   3
ENDBRANCH   1   2
BRANCH   1  17
ATOM     17  C   UNL     1      44.900  29.949   1.806  1.00  0.00     0.000 C 
BRANCH  17  18
ATOM     18  C   UNL     1      45.134  29.942   3.327  1.00  0.00     0.000 C 
BRANCH  18  19
ATOM     19  C   UNL     1      44.446  28.757   4.027  1.00  0.00     0.000 C 
BRANCH  19  20
ATOM     20  C   UNL     1      45.445  27.708   4.537  1.00  0.00     0.000 C 
BRANCH  20  21
ATOM     21  C   UNL     1      46.816  28.342   4.816  1.00  0.00     0.000 C 
BRANCH  21  22
ATOM     22  C   UNL     1      47.125  28.475   6.319  1.00  0.00    -0.000 C 
BRANCH  22  23
ATOM     23  C   UNL     1      46.987  29.895   6.898  1.00  0.00    -0.000 C 
BRANCH  23  24
ATOM     24  C   UNL     1      46.213  29.931   8.226  1.00  0.00    -0.000 C 
BRANCH  24  25
ATOM     25  C   UNL     1      45.012  28.968   8.249  1.00  0.00    -0.000 C 
BRANCH  25  26
ATOM     26  C   UNL     1      45.124  27.807   9.254  1.00  0.00    -0.000 C 
BRANCH  26  27
ATOM     27  C   UNL     1      45.401  26.452   8.578  1.00  0.00    -0.000 C 
BRANCH  27  28
ATOM     28  C   UNL     1      46.692  25.793   9.085  1.00  0.00    -0.000 C 
BRANCH  28  29
ATOM     29  C   UNL     1      46.923  26.022  10.586  1.00  0.00    -0.003 C 
ATOM     30  C   UNL     1      46.965  24.698  11.343  1.00  0.00     0.004 C 
ENDBRANCH  28  29
ENDBRANCH  27  28
ENDBRANCH  26  27
ENDBRANCH  25  26
ENDBRANCH  24  25
ENDBRANCH  23  24
ENDBRANCH  22  23
ENDBRANCH  21  22
ENDBRANCH  20  21
ENDBRANCH  19  20
ENDBRANCH  18  19
ENDBRANCH  17  18
ENDBRANCH   1  17
TORSDOF 26
ENDMDL
