MODEL 1
REMARK VINA RESULT:    -5.785      0.000      0.000
REMARK INTER + INTRA:          -7.456
REMARK INTER:                  -7.138
REMARK INTRA:                  -0.318
REMARK UNBOUND:                -0.318
REMARK SMILES Oc1cc(O)c2cc(O)c(-c3cc(O)c(O)c(O)c3)[o+]c2c1
REMARK SMILES IDX 10 1 20 2 21 3 22 4 2 5 3 6 4 7 6 8 7 9 8 10 11 11 12 12
REMARK SMILES IDX 13 13 19 14 15 15 17 16 14 17 16 19 18 21 9 23 1 25 5 27
REMARK H PARENT 14 18 16 20 18 22 9 24 1 26 5 28
REMARK Flexibility Score: inf
ROOT
ATOM      1  C   UNL     1      65.955   2.980  13.614  1.00  0.00     0.402 A 
ATOM      2  O   UNL     1      65.077   3.382  14.529  1.00  0.00    -0.202 OA
ATOM      3  C   UNL     1      63.955   2.724  14.802  1.00  0.00     0.368 A 
ATOM      4  C   UNL     1      63.096   3.224  15.784  1.00  0.00     0.162 A 
ATOM      5  C   UNL     1      61.912   2.553  16.094  1.00  0.00     0.128 A 
ATOM      6  C   UNL     1      61.584   1.372  15.418  1.00  0.00     0.093 A 
ATOM      7  C   UNL     1      62.427   0.850  14.430  1.00  0.00     0.136 A 
ATOM      8  C   UNL     1      63.632   1.532  14.111  1.00  0.00     0.125 A 
ATOM      9  C   UNL     1      64.530   1.090  13.127  1.00  0.00     0.078 A 
ATOM     10  C   UNL     1      65.695   1.818  12.864  1.00  0.00     0.223 A 
ENDROOT
BRANCH   1  11
ATOM     11  C   UNL     1      67.175   3.795  13.408  1.00  0.00     0.091 A 
ATOM     12  C   UNL     1      68.437   3.341  13.827  1.00  0.00     0.068 A 
ATOM     13  C   UNL     1      69.576   4.137  13.644  1.00  0.00     0.162 A 
ATOM     14  C   UNL     1      67.063   5.070  12.834  1.00  0.00     0.068 A 
ATOM     15  C   UNL     1      69.458   5.403  13.047  1.00  0.00     0.200 A 
ATOM     16  C   UNL     1      68.196   5.869  12.644  1.00  0.00     0.162 A 
BRANCH  13  17
ATOM     17  O   UNL     1      70.825   3.674  14.059  1.00  0.00    -0.504 OA
ATOM     18  H   UNL     1      71.479   3.255  13.408  1.00  0.00     0.293 HD
ENDBRANCH  13  17
BRANCH  15  19
ATOM     19  O   UNL     1      70.584   6.206  12.853  1.00  0.00    -0.502 OA
ATOM     20  H   UNL     1      70.710   7.086  13.338  1.00  0.00     0.293 HD
ENDBRANCH  15  19
BRANCH  16  21
ATOM     21  O   UNL     1      68.044   7.125  12.057  1.00  0.00    -0.504 OA
ATOM     22  H   UNL     1      67.680   7.919  12.570  1.00  0.00     0.293 HD
ENDBRANCH  16  21
ENDBRANCH   1  11
BRANCH  10  23
ATOM     23  O   UNL     1      66.564   1.407  11.853  1.00  0.00    -0.500 OA
ATOM     24  H   UNL     1      66.752   1.988  11.044  1.00  0.00     0.294 HD
ENDBRANCH  10  23
BRANCH   5  25
ATOM     25  O   UNL     1      61.068   3.068  17.075  1.00  0.00    -0.507 OA
ATOM     26  H   UNL     1      60.995   4.066  17.241  1.00  0.00     0.293 HD
ENDBRANCH   5  25
BRANCH   7  27
ATOM     27  O   UNL     1      62.031  -0.335  13.804  1.00  0.00    -0.507 OA
ATOM     28  H   UNL     1      61.202  -0.430  13.235  1.00  0.00     0.293 HD
ENDBRANCH   7  27
TORSDOF 7
ENDMDL
MODEL 2
REMARK VINA RESULT:    -5.767      1.220      7.264
REMARK INTER + INTRA:          -7.434
REMARK INTER:                  -7.138
REMARK INTRA:                  -0.296
REMARK UNBOUND:                -0.318
REMARK SMILES Oc1cc(O)c2cc(O)c(-c3cc(O)c(O)c(O)c3)[o+]c2c1
REMARK SMILES IDX 10 1 20 2 21 3 22 4 2 5 3 6 4 7 6 8 7 9 8 10 11 11 12 12
REMARK SMILES IDX 13 13 19 14 15 15 17 16 14 17 16 19 18 21 9 23 1 25 5 27
REMARK H PARENT 14 18 16 20 18 22 9 24 1 26 5 28
REMARK Flexibility Score: inf
ROOT
ATOM      1  C   UNL     1      65.618   3.794  13.715  1.00  0.00     0.402 A 
ATOM      2  O   UNL     1      66.813   3.415  14.160  1.00  0.00    -0.202 OA
ATOM      3  C   UNL     1      67.936   4.071  13.885  1.00  0.00     0.368 A 
ATOM      4  C   UNL     1      69.144   3.596  14.401  1.00  0.00     0.162 A 
ATOM      5  C   UNL     1      70.338   4.266  14.132  1.00  0.00     0.128 A 
ATOM      6  C   UNL     1      70.325   5.421  13.340  1.00  0.00     0.093 A 
ATOM      7  C   UNL     1      69.128   5.918  12.812  1.00  0.00     0.136 A 
ATOM      8  C   UNL     1      67.911   5.237  13.082  1.00  0.00     0.125 A 
ATOM      9  C   UNL     1      66.667   5.654  12.583  1.00  0.00     0.078 A 
ATOM     10  C   UNL     1      65.511   4.928  12.889  1.00  0.00     0.223 A 
ENDROOT
BRANCH   1  11
ATOM     11  C   UNL     1      64.439   2.984  14.099  1.00  0.00     0.091 A 
ATOM     12  C   UNL     1      63.458   3.487  14.970  1.00  0.00     0.068 A 
ATOM     13  C   UNL     1      62.361   2.697  15.340  1.00  0.00     0.162 A 
ATOM     14  C   UNL     1      64.325   1.668  13.629  1.00  0.00     0.068 A 
ATOM     15  C   UNL     1      62.242   1.387  14.846  1.00  0.00     0.200 A 
ATOM     16  C   UNL     1      63.231   0.873  13.990  1.00  0.00     0.162 A 
BRANCH  13  17
ATOM     17  O   UNL     1      61.390   3.209  16.201  1.00  0.00    -0.504 OA
ATOM     18  H   UNL     1      60.459   2.813  16.245  1.00  0.00     0.293 HD
ENDBRANCH  13  17
BRANCH  15  19
ATOM     19  O   UNL     1      61.154   0.589  15.200  1.00  0.00    -0.502 OA
ATOM     20  H   UNL     1      60.574   0.792  16.005  1.00  0.00     0.293 HD
ENDBRANCH  15  19
BRANCH  16  21
ATOM     21  O   UNL     1      63.147  -0.426  13.490  1.00  0.00    -0.504 OA
ATOM     22  H   UNL     1      63.050  -0.616  12.499  1.00  0.00     0.293 HD
ENDBRANCH  16  21
ENDBRANCH   1  11
BRANCH  10  23
ATOM     23  O   UNL     1      64.282   5.313  12.354  1.00  0.00    -0.500 OA
ATOM     24  H   UNL     1      63.959   4.967  11.458  1.00  0.00     0.294 HD
ENDBRANCH  10  23
BRANCH   5  25
ATOM     25  O   UNL     1      71.533   3.777  14.654  1.00  0.00    -0.507 OA
ATOM     26  H   UNL     1      71.779   3.910  15.629  1.00  0.00     0.293 HD
ENDBRANCH   5  25
BRANCH   7  27
ATOM     27  O   UNL     1      69.198   7.078  12.035  1.00  0.00    -0.507 OA
ATOM     28  H   UNL     1      68.459   7.761  11.962  1.00  0.00     0.293 HD
ENDBRANCH   7  27
TORSDOF 7
ENDMDL
MODEL 3
REMARK VINA RESULT:    -5.739      3.620      6.711
REMARK INTER + INTRA:          -7.400
REMARK INTER:                  -7.259
REMARK INTRA:                  -0.140
REMARK UNBOUND:                -0.318
REMARK SMILES Oc1cc(O)c2cc(O)c(-c3cc(O)c(O)c(O)c3)[o+]c2c1
REMARK SMILES IDX 10 1 20 2 21 3 22 4 2 5 3 6 4 7 6 8 7 9 8 10 11 11 12 12
REMARK SMILES IDX 13 13 19 14 15 15 17 16 14 17 16 19 18 21 9 23 1 25 5 27
REMARK H PARENT 14 18 16 20 18 22 9 24 1 26 5 28
REMARK Flexibility Score: inf
ROOT
ATOM      1  C   UNL     1      64.446   4.025  12.676  1.00  0.00     0.402 A 
ATOM      2  O   UNL     1      65.577   4.719  12.589  1.00  0.00    -0.202 OA
ATOM      3  C   UNL     1      66.742   4.279  13.053  1.00  0.00     0.368 A 
ATOM      4  C   UNL     1      67.877   5.081  12.913  1.00  0.00     0.162 A 
ATOM      5  C   UNL     1      69.114   4.642  13.387  1.00  0.00     0.128 A 
ATOM      6  C   UNL     1      69.218   3.392  14.008  1.00  0.00     0.093 A 
ATOM      7  C   UNL     1      68.096   2.569  14.162  1.00  0.00     0.136 A 
ATOM      8  C   UNL     1      66.835   3.013  13.681  1.00  0.00     0.125 A 
ATOM      9  C   UNL     1      65.655   2.263  13.804  1.00  0.00     0.078 A 
ATOM     10  C   UNL     1      64.449   2.769  13.310  1.00  0.00     0.223 A 
ENDROOT
BRANCH   1  11
ATOM     11  C   UNL     1      63.213   4.620  12.112  1.00  0.00     0.091 A 
ATOM     12  C   UNL     1      63.135   4.999  10.761  1.00  0.00     0.068 A 
ATOM     13  C   UNL     1      61.968   5.583  10.252  1.00  0.00     0.162 A 
ATOM     14  C   UNL     1      62.118   4.865  12.954  1.00  0.00     0.068 A 
ATOM     15  C   UNL     1      60.867   5.803  11.097  1.00  0.00     0.200 A 
ATOM     16  C   UNL     1      60.947   5.444  12.453  1.00  0.00     0.162 A 
BRANCH  13  17
ATOM     17  O   UNL     1      61.899   5.949   8.907  1.00  0.00    -0.504 OA
ATOM     18  H   UNL     1      62.462   6.704   8.534  1.00  0.00     0.293 HD
ENDBRANCH  13  17
BRANCH  15  19
ATOM     19  O   UNL     1      59.695   6.378  10.604  1.00  0.00    -0.502 OA
ATOM     20  H   UNL     1      59.379   7.295  10.895  1.00  0.00     0.293 HD
ENDBRANCH  15  19
BRANCH  16  21
ATOM     21  O   UNL     1      59.876   5.656  13.320  1.00  0.00    -0.504 OA
ATOM     22  H   UNL     1      58.930   5.799  12.983  1.00  0.00     0.293 HD
ENDBRANCH  16  21
ENDBRANCH   1  11
BRANCH  10  23
ATOM     23  O   UNL     1      63.267   2.045  13.475  1.00  0.00    -0.500 OA
ATOM     24  H   UNL     1      62.432   2.470  13.861  1.00  0.00     0.294 HD
ENDBRANCH  10  23
BRANCH   5  25
ATOM     25  O   UNL     1      70.234   5.456  13.238  1.00  0.00    -0.507 OA
ATOM     26  H   UNL     1      70.162   6.467  13.264  1.00  0.00     0.293 HD
ENDBRANCH   5  25
BRANCH   7  27
ATOM     27  O   UNL     1      68.283   1.333  14.789  1.00  0.00    -0.507 OA
ATOM     28  H   UNL     1      67.954   0.453  14.422  1.00  0.00     0.293 HD
ENDBRANCH   7  27
TORSDOF 7
ENDMDL
MODEL 4
REMARK VINA RESULT:    -5.712      1.229      7.154
REMARK INTER + INTRA:          -7.366
REMARK INTER:                  -7.112
REMARK INTRA:                  -0.255
REMARK UNBOUND:                -0.318
REMARK SMILES Oc1cc(O)c2cc(O)c(-c3cc(O)c(O)c(O)c3)[o+]c2c1
REMARK SMILES IDX 10 1 20 2 21 3 22 4 2 5 3 6 4 7 6 8 7 9 8 10 11 11 12 12
REMARK SMILES IDX 13 13 19 14 15 15 17 16 14 17 16 19 18 21 9 23 1 25 5 27
REMARK H PARENT 14 18 16 20 18 22 9 24 1 26 5 28
REMARK Flexibility Score: inf
ROOT
ATOM      1  C   UNL     1      65.649   3.774  13.757  1.00  0.00     0.402 A 
ATOM      2  O   UNL     1      66.847   3.411  14.208  1.00  0.00    -0.202 OA
ATOM      3  C   UNL     1      67.965   4.072  13.923  1.00  0.00     0.368 A 
ATOM      4  C   UNL     1      69.177   3.615  14.446  1.00  0.00     0.162 A 
ATOM      5  C   UNL     1      70.365   4.290  14.167  1.00  0.00     0.128 A 
ATOM      6  C   UNL     1      70.343   5.433  13.359  1.00  0.00     0.093 A 
ATOM      7  C   UNL     1      69.142   5.912  12.823  1.00  0.00     0.136 A 
ATOM      8  C   UNL     1      67.931   5.226  13.104  1.00  0.00     0.125 A 
ATOM      9  C   UNL     1      66.684   5.625  12.599  1.00  0.00     0.078 A 
ATOM     10  C   UNL     1      65.533   4.895  12.915  1.00  0.00     0.223 A 
ENDROOT
BRANCH   1  11
ATOM     11  C   UNL     1      64.477   2.960  14.152  1.00  0.00     0.091 A 
ATOM     12  C   UNL     1      64.299   1.651  13.674  1.00  0.00     0.068 A 
ATOM     13  C   UNL     1      63.171   0.906  14.041  1.00  0.00     0.162 A 
ATOM     14  C   UNL     1      63.491   3.526  14.975  1.00  0.00     0.068 A 
ATOM     15  C   UNL     1      62.200   1.472  14.885  1.00  0.00     0.200 A 
ATOM     16  C   UNL     1      62.363   2.788  15.349  1.00  0.00     0.162 A 
BRANCH  13  17
ATOM     17  O   UNL     1      63.009  -0.396  13.565  1.00  0.00    -0.504 OA
ATOM     18  H   UNL     1      62.114  -0.730  13.227  1.00  0.00     0.293 HD
ENDBRANCH  13  17
BRANCH  15  19
ATOM     19  O   UNL     1      61.073   0.741  15.263  1.00  0.00    -0.502 OA
ATOM     20  H   UNL     1      60.556   0.945  16.110  1.00  0.00     0.293 HD
ENDBRANCH  15  19
BRANCH  16  21
ATOM     21  O   UNL     1      61.414   3.381  16.181  1.00  0.00    -0.504 OA
ATOM     22  H   UNL     1      61.493   4.345  16.487  1.00  0.00     0.293 HD
ENDBRANCH  16  21
ENDBRANCH   1  11
BRANCH  10  23
ATOM     23  O   UNL     1      64.301   5.262  12.374  1.00  0.00    -0.500 OA
ATOM     24  H   UNL     1      64.232   5.747  11.487  1.00  0.00     0.294 HD
ENDBRANCH  10  23
BRANCH   5  25
ATOM     25  O   UNL     1      71.564   3.819  14.697  1.00  0.00    -0.507 OA
ATOM     26  H   UNL     1      72.450   4.261  14.480  1.00  0.00     0.293 HD
ENDBRANCH   5  25
BRANCH   7  27
ATOM     27  O   UNL     1      69.203   7.062  12.030  1.00  0.00    -0.507 OA
ATOM     28  H   UNL     1      69.100   7.068  11.026  1.00  0.00     0.293 HD
ENDBRANCH   7  27
TORSDOF 7
ENDMDL
MODEL 5
REMARK VINA RESULT:    -5.662      3.686      6.721
REMARK INTER + INTRA:          -7.304
REMARK INTER:                  -7.164
REMARK INTRA:                  -0.140
REMARK UNBOUND:                -0.318
REMARK SMILES Oc1cc(O)c2cc(O)c(-c3cc(O)c(O)c(O)c3)[o+]c2c1
REMARK SMILES IDX 10 1 20 2 21 3 22 4 2 5 3 6 4 7 6 8 7 9 8 10 11 11 12 12
REMARK SMILES IDX 13 13 19 14 15 15 17 16 14 17 16 19 18 21 9 23 1 25 5 27
REMARK H PARENT 14 18 16 20 18 22 9 24 1 26 5 28
REMARK Flexibility Score: inf
ROOT
ATOM      1  C   UNL     1      64.311   4.190  12.664  1.00  0.00     0.402 A 
ATOM      2  O   UNL     1      65.452   4.867  12.580  1.00  0.00    -0.202 OA
ATOM      3  C   UNL     1      66.622   4.381  12.982  1.00  0.00     0.368 A 
ATOM      4  C   UNL     1      67.768   5.169  12.850  1.00  0.00     0.162 A 
ATOM      5  C   UNL     1      69.009   4.683  13.261  1.00  0.00     0.128 A 
ATOM      6  C   UNL     1      69.108   3.398  13.809  1.00  0.00     0.093 A 
ATOM      7  C   UNL     1      67.975   2.589  13.951  1.00  0.00     0.136 A 
ATOM      8  C   UNL     1      66.710   3.081  13.536  1.00  0.00     0.125 A 
ATOM      9  C   UNL     1      65.520   2.346  13.654  1.00  0.00     0.078 A 
ATOM     10  C   UNL     1      64.308   2.900  13.227  1.00  0.00     0.223 A 
ENDROOT
BRANCH   1  11
ATOM     11  C   UNL     1      63.073   4.837  12.173  1.00  0.00     0.091 A 
ATOM     12  C   UNL     1      61.962   5.024  13.011  1.00  0.00     0.068 A 
ATOM     13  C   UNL     1      60.791   5.617  12.521  1.00  0.00     0.162 A 
ATOM     14  C   UNL     1      62.985   5.222  10.827  1.00  0.00     0.068 A 
ATOM     15  C   UNL     1      60.719   6.022  11.177  1.00  0.00     0.200 A 
ATOM     16  C   UNL     1      61.821   5.819  10.329  1.00  0.00     0.162 A 
BRANCH  13  17
ATOM     17  O   UNL     1      59.696   5.803  13.365  1.00  0.00    -0.504 OA
ATOM     18  H   UNL     1      59.403   6.727  13.660  1.00  0.00     0.293 HD
ENDBRANCH  13  17
BRANCH  15  19
ATOM     19  O   UNL     1      59.563   6.619  10.675  1.00  0.00    -0.502 OA
ATOM     20  H   UNL     1      58.780   6.076  10.329  1.00  0.00     0.293 HD
ENDBRANCH  15  19
BRANCH  16  21
ATOM     21  O   UNL     1      61.779   6.201   8.989  1.00  0.00    -0.504 OA
ATOM     22  H   UNL     1      62.591   6.139   8.385  1.00  0.00     0.293 HD
ENDBRANCH  16  21
ENDBRANCH   1  11
BRANCH  10  23
ATOM     23  O   UNL     1      63.119   2.190  13.389  1.00  0.00    -0.500 OA
ATOM     24  H   UNL     1      62.397   2.497  14.031  1.00  0.00     0.294 HD
ENDBRANCH  10  23
BRANCH   5  25
ATOM     25  O   UNL     1      70.140   5.484  13.122  1.00  0.00    -0.507 OA
ATOM     26  H   UNL     1      70.587   5.914  13.924  1.00  0.00     0.293 HD
ENDBRANCH   5  25
BRANCH   7  27
ATOM     27  O   UNL     1      68.157   1.317  14.503  1.00  0.00    -0.507 OA
ATOM     28  H   UNL     1      68.991   0.759  14.387  1.00  0.00     0.293 HD
ENDBRANCH   7  27
TORSDOF 7
ENDMDL
MODEL 6
REMARK VINA RESULT:    -5.532      3.743      5.045
REMARK INTER + INTRA:          -7.144
REMARK INTER:                  -6.854
REMARK INTRA:                  -0.291
REMARK UNBOUND:                -0.318
REMARK SMILES Oc1cc(O)c2cc(O)c(-c3cc(O)c(O)c(O)c3)[o+]c2c1
REMARK SMILES IDX 10 1 20 2 21 3 22 4 2 5 3 6 4 7 6 8 7 9 8 10 11 11 12 12
REMARK SMILES IDX 13 13 19 14 15 15 17 16 14 17 16 19 18 21 9 23 1 25 5 27
REMARK H PARENT 14 18 16 20 18 22 9 24 1 26 5 28
REMARK Flexibility Score: inf
ROOT
ATOM      1  C   UNL     1      65.575   5.347  12.556  1.00  0.00     0.402 A 
ATOM      2  O   UNL     1      65.254   5.299  11.266  1.00  0.00    -0.202 OA
ATOM      3  C   UNL     1      64.075   5.688  10.792  1.00  0.00     0.368 A 
ATOM      4  C   UNL     1      63.831   5.602   9.419  1.00  0.00     0.162 A 
ATOM      5  C   UNL     1      62.604   6.007   8.894  1.00  0.00     0.128 A 
ATOM      6  C   UNL     1      61.611   6.504   9.746  1.00  0.00     0.093 A 
ATOM      7  C   UNL     1      61.830   6.601  11.125  1.00  0.00     0.136 A 
ATOM      8  C   UNL     1      63.077   6.187  11.664  1.00  0.00     0.125 A 
ATOM      9  C   UNL     1      63.379   6.235  13.034  1.00  0.00     0.078 A 
ATOM     10  C   UNL     1      64.629   5.805  13.491  1.00  0.00     0.223 A 
ENDROOT
BRANCH   1  11
ATOM     11  C   UNL     1      66.926   4.892  12.959  1.00  0.00     0.091 A 
ATOM     12  C   UNL     1      67.115   3.684  13.652  1.00  0.00     0.068 A 
ATOM     13  C   UNL     1      68.398   3.283  14.046  1.00  0.00     0.162 A 
ATOM     14  C   UNL     1      68.035   5.709  12.695  1.00  0.00     0.068 A 
ATOM     15  C   UNL     1      69.507   4.096  13.757  1.00  0.00     0.200 A 
ATOM     16  C   UNL     1      69.321   5.314  13.082  1.00  0.00     0.162 A 
BRANCH  13  17
ATOM     17  O   UNL     1      68.575   2.078  14.728  1.00  0.00    -0.504 OA
ATOM     18  H   UNL     1      68.914   2.053  15.682  1.00  0.00     0.293 HD
ENDBRANCH  13  17
BRANCH  15  19
ATOM     19  O   UNL     1      70.793   3.708  14.137  1.00  0.00    -0.502 OA
ATOM     20  H   UNL     1      71.308   2.988  13.645  1.00  0.00     0.293 HD
ENDBRANCH  15  19
BRANCH  16  21
ATOM     21  O   UNL     1      70.399   6.148  12.788  1.00  0.00    -0.504 OA
ATOM     22  H   UNL     1      71.346   5.925  13.073  1.00  0.00     0.293 HD
ENDBRANCH  16  21
ENDBRANCH   1  11
BRANCH  10  23
ATOM     23  O   UNL     1      64.913   5.807  14.857  1.00  0.00    -0.500 OA
ATOM     24  H   UNL     1      65.387   6.585  15.301  1.00  0.00     0.294 HD
ENDBRANCH  10  23
BRANCH   5  25
ATOM     25  O   UNL     1      62.380   5.913   7.522  1.00  0.00    -0.507 OA
ATOM     26  H   UNL     1      62.768   6.590   6.874  1.00  0.00     0.293 HD
ENDBRANCH   5  25
BRANCH   7  27
ATOM     27  O   UNL     1      60.790   7.111  11.909  1.00  0.00    -0.507 OA
ATOM     28  H   UNL     1      60.784   8.034  12.317  1.00  0.00     0.293 HD
ENDBRANCH   7  27
TORSDOF 7
ENDMDL
MODEL 7
REMARK VINA RESULT:    -5.468      3.260      4.449
REMARK INTER + INTRA:          -7.065
REMARK INTER:                  -6.693
REMARK INTRA:                  -0.372
REMARK UNBOUND:                -0.318
REMARK SMILES Oc1cc(O)c2cc(O)c(-c3cc(O)c(O)c(O)c3)[o+]c2c1
REMARK SMILES IDX 10 1 20 2 21 3 22 4 2 5 3 6 4 7 6 8 7 9 8 10 11 11 12 12
REMARK SMILES IDX 13 13 19 14 15 15 17 16 14 17 16 19 18 21 9 23 1 25 5 27
REMARK H PARENT 14 18 16 20 18 22 9 24 1 26 5 28
REMARK Flexibility Score: inf
ROOT
ATOM      1  C   UNL     1      66.163   4.747  12.869  1.00  0.00     0.402 A 
ATOM      2  O   UNL     1      65.908   5.541  11.832  1.00  0.00    -0.202 OA
ATOM      3  C   UNL     1      64.814   5.437  11.084  1.00  0.00     0.368 A 
ATOM      4  C   UNL     1      64.634   6.320  10.017  1.00  0.00     0.162 A 
ATOM      5  C   UNL     1      63.494   6.236   9.217  1.00  0.00     0.128 A 
ATOM      6  C   UNL     1      62.524   5.262   9.485  1.00  0.00     0.093 A 
ATOM      7  C   UNL     1      62.681   4.366  10.549  1.00  0.00     0.136 A 
ATOM      8  C   UNL     1      63.841   4.447  11.364  1.00  0.00     0.125 A 
ATOM      9  C   UNL     1      64.088   3.582  12.442  1.00  0.00     0.078 A 
ATOM     10  C   UNL     1      65.258   3.720  13.197  1.00  0.00     0.223 A 
ENDROOT
BRANCH   1  11
ATOM     11  C   UNL     1      67.413   4.969  13.631  1.00  0.00     0.091 A 
ATOM     12  C   UNL     1      68.584   4.249  13.342  1.00  0.00     0.068 A 
ATOM     13  C   UNL     1      69.750   4.457  14.090  1.00  0.00     0.162 A 
ATOM     14  C   UNL     1      67.415   5.876  14.702  1.00  0.00     0.068 A 
ATOM     15  C   UNL     1      69.751   5.384  15.146  1.00  0.00     0.200 A 
ATOM     16  C   UNL     1      68.576   6.092  15.452  1.00  0.00     0.162 A 
BRANCH  13  17
ATOM     17  O   UNL     1      70.910   3.740  13.790  1.00  0.00    -0.504 OA
ATOM     18  H   UNL     1      70.881   2.753  13.568  1.00  0.00     0.293 HD
ENDBRANCH  13  17
BRANCH  15  19
ATOM     19  O   UNL     1      70.906   5.606  15.898  1.00  0.00    -0.502 OA
ATOM     20  H   UNL     1      70.876   5.779  16.895  1.00  0.00     0.293 HD
ENDBRANCH  15  19
BRANCH  16  21
ATOM     21  O   UNL     1      68.541   7.012  16.499  1.00  0.00    -0.504 OA
ATOM     22  H   UNL     1      67.941   7.829  16.478  1.00  0.00     0.293 HD
ENDBRANCH  16  21
ENDBRANCH   1  11
BRANCH  10  23
ATOM     23  O   UNL     1      65.528   2.831  14.238  1.00  0.00    -0.500 OA
ATOM     24  H   UNL     1      65.136   1.897  14.254  1.00  0.00     0.294 HD
ENDBRANCH  10  23
BRANCH   5  25
ATOM     25  O   UNL     1      63.332   7.125   8.157  1.00  0.00    -0.507 OA
ATOM     26  H   UNL     1      62.543   7.057   7.524  1.00  0.00     0.293 HD
ENDBRANCH   5  25
BRANCH   7  27
ATOM     27  O   UNL     1      61.667   3.426  10.755  1.00  0.00    -0.507 OA
ATOM     28  H   UNL     1      61.540   2.593  10.198  1.00  0.00     0.293 HD
ENDBRANCH   7  27
TORSDOF 7
ENDMDL
MODEL 8
REMARK VINA RESULT:    -5.405      3.508      7.346
REMARK INTER + INTRA:          -6.988
REMARK INTER:                  -6.614
REMARK INTRA:                  -0.373
REMARK UNBOUND:                -0.318
REMARK SMILES Oc1cc(O)c2cc(O)c(-c3cc(O)c(O)c(O)c3)[o+]c2c1
REMARK SMILES IDX 10 1 20 2 21 3 22 4 2 5 3 6 4 7 6 8 7 9 8 10 11 11 12 12
REMARK SMILES IDX 13 13 19 14 15 15 17 16 14 17 16 19 18 21 9 23 1 25 5 27
REMARK H PARENT 14 18 16 20 18 22 9 24 1 26 5 28
REMARK Flexibility Score: inf
ROOT
ATOM      1  C   UNL     1      63.408   4.140  12.769  1.00  0.00     0.402 A 
ATOM      2  O   UNL     1      62.589   4.610  11.831  1.00  0.00    -0.202 OA
ATOM      3  C   UNL     1      62.988   5.415  10.851  1.00  0.00     0.368 A 
ATOM      4  C   UNL     1      62.053   5.854   9.910  1.00  0.00     0.162 A 
ATOM      5  C   UNL     1      62.444   6.697   8.869  1.00  0.00     0.128 A 
ATOM      6  C   UNL     1      63.779   7.104   8.765  1.00  0.00     0.093 A 
ATOM      7  C   UNL     1      64.735   6.678   9.695  1.00  0.00     0.136 A 
ATOM      8  C   UNL     1      64.341   5.822  10.757  1.00  0.00     0.125 A 
ATOM      9  C   UNL     1      65.226   5.356  11.741  1.00  0.00     0.078 A 
ATOM     10  C   UNL     1      64.763   4.519  12.762  1.00  0.00     0.223 A 
ENDROOT
BRANCH   1  11
ATOM     11  C   UNL     1      62.846   3.243  13.803  1.00  0.00     0.091 A 
ATOM     12  C   UNL     1      62.250   3.752  14.969  1.00  0.00     0.068 A 
ATOM     13  C   UNL     1      61.745   2.886  15.948  1.00  0.00     0.162 A 
ATOM     14  C   UNL     1      62.959   1.853  13.646  1.00  0.00     0.068 A 
ATOM     15  C   UNL     1      61.842   1.496  15.772  1.00  0.00     0.200 A 
ATOM     16  C   UNL     1      62.455   0.981  14.617  1.00  0.00     0.162 A 
BRANCH  13  17
ATOM     17  O   UNL     1      61.150   3.404  17.099  1.00  0.00    -0.504 OA
ATOM     18  H   UNL     1      60.167   3.647  17.125  1.00  0.00     0.293 HD
ENDBRANCH  13  17
BRANCH  15  19
ATOM     19  O   UNL     1      61.339   0.619  16.735  1.00  0.00    -0.502 OA
ATOM     20  H   UNL     1      61.728  -0.305  16.880  1.00  0.00     0.293 HD
ENDBRANCH  15  19
BRANCH  16  21
ATOM     21  O   UNL     1      62.574  -0.393  14.416  1.00  0.00    -0.504 OA
ATOM     22  H   UNL     1      63.019  -1.001  15.095  1.00  0.00     0.293 HD
ENDBRANCH  16  21
ENDBRANCH   1  11
BRANCH  10  23
ATOM     23  O   UNL     1      65.632   4.095  13.768  1.00  0.00    -0.500 OA
ATOM     24  H   UNL     1      66.556   3.737  13.557  1.00  0.00     0.294 HD
ENDBRANCH  10  23
BRANCH   5  25
ATOM     25  O   UNL     1      61.497   7.125   7.940  1.00  0.00    -0.507 OA
ATOM     26  H   UNL     1      61.711   7.177   6.951  1.00  0.00     0.293 HD
ENDBRANCH   5  25
BRANCH   7  27
ATOM     27  O   UNL     1      66.048   7.125   9.520  1.00  0.00    -0.507 OA
ATOM     28  H   UNL     1      66.321   8.097   9.495  1.00  0.00     0.293 HD
ENDBRANCH   7  27
TORSDOF 7
ENDMDL
MODEL 9
REMARK VINA RESULT:    -5.282      3.255      6.390
REMARK INTER + INTRA:          -6.835
REMARK INTER:                  -6.830
REMARK INTRA:                  -0.005
REMARK UNBOUND:                -0.318
REMARK SMILES Oc1cc(O)c2cc(O)c(-c3cc(O)c(O)c(O)c3)[o+]c2c1
REMARK SMILES IDX 10 1 20 2 21 3 22 4 2 5 3 6 4 7 6 8 7 9 8 10 11 11 12 12
REMARK SMILES IDX 13 13 19 14 15 15 17 16 14 17 16 19 18 21 9 23 1 25 5 27
REMARK H PARENT 14 18 16 20 18 22 9 24 1 26 5 28
REMARK Flexibility Score: inf
ROOT
ATOM      1  C   UNL     1      65.589   4.503  13.222  1.00  0.00     0.402 A 
ATOM      2  O   UNL     1      66.899   4.525  12.992  1.00  0.00    -0.202 OA
ATOM      3  C   UNL     1      67.809   4.272  13.927  1.00  0.00     0.368 A 
ATOM      4  C   UNL     1      69.164   4.318  13.588  1.00  0.00     0.162 A 
ATOM      5  C   UNL     1      70.141   4.054  14.548  1.00  0.00     0.128 A 
ATOM      6  C   UNL     1      69.762   3.741  15.859  1.00  0.00     0.093 A 
ATOM      7  C   UNL     1      68.412   3.688  16.225  1.00  0.00     0.136 A 
ATOM      8  C   UNL     1      67.415   3.959  15.251  1.00  0.00     0.125 A 
ATOM      9  C   UNL     1      66.039   3.943  15.530  1.00  0.00     0.078 A 
ATOM     10  C   UNL     1      65.116   4.225  14.518  1.00  0.00     0.223 A 
ENDROOT
BRANCH   1  11
ATOM     11  C   UNL     1      64.675   4.793  12.094  1.00  0.00     0.091 A 
ATOM     12  C   UNL     1      63.513   4.032  11.880  1.00  0.00     0.068 A 
ATOM     13  C   UNL     1      62.672   4.308  10.793  1.00  0.00     0.162 A 
ATOM     14  C   UNL     1      65.002   5.811  11.186  1.00  0.00     0.068 A 
ATOM     15  C   UNL     1      62.995   5.345   9.901  1.00  0.00     0.200 A 
ATOM     16  C   UNL     1      64.166   6.095  10.100  1.00  0.00     0.162 A 
BRANCH  13  17
ATOM     17  O   UNL     1      61.518   3.550  10.593  1.00  0.00    -0.504 OA
ATOM     18  H   UNL     1      61.037   3.540   9.702  1.00  0.00     0.293 HD
ENDBRANCH  13  17
BRANCH  15  19
ATOM     19  O   UNL     1      62.166   5.635   8.817  1.00  0.00    -0.502 OA
ATOM     20  H   UNL     1      62.145   5.060   7.983  1.00  0.00     0.293 HD
ENDBRANCH  15  19
BRANCH  16  21
ATOM     21  O   UNL     1      64.519   7.125   9.229  1.00  0.00    -0.504 OA
ATOM     22  H   UNL     1      64.021   8.008   9.209  1.00  0.00     0.293 HD
ENDBRANCH  16  21
ENDBRANCH   1  11
BRANCH  10  23
ATOM     23  O   UNL     1      63.751   4.258  14.805  1.00  0.00    -0.500 OA
ATOM     24  H   UNL     1      63.152   4.999  14.461  1.00  0.00     0.294 HD
ENDBRANCH  10  23
BRANCH   5  25
ATOM     25  O   UNL     1      71.486   4.104  14.191  1.00  0.00    -0.507 OA
ATOM     26  H   UNL     1      72.211   3.750  14.805  1.00  0.00     0.293 HD
ENDBRANCH   5  25
BRANCH   7  27
ATOM     27  O   UNL     1      68.116   3.365  17.553  1.00  0.00    -0.507 OA
ATOM     28  H   UNL     1      67.309   3.705  18.056  1.00  0.00     0.293 HD
ENDBRANCH   7  27
TORSDOF 7
ENDMDL
