MODEL 1
REMARK VINA RESULT:    -4.030      0.000      0.000
REMARK INTER + INTRA:          -8.862
REMARK INTER:                  -6.857
REMARK INTRA:                  -2.005
REMARK UNBOUND:                -2.005
REMARK SMILES CCCCCCCCCCCCCC(=O)[O-]
REMARK SMILES IDX 8 1 9 2 10 3 11 4 12 5 13 6 14 7 15 8 16 9 7 10 6 11 5 12
REMARK SMILES IDX 4 13 3 14 2 15 1 16
REMARK H PARENT
REMARK Flexibility Score: inf
ROOT
ATOM      1  C   UNL     1      27.973   3.783   8.832  1.00  0.00     0.000 C 
ENDROOT
BRANCH   1   2
ATOM      2  C   UNL     1      27.793   2.355   8.294  1.00  0.00     0.000 C 
BRANCH   2   3
ATOM      3  C   UNL     1      26.975   2.356   6.996  1.00  0.00     0.000 C 
BRANCH   3   4
ATOM      4  C   UNL     1      26.336   3.731   6.749  1.00  0.00     0.000 C 
BRANCH   4   5
ATOM      5  C   UNL     1      24.804   3.665   6.660  1.00  0.00     0.006 C 
BRANCH   5   6
ATOM      6  C   UNL     1      24.113   4.295   7.876  1.00  0.00     0.053 C 
BRANCH   6   7
ATOM      7  C   UNL     1      24.032   3.309   8.998  1.00  0.00     0.041 C 
ATOM      8  O   UNL     1      24.045   3.708  10.193  1.00  0.00    -0.550 OA
ATOM      9  O   UNL     1      23.890   1.955   8.726  1.00  0.00    -0.550 OA
ENDBRANCH   6   7
ENDBRANCH   5   6
ENDBRANCH   4   5
ENDBRANCH   3   4
ENDBRANCH   2   3
ENDBRANCH   1   2
BRANCH   1  10
ATOM     10  C   UNL     1      27.640   3.900  10.328  1.00  0.00     0.000 C 
BRANCH  10  11
ATOM     11  C   UNL     1      27.048   5.272  10.696  1.00  0.00    -0.000 C 
BRANCH  11  12
ATOM     12  C   UNL     1      27.227   6.310   9.575  1.00  0.00    -0.000 C 
BRANCH  12  13
ATOM     13  C   UNL     1      25.898   6.962   9.158  1.00  0.00    -0.000 C 
BRANCH  13  14
ATOM     14  C   UNL     1      26.074   8.034   8.067  1.00  0.00    -0.000 C 
BRANCH  14  15
ATOM     15  C   UNL     1      26.459   7.492   6.679  1.00  0.00    -0.003 C 
ATOM     16  C   UNL     1      25.250   7.220   5.786  1.00  0.00     0.004 C 
ENDBRANCH  14  15
ENDBRANCH  13  14
ENDBRANCH  12  13
ENDBRANCH  11  12
ENDBRANCH  10  11
ENDBRANCH   1  10
TORSDOF 12
ENDMDL
MODEL 2
REMARK VINA RESULT:    -3.997      2.562      4.576
REMARK INTER + INTRA:          -8.805
REMARK INTER:                  -7.378
REMARK INTRA:                  -1.426
REMARK UNBOUND:                -2.005
REMARK SMILES CCCCCCCCCCCCCC(=O)[O-]
REMARK SMILES IDX 8 1 9 2 10 3 11 4 12 5 13 6 14 7 15 8 16 9 7 10 6 11 5 12
REMARK SMILES IDX 4 13 3 14 2 15 1 16
REMARK H PARENT
REMARK Flexibility Score: inf
ROOT
ATOM      1  C   UNL     1      26.565   4.764   7.106  1.00  0.00     0.000 C 
ENDROOT
BRANCH   1   2
ATOM      2  C   UNL     1      25.556   3.606   7.143  1.00  0.00     0.000 C 
BRANCH   2   3
ATOM      3  C   UNL     1      26.068   2.459   8.024  1.00  0.00     0.000 C 
BRANCH   3   4
ATOM      4  C   UNL     1      27.591   2.303   7.894  1.00  0.00     0.000 C 
BRANCH   4   5
ATOM      5  C   UNL     1      28.117   1.033   8.582  1.00  0.00     0.006 C 
BRANCH   5   6
ATOM      6  C   UNL     1      27.133  -0.139   8.491  1.00  0.00     0.053 C 
BRANCH   6   7
ATOM      7  C   UNL     1      27.677  -1.335   9.206  1.00  0.00     0.041 C 
ATOM      8  O   UNL     1      28.058  -2.343   8.555  1.00  0.00    -0.550 OA
ATOM      9  O   UNL     1      27.813  -1.317  10.588  1.00  0.00    -0.550 OA
ENDBRANCH   6   7
ENDBRANCH   5   6
ENDBRANCH   4   5
ENDBRANCH   3   4
ENDBRANCH   2   3
ENDBRANCH   1   2
BRANCH   1  10
ATOM     10  C   UNL     1      25.911   6.131   7.367  1.00  0.00     0.000 C 
BRANCH  10  11
ATOM     11  C   UNL     1      26.298   6.720   8.736  1.00  0.00    -0.000 C 
BRANCH  11  12
ATOM     12  C   UNL     1      25.595   6.006   9.903  1.00  0.00    -0.000 C 
BRANCH  12  13
ATOM     13  C   UNL     1      26.559   5.138  10.729  1.00  0.00    -0.000 C 
BRANCH  13  14
ATOM     14  C   UNL     1      28.008   5.658  10.697  1.00  0.00    -0.000 C 
BRANCH  14  15
ATOM     15  C   UNL     1      29.034   4.768  11.421  1.00  0.00    -0.003 C 
ATOM     16  C   UNL     1      28.659   3.287  11.405  1.00  0.00     0.004 C 
ENDBRANCH  14  15
ENDBRANCH  13  14
ENDBRANCH  12  13
ENDBRANCH  11  12
ENDBRANCH  10  11
ENDBRANCH   1  10
TORSDOF 12
ENDMDL
MODEL 3
REMARK VINA RESULT:    -3.950      2.128      4.174
REMARK INTER + INTRA:          -8.725
REMARK INTER:                  -6.578
REMARK INTRA:                  -2.147
REMARK UNBOUND:                -2.005
REMARK SMILES CCCCCCCCCCCCCC(=O)[O-]
REMARK SMILES IDX 8 1 9 2 10 3 11 4 12 5 13 6 14 7 15 8 16 9 7 10 6 11 5 12
REMARK SMILES IDX 4 13 3 14 2 15 1 16
REMARK H PARENT
REMARK Flexibility Score: inf
ROOT
ATOM      1  C   UNL     1      27.244   6.343   9.471  1.00  0.00     0.000 C 
ENDROOT
BRANCH   1   2
ATOM      2  C   UNL     1      26.667   5.241  10.372  1.00  0.00     0.000 C 
BRANCH   2   3
ATOM      3  C   UNL     1      27.267   3.874  10.021  1.00  0.00     0.000 C 
BRANCH   3   4
ATOM      4  C   UNL     1      27.992   3.922   8.668  1.00  0.00     0.000 C 
BRANCH   4   5
ATOM      5  C   UNL     1      27.757   2.659   7.824  1.00  0.00     0.006 C 
BRANCH   5   6
ATOM      6  C   UNL     1      27.187   1.497   8.646  1.00  0.00     0.053 C 
BRANCH   6   7
ATOM      7  C   UNL     1      28.255   0.494   8.943  1.00  0.00     0.041 C 
ATOM      8  O   UNL     1      28.730  -0.219   8.019  1.00  0.00    -0.550 OA
ATOM      9  O   UNL     1      28.764   0.380  10.230  1.00  0.00    -0.550 OA
ENDBRANCH   6   7
ENDBRANCH   5   6
ENDBRANCH   4   5
ENDBRANCH   3   4
ENDBRANCH   2   3
ENDBRANCH   1   2
BRANCH   1  10
ATOM     10  C   UNL     1      26.205   7.415   9.103  1.00  0.00     0.000 C 
BRANCH  10  11
ATOM     11  C   UNL     1      26.267   7.813   7.617  1.00  0.00    -0.000 C 
BRANCH  11  12
ATOM     12  C   UNL     1      26.256   6.594   6.680  1.00  0.00    -0.000 C 
BRANCH  12  13
ATOM     13  C   UNL     1      24.848   6.001   6.501  1.00  0.00    -0.000 C 
BRANCH  13  14
ATOM     14  C   UNL     1      24.726   4.572   7.062  1.00  0.00    -0.000 C 
BRANCH  14  15
ATOM     15  C   UNL     1      23.784   4.426   8.270  1.00  0.00    -0.003 C 
ATOM     16  C   UNL     1      23.874   3.055   8.937  1.00  0.00     0.004 C 
ENDBRANCH  14  15
ENDBRANCH  13  14
ENDBRANCH  12  13
ENDBRANCH  11  12
ENDBRANCH  10  11
ENDBRANCH   1  10
TORSDOF 12
ENDMDL
MODEL 4
REMARK VINA RESULT:    -3.946      2.036      4.503
REMARK INTER + INTRA:          -8.718
REMARK INTER:                  -6.727
REMARK INTRA:                  -1.991
REMARK UNBOUND:                -2.005
REMARK SMILES CCCCCCCCCCCCCC(=O)[O-]
REMARK SMILES IDX 8 1 9 2 10 3 11 4 12 5 13 6 14 7 15 8 16 9 7 10 6 11 5 12
REMARK SMILES IDX 4 13 3 14 2 15 1 16
REMARK H PARENT
REMARK Flexibility Score: inf
ROOT
ATOM      1  C   UNL     1      28.112   3.813   8.968  1.00  0.00     0.000 C 
ENDROOT
BRANCH   1   2
ATOM      2  C   UNL     1      27.763   3.973  10.456  1.00  0.00     0.000 C 
BRANCH   2   3
ATOM      3  C   UNL     1      27.171   5.359  10.736  1.00  0.00     0.000 C 
BRANCH   3   4
ATOM      4  C   UNL     1      27.309   6.275   9.511  1.00  0.00     0.000 C 
BRANCH   4   5
ATOM      5  C   UNL     1      25.994   6.982   9.147  1.00  0.00     0.006 C 
BRANCH   5   6
ATOM      6  C   UNL     1      26.165   8.004   8.017  1.00  0.00     0.053 C 
BRANCH   6   7
ATOM      7  C   UNL     1      25.793   7.395   6.702  1.00  0.00     0.041 C 
ATOM      8  O   UNL     1      26.675   7.191   5.826  1.00  0.00    -0.550 OA
ATOM      9  O   UNL     1      24.481   7.006   6.462  1.00  0.00    -0.550 OA
ENDBRANCH   6   7
ENDBRANCH   5   6
ENDBRANCH   4   5
ENDBRANCH   3   4
ENDBRANCH   2   3
ENDBRANCH   1   2
BRANCH   1  10
ATOM     10  C   UNL     1      27.688   2.449   8.401  1.00  0.00     0.000 C 
BRANCH  10  11
ATOM     11  C   UNL     1      27.113   2.554   6.977  1.00  0.00    -0.000 C 
BRANCH  11  12
ATOM     12  C   UNL     1      26.213   3.788   6.795  1.00  0.00    -0.000 C 
BRANCH  12  13
ATOM     13  C   UNL     1      24.748   3.412   6.512  1.00  0.00    -0.000 C 
BRANCH  13  14
ATOM     14  C   UNL     1      23.798   3.808   7.658  1.00  0.00    -0.000 C 
BRANCH  14  15
ATOM     15  C   UNL     1      24.071   3.106   9.000  1.00  0.00    -0.003 C 
ATOM     16  C   UNL     1      23.883   4.026  10.206  1.00  0.00     0.004 C 
ENDBRANCH  14  15
ENDBRANCH  13  14
ENDBRANCH  12  13
ENDBRANCH  11  12
ENDBRANCH  10  11
ENDBRANCH   1  10
TORSDOF 12
ENDMDL
MODEL 5
REMARK VINA RESULT:    -3.939      2.667      4.515
REMARK INTER + INTRA:          -8.708
REMARK INTER:                  -7.111
REMARK INTRA:                  -1.597
REMARK UNBOUND:                -2.005
REMARK SMILES CCCCCCCCCCCCCC(=O)[O-]
REMARK SMILES IDX 8 1 9 2 10 3 11 4 12 5 13 6 14 7 15 8 16 9 7 10 6 11 5 12
REMARK SMILES IDX 4 13 3 14 2 15 1 16
REMARK H PARENT
REMARK Flexibility Score: inf
ROOT
ATOM      1  C   UNL     1      25.688   6.666   6.732  1.00  0.00     0.000 C 
ENDROOT
BRANCH   1   2
ATOM      2  C   UNL     1      26.354   5.289   6.875  1.00  0.00     0.000 C 
BRANCH   2   3
ATOM      3  C   UNL     1      25.553   4.387   7.822  1.00  0.00     0.000 C 
BRANCH   3   4
ATOM      4  C   UNL     1      26.229   4.294   9.198  1.00  0.00     0.000 C 
BRANCH   4   5
ATOM      5  C   UNL     1      27.740   4.033   9.099  1.00  0.00     0.006 C 
BRANCH   5   6
ATOM      6  C   UNL     1      28.571   5.077   9.854  1.00  0.00     0.053 C 
BRANCH   6   7
ATOM      7  C   UNL     1      28.759   4.665  11.279  1.00  0.00     0.041 C 
ATOM      8  O   UNL     1      28.773   3.444  11.589  1.00  0.00    -0.550 OA
ATOM      9  O   UNL     1      28.971   5.625  12.260  1.00  0.00    -0.550 OA
ENDBRANCH   6   7
ENDBRANCH   5   6
ENDBRANCH   4   5
ENDBRANCH   3   4
ENDBRANCH   2   3
ENDBRANCH   1   2
BRANCH   1  10
ATOM     10  C   UNL     1      26.415   7.765   7.524  1.00  0.00     0.000 C 
BRANCH  10  11
ATOM     11  C   UNL     1      25.997   7.801   9.005  1.00  0.00    -0.000 C 
BRANCH  11  12
ATOM     12  C   UNL     1      25.079   8.992   9.327  1.00  0.00    -0.000 C 
BRANCH  12  13
ATOM     13  C   UNL     1      23.592   8.600   9.356  1.00  0.00    -0.000 C 
BRANCH  13  14
ATOM     14  C   UNL     1      23.373   7.115   9.701  1.00  0.00    -0.000 C 
BRANCH  14  15
ATOM     15  C   UNL     1      23.035   6.834  11.176  1.00  0.00    -0.003 C 
ATOM     16  C   UNL     1      24.027   5.885  11.846  1.00  0.00     0.004 C 
ENDBRANCH  14  15
ENDBRANCH  13  14
ENDBRANCH  12  13
ENDBRANCH  11  12
ENDBRANCH  10  11
ENDBRANCH   1  10
TORSDOF 12
ENDMDL
MODEL 6
REMARK VINA RESULT:    -3.887      2.422      3.504
REMARK INTER + INTRA:          -8.619
REMARK INTER:                  -6.739
REMARK INTRA:                  -1.880
REMARK UNBOUND:                -2.005
REMARK SMILES CCCCCCCCCCCCCC(=O)[O-]
REMARK SMILES IDX 8 1 9 2 10 3 11 4 12 5 13 6 14 7 15 8 16 9 7 10 6 11 5 12
REMARK SMILES IDX 4 13 3 14 2 15 1 16
REMARK H PARENT
REMARK Flexibility Score: inf
ROOT
ATOM      1  C   UNL     1      27.798   2.334   8.470  1.00  0.00     0.000 C 
ENDROOT
BRANCH   1   2
ATOM      2  C   UNL     1      26.317   2.211   8.079  1.00  0.00     0.000 C 
BRANCH   2   3
ATOM      3  C   UNL     1      26.132   2.392   6.567  1.00  0.00     0.000 C 
BRANCH   3   4
ATOM      4  C   UNL     1      24.987   3.371   6.266  1.00  0.00     0.000 C 
BRANCH   4   5
ATOM      5  C   UNL     1      25.186   4.740   6.936  1.00  0.00     0.006 C 
BRANCH   5   6
ATOM      6  C   UNL     1      26.272   5.580   6.254  1.00  0.00     0.053 C 
BRANCH   6   7
ATOM      7  C   UNL     1      25.823   7.000   6.114  1.00  0.00     0.041 C 
ATOM      8  O   UNL     1      26.243   7.879   6.912  1.00  0.00    -0.550 OA
ATOM      9  O   UNL     1      24.981   7.363   5.071  1.00  0.00    -0.550 OA
ENDBRANCH   6   7
ENDBRANCH   5   6
ENDBRANCH   4   5
ENDBRANCH   3   4
ENDBRANCH   2   3
ENDBRANCH   1   2
BRANCH   1  10
ATOM     10  C   UNL     1      28.168   3.743   8.962  1.00  0.00     0.000 C 
BRANCH  10  11
ATOM     11  C   UNL     1      28.143   3.859  10.497  1.00  0.00    -0.000 C 
BRANCH  11  12
ATOM     12  C   UNL     1      27.736   5.263  10.974  1.00  0.00    -0.000 C 
BRANCH  12  13
ATOM     13  C   UNL     1      27.113   6.109   9.850  1.00  0.00    -0.000 C 
BRANCH  13  14
ATOM     14  C   UNL     1      25.601   6.329  10.037  1.00  0.00    -0.000 C 
BRANCH  14  15
ATOM     15  C   UNL     1      24.937   5.425  11.090  1.00  0.00    -0.003 C 
ATOM     16  C   UNL     1      24.254   4.200  10.484  1.00  0.00     0.004 C 
ENDBRANCH  14  15
ENDBRANCH  13  14
ENDBRANCH  12  13
ENDBRANCH  11  12
ENDBRANCH  10  11
ENDBRANCH   1  10
TORSDOF 12
ENDMDL
MODEL 7
REMARK VINA RESULT:    -3.870      2.263      4.865
REMARK INTER + INTRA:          -8.589
REMARK INTER:                  -6.509
REMARK INTRA:                  -2.080
REMARK UNBOUND:                -2.005
REMARK SMILES CCCCCCCCCCCCCC(=O)[O-]
REMARK SMILES IDX 8 1 9 2 10 3 11 4 12 5 13 6 14 7 15 8 16 9 7 10 6 11 5 12
REMARK SMILES IDX 4 13 3 14 2 15 1 16
REMARK H PARENT
REMARK Flexibility Score: inf
ROOT
ATOM      1  C   UNL     1      24.053   2.696   8.966  1.00  0.00     0.000 C 
ENDROOT
BRANCH   1   2
ATOM      2  C   UNL     1      23.850   4.175   9.329  1.00  0.00     0.000 C 
BRANCH   2   3
ATOM      3  C   UNL     1      24.120   4.418  10.819  1.00  0.00     0.000 C 
BRANCH   3   4
ATOM      4  C   UNL     1      25.076   5.603  11.020  1.00  0.00     0.000 C 
BRANCH   4   5
ATOM      5  C   UNL     1      24.839   6.734  10.008  1.00  0.00     0.006 C 
BRANCH   5   6
ATOM      6  C   UNL     1      26.128   7.182   9.308  1.00  0.00     0.053 C 
BRANCH   6   7
ATOM      7  C   UNL     1      25.880   7.407   7.851  1.00  0.00     0.041 C 
ATOM      8  O   UNL     1      24.755   7.140   7.350  1.00  0.00    -0.550 OA
ATOM      9  O   UNL     1      26.874   7.960   7.053  1.00  0.00    -0.550 OA
ENDBRANCH   6   7
ENDBRANCH   5   6
ENDBRANCH   4   5
ENDBRANCH   3   4
ENDBRANCH   2   3
ENDBRANCH   1   2
BRANCH   1  10
ATOM     10  C   UNL     1      25.280   2.467   8.069  1.00  0.00     0.000 C 
BRANCH  10  11
ATOM     11  C   UNL     1      26.058   3.765   7.789  1.00  0.00    -0.000 C 
BRANCH  11  12
ATOM     12  C   UNL     1      27.565   3.616   8.059  1.00  0.00    -0.000 C 
BRANCH  12  13
ATOM     13  C   UNL     1      27.860   2.719   9.274  1.00  0.00    -0.000 C 
BRANCH  13  14
ATOM     14  C   UNL     1      27.900   3.503  10.599  1.00  0.00    -0.000 C 
BRANCH  14  15
ATOM     15  C   UNL     1      28.728   4.799  10.563  1.00  0.00    -0.003 C 
ATOM     16  C   UNL     1      28.822   5.487  11.924  1.00  0.00     0.004 C 
ENDBRANCH  14  15
ENDBRANCH  13  14
ENDBRANCH  12  13
ENDBRANCH  11  12
ENDBRANCH  10  11
ENDBRANCH   1  10
TORSDOF 12
ENDMDL
MODEL 8
REMARK VINA RESULT:    -3.851      1.323      3.161
REMARK INTER + INTRA:          -8.557
REMARK INTER:                  -6.751
REMARK INTRA:                  -1.806
REMARK UNBOUND:                -2.005
REMARK SMILES CCCCCCCCCCCCCC(=O)[O-]
REMARK SMILES IDX 8 1 9 2 10 3 11 4 12 5 13 6 14 7 15 8 16 9 7 10 6 11 5 12
REMARK SMILES IDX 4 13 3 14 2 15 1 16
REMARK H PARENT
REMARK Flexibility Score: inf
ROOT
ATOM      1  C   UNL     1      28.010   3.303   9.770  1.00  0.00     0.000 C 
ENDROOT
BRANCH   1   2
ATOM      2  C   UNL     1      28.708   4.651  10.008  1.00  0.00     0.000 C 
BRANCH   2   3
ATOM      3  C   UNL     1      27.794   5.615  10.773  1.00  0.00     0.000 C 
BRANCH   3   4
ATOM      4  C   UNL     1      26.477   5.844  10.016  1.00  0.00     0.000 C 
BRANCH   4   5
ATOM      5  C   UNL     1      25.239   5.628  10.900  1.00  0.00     0.006 C 
BRANCH   5   6
ATOM      6  C   UNL     1      24.585   4.259  10.678  1.00  0.00     0.053 C 
BRANCH   6   7
ATOM      7  C   UNL     1      23.318   4.406   9.899  1.00  0.00     0.041 C 
ATOM      8  O   UNL     1      22.694   3.384   9.506  1.00  0.00    -0.550 OA
ATOM      9  O   UNL     1      22.796   5.668   9.649  1.00  0.00    -0.550 OA
ENDBRANCH   6   7
ENDBRANCH   5   6
ENDBRANCH   4   5
ENDBRANCH   3   4
ENDBRANCH   2   3
ENDBRANCH   1   2
BRANCH   1  10
ATOM     10  C   UNL     1      27.999   2.892   8.289  1.00  0.00     0.000 C 
BRANCH  10  11
ATOM     11  C   UNL     1      26.592   2.961   7.667  1.00  0.00    -0.000 C 
BRANCH  11  12
ATOM     12  C   UNL     1      26.425   4.164   6.724  1.00  0.00    -0.000 C 
BRANCH  12  13
ATOM     13  C   UNL     1      24.968   4.650   6.643  1.00  0.00    -0.000 C 
BRANCH  13  14
ATOM     14  C   UNL     1      24.849   6.186   6.646  1.00  0.00    -0.000 C 
BRANCH  14  15
ATOM     15  C   UNL     1      26.092   6.934   6.133  1.00  0.00    -0.003 C 
ATOM     16  C   UNL     1      26.704   7.865   7.179  1.00  0.00     0.004 C 
ENDBRANCH  14  15
ENDBRANCH  13  14
ENDBRANCH  12  13
ENDBRANCH  11  12
ENDBRANCH  10  11
ENDBRANCH   1  10
TORSDOF 12
ENDMDL
MODEL 9
REMARK VINA RESULT:    -3.823      2.427      5.422
REMARK INTER + INTRA:          -8.510
REMARK INTER:                  -6.793
REMARK INTRA:                  -1.717
REMARK UNBOUND:                -2.005
REMARK SMILES CCCCCCCCCCCCCC(=O)[O-]
REMARK SMILES IDX 8 1 9 2 10 3 11 4 12 5 13 6 14 7 15 8 16 9 7 10 6 11 5 12
REMARK SMILES IDX 4 13 3 14 2 15 1 16
REMARK H PARENT
REMARK Flexibility Score: inf
ROOT
ATOM      1  C   UNL     1      27.827   3.039   9.847  1.00  0.00     0.000 C 
ENDROOT
BRANCH   1   2
ATOM      2  C   UNL     1      28.445   4.035  10.840  1.00  0.00     0.000 C 
BRANCH   2   3
ATOM      3  C   UNL     1      27.836   5.432  10.668  1.00  0.00     0.000 C 
BRANCH   3   4
ATOM      4  C   UNL     1      26.302   5.375  10.734  1.00  0.00     0.000 C 
BRANCH   4   5
ATOM      5  C   UNL     1      25.631   6.115   9.566  1.00  0.00     0.006 C 
BRANCH   5   6
ATOM      6  C   UNL     1      26.644   6.780   8.627  1.00  0.00     0.053 C 
BRANCH   6   7
ATOM      7  C   UNL     1      26.215   6.627   7.203  1.00  0.00     0.041 C 
ATOM      8  O   UNL     1      25.359   5.757   6.889  1.00  0.00    -0.550 OA
ATOM      9  O   UNL     1      26.720   7.477   6.228  1.00  0.00    -0.550 OA
ENDBRANCH   6   7
ENDBRANCH   5   6
ENDBRANCH   4   5
ENDBRANCH   3   4
ENDBRANCH   2   3
ENDBRANCH   1   2
BRANCH   1  10
ATOM     10  C   UNL     1      28.112   3.404   8.382  1.00  0.00     0.000 C 
BRANCH  10  11
ATOM     11  C   UNL     1      27.107   2.767   7.406  1.00  0.00    -0.000 C 
BRANCH  11  12
ATOM     12  C   UNL     1      25.955   2.052   8.133  1.00  0.00    -0.000 C 
BRANCH  12  13
ATOM     13  C   UNL     1      25.987   0.528   7.932  1.00  0.00    -0.000 C 
BRANCH  13  14
ATOM     14  C   UNL     1      27.211   0.058   7.124  1.00  0.00    -0.000 C 
BRANCH  14  15
ATOM     15  C   UNL     1      28.246  -0.753   7.925  1.00  0.00    -0.003 C 
ATOM     16  C   UNL     1      28.031  -0.673   9.435  1.00  0.00     0.004 C 
ENDBRANCH  14  15
ENDBRANCH  13  14
ENDBRANCH  12  13
ENDBRANCH  11  12
ENDBRANCH  10  11
ENDBRANCH   1  10
TORSDOF 12
ENDMDL
