MODEL 1
REMARK VINA RESULT:    -5.089      0.000      0.000
REMARK INTER + INTRA:          -5.089
REMARK INTER:                  -5.089
REMARK INTRA:                   0.000
REMARK UNBOUND:                 0.000
REMARK SMILES CC1(C)O[C@]2(C)CC[C@H]1CC2
REMARK SMILES IDX 1 1 2 2 9 3 8 4 7 5 5 6 4 7 11 8 10 9 6 10 3 11
REMARK H PARENT
REMARK Flexibility Score: inf
ROOT
ATOM      1  C   UNL     1      -0.107 -17.626   7.889  1.00  0.00     0.042 C 
ATOM      2  C   UNL     1       0.871 -18.819   7.829  1.00  0.00     0.066 C 
ATOM      3  C   UNL     1       0.094 -20.185   7.963  1.00  0.00     0.021 C 
ATOM      4  C   UNL     1       1.114 -21.342   7.843  1.00  0.00     0.009 C 
ATOM      5  C   UNL     1       1.962 -21.143   6.563  1.00  0.00     0.035 C 
ATOM      6  C   UNL     1       1.447 -19.902   5.779  1.00  0.00     0.066 C 
ATOM      7  O   UNL     1       1.597 -18.738   6.593  1.00  0.00    -0.369 OA
ATOM      8  C   UNL     1      -0.059 -20.103   5.446  1.00  0.00     0.035 C 
ATOM      9  C   UNL     1      -0.859 -20.327   6.751  1.00  0.00     0.009 C 
ATOM     10  C   UNL     1       2.257 -19.713   4.491  1.00  0.00     0.042 C 
ATOM     11  C   UNL     1       1.877 -18.647   8.987  1.00  0.00     0.042 C 
ENDROOT
TORSDOF 0
ENDMDL
MODEL 2
REMARK VINA RESULT:    -5.011      1.404      3.139
REMARK INTER + INTRA:          -5.011
REMARK INTER:                  -5.011
REMARK INTRA:                   0.000
REMARK UNBOUND:                 0.000
REMARK SMILES CC1(C)O[C@]2(C)CC[C@H]1CC2
REMARK SMILES IDX 1 1 2 2 9 3 8 4 7 5 5 6 4 7 11 8 10 9 6 10 3 11
REMARK H PARENT
REMARK Flexibility Score: inf
ROOT
ATOM      1  C   UNL     1      -0.778 -18.405   4.943  1.00  0.00     0.042 C 
ATOM      2  C   UNL     1       0.268 -19.209   5.747  1.00  0.00     0.066 C 
ATOM      3  C   UNL     1       0.927 -18.307   6.861  1.00  0.00     0.021 C 
ATOM      4  C   UNL     1       1.924 -19.175   7.666  1.00  0.00     0.009 C 
ATOM      5  C   UNL     1       1.208 -20.464   8.142  1.00  0.00     0.035 C 
ATOM      6  C   UNL     1      -0.292 -20.414   7.732  1.00  0.00     0.066 C 
ATOM      7  O   UNL     1      -0.388 -20.356   6.308  1.00  0.00    -0.369 OA
ATOM      8  C   UNL     1      -0.941 -19.138   8.341  1.00  0.00     0.035 C 
ATOM      9  C   UNL     1      -0.175 -17.881   7.862  1.00  0.00     0.009 C 
ATOM     10  C   UNL     1      -1.021 -21.669   8.226  1.00  0.00     0.042 C 
ATOM     11  C   UNL     1       1.332 -19.706   4.747  1.00  0.00     0.042 C 
ENDROOT
TORSDOF 0
ENDMDL
MODEL 3
REMARK VINA RESULT:    -5.008      1.331      2.751
REMARK INTER + INTRA:          -5.008
REMARK INTER:                  -5.008
REMARK INTRA:                   0.000
REMARK UNBOUND:                 0.000
REMARK SMILES CC1(C)O[C@]2(C)CC[C@H]1CC2
REMARK SMILES IDX 1 1 2 2 9 3 8 4 7 5 5 6 4 7 11 8 10 9 6 10 3 11
REMARK H PARENT
REMARK Flexibility Score: inf
ROOT
ATOM      1  C   UNL     1      -1.125 -21.532   7.817  1.00  0.00     0.042 C 
ATOM      2  C   UNL     1       0.317 -20.982   7.743  1.00  0.00     0.066 C 
ATOM      3  C   UNL     1       0.826 -20.955   6.250  1.00  0.00     0.021 C 
ATOM      4  C   UNL     1       2.250 -20.348   6.231  1.00  0.00     0.009 C 
ATOM      5  C   UNL     1       2.239 -18.999   6.991  1.00  0.00     0.035 C 
ATOM      6  C   UNL     1       0.788 -18.660   7.439  1.00  0.00     0.066 C 
ATOM      7  O   UNL     1       0.325 -19.673   8.333  1.00  0.00    -0.369 OA
ATOM      8  C   UNL     1      -0.133 -18.622   6.187  1.00  0.00     0.035 C 
ATOM      9  C   UNL     1      -0.066 -19.979   5.445  1.00  0.00     0.009 C 
ATOM     10  C   UNL     1       0.757 -17.310   8.164  1.00  0.00     0.042 C 
ATOM     11  C   UNL     1       1.204 -21.903   8.606  1.00  0.00     0.042 C 
ENDROOT
TORSDOF 0
ENDMDL
MODEL 4
REMARK VINA RESULT:    -5.006      1.332      2.795
REMARK INTER + INTRA:          -5.006
REMARK INTER:                  -5.006
REMARK INTRA:                   0.000
REMARK UNBOUND:                 0.000
REMARK SMILES CC1(C)O[C@]2(C)CC[C@H]1CC2
REMARK SMILES IDX 1 1 2 2 9 3 8 4 7 5 5 6 4 7 11 8 10 9 6 10 3 11
REMARK H PARENT
REMARK Flexibility Score: inf
ROOT
ATOM      1  C   UNL     1       0.036 -22.323   7.629  1.00  0.00     0.042 C 
ATOM      2  C   UNL     1      -0.022 -20.780   7.576  1.00  0.00     0.066 C 
ATOM      3  C   UNL     1       1.370 -20.155   7.976  1.00  0.00     0.021 C 
ATOM      4  C   UNL     1       1.268 -18.615   7.855  1.00  0.00     0.009 C 
ATOM      5  C   UNL     1       0.714 -18.250   6.456  1.00  0.00     0.035 C 
ATOM      6  C   UNL     1       0.531 -19.543   5.609  1.00  0.00     0.066 C 
ATOM      7  O   UNL     1      -0.419 -20.395   6.251  1.00  0.00    -0.369 OA
ATOM      8  C   UNL     1       1.896 -20.281   5.511  1.00  0.00     0.035 C 
ATOM      9  C   UNL     1       2.424 -20.598   6.932  1.00  0.00     0.009 C 
ATOM     10  C   UNL     1       0.014 -19.193   4.209  1.00  0.00     0.042 C 
ATOM     11  C   UNL     1      -1.125 -20.329   8.557  1.00  0.00     0.042 C 
ENDROOT
TORSDOF 0
ENDMDL
MODEL 5
REMARK VINA RESULT:    -4.935      9.744     11.299
REMARK INTER + INTRA:          -4.935
REMARK INTER:                  -4.935
REMARK INTRA:                   0.000
REMARK UNBOUND:                 0.000
REMARK SMILES CC1(C)O[C@]2(C)CC[C@H]1CC2
REMARK SMILES IDX 1 1 2 2 9 3 8 4 7 5 5 6 4 7 11 8 10 9 6 10 3 11
REMARK H PARENT
REMARK Flexibility Score: inf
ROOT
ATOM      1  C   UNL     1       9.130 -27.397   9.503  1.00  0.00     0.042 C 
ATOM      2  C   UNL     1       9.053 -26.538   8.221  1.00  0.00     0.066 C 
ATOM      3  C   UNL     1       9.066 -25.002   8.577  1.00  0.00     0.021 C 
ATOM      4  C   UNL     1       9.040 -24.194   7.257  1.00  0.00     0.009 C 
ATOM      5  C   UNL     1      10.165 -24.705   6.324  1.00  0.00     0.035 C 
ATOM      6  C   UNL     1      11.001 -25.794   7.057  1.00  0.00     0.066 C 
ATOM      7  O   UNL     1      10.156 -26.900   7.376  1.00  0.00    -0.369 OA
ATOM      8  C   UNL     1      11.574 -25.192   8.372  1.00  0.00     0.035 C 
ATOM      9  C   UNL     1      10.417 -24.668   9.256  1.00  0.00     0.009 C 
ATOM     10  C   UNL     1      12.140 -26.285   6.156  1.00  0.00     0.042 C 
ATOM     11  C   UNL     1       7.746 -26.919   7.493  1.00  0.00     0.042 C 
ENDROOT
TORSDOF 0
ENDMDL
MODEL 6
REMARK VINA RESULT:    -4.901      1.223      2.916
REMARK INTER + INTRA:          -4.901
REMARK INTER:                  -4.901
REMARK INTRA:                   0.000
REMARK UNBOUND:                 0.000
REMARK SMILES CC1(C)O[C@]2(C)CC[C@H]1CC2
REMARK SMILES IDX 1 1 2 2 9 3 8 4 7 5 5 6 4 7 11 8 10 9 6 10 3 11
REMARK H PARENT
REMARK Flexibility Score: inf
ROOT
ATOM      1  C   UNL     1       2.152 -18.651   9.058  1.00  0.00     0.042 C 
ATOM      2  C   UNL     1       1.011 -18.723   8.020  1.00  0.00     0.066 C 
ATOM      3  C   UNL     1       1.586 -19.010   6.579  1.00  0.00     0.021 C 
ATOM      4  C   UNL     1       0.398 -19.123   5.593  1.00  0.00     0.009 C 
ATOM      5  C   UNL     1      -0.632 -20.136   6.150  1.00  0.00     0.035 C 
ATOM      6  C   UNL     1      -0.089 -20.769   7.464  1.00  0.00     0.066 C 
ATOM      7  O   UNL     1       0.091 -19.741   8.440  1.00  0.00    -0.369 OA
ATOM      8  C   UNL     1       1.281 -21.443   7.173  1.00  0.00     0.035 C 
ATOM      9  C   UNL     1       2.266 -20.400   6.591  1.00  0.00     0.009 C 
ATOM     10  C   UNL     1      -1.085 -21.799   8.009  1.00  0.00     0.042 C 
ATOM     11  C   UNL     1       0.274 -17.367   8.053  1.00  0.00     0.042 C 
ENDROOT
TORSDOF 0
ENDMDL
MODEL 7
REMARK VINA RESULT:    -4.891      1.346      2.968
REMARK INTER + INTRA:          -4.891
REMARK INTER:                  -4.891
REMARK INTRA:                   0.000
REMARK UNBOUND:                 0.000
REMARK SMILES CC1(C)O[C@]2(C)CC[C@H]1CC2
REMARK SMILES IDX 1 1 2 2 9 3 8 4 7 5 5 6 4 7 11 8 10 9 6 10 3 11
REMARK H PARENT
REMARK Flexibility Score: inf
ROOT
ATOM      1  C   UNL     1       2.291 -19.781   5.673  1.00  0.00     0.042 C 
ATOM      2  C   UNL     1       1.469 -19.460   6.942  1.00  0.00     0.066 C 
ATOM      3  C   UNL     1       0.381 -18.360   6.638  1.00  0.00     0.021 C 
ATOM      4  C   UNL     1      -0.443 -18.119   7.925  1.00  0.00     0.009 C 
ATOM      5  C   UNL     1      -0.953 -19.477   8.466  1.00  0.00     0.035 C 
ATOM      6  C   UNL     1      -0.548 -20.618   7.488  1.00  0.00     0.066 C 
ATOM      7  O   UNL     1       0.877 -20.682   7.408  1.00  0.00    -0.369 OA
ATOM      8  C   UNL     1      -1.125 -20.306   6.079  1.00  0.00     0.035 C 
ATOM      9  C   UNL     1      -0.612 -18.928   5.594  1.00  0.00     0.009 C 
ATOM     10  C   UNL     1      -1.075 -21.965   7.994  1.00  0.00     0.042 C 
ATOM     11  C   UNL     1       2.460 -18.966   8.017  1.00  0.00     0.042 C 
ENDROOT
TORSDOF 0
ENDMDL
MODEL 8
REMARK VINA RESULT:    -4.886      0.971      3.333
REMARK INTER + INTRA:          -4.886
REMARK INTER:                  -4.886
REMARK INTRA:                   0.000
REMARK UNBOUND:                 0.000
REMARK SMILES CC1(C)O[C@]2(C)CC[C@H]1CC2
REMARK SMILES IDX 1 1 2 2 9 3 8 4 7 5 5 6 4 7 11 8 10 9 6 10 3 11
REMARK H PARENT
REMARK Flexibility Score: inf
ROOT
ATOM      1  C   UNL     1       2.176 -19.802   4.978  1.00  0.00     0.042 C 
ATOM      2  C   UNL     1       0.778 -19.517   5.572  1.00  0.00     0.066 C 
ATOM      3  C   UNL     1       0.265 -20.752   6.408  1.00  0.00     0.021 C 
ATOM      4  C   UNL     1      -1.110 -20.391   7.020  1.00  0.00     0.009 C 
ATOM      5  C   UNL     1      -0.996 -19.040   7.767  1.00  0.00     0.035 C 
ATOM      6  C   UNL     1       0.477 -18.542   7.732  1.00  0.00     0.066 C 
ATOM      7  O   UNL     1       0.869 -18.330   6.375  1.00  0.00    -0.369 OA
ATOM      8  C   UNL     1       1.394 -19.628   8.365  1.00  0.00     0.035 C 
ATOM      9  C   UNL     1       1.223 -20.966   7.605  1.00  0.00     0.009 C 
ATOM     10  C   UNL     1       0.611 -17.221   8.497  1.00  0.00     0.042 C 
ATOM     11  C   UNL     1      -0.171 -19.225   4.391  1.00  0.00     0.042 C 
ENDROOT
TORSDOF 0
ENDMDL
MODEL 9
REMARK VINA RESULT:    -4.856     13.892     15.309
REMARK INTER + INTRA:          -4.856
REMARK INTER:                  -4.856
REMARK INTRA:                   0.000
REMARK UNBOUND:                 0.000
REMARK SMILES CC1(C)O[C@]2(C)CC[C@H]1CC2
REMARK SMILES IDX 1 1 2 2 9 3 8 4 7 5 5 6 4 7 11 8 10 9 6 10 3 11
REMARK H PARENT
REMARK Flexibility Score: inf
ROOT
ATOM      1  C   UNL     1      14.631 -25.212  10.020  1.00  0.00     0.042 C 
ATOM      2  C   UNL     1      14.886 -26.092   8.776  1.00  0.00     0.066 C 
ATOM      3  C   UNL     1      15.124 -27.594   9.195  1.00  0.00     0.021 C 
ATOM      4  C   UNL     1      15.321 -28.434   7.911  1.00  0.00     0.009 C 
ATOM      5  C   UNL     1      14.151 -28.157   6.936  1.00  0.00     0.035 C 
ATOM      6  C   UNL     1      13.123 -27.200   7.606  1.00  0.00     0.066 C 
ATOM      7  O   UNL     1      13.761 -25.955   7.896  1.00  0.00    -0.369 OA
ATOM      8  C   UNL     1      12.626 -27.840   8.933  1.00  0.00     0.035 C 
ATOM      9  C   UNL     1      13.832 -28.126   9.861  1.00  0.00     0.009 C 
ATOM     10  C   UNL     1      11.942 -26.943   6.664  1.00  0.00     0.042 C 
ATOM     11  C   UNL     1      16.129 -25.522   8.059  1.00  0.00     0.042 C 
ENDROOT
TORSDOF 0
ENDMDL
