MODEL 1
REMARK VINA RESULT:    -5.514      0.000      0.000
REMARK INTER + INTRA:          -5.514
REMARK INTER:                  -5.514
REMARK INTRA:                   0.000
REMARK UNBOUND:                 0.000
REMARK SMILES CC1(C)O[C@]2(C)CC[C@H]1CC2
REMARK SMILES IDX 1 1 2 2 9 3 8 4 7 5 5 6 4 7 11 8 10 9 6 10 3 11
REMARK H PARENT
REMARK Flexibility Score: inf
ROOT
ATOM      1  C   UNL     1      -6.297  -6.584  18.739  1.00  0.00     0.042 C 
ATOM      2  C   UNL     1      -7.256  -6.094  17.633  1.00  0.00     0.066 C 
ATOM      3  C   UNL     1      -7.517  -7.238  16.577  1.00  0.00     0.021 C 
ATOM      4  C   UNL     1      -6.177  -7.581  15.885  1.00  0.00     0.009 C 
ATOM      5  C   UNL     1      -5.527  -6.278  15.360  1.00  0.00     0.035 C 
ATOM      6  C   UNL     1      -6.477  -5.074  15.619  1.00  0.00     0.066 C 
ATOM      7  O   UNL     1      -6.679  -4.930  17.025  1.00  0.00    -0.369 OA
ATOM      8  C   UNL     1      -7.845  -5.353  14.932  1.00  0.00     0.035 C 
ATOM      9  C   UNL     1      -8.441  -6.677  15.468  1.00  0.00     0.009 C 
ATOM     10  C   UNL     1      -5.861  -3.781  15.073  1.00  0.00     0.042 C 
ATOM     11  C   UNL     1      -8.574  -5.675  18.320  1.00  0.00     0.042 C 
ENDROOT
TORSDOF 0
ENDMDL
MODEL 2
REMARK VINA RESULT:    -5.438      0.890      3.333
REMARK INTER + INTRA:          -5.438
REMARK INTER:                  -5.438
REMARK INTRA:                   0.000
REMARK UNBOUND:                 0.000
REMARK SMILES CC1(C)O[C@]2(C)CC[C@H]1CC2
REMARK SMILES IDX 1 1 2 2 9 3 8 4 7 5 5 6 4 7 11 8 10 9 6 10 3 11
REMARK H PARENT
REMARK Flexibility Score: inf
ROOT
ATOM      1  C   UNL     1      -6.363  -3.869  15.773  1.00  0.00     0.042 C 
ATOM      2  C   UNL     1      -6.342  -5.401  15.960  1.00  0.00     0.066 C 
ATOM      3  C   UNL     1      -7.738  -6.028  15.576  1.00  0.00     0.021 C 
ATOM      4  C   UNL     1      -8.808  -5.475  16.548  1.00  0.00     0.009 C 
ATOM      5  C   UNL     1      -8.325  -5.680  18.005  1.00  0.00     0.035 C 
ATOM      6  C   UNL     1      -6.975  -6.452  18.009  1.00  0.00     0.066 C 
ATOM      7  O   UNL     1      -5.990  -5.679  17.322  1.00  0.00    -0.369 OA
ATOM      8  C   UNL     1      -7.167  -7.808  17.270  1.00  0.00     0.035 C 
ATOM      9  C   UNL     1      -7.675  -7.554  15.831  1.00  0.00     0.009 C 
ATOM     10  C   UNL     1      -6.502  -6.692  19.447  1.00  0.00     0.042 C 
ATOM     11  C   UNL     1      -5.225  -5.958  15.051  1.00  0.00     0.042 C 
ENDROOT
TORSDOF 0
ENDMDL
MODEL 3
REMARK VINA RESULT:    -5.396      1.174      2.399
REMARK INTER + INTRA:          -5.396
REMARK INTER:                  -5.396
REMARK INTRA:                   0.000
REMARK UNBOUND:                 0.000
REMARK SMILES CC1(C)O[C@]2(C)CC[C@H]1CC2
REMARK SMILES IDX 1 1 2 2 9 3 8 4 7 5 5 6 4 7 11 8 10 9 6 10 3 11
REMARK H PARENT
REMARK Flexibility Score: inf
ROOT
ATOM      1  C   UNL     1      -7.493  -8.451  16.144  1.00  0.00     0.042 C 
ATOM      2  C   UNL     1      -6.966  -7.139  16.763  1.00  0.00     0.066 C 
ATOM      3  C   UNL     1      -8.162  -6.186  17.151  1.00  0.00     0.021 C 
ATOM      4  C   UNL     1      -8.918  -5.796  15.859  1.00  0.00     0.009 C 
ATOM      5  C   UNL     1      -7.904  -5.259  14.819  1.00  0.00     0.035 C 
ATOM      6  C   UNL     1      -6.483  -5.204  15.449  1.00  0.00     0.066 C 
ATOM      7  O   UNL     1      -6.081  -6.523  15.816  1.00  0.00    -0.369 OA
ATOM      8  C   UNL     1      -6.530  -4.310  16.722  1.00  0.00     0.035 C 
ATOM      9  C   UNL     1      -7.575  -4.870  17.717  1.00  0.00     0.009 C 
ATOM     10  C   UNL     1      -5.475  -4.641  14.441  1.00  0.00     0.042 C 
ATOM     11  C   UNL     1      -6.143  -7.519  18.013  1.00  0.00     0.042 C 
ENDROOT
TORSDOF 0
ENDMDL
MODEL 4
REMARK VINA RESULT:    -5.341      1.173      2.438
REMARK INTER + INTRA:          -5.341
REMARK INTER:                  -5.341
REMARK INTRA:                   0.000
REMARK UNBOUND:                 0.000
REMARK SMILES CC1(C)O[C@]2(C)CC[C@H]1CC2
REMARK SMILES IDX 1 1 2 2 9 3 8 4 7 5 5 6 4 7 11 8 10 9 6 10 3 11
REMARK H PARENT
REMARK Flexibility Score: inf
ROOT
ATOM      1  C   UNL     1      -9.346  -5.966  17.392  1.00  0.00     0.042 C 
ATOM      2  C   UNL     1      -8.098  -6.514  16.667  1.00  0.00     0.066 C 
ATOM      3  C   UNL     1      -6.855  -6.538  17.639  1.00  0.00     0.021 C 
ATOM      4  C   UNL     1      -6.527  -5.084  18.052  1.00  0.00     0.009 C 
ATOM      5  C   UNL     1      -6.405  -4.210  16.780  1.00  0.00     0.035 C 
ATOM      6  C   UNL     1      -6.560  -5.098  15.513  1.00  0.00     0.066 C 
ATOM      7  O   UNL     1      -7.857  -5.695  15.514  1.00  0.00    -0.369 OA
ATOM      8  C   UNL     1      -5.481  -6.219  15.547  1.00  0.00     0.035 C 
ATOM      9  C   UNL     1      -5.626  -7.046  16.847  1.00  0.00     0.009 C 
ATOM     10  C   UNL     1      -6.406  -4.250  14.245  1.00  0.00     0.042 C 
ATOM     11  C   UNL     1      -8.439  -7.940  16.182  1.00  0.00     0.042 C 
ENDROOT
TORSDOF 0
ENDMDL
MODEL 5
REMARK VINA RESULT:    -5.195     10.723     12.206
REMARK INTER + INTRA:          -5.195
REMARK INTER:                  -5.195
REMARK INTRA:                   0.000
REMARK UNBOUND:                 0.000
REMARK SMILES CC1(C)O[C@]2(C)CC[C@H]1CC2
REMARK SMILES IDX 1 1 2 2 9 3 8 4 7 5 5 6 4 7 11 8 10 9 6 10 3 11
REMARK H PARENT
REMARK Flexibility Score: inf
ROOT
ATOM      1  C   UNL     1     -16.087 -13.402  24.726  1.00  0.00     0.042 C 
ATOM      2  C   UNL     1     -15.571 -12.843  23.383  1.00  0.00     0.066 C 
ATOM      3  C   UNL     1     -13.993 -12.825  23.357  1.00  0.00     0.021 C 
ATOM      4  C   UNL     1     -13.495 -11.862  24.461  1.00  0.00     0.009 C 
ATOM      5  C   UNL     1     -14.214 -10.500  24.309  1.00  0.00     0.035 C 
ATOM      6  C   UNL     1     -15.123 -10.521  23.047  1.00  0.00     0.066 C 
ATOM      7  O   UNL     1     -16.121 -11.530  23.206  1.00  0.00    -0.369 OA
ATOM      8  C   UNL     1     -14.252 -10.855  21.802  1.00  0.00     0.035 C 
ATOM      9  C   UNL     1     -13.534 -12.210  22.013  1.00  0.00     0.009 C 
ATOM     10  C   UNL     1     -15.814  -9.166  22.865  1.00  0.00     0.042 C 
ATOM     11  C   UNL     1     -16.125 -13.752  22.265  1.00  0.00     0.042 C 
ENDROOT
TORSDOF 0
ENDMDL
MODEL 6
REMARK VINA RESULT:    -5.164     10.139     11.859
REMARK INTER + INTRA:          -5.164
REMARK INTER:                  -5.164
REMARK INTRA:                   0.000
REMARK UNBOUND:                 0.000
REMARK SMILES CC1(C)O[C@]2(C)CC[C@H]1CC2
REMARK SMILES IDX 1 1 2 2 9 3 8 4 7 5 5 6 4 7 11 8 10 9 6 10 3 11
REMARK H PARENT
REMARK Flexibility Score: inf
ROOT
ATOM      1  C   UNL     1     -13.813 -13.224  21.558  1.00  0.00     0.042 C 
ATOM      2  C   UNL     1     -13.484 -12.139  22.605  1.00  0.00     0.066 C 
ATOM      3  C   UNL     1     -13.921 -12.606  24.048  1.00  0.00     0.021 C 
ATOM      4  C   UNL     1     -15.458 -12.786  24.060  1.00  0.00     0.009 C 
ATOM      5  C   UNL     1     -16.124 -11.502  23.508  1.00  0.00     0.035 C 
ATOM      6  C   UNL     1     -15.037 -10.429  23.212  1.00  0.00     0.066 C 
ATOM      7  O   UNL     1     -14.145 -10.928  22.215  1.00  0.00    -0.369 OA
ATOM      8  C   UNL     1     -14.238 -10.148  24.518  1.00  0.00     0.035 C 
ATOM      9  C   UNL     1     -13.615 -11.463  25.045  1.00  0.00     0.009 C 
ATOM     10  C   UNL     1     -15.686  -9.140  22.697  1.00  0.00     0.042 C 
ATOM     11  C   UNL     1     -11.960 -11.895  22.550  1.00  0.00     0.042 C 
ENDROOT
TORSDOF 0
ENDMDL
MODEL 7
REMARK VINA RESULT:    -5.139     10.537     12.198
REMARK INTER + INTRA:          -5.139
REMARK INTER:                  -5.139
REMARK INTRA:                   0.000
REMARK UNBOUND:                 0.000
REMARK SMILES CC1(C)O[C@]2(C)CC[C@H]1CC2
REMARK SMILES IDX 1 1 2 2 9 3 8 4 7 5 5 6 4 7 11 8 10 9 6 10 3 11
REMARK H PARENT
REMARK Flexibility Score: inf
ROOT
ATOM      1  C   UNL     1     -13.895 -14.371  21.006  1.00  0.00     0.042 C 
ATOM      2  C   UNL     1     -14.848 -13.635  21.972  1.00  0.00     0.066 C 
ATOM      3  C   UNL     1     -15.208 -12.203  21.415  1.00  0.00     0.021 C 
ATOM      4  C   UNL     1     -13.910 -11.364  21.345  1.00  0.00     0.009 C 
ATOM      5  C   UNL     1     -13.192 -11.423  22.716  1.00  0.00     0.035 C 
ATOM      6  C   UNL     1     -14.057 -12.225  23.730  1.00  0.00     0.066 C 
ATOM      7  O   UNL     1     -14.214 -13.563  23.256  1.00  0.00    -0.369 OA
ATOM      8  C   UNL     1     -15.456 -11.555  23.841  1.00  0.00     0.035 C 
ATOM      9  C   UNL     1     -16.121 -11.494  22.445  1.00  0.00     0.009 C 
ATOM     10  C   UNL     1     -13.373 -12.262  25.101  1.00  0.00     0.042 C 
ATOM     11  C   UNL     1     -16.119 -14.501  22.111  1.00  0.00     0.042 C 
ENDROOT
TORSDOF 0
ENDMDL
MODEL 8
REMARK VINA RESULT:    -5.047     10.758     12.153
REMARK INTER + INTRA:          -5.047
REMARK INTER:                  -5.047
REMARK INTRA:                   0.000
REMARK UNBOUND:                 0.000
REMARK SMILES CC1(C)O[C@]2(C)CC[C@H]1CC2
REMARK SMILES IDX 1 1 2 2 9 3 8 4 7 5 5 6 4 7 11 8 10 9 6 10 3 11
REMARK H PARENT
REMARK Flexibility Score: inf
ROOT
ATOM      1  C   UNL     1     -15.911  -9.616  22.854  1.00  0.00     0.042 C 
ATOM      2  C   UNL     1     -14.919 -10.687  23.357  1.00  0.00     0.066 C 
ATOM      3  C   UNL     1     -13.836 -11.004  22.255  1.00  0.00     0.021 C 
ATOM      4  C   UNL     1     -14.553 -11.605  21.022  1.00  0.00     0.009 C 
ATOM      5  C   UNL     1     -15.452 -12.779  21.479  1.00  0.00     0.035 C 
ATOM      6  C   UNL     1     -15.266 -13.023  23.004  1.00  0.00     0.066 C 
ATOM      7  O   UNL     1     -15.669 -11.855  23.718  1.00  0.00    -0.369 OA
ATOM      8  C   UNL     1     -13.762 -13.304  23.290  1.00  0.00     0.035 C 
ATOM      9  C   UNL     1     -12.903 -12.117  22.792  1.00  0.00     0.009 C 
ATOM     10  C   UNL     1     -16.125 -14.207  23.463  1.00  0.00     0.042 C 
ATOM     11  C   UNL     1     -14.251 -10.131  24.634  1.00  0.00     0.042 C 
ENDROOT
TORSDOF 0
ENDMDL
MODEL 9
REMARK VINA RESULT:    -5.029     10.370     11.622
REMARK INTER + INTRA:          -5.029
REMARK INTER:                  -5.029
REMARK INTRA:                   0.000
REMARK UNBOUND:                 0.000
REMARK SMILES CC1(C)O[C@]2(C)CC[C@H]1CC2
REMARK SMILES IDX 1 1 2 2 9 3 8 4 7 5 5 6 4 7 11 8 10 9 6 10 3 11
REMARK H PARENT
REMARK Flexibility Score: inf
ROOT
ATOM      1  C   UNL     1     -11.837 -11.758  23.106  1.00  0.00     0.042 C 
ATOM      2  C   UNL     1     -13.268 -11.946  23.654  1.00  0.00     0.066 C 
ATOM      3  C   UNL     1     -14.052 -13.022  22.806  1.00  0.00     0.021 C 
ATOM      4  C   UNL     1     -14.195 -12.496  21.358  1.00  0.00     0.009 C 
ATOM      5  C   UNL     1     -14.786 -11.065  21.393  1.00  0.00     0.035 C 
ATOM      6  C   UNL     1     -15.124 -10.670  22.858  1.00  0.00     0.066 C 
ATOM      7  O   UNL     1     -13.925 -10.671  23.633  1.00  0.00    -0.369 OA
ATOM      8  C   UNL     1     -16.114 -11.716  23.448  1.00  0.00     0.035 C 
ATOM      9  C   UNL     1     -15.492 -13.131  23.366  1.00  0.00     0.009 C 
ATOM     10  C   UNL     1     -15.743  -9.268  22.903  1.00  0.00     0.042 C 
ATOM     11  C   UNL     1     -13.141 -12.397  25.125  1.00  0.00     0.042 C 
ENDROOT
TORSDOF 0
ENDMDL
