MODEL 1
REMARK VINA RESULT:     6.522      0.000      0.000
REMARK INTER + INTRA:           8.488
REMARK INTER:                   9.381
REMARK INTRA:                  -0.894
REMARK UNBOUND:                -0.894
REMARK SMILES O=c1c(O[C@@H]2O[C@H](CO)[C@H](O)[C@@H](O)[C@@H]2O)c(-c2ccc(O)cc2)oc2cc(O)cc(O)c12
REMARK SMILES IDX 4 1 3 2 16 3 24 4 2 5 25 6 1 7 32 8 26 9 30 10 27 11 29 12
REMARK SMILES IDX 17 13 18 14 19 15 20 16 23 17 22 18 21 19 31 21 28 23 5 25
REMARK SMILES IDX 14 26 6 27 12 28 7 29 10 30 15 31 13 33 8 35 9 36 11 38
REMARK H PARENT 21 20 31 22 28 24 15 32 13 34 9 37 11 39
REMARK Flexibility Score: inf
ROOT
ATOM      1  O   UNL     1       1.916   5.669   1.294  1.00  0.00    -0.454 OA
ENDROOT
BRANCH   1   2
ATOM      2  C   UNL     1       0.587   6.012   0.992  1.00  0.00     0.214 A 
ATOM      3  C   UNL     1      -0.442   5.049   0.875  1.00  0.00     0.180 A 
ATOM      4  O   UNL     1      -1.668   5.424   0.529  1.00  0.00    -0.452 OA
ATOM      5  C   UNL     1       0.264   7.362   0.815  1.00  0.00     0.239 A 
ATOM      6  C   UNL     1      -2.007   6.691   0.323  1.00  0.00     0.146 A 
ATOM      7  O   UNL     1       1.167   8.234   0.958  1.00  0.00    -0.285 OA
ATOM      8  C   UNL     1      -1.053   7.727   0.471  1.00  0.00     0.111 A 
ATOM      9  C   UNL     1      -3.326   6.992  -0.026  1.00  0.00     0.094 A 
ATOM     10  C   UNL     1      -1.456   9.070   0.267  1.00  0.00     0.134 A 
ATOM     11  C   UNL     1      -3.722   8.320  -0.214  1.00  0.00     0.123 A 
ATOM     12  C   UNL     1      -2.789   9.355  -0.065  1.00  0.00     0.093 A 
BRANCH   3  13
ATOM     13  C   UNL     1      -0.213   3.622   1.159  1.00  0.00     0.021 A 
ATOM     14  C   UNL     1      -0.746   3.043   2.316  1.00  0.00     0.016 A 
ATOM     15  C   UNL     1      -0.572   1.678   2.565  1.00  0.00     0.047 A 
ATOM     16  C   UNL     1       0.158   0.888   1.663  1.00  0.00     0.115 A 
ATOM     17  C   UNL     1       0.551   2.835   0.276  1.00  0.00     0.016 A 
ATOM     18  C   UNL     1       0.726   1.473   0.524  1.00  0.00     0.047 A 
BRANCH  16  19
ATOM     19  O   UNL     1       0.339  -0.473   1.898  1.00  0.00    -0.508 OA
ATOM     20  H   UNL     1       0.477  -0.833   2.832  1.00  0.00     0.293 HD
ENDBRANCH  16  19
ENDBRANCH   3  13
BRANCH  10  21
ATOM     21  O   UNL     1      -0.545  10.125   0.392  1.00  0.00    -0.507 OA
ATOM     22  H   UNL     1      -0.229  10.453   1.297  1.00  0.00     0.293 HD
ENDBRANCH  10  21
BRANCH  11  23
ATOM     23  O   UNL     1      -5.045   8.600  -0.542  1.00  0.00    -0.508 OA
ATOM     24  H   UNL     1      -5.468   8.241  -1.390  1.00  0.00     0.293 HD
ENDBRANCH  11  23
ENDBRANCH   1   2
BRANCH   1  25
ATOM     25  C   UNL     1       2.826   5.058   0.370  1.00  0.00     0.339 C 
ATOM     26  C   UNL     1       3.750   6.103  -0.273  1.00  0.00     0.214 C 
ATOM     27  O   UNL     1       3.552   4.005   0.994  1.00  0.00    -0.332 OA
ATOM     28  C   UNL     1       4.708   6.670   0.779  1.00  0.00     0.180 C 
ATOM     29  C   UNL     1       4.468   4.441   1.995  1.00  0.00     0.179 C 
ATOM     30  C   UNL     1       5.458   5.515   1.470  1.00  0.00     0.177 C 
BRANCH  26  31
ATOM     31  O   UNL     1       2.977   7.135  -0.836  1.00  0.00    -0.384 OA
ATOM     32  H   UNL     1       3.384   7.990  -0.543  1.00  0.00     0.211 HD
ENDBRANCH  26  31
BRANCH  28  33
ATOM     33  O   UNL     1       5.600   7.588   0.196  1.00  0.00    -0.387 OA
ATOM     34  H   UNL     1       5.083   8.188  -0.399  1.00  0.00     0.211 HD
ENDBRANCH  28  33
BRANCH  29  35
ATOM     35  C   UNL     1       3.754   4.837   3.311  1.00  0.00     0.191 C 
BRANCH  35  36
ATOM     36  O   UNL     1       4.524   4.442   4.424  1.00  0.00    -0.394 OA
ATOM     37  H   UNL     1       3.975   4.627   5.232  1.00  0.00     0.210 HD
ENDBRANCH  35  36
ENDBRANCH  29  35
BRANCH  30  38
ATOM     38  O   UNL     1       6.246   6.028   2.513  1.00  0.00    -0.387 OA
ATOM     39  H   UNL     1       5.918   6.949   2.695  1.00  0.00     0.211 HD
ENDBRANCH  30  38
ENDBRANCH   1  25
TORSDOF 11
ENDMDL
MODEL 2
REMARK VINA RESULT:     8.818      1.248      2.325
REMARK INTER + INTRA:          11.791
REMARK INTER:                  11.213
REMARK INTRA:                   0.577
REMARK UNBOUND:                -0.894
REMARK SMILES O=c1c(O[C@@H]2O[C@H](CO)[C@H](O)[C@@H](O)[C@@H]2O)c(-c2ccc(O)cc2)oc2cc(O)cc(O)c12
REMARK SMILES IDX 4 1 3 2 16 3 24 4 2 5 25 6 1 7 32 8 26 9 30 10 27 11 29 12
REMARK SMILES IDX 17 13 18 14 19 15 20 16 23 17 22 18 21 19 31 21 28 23 5 25
REMARK SMILES IDX 14 26 6 27 12 28 7 29 10 30 15 31 13 33 8 35 9 36 11 38
REMARK H PARENT 21 20 31 22 28 24 15 32 13 34 9 37 11 39
REMARK Flexibility Score: inf
ROOT
ATOM      1  O   UNL     1       2.219   5.040   1.455  1.00  0.00    -0.454 OA
ENDROOT
BRANCH   1   2
ATOM      2  C   UNL     1       0.959   5.564   1.120  1.00  0.00     0.214 A 
ATOM      3  C   UNL     1      -0.189   4.751   0.966  1.00  0.00     0.180 A 
ATOM      4  O   UNL     1      -1.342   5.293   0.590  1.00  0.00    -0.452 OA
ATOM      5  C   UNL     1       0.829   6.947   0.947  1.00  0.00     0.239 A 
ATOM      6  C   UNL     1      -1.497   6.595   0.387  1.00  0.00     0.146 A 
ATOM      7  O   UNL     1       1.838   7.685   1.123  1.00  0.00    -0.285 OA
ATOM      8  C   UNL     1      -0.416   7.490   0.570  1.00  0.00     0.111 A 
ATOM      9  C   UNL     1      -2.753   7.076   0.005  1.00  0.00     0.094 A 
ATOM     10  C   UNL     1      -0.625   8.877   0.368  1.00  0.00     0.134 A 
ATOM     11  C   UNL     1      -2.958   8.447  -0.181  1.00  0.00     0.123 A 
ATOM     12  C   UNL     1      -1.897   9.343   0.002  1.00  0.00     0.093 A 
BRANCH   3  13
ATOM     13  C   UNL     1      -0.165   3.305   1.243  1.00  0.00     0.021 A 
ATOM     14  C   UNL     1       0.388   2.421   0.309  1.00  0.00     0.016 A 
ATOM     15  C   UNL     1       0.456   1.053   0.589  1.00  0.00     0.047 A 
ATOM     16  C   UNL     1      -0.051   0.558   1.801  1.00  0.00     0.115 A 
ATOM     17  C   UNL     1      -0.707   2.801   2.441  1.00  0.00     0.016 A 
ATOM     18  C   UNL     1      -0.640   1.435   2.720  1.00  0.00     0.047 A 
BRANCH  16  19
ATOM     19  O   UNL     1       0.011  -0.802   2.093  1.00  0.00    -0.508 OA
ATOM     20  H   UNL     1       0.175  -1.489   1.371  1.00  0.00     0.293 HD
ENDBRANCH  16  19
ENDBRANCH   3  13
BRANCH  10  21
ATOM     21  O   UNL     1       0.417   9.796   0.527  1.00  0.00    -0.507 OA
ATOM     22  H   UNL     1       0.248  10.795   0.560  1.00  0.00     0.293 HD
ENDBRANCH  10  21
BRANCH  11  23
ATOM     23  O   UNL     1      -4.221   8.907  -0.543  1.00  0.00    -0.508 OA
ATOM     24  H   UNL     1      -5.053   8.623  -0.038  1.00  0.00     0.293 HD
ENDBRANCH  11  23
ENDBRANCH   1   2
BRANCH   1  25
ATOM     25  C   UNL     1       3.470   5.636   1.085  1.00  0.00     0.339 C 
ATOM     26  C   UNL     1       4.496   5.528   2.223  1.00  0.00     0.214 C 
ATOM     27  O   UNL     1       3.953   5.082  -0.134  1.00  0.00    -0.332 OA
ATOM     28  C   UNL     1       4.896   4.063   2.427  1.00  0.00     0.180 C 
ATOM     29  C   UNL     1       4.346   3.716  -0.039  1.00  0.00     0.179 C 
ATOM     30  C   UNL     1       5.382   3.470   1.090  1.00  0.00     0.177 C 
BRANCH  26  31
ATOM     31  O   UNL     1       3.946   6.052   3.407  1.00  0.00    -0.384 OA
ATOM     32  H   UNL     1       4.101   5.379   4.117  1.00  0.00     0.211 HD
ENDBRANCH  26  31
BRANCH  28  33
ATOM     33  O   UNL     1       5.878   3.950   3.427  1.00  0.00    -0.387 OA
ATOM     34  H   UNL     1       5.956   2.996   3.680  1.00  0.00     0.211 HD
ENDBRANCH  28  33
BRANCH  29  35
ATOM     35  C   UNL     1       3.131   2.758   0.006  1.00  0.00     0.191 C 
BRANCH  35  36
ATOM     36  O   UNL     1       3.470   1.508  -0.549  1.00  0.00    -0.394 OA
ATOM     37  H   UNL     1       4.265   1.180  -0.052  1.00  0.00     0.210 HD
ENDBRANCH  35  36
ENDBRANCH  29  35
BRANCH  30  38
ATOM     38  O   UNL     1       5.635   2.098   1.253  1.00  0.00    -0.387 OA
ATOM     39  H   UNL     1       5.128   1.625   0.540  1.00  0.00     0.211 HD
ENDBRANCH  30  38
ENDBRANCH   1  25
TORSDOF 11
ENDMDL
