MODEL 1
REMARK VINA RESULT:    -4.922      0.000      0.000
REMARK INTER + INTRA:         -16.601
REMARK INTER:                 -12.978
REMARK INTRA:                  -3.623
REMARK UNBOUND:                -3.623
REMARK SMILES CCCCCCCCCCCCCCCCCCCCCCCCCCCCCC(=O)[O-]
REMARK SMILES IDX 16 1 17 2 18 3 19 4 20 5 21 6 22 7 23 8 24 9 25 10 26 11
REMARK SMILES IDX 27 12 28 13 29 14 30 15 31 16 32 17 15 18 14 19 13 20 12 21
REMARK SMILES IDX 11 22 10 23 9 24 8 25 7 26 6 27 5 28 4 29 3 30 2 31 1 32
REMARK H PARENT
REMARK Flexibility Score: inf
ROOT
ATOM      1  C   UNL     1      28.995  13.386  31.492  1.00  0.00     0.000 C 
ENDROOT
BRANCH   1   2
ATOM      2  C   UNL     1      28.450  12.237  30.620  1.00  0.00     0.000 C 
BRANCH   2   3
ATOM      3  C   UNL     1      26.957  11.915  30.812  1.00  0.00     0.000 C 
BRANCH   3   4
ATOM      4  C   UNL     1      26.642  10.411  30.726  1.00  0.00     0.000 C 
BRANCH   4   5
ATOM      5  C   UNL     1      25.287  10.061  31.366  1.00  0.00     0.000 C 
BRANCH   5   6
ATOM      6  C   UNL     1      24.091  10.566  30.548  1.00  0.00     0.000 C 
BRANCH   6   7
ATOM      7  C   UNL     1      22.796   9.874  30.997  1.00  0.00     0.000 C 
BRANCH   7   8
ATOM      8  C   UNL     1      21.949  10.762  31.923  1.00  0.00     0.000 C 
BRANCH   8   9
ATOM      9  C   UNL     1      20.448  10.664  31.614  1.00  0.00     0.000 C 
BRANCH   9  10
ATOM     10  C   UNL     1      19.612  10.854  32.890  1.00  0.00     0.000 C 
BRANCH  10  11
ATOM     11  C   UNL     1      18.980  12.250  32.988  1.00  0.00     0.000 C 
BRANCH  11  12
ATOM     12  C   UNL     1      19.403  13.180  31.838  1.00  0.00     0.000 C 
BRANCH  12  13
ATOM     13  C   UNL     1      19.108  14.657  32.140  1.00  0.00     0.006 C 
BRANCH  13  14
ATOM     14  C   UNL     1      20.256  15.347  32.892  1.00  0.00     0.053 C 
BRANCH  14  15
ATOM     15  C   UNL     1      20.982  16.289  31.979  1.00  0.00     0.041 C 
ATOM     16  O   UNL     1      21.004  17.524  32.235  1.00  0.00    -0.550 OA
ATOM     17  O   UNL     1      21.554  15.817  30.808  1.00  0.00    -0.550 OA
ENDBRANCH  14  15
ENDBRANCH  13  14
ENDBRANCH  12  13
ENDBRANCH  11  12
ENDBRANCH  10  11
ENDBRANCH   9  10
ENDBRANCH   8   9
ENDBRANCH   7   8
ENDBRANCH   6   7
ENDBRANCH   5   6
ENDBRANCH   4   5
ENDBRANCH   3   4
ENDBRANCH   2   3
ENDBRANCH   1   2
BRANCH   1  18
ATOM     18  C   UNL     1      28.241  13.546  32.823  1.00  0.00     0.000 C 
BRANCH  18  19
ATOM     19  C   UNL     1      28.750  12.593  33.929  1.00  0.00     0.000 C 
BRANCH  19  20
ATOM     20  C   UNL     1      28.123  12.856  35.313  1.00  0.00     0.000 C 
BRANCH  20  21
ATOM     21  C   UNL     1      26.589  12.996  35.328  1.00  0.00     0.000 C 
BRANCH  21  22
ATOM     22  C   UNL     1      25.842  11.848  34.616  1.00  0.00     0.000 C 
BRANCH  22  23
ATOM     23  C   UNL     1      24.410  12.229  34.214  1.00  0.00     0.000 C 
BRANCH  23  24
ATOM     24  C   UNL     1      23.571  12.601  35.445  1.00  0.00    -0.000 C 
BRANCH  24  25
ATOM     25  C   UNL     1      22.106  12.934  35.099  1.00  0.00    -0.000 C 
BRANCH  25  26
ATOM     26  C   UNL     1      21.051  12.250  35.994  1.00  0.00    -0.000 C 
BRANCH  26  27
ATOM     27  C   UNL     1      19.762  13.074  36.148  1.00  0.00    -0.000 C 
BRANCH  27  28
ATOM     28  C   UNL     1      18.777  12.456  37.154  1.00  0.00    -0.000 C 
BRANCH  28  29
ATOM     29  C   UNL     1      17.948  11.290  36.579  1.00  0.00    -0.000 C 
BRANCH  29  30
ATOM     30  C   UNL     1      18.116   9.966  37.352  1.00  0.00    -0.000 C 
BRANCH  30  31
ATOM     31  C   UNL     1      19.326   9.130  36.894  1.00  0.00    -0.003 C 
ATOM     32  C   UNL     1      19.355   7.726  37.498  1.00  0.00     0.004 C 
ENDBRANCH  30  31
ENDBRANCH  29  30
ENDBRANCH  28  29
ENDBRANCH  27  28
ENDBRANCH  26  27
ENDBRANCH  25  26
ENDBRANCH  24  25
ENDBRANCH  23  24
ENDBRANCH  22  23
ENDBRANCH  21  22
ENDBRANCH  20  21
ENDBRANCH  19  20
ENDBRANCH  18  19
ENDBRANCH   1  18
TORSDOF 28
ENDMDL
MODEL 2
REMARK VINA RESULT:    -4.799      1.995      2.720
REMARK INTER + INTRA:         -16.278
REMARK INTER:                 -12.269
REMARK INTRA:                  -4.009
REMARK UNBOUND:                -3.623
REMARK SMILES CCCCCCCCCCCCCCCCCCCCCCCCCCCCCC(=O)[O-]
REMARK SMILES IDX 16 1 17 2 18 3 19 4 20 5 21 6 22 7 23 8 24 9 25 10 26 11
REMARK SMILES IDX 27 12 28 13 29 14 30 15 31 16 32 17 15 18 14 19 13 20 12 21
REMARK SMILES IDX 11 22 10 23 9 24 8 25 7 26 6 27 5 28 4 29 3 30 2 31 1 32
REMARK H PARENT
REMARK Flexibility Score: inf
ROOT
ATOM      1  C   UNL     1      28.350  13.021  32.199  1.00  0.00     0.000 C 
ENDROOT
BRANCH   1   2
ATOM      2  C   UNL     1      27.995  11.637  31.619  1.00  0.00     0.000 C 
BRANCH   2   3
ATOM      3  C   UNL     1      27.163  11.658  30.324  1.00  0.00     0.000 C 
BRANCH   3   4
ATOM      4  C   UNL     1      26.049  10.597  30.297  1.00  0.00     0.000 C 
BRANCH   4   5
ATOM      5  C   UNL     1      25.442  10.352  31.689  1.00  0.00     0.000 C 
BRANCH   5   6
ATOM      6  C   UNL     1      24.493  11.474  32.134  1.00  0.00     0.000 C 
BRANCH   6   7
ATOM      7  C   UNL     1      23.077  11.233  31.592  1.00  0.00     0.000 C 
BRANCH   7   8
ATOM      8  C   UNL     1      22.493  12.478  30.905  1.00  0.00     0.000 C 
BRANCH   8   9
ATOM      9  C   UNL     1      21.824  13.435  31.903  1.00  0.00     0.000 C 
BRANCH   9  10
ATOM     10  C   UNL     1      20.487  13.955  31.351  1.00  0.00     0.000 C 
BRANCH  10  11
ATOM     11  C   UNL     1      19.654  14.701  32.404  1.00  0.00     0.000 C 
BRANCH  11  12
ATOM     12  C   UNL     1      18.194  14.223  32.458  1.00  0.00     0.000 C 
BRANCH  12  13
ATOM     13  C   UNL     1      18.036  12.765  31.998  1.00  0.00     0.006 C 
BRANCH  13  14
ATOM     14  C   UNL     1      17.956  11.780  33.173  1.00  0.00     0.053 C 
BRANCH  14  15
ATOM     15  C   UNL     1      18.722  10.531  32.854  1.00  0.00     0.041 C 
ATOM     16  O   UNL     1      18.604   9.514  33.590  1.00  0.00    -0.550 OA
ATOM     17  O   UNL     1      19.626  10.520  31.804  1.00  0.00    -0.550 OA
ENDBRANCH  14  15
ENDBRANCH  13  14
ENDBRANCH  12  13
ENDBRANCH  11  12
ENDBRANCH  10  11
ENDBRANCH   9  10
ENDBRANCH   8   9
ENDBRANCH   7   8
ENDBRANCH   6   7
ENDBRANCH   5   6
ENDBRANCH   4   5
ENDBRANCH   3   4
ENDBRANCH   2   3
ENDBRANCH   1   2
BRANCH   1  18
ATOM     18  C   UNL     1      28.684  12.981  33.700  1.00  0.00     0.000 C 
BRANCH  18  19
ATOM     19  C   UNL     1      28.000  14.108  34.506  1.00  0.00     0.000 C 
BRANCH  19  20
ATOM     20  C   UNL     1      27.063  13.596  35.618  1.00  0.00     0.000 C 
BRANCH  20  21
ATOM     21  C   UNL     1      25.995  12.582  35.168  1.00  0.00     0.000 C 
BRANCH  21  22
ATOM     22  C   UNL     1      24.713  12.589  36.028  1.00  0.00     0.000 C 
BRANCH  22  23
ATOM     23  C   UNL     1      23.432  12.660  35.186  1.00  0.00     0.000 C 
BRANCH  23  24
ATOM     24  C   UNL     1      22.192  12.348  36.038  1.00  0.00    -0.000 C 
BRANCH  24  25
ATOM     25  C   UNL     1      20.867  12.639  35.306  1.00  0.00    -0.000 C 
BRANCH  25  26
ATOM     26  C   UNL     1      20.054  13.821  35.871  1.00  0.00    -0.000 C 
BRANCH  26  27
ATOM     27  C   UNL     1      18.597  13.451  36.201  1.00  0.00    -0.000 C 
BRANCH  27  28
ATOM     28  C   UNL     1      18.487  12.441  37.355  1.00  0.00    -0.000 C 
BRANCH  28  29
ATOM     29  C   UNL     1      17.934  11.066  36.929  1.00  0.00    -0.000 C 
BRANCH  29  30
ATOM     30  C   UNL     1      18.947   9.914  37.082  1.00  0.00    -0.000 C 
BRANCH  30  31
ATOM     31  C   UNL     1      18.291   8.537  37.301  1.00  0.00    -0.003 C 
ATOM     32  C   UNL     1      19.303   7.410  37.503  1.00  0.00     0.004 C 
ENDBRANCH  30  31
ENDBRANCH  29  30
ENDBRANCH  28  29
ENDBRANCH  27  28
ENDBRANCH  26  27
ENDBRANCH  25  26
ENDBRANCH  24  25
ENDBRANCH  23  24
ENDBRANCH  22  23
ENDBRANCH  21  22
ENDBRANCH  20  21
ENDBRANCH  19  20
ENDBRANCH  18  19
ENDBRANCH   1  18
TORSDOF 28
ENDMDL
MODEL 3
REMARK VINA RESULT:    -4.759      1.270      3.906
REMARK INTER + INTRA:         -16.173
REMARK INTER:                 -11.521
REMARK INTRA:                  -4.652
REMARK UNBOUND:                -3.623
REMARK SMILES CCCCCCCCCCCCCCCCCCCCCCCCCCCCCC(=O)[O-]
REMARK SMILES IDX 16 1 17 2 18 3 19 4 20 5 21 6 22 7 23 8 24 9 25 10 26 11
REMARK SMILES IDX 27 12 28 13 29 14 30 15 31 16 32 17 15 18 14 19 13 20 12 21
REMARK SMILES IDX 11 22 10 23 9 24 8 25 7 26 6 27 5 28 4 29 3 30 2 31 1 32
REMARK H PARENT
REMARK Flexibility Score: inf
ROOT
ATOM      1  C   UNL     1      28.023  12.679  34.747  1.00  0.00     0.000 C 
ENDROOT
BRANCH   1   2
ATOM      2  C   UNL     1      27.438  13.515  35.903  1.00  0.00     0.000 C 
BRANCH   2   3
ATOM      3  C   UNL     1      25.900  13.548  35.982  1.00  0.00     0.000 C 
BRANCH   3   4
ATOM      4  C   UNL     1      25.247  12.176  35.735  1.00  0.00     0.000 C 
BRANCH   4   5
ATOM      5  C   UNL     1      24.435  12.143  34.430  1.00  0.00     0.000 C 
BRANCH   5   6
ATOM      6  C   UNL     1      23.193  13.046  34.474  1.00  0.00     0.000 C 
BRANCH   6   7
ATOM      7  C   UNL     1      22.185  12.529  35.510  1.00  0.00     0.000 C 
BRANCH   7   8
ATOM      8  C   UNL     1      20.976  13.464  35.666  1.00  0.00     0.000 C 
BRANCH   8   9
ATOM      9  C   UNL     1      20.857  14.465  34.506  1.00  0.00     0.000 C 
BRANCH   9  10
ATOM     10  C   UNL     1      19.469  14.383  33.852  1.00  0.00     0.000 C 
BRANCH  10  11
ATOM     11  C   UNL     1      19.532  14.314  32.320  1.00  0.00     0.000 C 
BRANCH  11  12
ATOM     12  C   UNL     1      20.973  14.291  31.782  1.00  0.00     0.000 C 
BRANCH  12  13
ATOM     13  C   UNL     1      21.215  15.365  30.710  1.00  0.00     0.006 C 
BRANCH  13  14
ATOM     14  C   UNL     1      20.126  16.447  30.699  1.00  0.00     0.053 C 
BRANCH  14  15
ATOM     15  C   UNL     1      20.695  17.759  31.150  1.00  0.00     0.041 C 
ATOM     16  O   UNL     1      20.540  18.791  30.442  1.00  0.00    -0.550 OA
ATOM     17  O   UNL     1      21.466  17.823  32.300  1.00  0.00    -0.550 OA
ENDBRANCH  14  15
ENDBRANCH  13  14
ENDBRANCH  12  13
ENDBRANCH  11  12
ENDBRANCH  10  11
ENDBRANCH   9  10
ENDBRANCH   8   9
ENDBRANCH   7   8
ENDBRANCH   6   7
ENDBRANCH   5   6
ENDBRANCH   4   5
ENDBRANCH   3   4
ENDBRANCH   2   3
ENDBRANCH   1   2
BRANCH   1  18
ATOM     18  C   UNL     1      28.074  13.444  33.414  1.00  0.00     0.000 C 
BRANCH  18  19
ATOM     19  C   UNL     1      28.212  12.516  32.185  1.00  0.00     0.000 C 
BRANCH  19  20
ATOM     20  C   UNL     1      26.869  12.181  31.506  1.00  0.00     0.000 C 
BRANCH  20  21
ATOM     21  C   UNL     1      26.335  10.759  31.762  1.00  0.00     0.000 C 
BRANCH  21  22
ATOM     22  C   UNL     1      25.855  10.025  30.492  1.00  0.00     0.000 C 
BRANCH  22  23
ATOM     23  C   UNL     1      24.465   9.395  30.658  1.00  0.00     0.000 C 
BRANCH  23  24
ATOM     24  C   UNL     1      23.374  10.296  30.061  1.00  0.00    -0.000 C 
BRANCH  24  25
ATOM     25  C   UNL     1      22.811  11.314  31.072  1.00  0.00    -0.000 C 
BRANCH  25  26
ATOM     26  C   UNL     1      21.768  10.749  32.058  1.00  0.00    -0.000 C 
BRANCH  26  27
ATOM     27  C   UNL     1      20.358  10.645  31.453  1.00  0.00    -0.000 C 
BRANCH  27  28
ATOM     28  C   UNL     1      19.323  10.092  32.447  1.00  0.00    -0.000 C 
BRANCH  28  29
ATOM     29  C   UNL     1      19.336  10.798  33.818  1.00  0.00    -0.000 C 
BRANCH  29  30
ATOM     30  C   UNL     1      18.738   9.952  34.960  1.00  0.00    -0.000 C 
BRANCH  30  31
ATOM     31  C   UNL     1      19.548  10.017  36.269  1.00  0.00    -0.003 C 
ATOM     32  C   UNL     1      19.319   8.814  37.182  1.00  0.00     0.004 C 
ENDBRANCH  30  31
ENDBRANCH  29  30
ENDBRANCH  28  29
ENDBRANCH  27  28
ENDBRANCH  26  27
ENDBRANCH  25  26
ENDBRANCH  24  25
ENDBRANCH  23  24
ENDBRANCH  22  23
ENDBRANCH  21  22
ENDBRANCH  20  21
ENDBRANCH  19  20
ENDBRANCH  18  19
ENDBRANCH   1  18
TORSDOF 28
ENDMDL
MODEL 4
REMARK VINA RESULT:    -4.752      1.165      4.419
REMARK INTER + INTRA:         -16.155
REMARK INTER:                 -12.209
REMARK INTRA:                  -3.946
REMARK UNBOUND:                -3.623
REMARK SMILES CCCCCCCCCCCCCCCCCCCCCCCCCCCCCC(=O)[O-]
REMARK SMILES IDX 16 1 17 2 18 3 19 4 20 5 21 6 22 7 23 8 24 9 25 10 26 11
REMARK SMILES IDX 27 12 28 13 29 14 30 15 31 16 32 17 15 18 14 19 13 20 12 21
REMARK SMILES IDX 11 22 10 23 9 24 8 25 7 26 6 27 5 28 4 29 3 30 2 31 1 32
REMARK H PARENT
REMARK Flexibility Score: inf
ROOT
ATOM      1  C   UNL     1      25.223  12.157  31.714  1.00  0.00     0.000 C 
ENDROOT
BRANCH   1   2
ATOM      2  C   UNL     1      26.334  13.225  31.682  1.00  0.00     0.000 C 
BRANCH   2   3
ATOM      3  C   UNL     1      27.766  12.683  31.510  1.00  0.00     0.000 C 
BRANCH   3   4
ATOM      4  C   UNL     1      28.756  13.236  32.550  1.00  0.00     0.000 C 
BRANCH   4   5
ATOM      5  C   UNL     1      28.360  12.865  33.989  1.00  0.00     0.000 C 
BRANCH   5   6
ATOM      6  C   UNL     1      28.004  14.087  34.846  1.00  0.00     0.000 C 
BRANCH   6   7
ATOM      7  C   UNL     1      26.934  13.726  35.886  1.00  0.00     0.000 C 
BRANCH   7   8
ATOM      8  C   UNL     1      26.085  12.519  35.457  1.00  0.00     0.000 C 
BRANCH   8   9
ATOM      9  C   UNL     1      24.678  12.546  36.074  1.00  0.00     0.000 C 
BRANCH   9  10
ATOM     10  C   UNL     1      23.623  12.911  35.017  1.00  0.00     0.000 C 
BRANCH  10  11
ATOM     11  C   UNL     1      22.194  12.556  35.451  1.00  0.00     0.000 C 
BRANCH  11  12
ATOM     12  C   UNL     1      21.160  13.610  35.021  1.00  0.00     0.000 C 
BRANCH  12  13
ATOM     13  C   UNL     1      21.393  14.110  33.587  1.00  0.00     0.006 C 
BRANCH  13  14
ATOM     14  C   UNL     1      20.785  15.497  33.337  1.00  0.00     0.053 C 
BRANCH  14  15
ATOM     15  C   UNL     1      20.716  15.776  31.866  1.00  0.00     0.041 C 
ATOM     16  O   UNL     1      20.874  14.838  31.038  1.00  0.00    -0.550 OA
ATOM     17  O   UNL     1      20.566  17.078  31.413  1.00  0.00    -0.550 OA
ENDBRANCH  14  15
ENDBRANCH  13  14
ENDBRANCH  12  13
ENDBRANCH  11  12
ENDBRANCH  10  11
ENDBRANCH   9  10
ENDBRANCH   8   9
ENDBRANCH   7   8
ENDBRANCH   6   7
ENDBRANCH   5   6
ENDBRANCH   4   5
ENDBRANCH   3   4
ENDBRANCH   2   3
ENDBRANCH   1   2
BRANCH   1  18
ATOM     18  C   UNL     1      25.766  10.721  31.814  1.00  0.00     0.000 C 
BRANCH  18  19
ATOM     19  C   UNL     1      24.933   9.698  31.009  1.00  0.00     0.000 C 
BRANCH  19  20
ATOM     20  C   UNL     1      23.654  10.290  30.386  1.00  0.00     0.000 C 
BRANCH  20  21
ATOM     21  C   UNL     1      22.438  10.375  31.328  1.00  0.00     0.000 C 
BRANCH  21  22
ATOM     22  C   UNL     1      21.313   9.371  31.000  1.00  0.00     0.000 C 
BRANCH  22  23
ATOM     23  C   UNL     1      19.913   9.928  31.294  1.00  0.00     0.000 C 
BRANCH  23  24
ATOM     24  C   UNL     1      19.896  11.461  31.196  1.00  0.00    -0.000 C 
BRANCH  24  25
ATOM     25  C   UNL     1      18.722  12.102  31.963  1.00  0.00    -0.000 C 
BRANCH  25  26
ATOM     26  C   UNL     1      17.990  11.161  32.942  1.00  0.00    -0.000 C 
BRANCH  26  27
ATOM     27  C   UNL     1      18.379  11.396  34.412  1.00  0.00    -0.000 C 
BRANCH  27  28
ATOM     28  C   UNL     1      19.368  10.345  34.940  1.00  0.00    -0.000 C 
BRANCH  28  29
ATOM     29  C   UNL     1      19.567  10.388  36.468  1.00  0.00    -0.000 C 
BRANCH  29  30
ATOM     30  C   UNL     1      18.257  10.254  37.271  1.00  0.00    -0.000 C 
BRANCH  30  31
ATOM     31  C   UNL     1      18.185   8.976  38.130  1.00  0.00    -0.003 C 
ATOM     32  C   UNL     1      19.068   7.845  37.607  1.00  0.00     0.004 C 
ENDBRANCH  30  31
ENDBRANCH  29  30
ENDBRANCH  28  29
ENDBRANCH  27  28
ENDBRANCH  26  27
ENDBRANCH  25  26
ENDBRANCH  24  25
ENDBRANCH  23  24
ENDBRANCH  22  23
ENDBRANCH  21  22
ENDBRANCH  20  21
ENDBRANCH  19  20
ENDBRANCH  18  19
ENDBRANCH   1  18
TORSDOF 28
ENDMDL
MODEL 5
REMARK VINA RESULT:    -4.685      2.386      4.589
REMARK INTER + INTRA:         -15.977
REMARK INTER:                 -11.517
REMARK INTRA:                  -4.460
REMARK UNBOUND:                -3.623
REMARK SMILES CCCCCCCCCCCCCCCCCCCCCCCCCCCCCC(=O)[O-]
REMARK SMILES IDX 16 1 17 2 18 3 19 4 20 5 21 6 22 7 23 8 24 9 25 10 26 11
REMARK SMILES IDX 27 12 28 13 29 14 30 15 31 16 32 17 15 18 14 19 13 20 12 21
REMARK SMILES IDX 11 22 10 23 9 24 8 25 7 26 6 27 5 28 4 29 3 30 2 31 1 32
REMARK H PARENT
REMARK Flexibility Score: inf
ROOT
ATOM      1  C   UNL     1      28.815  13.390  31.895  1.00  0.00     0.000 C 
ENDROOT
BRANCH   1   2
ATOM      2  C   UNL     1      28.418  12.749  30.550  1.00  0.00     0.000 C 
BRANCH   2   3
ATOM      3  C   UNL     1      27.995  11.270  30.623  1.00  0.00     0.000 C 
BRANCH   3   4
ATOM      4  C   UNL     1      26.601  11.004  30.030  1.00  0.00     0.000 C 
BRANCH   4   5
ATOM      5  C   UNL     1      25.735  10.124  30.947  1.00  0.00     0.000 C 
BRANCH   5   6
ATOM      6  C   UNL     1      25.165  10.890  32.149  1.00  0.00     0.000 C 
BRANCH   6   7
ATOM      7  C   UNL     1      24.423  12.152  31.685  1.00  0.00     0.000 C 
BRANCH   7   8
ATOM      8  C   UNL     1      23.119  11.823  30.942  1.00  0.00     0.000 C 
BRANCH   8   9
ATOM      9  C   UNL     1      22.172  10.952  31.780  1.00  0.00     0.000 C 
BRANCH   9  10
ATOM     10  C   UNL     1      20.704  11.258  31.445  1.00  0.00     0.000 C 
BRANCH  10  11
ATOM     11  C   UNL     1      19.743  10.147  31.892  1.00  0.00     0.000 C 
BRANCH  11  12
ATOM     12  C   UNL     1      18.567  10.676  32.731  1.00  0.00     0.000 C 
BRANCH  12  13
ATOM     13  C   UNL     1      18.565  10.111  34.160  1.00  0.00     0.006 C 
BRANCH  13  14
ATOM     14  C   UNL     1      19.638  10.754  35.051  1.00  0.00     0.053 C 
BRANCH  14  15
ATOM     15  C   UNL     1      19.106  10.956  36.439  1.00  0.00     0.041 C 
ATOM     16  O   UNL     1      18.954  12.123  36.892  1.00  0.00    -0.550 OA
ATOM     17  O   UNL     1      18.863   9.863  37.255  1.00  0.00    -0.550 OA
ENDBRANCH  14  15
ENDBRANCH  13  14
ENDBRANCH  12  13
ENDBRANCH  11  12
ENDBRANCH  10  11
ENDBRANCH   9  10
ENDBRANCH   8   9
ENDBRANCH   7   8
ENDBRANCH   6   7
ENDBRANCH   5   6
ENDBRANCH   4   5
ENDBRANCH   3   4
ENDBRANCH   2   3
ENDBRANCH   1   2
BRANCH   1  18
ATOM     18  C   UNL     1      27.699  13.320  32.951  1.00  0.00     0.000 C 
BRANCH  18  19
ATOM     19  C   UNL     1      28.075  12.459  34.178  1.00  0.00     0.000 C 
BRANCH  19  20
ATOM     20  C   UNL     1      27.783  13.142  35.529  1.00  0.00     0.000 C 
BRANCH  20  21
ATOM     21  C   UNL     1      26.303  13.476  35.795  1.00  0.00     0.000 C 
BRANCH  21  22
ATOM     22  C   UNL     1      25.344  12.277  35.630  1.00  0.00     0.000 C 
BRANCH  22  23
ATOM     23  C   UNL     1      23.898  12.613  36.018  1.00  0.00     0.000 C 
BRANCH  23  24
ATOM     24  C   UNL     1      23.003  12.725  34.775  1.00  0.00    -0.000 C 
BRANCH  24  25
ATOM     25  C   UNL     1      21.748  13.589  35.010  1.00  0.00    -0.000 C 
BRANCH  25  26
ATOM     26  C   UNL     1      21.028  14.058  33.729  1.00  0.00    -0.000 C 
BRANCH  26  27
ATOM     27  C   UNL     1      19.542  14.386  33.955  1.00  0.00    -0.000 C 
BRANCH  27  28
ATOM     28  C   UNL     1      18.694  14.212  32.684  1.00  0.00    -0.000 C 
BRANCH  28  29
ATOM     29  C   UNL     1      18.330  15.540  31.991  1.00  0.00    -0.000 C 
BRANCH  29  30
ATOM     30  C   UNL     1      19.369  16.006  30.952  1.00  0.00    -0.000 C 
BRANCH  30  31
ATOM     31  C   UNL     1      19.919  17.421  31.216  1.00  0.00    -0.003 C 
ATOM     32  C   UNL     1      21.166  17.430  32.098  1.00  0.00     0.004 C 
ENDBRANCH  30  31
ENDBRANCH  29  30
ENDBRANCH  28  29
ENDBRANCH  27  28
ENDBRANCH  26  27
ENDBRANCH  25  26
ENDBRANCH  24  25
ENDBRANCH  23  24
ENDBRANCH  22  23
ENDBRANCH  21  22
ENDBRANCH  20  21
ENDBRANCH  19  20
ENDBRANCH  18  19
ENDBRANCH   1  18
TORSDOF 28
ENDMDL
MODEL 6
REMARK VINA RESULT:    -4.652      2.835      5.985
REMARK INTER + INTRA:         -15.891
REMARK INTER:                 -12.114
REMARK INTRA:                  -3.777
REMARK UNBOUND:                -3.623
REMARK SMILES CCCCCCCCCCCCCCCCCCCCCCCCCCCCCC(=O)[O-]
REMARK SMILES IDX 16 1 17 2 18 3 19 4 20 5 21 6 22 7 23 8 24 9 25 10 26 11
REMARK SMILES IDX 27 12 28 13 29 14 30 15 31 16 32 17 15 18 14 19 13 20 12 21
REMARK SMILES IDX 11 22 10 23 9 24 8 25 7 26 6 27 5 28 4 29 3 30 2 31 1 32
REMARK H PARENT
REMARK Flexibility Score: inf
ROOT
ATOM      1  C   UNL     1      28.626  12.458  33.911  1.00  0.00     0.000 C 
ENDROOT
BRANCH   1   2
ATOM      2  C   UNL     1      27.707  12.490  35.148  1.00  0.00     0.000 C 
BRANCH   2   3
ATOM      3  C   UNL     1      26.528  11.500  35.120  1.00  0.00     0.000 C 
BRANCH   3   4
ATOM      4  C   UNL     1      25.156  12.188  35.010  1.00  0.00     0.000 C 
BRANCH   4   5
ATOM      5  C   UNL     1      24.511  11.986  33.628  1.00  0.00     0.000 C 
BRANCH   5   6
ATOM      6  C   UNL     1      23.111  12.608  33.525  1.00  0.00     0.000 C 
BRANCH   6   7
ATOM      7  C   UNL     1      22.423  12.624  34.897  1.00  0.00     0.000 C 
BRANCH   7   8
ATOM      8  C   UNL     1      20.893  12.724  34.783  1.00  0.00     0.000 C 
BRANCH   8   9
ATOM      9  C   UNL     1      20.288  13.654  35.845  1.00  0.00     0.000 C 
BRANCH   9  10
ATOM     10  C   UNL     1      18.815  13.301  36.107  1.00  0.00     0.000 C 
BRANCH  10  11
ATOM     11  C   UNL     1      18.625  12.396  37.332  1.00  0.00     0.000 C 
BRANCH  11  12
ATOM     12  C   UNL     1      18.018  11.029  36.977  1.00  0.00     0.000 C 
BRANCH  12  13
ATOM     13  C   UNL     1      18.950  10.184  36.094  1.00  0.00     0.006 C 
BRANCH  13  14
ATOM     14  C   UNL     1      19.740   9.141  36.897  1.00  0.00     0.053 C 
BRANCH  14  15
ATOM     15  C   UNL     1      19.126   7.783  36.728  1.00  0.00     0.041 C 
ATOM     16  O   UNL     1      18.363   7.553  35.751  1.00  0.00    -0.550 OA
ATOM     17  O   UNL     1      19.326   6.807  37.691  1.00  0.00    -0.550 OA
ENDBRANCH  14  15
ENDBRANCH  13  14
ENDBRANCH  12  13
ENDBRANCH  11  12
ENDBRANCH  10  11
ENDBRANCH   9  10
ENDBRANCH   8   9
ENDBRANCH   7   8
ENDBRANCH   6   7
ENDBRANCH   5   6
ENDBRANCH   4   5
ENDBRANCH   3   4
ENDBRANCH   2   3
ENDBRANCH   1   2
BRANCH   1  18
ATOM     18  C   UNL     1      28.089  13.294  32.737  1.00  0.00     0.000 C 
BRANCH  18  19
ATOM     19  C   UNL     1      28.883  13.083  31.427  1.00  0.00     0.000 C 
BRANCH  19  20
ATOM     20  C   UNL     1      28.176  12.160  30.414  1.00  0.00     0.000 C 
BRANCH  20  21
ATOM     21  C   UNL     1      27.062  11.269  30.996  1.00  0.00     0.000 C 
BRANCH  21  22
ATOM     22  C   UNL     1      26.144  10.629  29.933  1.00  0.00     0.000 C 
BRANCH  22  23
ATOM     23  C   UNL     1      24.668  11.011  30.114  1.00  0.00     0.000 C 
BRANCH  23  24
ATOM     24  C   UNL     1      23.752   9.795  29.907  1.00  0.00    -0.000 C 
BRANCH  24  25
ATOM     25  C   UNL     1      22.645   9.684  30.974  1.00  0.00    -0.000 C 
BRANCH  25  26
ATOM     26  C   UNL     1      21.528  10.743  30.870  1.00  0.00    -0.000 C 
BRANCH  26  27
ATOM     27  C   UNL     1      20.150  10.214  31.304  1.00  0.00    -0.000 C 
BRANCH  27  28
ATOM     28  C   UNL     1      19.209  11.330  31.784  1.00  0.00    -0.000 C 
BRANCH  28  29
ATOM     29  C   UNL     1      19.806  12.746  31.658  1.00  0.00    -0.000 C 
BRANCH  29  30
ATOM     30  C   UNL     1      18.796  13.876  31.945  1.00  0.00    -0.000 C 
BRANCH  30  31
ATOM     31  C   UNL     1      19.421  15.284  31.930  1.00  0.00    -0.003 C 
ATOM     32  C   UNL     1      20.947  15.270  32.003  1.00  0.00     0.004 C 
ENDBRANCH  30  31
ENDBRANCH  29  30
ENDBRANCH  28  29
ENDBRANCH  27  28
ENDBRANCH  26  27
ENDBRANCH  25  26
ENDBRANCH  24  25
ENDBRANCH  23  24
ENDBRANCH  22  23
ENDBRANCH  21  22
ENDBRANCH  20  21
ENDBRANCH  19  20
ENDBRANCH  18  19
ENDBRANCH   1  18
TORSDOF 28
ENDMDL
MODEL 7
REMARK VINA RESULT:    -4.594      2.767      6.167
REMARK INTER + INTRA:         -15.738
REMARK INTER:                 -12.147
REMARK INTRA:                  -3.591
REMARK UNBOUND:                -3.623
REMARK SMILES CCCCCCCCCCCCCCCCCCCCCCCCCCCCCC(=O)[O-]
REMARK SMILES IDX 16 1 17 2 18 3 19 4 20 5 21 6 22 7 23 8 24 9 25 10 26 11
REMARK SMILES IDX 27 12 28 13 29 14 30 15 31 16 32 17 15 18 14 19 13 20 12 21
REMARK SMILES IDX 11 22 10 23 9 24 8 25 7 26 6 27 5 28 4 29 3 30 2 31 1 32
REMARK H PARENT
REMARK Flexibility Score: inf
ROOT
ATOM      1  C   UNL     1      27.610  11.876  33.156  1.00  0.00     0.000 C 
ENDROOT
BRANCH   1   2
ATOM      2  C   UNL     1      28.382  12.279  34.429  1.00  0.00     0.000 C 
BRANCH   2   3
ATOM      3  C   UNL     1      28.423  13.790  34.724  1.00  0.00     0.000 C 
BRANCH   3   4
ATOM      4  C   UNL     1      27.585  14.195  35.949  1.00  0.00     0.000 C 
BRANCH   4   5
ATOM      5  C   UNL     1      26.080  13.966  35.728  1.00  0.00     0.000 C 
BRANCH   5   6
ATOM      6  C   UNL     1      25.450  13.056  36.792  1.00  0.00     0.000 C 
BRANCH   6   7
ATOM      7  C   UNL     1      24.322  12.212  36.184  1.00  0.00     0.000 C 
BRANCH   7   8
ATOM      8  C   UNL     1      24.141  12.474  34.680  1.00  0.00     0.000 C 
BRANCH   8   9
ATOM      9  C   UNL     1      22.665  12.651  34.291  1.00  0.00     0.000 C 
BRANCH   9  10
ATOM     10  C   UNL     1      21.799  12.919  35.532  1.00  0.00     0.000 C 
BRANCH  10  11
ATOM     11  C   UNL     1      20.295  12.802  35.249  1.00  0.00     0.000 C 
BRANCH  11  12
ATOM     12  C   UNL     1      19.444  12.798  36.530  1.00  0.00     0.000 C 
BRANCH  12  13
ATOM     13  C   UNL     1      18.777  11.437  36.787  1.00  0.00     0.006 C 
BRANCH  13  14
ATOM     14  C   UNL     1      19.595  10.263  36.231  1.00  0.00     0.053 C 
BRANCH  14  15
ATOM     15  C   UNL     1      19.041   8.962  36.730  1.00  0.00     0.041 C 
ATOM     16  O   UNL     1      18.742   8.049  35.914  1.00  0.00    -0.550 OA
ATOM     17  O   UNL     1      18.775   8.794  38.080  1.00  0.00    -0.550 OA
ENDBRANCH  14  15
ENDBRANCH  13  14
ENDBRANCH  12  13
ENDBRANCH  11  12
ENDBRANCH  10  11
ENDBRANCH   9  10
ENDBRANCH   8   9
ENDBRANCH   7   8
ENDBRANCH   6   7
ENDBRANCH   5   6
ENDBRANCH   4   5
ENDBRANCH   3   4
ENDBRANCH   2   3
ENDBRANCH   1   2
BRANCH   1  18
ATOM     18  C   UNL     1      27.066  13.082  32.371  1.00  0.00     0.000 C 
BRANCH  18  19
ATOM     19  C   UNL     1      26.996  12.834  30.847  1.00  0.00     0.000 C 
BRANCH  19  20
ATOM     20  C   UNL     1      27.362  11.394  30.434  1.00  0.00     0.000 C 
BRANCH  20  21
ATOM     21  C   UNL     1      26.201  10.551  29.875  1.00  0.00     0.000 C 
BRANCH  21  22
ATOM     22  C   UNL     1      25.375   9.819  30.955  1.00  0.00     0.000 C 
BRANCH  22  23
ATOM     23  C   UNL     1      24.816   8.475  30.468  1.00  0.00     0.000 C 
BRANCH  23  24
ATOM     24  C   UNL     1      23.281   8.496  30.424  1.00  0.00    -0.000 C 
BRANCH  24  25
ATOM     25  C   UNL     1      22.703   9.904  30.179  1.00  0.00    -0.000 C 
BRANCH  25  26
ATOM     26  C   UNL     1      21.867  10.479  31.340  1.00  0.00    -0.000 C 
BRANCH  26  27
ATOM     27  C   UNL     1      20.399  10.738  30.960  1.00  0.00    -0.000 C 
BRANCH  27  28
ATOM     28  C   UNL     1      20.148  12.187  30.510  1.00  0.00    -0.000 C 
BRANCH  28  29
ATOM     29  C   UNL     1      20.026  13.189  31.675  1.00  0.00    -0.000 C 
BRANCH  29  30
ATOM     30  C   UNL     1      20.871  14.466  31.490  1.00  0.00    -0.000 C 
BRANCH  30  31
ATOM     31  C   UNL     1      20.789  15.442  32.680  1.00  0.00    -0.003 C 
ATOM     32  C   UNL     1      20.926  16.907  32.271  1.00  0.00     0.004 C 
ENDBRANCH  30  31
ENDBRANCH  29  30
ENDBRANCH  28  29
ENDBRANCH  27  28
ENDBRANCH  26  27
ENDBRANCH  25  26
ENDBRANCH  24  25
ENDBRANCH  23  24
ENDBRANCH  22  23
ENDBRANCH  21  22
ENDBRANCH  20  21
ENDBRANCH  19  20
ENDBRANCH  18  19
ENDBRANCH   1  18
TORSDOF 28
ENDMDL
MODEL 8
REMARK VINA RESULT:    -4.482      2.259      7.424
REMARK INTER + INTRA:         -15.441
REMARK INTER:                 -11.230
REMARK INTRA:                  -4.211
REMARK UNBOUND:                -3.623
REMARK SMILES CCCCCCCCCCCCCCCCCCCCCCCCCCCCCC(=O)[O-]
REMARK SMILES IDX 16 1 17 2 18 3 19 4 20 5 21 6 22 7 23 8 24 9 25 10 26 11
REMARK SMILES IDX 27 12 28 13 29 14 30 15 31 16 32 17 15 18 14 19 13 20 12 21
REMARK SMILES IDX 11 22 10 23 9 24 8 25 7 26 6 27 5 28 4 29 3 30 2 31 1 32
REMARK H PARENT
REMARK Flexibility Score: inf
ROOT
ATOM      1  C   UNL     1      19.894  10.379  31.328  1.00  0.00     0.000 C 
ENDROOT
BRANCH   1   2
ATOM      2  C   UNL     1      20.907  11.212  32.139  1.00  0.00     0.000 C 
BRANCH   2   3
ATOM      3  C   UNL     1      21.618  12.331  31.356  1.00  0.00     0.000 C 
BRANCH   3   4
ATOM      4  C   UNL     1      23.145  12.155  31.290  1.00  0.00     0.000 C 
BRANCH   4   5
ATOM      5  C   UNL     1      23.598  10.787  31.827  1.00  0.00     0.000 C 
BRANCH   5   6
ATOM      6  C   UNL     1      23.928   9.786  30.711  1.00  0.00     0.000 C 
BRANCH   6   7
ATOM      7  C   UNL     1      25.388   9.322  30.814  1.00  0.00     0.000 C 
BRANCH   7   8
ATOM      8  C   UNL     1      26.286  10.365  31.498  1.00  0.00     0.000 C 
BRANCH   8   9
ATOM      9  C   UNL     1      26.982  11.289  30.487  1.00  0.00     0.000 C 
BRANCH   9  10
ATOM     10  C   UNL     1      27.079  12.723  31.033  1.00  0.00     0.000 C 
BRANCH  10  11
ATOM     11  C   UNL     1      28.456  13.043  31.632  1.00  0.00     0.000 C 
BRANCH  11  12
ATOM     12  C   UNL     1      28.382  13.459  33.111  1.00  0.00     0.000 C 
BRANCH  12  13
ATOM     13  C   UNL     1      28.346  12.251  34.060  1.00  0.00     0.006 C 
BRANCH  13  14
ATOM     14  C   UNL     1      27.799  12.607  35.450  1.00  0.00     0.053 C 
BRANCH  14  15
ATOM     15  C   UNL     1      26.301  12.651  35.421  1.00  0.00     0.041 C 
ATOM     16  O   UNL     1      25.666  11.972  34.570  1.00  0.00    -0.550 OA
ATOM     17  O   UNL     1      25.616  13.504  36.273  1.00  0.00    -0.550 OA
ENDBRANCH  14  15
ENDBRANCH  13  14
ENDBRANCH  12  13
ENDBRANCH  11  12
ENDBRANCH  10  11
ENDBRANCH   9  10
ENDBRANCH   8   9
ENDBRANCH   7   8
ENDBRANCH   6   7
ENDBRANCH   5   6
ENDBRANCH   4   5
ENDBRANCH   3   4
ENDBRANCH   2   3
ENDBRANCH   1   2
BRANCH   1  18
ATOM     18  C   UNL     1      18.485  10.373  31.944  1.00  0.00     0.000 C 
BRANCH  18  19
ATOM     19  C   UNL     1      18.325  11.377  33.109  1.00  0.00     0.000 C 
BRANCH  19  20
ATOM     20  C   UNL     1      18.008  10.712  34.463  1.00  0.00     0.000 C 
BRANCH  20  21
ATOM     21  C   UNL     1      18.613  11.406  35.698  1.00  0.00     0.000 C 
BRANCH  21  22
ATOM     22  C   UNL     1      20.065  10.985  36.012  1.00  0.00     0.000 C 
BRANCH  22  23
ATOM     23  C   UNL     1      20.998  12.183  36.229  1.00  0.00     0.000 C 
BRANCH  23  24
ATOM     24  C   UNL     1      20.385  13.472  35.660  1.00  0.00    -0.000 C 
BRANCH  24  25
ATOM     25  C   UNL     1      21.186  14.050  34.476  1.00  0.00    -0.000 C 
BRANCH  25  26
ATOM     26  C   UNL     1      20.482  15.185  33.704  1.00  0.00    -0.000 C 
BRANCH  26  27
ATOM     27  C   UNL     1      19.012  14.873  33.375  1.00  0.00    -0.000 C 
BRANCH  27  28
ATOM     28  C   UNL     1      18.764  14.694  31.869  1.00  0.00    -0.000 C 
BRANCH  28  29
ATOM     29  C   UNL     1      19.531  15.700  30.987  1.00  0.00    -0.000 C 
BRANCH  29  30
ATOM     30  C   UNL     1      18.863  17.087  30.901  1.00  0.00    -0.000 C 
BRANCH  30  31
ATOM     31  C   UNL     1      19.866  18.255  30.831  1.00  0.00    -0.003 C 
ATOM     32  C   UNL     1      21.273  17.871  31.285  1.00  0.00     0.004 C 
ENDBRANCH  30  31
ENDBRANCH  29  30
ENDBRANCH  28  29
ENDBRANCH  27  28
ENDBRANCH  26  27
ENDBRANCH  25  26
ENDBRANCH  24  25
ENDBRANCH  23  24
ENDBRANCH  22  23
ENDBRANCH  21  22
ENDBRANCH  20  21
ENDBRANCH  19  20
ENDBRANCH  18  19
ENDBRANCH   1  18
TORSDOF 28
ENDMDL
MODEL 9
REMARK VINA RESULT:    -4.473      2.174      6.170
REMARK INTER + INTRA:         -15.419
REMARK INTER:                 -11.066
REMARK INTRA:                  -4.353
REMARK UNBOUND:                -3.623
REMARK SMILES CCCCCCCCCCCCCCCCCCCCCCCCCCCCCC(=O)[O-]
REMARK SMILES IDX 16 1 17 2 18 3 19 4 20 5 21 6 22 7 23 8 24 9 25 10 26 11
REMARK SMILES IDX 27 12 28 13 29 14 30 15 31 16 32 17 15 18 14 19 13 20 12 21
REMARK SMILES IDX 11 22 10 23 9 24 8 25 7 26 6 27 5 28 4 29 3 30 2 31 1 32
REMARK H PARENT
REMARK Flexibility Score: inf
ROOT
ATOM      1  C   UNL     1      23.409  12.252  35.224  1.00  0.00     0.000 C 
ENDROOT
BRANCH   1   2
ATOM      2  C   UNL     1      22.294  13.312  35.119  1.00  0.00     0.000 C 
BRANCH   2   3
ATOM      3  C   UNL     1      21.837  13.649  33.687  1.00  0.00     0.000 C 
BRANCH   3   4
ATOM      4  C   UNL     1      20.900  14.868  33.616  1.00  0.00     0.000 C 
BRANCH   4   5
ATOM      5  C   UNL     1      20.742  15.399  32.182  1.00  0.00     0.000 C 
BRANCH   5   6
ATOM      6  C   UNL     1      21.579  14.619  31.158  1.00  0.00     0.000 C 
BRANCH   6   7
ATOM      7  C   UNL     1      20.707  14.165  29.979  1.00  0.00     0.000 C 
BRANCH   7   8
ATOM      8  C   UNL     1      19.212  14.132  30.334  1.00  0.00     0.000 C 
BRANCH   8   9
ATOM      9  C   UNL     1      18.667  12.700  30.435  1.00  0.00     0.000 C 
BRANCH   9  10
ATOM     10  C   UNL     1      18.498  12.280  31.904  1.00  0.00     0.000 C 
BRANCH  10  11
ATOM     11  C   UNL     1      19.659  11.415  32.416  1.00  0.00     0.000 C 
BRANCH  11  12
ATOM     12  C   UNL     1      19.218  10.390  33.474  1.00  0.00     0.000 C 
BRANCH  12  13
ATOM     13  C   UNL     1      19.588  10.823  34.901  1.00  0.00     0.006 C 
BRANCH  13  14
ATOM     14  C   UNL     1      18.355  11.075  35.781  1.00  0.00     0.053 C 
BRANCH  14  15
ATOM     15  C   UNL     1      18.392  12.466  36.339  1.00  0.00     0.041 C 
ATOM     16  O   UNL     1      18.444  13.457  35.561  1.00  0.00    -0.550 OA
ATOM     17  O   UNL     1      18.457  12.662  37.710  1.00  0.00    -0.550 OA
ENDBRANCH  14  15
ENDBRANCH  13  14
ENDBRANCH  12  13
ENDBRANCH  11  12
ENDBRANCH  10  11
ENDBRANCH   9  10
ENDBRANCH   8   9
ENDBRANCH   7   8
ENDBRANCH   6   7
ENDBRANCH   5   6
ENDBRANCH   4   5
ENDBRANCH   3   4
ENDBRANCH   2   3
ENDBRANCH   1   2
BRANCH   1  18
ATOM     18  C   UNL     1      24.573  12.687  36.131  1.00  0.00     0.000 C 
BRANCH  18  19
ATOM     19  C   UNL     1      25.945  12.652  35.419  1.00  0.00     0.000 C 
BRANCH  19  20
ATOM     20  C   UNL     1      26.954  13.683  35.964  1.00  0.00     0.000 C 
BRANCH  20  21
ATOM     21  C   UNL     1      28.018  14.162  34.958  1.00  0.00     0.000 C 
BRANCH  21  22
ATOM     22  C   UNL     1      27.637  13.936  33.479  1.00  0.00     0.000 C 
BRANCH  22  23
ATOM     23  C   UNL     1      28.649  13.056  32.732  1.00  0.00     0.000 C 
BRANCH  23  24
ATOM     24  C   UNL     1      27.960  11.841  32.093  1.00  0.00    -0.000 C 
BRANCH  24  25
ATOM     25  C   UNL     1      27.805  11.968  30.565  1.00  0.00    -0.000 C 
BRANCH  25  26
ATOM     26  C   UNL     1      27.534  13.397  30.052  1.00  0.00    -0.000 C 
BRANCH  26  27
ATOM     27  C   UNL     1      26.048  13.791  30.115  1.00  0.00    -0.000 C 
BRANCH  27  28
ATOM     28  C   UNL     1      25.112  12.572  30.165  1.00  0.00    -0.000 C 
BRANCH  28  29
ATOM     29  C   UNL     1      24.524  12.296  31.563  1.00  0.00    -0.000 C 
BRANCH  29  30
ATOM     30  C   UNL     1      23.595  11.066  31.616  1.00  0.00    -0.000 C 
BRANCH  30  31
ATOM     31  C   UNL     1      23.992   9.947  30.634  1.00  0.00    -0.003 C 
ATOM     32  C   UNL     1      25.338   9.303  30.962  1.00  0.00     0.004 C 
ENDBRANCH  30  31
ENDBRANCH  29  30
ENDBRANCH  28  29
ENDBRANCH  27  28
ENDBRANCH  26  27
ENDBRANCH  25  26
ENDBRANCH  24  25
ENDBRANCH  23  24
ENDBRANCH  22  23
ENDBRANCH  21  22
ENDBRANCH  20  21
ENDBRANCH  19  20
ENDBRANCH  18  19
ENDBRANCH   1  18
TORSDOF 28
ENDMDL
