MODEL 1
REMARK VINA RESULT:    -3.602      0.000      0.000
REMARK INTER + INTRA:          -9.201
REMARK INTER:                  -6.761
REMARK INTRA:                  -2.440
REMARK UNBOUND:                -2.440
REMARK SMILES CCCCCCCCC=CCCCCCCCC(=O)[O-]
REMARK SMILES IDX 10 1 9 2 11 3 12 4 13 5 14 6 15 7 16 8 17 9 18 10 19 11
REMARK SMILES IDX 20 12 8 13 7 14 6 15 5 16 4 17 3 18 2 19 1 20
REMARK H PARENT
REMARK Flexibility Score: inf
ROOT
ATOM      1  C   UNL     1     169.061 186.156  30.655  1.00  0.00    -0.031 C 
ATOM      2  C   UNL     1     170.136 185.356  30.711  1.00  0.00    -0.031 C 
ENDROOT
BRANCH   1   3
ATOM      3  C   UNL     1     167.799 185.737  29.951  1.00  0.00     0.027 C 
BRANCH   3   4
ATOM      4  C   UNL     1     166.757 185.163  30.925  1.00  0.00     0.004 C 
BRANCH   4   5
ATOM      5  C   UNL     1     167.073 185.404  32.413  1.00  0.00     0.000 C 
BRANCH   5   6
ATOM      6  C   UNL     1     166.249 184.507  33.350  1.00  0.00     0.000 C 
BRANCH   6   7
ATOM      7  C   UNL     1     164.933 184.085  32.687  1.00  0.00     0.000 C 
BRANCH   7   8
ATOM      8  C   UNL     1     164.725 182.568  32.797  1.00  0.00     0.006 C 
BRANCH   8   9
ATOM      9  C   UNL     1     164.942 181.851  31.457  1.00  0.00     0.053 C 
BRANCH   9  10
ATOM     10  C   UNL     1     163.939 182.279  30.427  1.00  0.00     0.041 C 
ATOM     11  O   UNL     1     162.761 181.838  30.471  1.00  0.00    -0.550 OA
ATOM     12  O   UNL     1     164.316 183.136  29.401  1.00  0.00    -0.550 OA
ENDBRANCH   9  10
ENDBRANCH   8   9
ENDBRANCH   7   8
ENDBRANCH   6   7
ENDBRANCH   5   6
ENDBRANCH   4   5
ENDBRANCH   3   4
ENDBRANCH   1   3
BRANCH   2  13
ATOM     13  C   UNL     1     171.381 185.763  31.449  1.00  0.00     0.027 C 
BRANCH  13  14
ATOM     14  C   UNL     1     171.058 186.758  32.571  1.00  0.00     0.004 C 
BRANCH  14  15
ATOM     15  C   UNL     1     171.320 186.132  33.949  1.00  0.00     0.000 C 
BRANCH  15  16
ATOM     16  C   UNL     1     170.055 185.524  34.575  1.00  0.00     0.000 C 
BRANCH  16  17
ATOM     17  C   UNL     1     170.207 184.028  34.891  1.00  0.00    -0.000 C 
BRANCH  17  18
ATOM     18  C   UNL     1     169.778 183.167  33.692  1.00  0.00    -0.000 C 
BRANCH  18  19
ATOM     19  C   UNL     1     170.798 182.068  33.357  1.00  0.00    -0.003 C 
ATOM     20  C   UNL     1     172.219 182.608  33.199  1.00  0.00     0.004 C 
ENDBRANCH  18  19
ENDBRANCH  17  18
ENDBRANCH  16  17
ENDBRANCH  15  16
ENDBRANCH  14  15
ENDBRANCH  13  14
ENDBRANCH   2  13
TORSDOF 15
ENDMDL
MODEL 2
REMARK VINA RESULT:    -3.520      2.000      3.498
REMARK INTER + INTRA:          -9.047
REMARK INTER:                  -6.523
REMARK INTRA:                  -2.525
REMARK UNBOUND:                -2.440
REMARK SMILES CCCCCCCCC=CCCCCCCCC(=O)[O-]
REMARK SMILES IDX 10 1 9 2 11 3 12 4 13 5 14 6 15 7 16 8 17 9 18 10 19 11
REMARK SMILES IDX 20 12 8 13 7 14 6 15 5 16 4 17 3 18 2 19 1 20
REMARK H PARENT
REMARK Flexibility Score: inf
ROOT
ATOM      1  C   UNL     1     167.449 188.734  33.435  1.00  0.00    -0.031 C 
ATOM      2  C   UNL     1     168.484 188.398  32.651  1.00  0.00    -0.031 C 
ENDROOT
BRANCH   1   3
ATOM      3  C   UNL     1     166.060 188.903  32.883  1.00  0.00     0.027 C 
BRANCH   3   4
ATOM      4  C   UNL     1     165.016 188.113  33.692  1.00  0.00     0.004 C 
BRANCH   4   5
ATOM      5  C   UNL     1     165.612 187.060  34.646  1.00  0.00     0.000 C 
BRANCH   5   6
ATOM      6  C   UNL     1     165.398 185.621  34.152  1.00  0.00     0.000 C 
BRANCH   6   7
ATOM      7  C   UNL     1     166.673 185.066  33.508  1.00  0.00     0.000 C 
BRANCH   7   8
ATOM      8  C   UNL     1     166.359 183.842  32.635  1.00  0.00     0.006 C 
BRANCH   8   9
ATOM      9  C   UNL     1     165.159 184.080  31.708  1.00  0.00     0.053 C 
BRANCH   9  10
ATOM     10  C   UNL     1     164.856 182.874  30.868  1.00  0.00     0.041 C 
ATOM     11  O   UNL     1     165.142 181.722  31.290  1.00  0.00    -0.550 OA
ATOM     12  O   UNL     1     164.293 183.026  29.608  1.00  0.00    -0.550 OA
ENDBRANCH   9  10
ENDBRANCH   8   9
ENDBRANCH   7   8
ENDBRANCH   6   7
ENDBRANCH   5   6
ENDBRANCH   4   5
ENDBRANCH   3   4
ENDBRANCH   1   3
BRANCH   2  13
ATOM     13  C   UNL     1     169.863 188.193  33.214  1.00  0.00     0.027 C 
BRANCH  13  14
ATOM     14  C   UNL     1     169.985 186.822  33.890  1.00  0.00     0.004 C 
BRANCH  14  15
ATOM     15  C   UNL     1     171.321 186.153  33.532  1.00  0.00     0.000 C 
BRANCH  15  16
ATOM     16  C   UNL     1     171.367 185.659  32.077  1.00  0.00     0.000 C 
BRANCH  16  17
ATOM     17  C   UNL     1     170.054 184.995  31.632  1.00  0.00    -0.000 C 
BRANCH  17  18
ATOM     18  C   UNL     1     169.617 185.513  30.254  1.00  0.00    -0.000 C 
BRANCH  18  19
ATOM     19  C   UNL     1     168.107 185.789  30.177  1.00  0.00    -0.003 C 
ATOM     20  C   UNL     1     167.776 187.052  29.381  1.00  0.00     0.004 C 
ENDBRANCH  18  19
ENDBRANCH  17  18
ENDBRANCH  16  17
ENDBRANCH  15  16
ENDBRANCH  14  15
ENDBRANCH  13  14
ENDBRANCH   2  13
TORSDOF 15
ENDMDL
MODEL 3
REMARK VINA RESULT:    -3.510      3.585      6.048
REMARK INTER + INTRA:          -9.028
REMARK INTER:                  -6.188
REMARK INTRA:                  -2.840
REMARK UNBOUND:                -2.440
REMARK SMILES CCCCCCCCC=CCCCCCCCC(=O)[O-]
REMARK SMILES IDX 10 1 9 2 11 3 12 4 13 5 14 6 15 7 16 8 17 9 18 10 19 11
REMARK SMILES IDX 20 12 8 13 7 14 6 15 5 16 4 17 3 18 2 19 1 20
REMARK H PARENT
REMARK Flexibility Score: inf
ROOT
ATOM      1  C   UNL     1     167.886 186.629  30.712  1.00  0.00    -0.031 C 
ATOM      2  C   UNL     1     167.999 187.244  31.899  1.00  0.00    -0.031 C 
ENDROOT
BRANCH   1   3
ATOM      3  C   UNL     1     168.984 185.757  30.165  1.00  0.00     0.027 C 
BRANCH   3   4
ATOM      4  C   UNL     1     169.850 185.149  31.282  1.00  0.00     0.004 C 
BRANCH   4   5
ATOM      5  C   UNL     1     171.262 185.755  31.395  1.00  0.00     0.000 C 
BRANCH   5   6
ATOM      6  C   UNL     1     171.530 186.388  32.769  1.00  0.00     0.000 C 
BRANCH   6   7
ATOM      7  C   UNL     1     170.905 185.550  33.891  1.00  0.00     0.000 C 
BRANCH   7   8
ATOM      8  C   UNL     1     171.929 184.569  34.479  1.00  0.00     0.006 C 
BRANCH   8   9
ATOM      9  C   UNL     1     171.712 183.132  33.984  1.00  0.00     0.053 C 
BRANCH   9  10
ATOM     10  C   UNL     1     172.983 182.520  33.475  1.00  0.00     0.041 C 
ATOM     11  O   UNL     1     173.644 183.096  32.571  1.00  0.00    -0.550 OA
ATOM     12  O   UNL     1     173.417 181.298  33.973  1.00  0.00    -0.550 OA
ENDBRANCH   9  10
ENDBRANCH   8   9
ENDBRANCH   7   8
ENDBRANCH   6   7
ENDBRANCH   5   6
ENDBRANCH   4   5
ENDBRANCH   3   4
ENDBRANCH   1   3
BRANCH   2  13
ATOM     13  C   UNL     1     166.884 188.083  32.459  1.00  0.00     0.027 C 
BRANCH  13  14
ATOM     14  C   UNL     1     166.542 187.659  33.893  1.00  0.00     0.004 C 
BRANCH  14  15
ATOM     15  C   UNL     1     167.613 186.712  34.455  1.00  0.00     0.000 C 
BRANCH  15  16
ATOM     16  C   UNL     1     167.048 185.334  34.835  1.00  0.00     0.000 C 
BRANCH  16  17
ATOM     17  C   UNL     1     167.506 184.219  33.883  1.00  0.00    -0.000 C 
BRANCH  17  18
ATOM     18  C   UNL     1     166.300 183.490  33.271  1.00  0.00    -0.000 C 
BRANCH  18  19
ATOM     19  C   UNL     1     165.437 184.409  32.390  1.00  0.00    -0.003 C 
ATOM     20  C   UNL     1     165.223 183.849  30.984  1.00  0.00     0.004 C 
ENDBRANCH  18  19
ENDBRANCH  17  18
ENDBRANCH  16  17
ENDBRANCH  15  16
ENDBRANCH  14  15
ENDBRANCH  13  14
ENDBRANCH   2  13
TORSDOF 15
ENDMDL
MODEL 4
REMARK VINA RESULT:    -3.500      3.000      6.870
REMARK INTER + INTRA:          -9.010
REMARK INTER:                  -7.110
REMARK INTRA:                  -1.899
REMARK UNBOUND:                -2.440
REMARK SMILES CCCCCCCCC=CCCCCCCCC(=O)[O-]
REMARK SMILES IDX 10 1 9 2 11 3 12 4 13 5 14 6 15 7 16 8 17 9 18 10 19 11
REMARK SMILES IDX 20 12 8 13 7 14 6 15 5 16 4 17 3 18 2 19 1 20
REMARK H PARENT
REMARK Flexibility Score: inf
ROOT
ATOM      1  C   UNL     1     167.512 185.434  31.345  1.00  0.00    -0.031 C 
ATOM      2  C   UNL     1     167.733 184.816  32.515  1.00  0.00    -0.031 C 
ENDROOT
BRANCH   1   3
ATOM      3  C   UNL     1     168.635 185.758  30.397  1.00  0.00     0.027 C 
BRANCH   3   4
ATOM      4  C   UNL     1     169.937 185.029  30.772  1.00  0.00     0.004 C 
BRANCH   4   5
ATOM      5  C   UNL     1     171.102 185.960  31.155  1.00  0.00     0.000 C 
BRANCH   5   6
ATOM      6  C   UNL     1     170.846 186.728  32.461  1.00  0.00     0.000 C 
BRANCH   6   7
ATOM      7  C   UNL     1     171.731 186.195  33.594  1.00  0.00     0.000 C 
BRANCH   7   8
ATOM      8  C   UNL     1     171.125 184.926  34.213  1.00  0.00     0.006 C 
BRANCH   8   9
ATOM      9  C   UNL     1     172.160 183.802  34.370  1.00  0.00     0.053 C 
BRANCH   9  10
ATOM     10  C   UNL     1     172.435 183.113  33.066  1.00  0.00     0.041 C 
ATOM     11  O   UNL     1     171.541 182.414  32.520  1.00  0.00    -0.550 OA
ATOM     12  O   UNL     1     173.687 183.214  32.475  1.00  0.00    -0.550 OA
ENDBRANCH   9  10
ENDBRANCH   8   9
ENDBRANCH   7   8
ENDBRANCH   6   7
ENDBRANCH   5   6
ENDBRANCH   4   5
ENDBRANCH   3   4
ENDBRANCH   1   3
BRANCH   2  13
ATOM     13  C   UNL     1     166.604 184.459  33.441  1.00  0.00     0.027 C 
BRANCH  13  14
ATOM     14  C   UNL     1     165.252 184.885  32.854  1.00  0.00     0.004 C 
BRANCH  14  15
ATOM     15  C   UNL     1     164.237 183.734  32.928  1.00  0.00     0.000 C 
BRANCH  15  16
ATOM     16  C   UNL     1     164.879 182.359  32.683  1.00  0.00     0.000 C 
BRANCH  16  17
ATOM     17  C   UNL     1     164.966 181.999  31.192  1.00  0.00    -0.000 C 
BRANCH  17  18
ATOM     18  C   UNL     1     163.638 182.294  30.478  1.00  0.00    -0.000 C 
BRANCH  18  19
ATOM     19  C   UNL     1     162.613 181.160  30.641  1.00  0.00    -0.003 C 
ATOM     20  C   UNL     1     161.462 181.534  31.575  1.00  0.00     0.004 C 
ENDBRANCH  18  19
ENDBRANCH  17  18
ENDBRANCH  16  17
ENDBRANCH  15  16
ENDBRANCH  14  15
ENDBRANCH  13  14
ENDBRANCH   2  13
TORSDOF 15
ENDMDL
MODEL 5
REMARK VINA RESULT:    -3.483      3.447      6.547
REMARK INTER + INTRA:          -8.978
REMARK INTER:                  -7.043
REMARK INTRA:                  -1.934
REMARK UNBOUND:                -2.440
REMARK SMILES CCCCCCCCC=CCCCCCCCC(=O)[O-]
REMARK SMILES IDX 10 1 9 2 11 3 12 4 13 5 14 6 15 7 16 8 17 9 18 10 19 11
REMARK SMILES IDX 20 12 8 13 7 14 6 15 5 16 4 17 3 18 2 19 1 20
REMARK H PARENT
REMARK Flexibility Score: inf
ROOT
ATOM      1  C   UNL     1     170.637 186.172  31.763  1.00  0.00    -0.031 C 
ATOM      2  C   UNL     1     169.370 186.428  31.409  1.00  0.00    -0.031 C 
ENDROOT
BRANCH   1   3
ATOM      3  C   UNL     1     171.275 186.832  32.956  1.00  0.00     0.027 C 
BRANCH   3   4
ATOM      4  C   UNL     1     171.538 185.835  34.097  1.00  0.00     0.004 C 
BRANCH   4   5
ATOM      5  C   UNL     1     170.270 185.180  34.676  1.00  0.00     0.000 C 
BRANCH   5   6
ATOM      6  C   UNL     1     170.381 183.651  34.772  1.00  0.00     0.000 C 
BRANCH   6   7
ATOM      7  C   UNL     1     170.253 183.004  33.387  1.00  0.00     0.000 C 
BRANCH   7   8
ATOM      8  C   UNL     1     171.400 182.015  33.136  1.00  0.00     0.006 C 
BRANCH   8   9
ATOM      9  C   UNL     1     172.605 182.274  34.052  1.00  0.00     0.053 C 
BRANCH   9  10
ATOM     10  C   UNL     1     173.721 182.962  33.324  1.00  0.00     0.041 C 
ATOM     11  O   UNL     1     173.555 183.357  32.139  1.00  0.00    -0.550 OA
ATOM     12  O   UNL     1     174.953 183.136  33.940  1.00  0.00    -0.550 OA
ENDBRANCH   9  10
ENDBRANCH   8   9
ENDBRANCH   7   8
ENDBRANCH   6   7
ENDBRANCH   5   6
ENDBRANCH   4   5
ENDBRANCH   3   4
ENDBRANCH   1   3
BRANCH   2  13
ATOM     13  C   UNL     1     168.724 185.737  30.241  1.00  0.00     0.027 C 
BRANCH  13  14
ATOM     14  C   UNL     1     167.271 185.359  30.556  1.00  0.00     0.004 C 
BRANCH  14  15
ATOM     15  C   UNL     1     166.998 185.452  32.066  1.00  0.00     0.000 C 
BRANCH  15  16
ATOM     16  C   UNL     1     166.863 184.072  32.730  1.00  0.00     0.000 C 
BRANCH  16  17
ATOM     17  C   UNL     1     165.411 183.572  32.774  1.00  0.00    -0.000 C 
BRANCH  17  18
ATOM     18  C   UNL     1     165.162 182.512  31.691  1.00  0.00    -0.000 C 
BRANCH  18  19
ATOM     19  C   UNL     1     164.494 183.093  30.435  1.00  0.00    -0.003 C 
ATOM     20  C   UNL     1     163.318 182.249  29.946  1.00  0.00     0.004 C 
ENDBRANCH  18  19
ENDBRANCH  17  18
ENDBRANCH  16  17
ENDBRANCH  15  16
ENDBRANCH  14  15
ENDBRANCH  13  14
ENDBRANCH   2  13
TORSDOF 15
ENDMDL
MODEL 6
REMARK VINA RESULT:    -3.431      2.475      6.091
REMARK INTER + INTRA:          -8.881
REMARK INTER:                  -6.693
REMARK INTRA:                  -2.187
REMARK UNBOUND:                -2.440
REMARK SMILES CCCCCCCCC=CCCCCCCCC(=O)[O-]
REMARK SMILES IDX 10 1 9 2 11 3 12 4 13 5 14 6 15 7 16 8 17 9 18 10 19 11
REMARK SMILES IDX 20 12 8 13 7 14 6 15 5 16 4 17 3 18 2 19 1 20
REMARK H PARENT
REMARK Flexibility Score: inf
ROOT
ATOM      1  C   UNL     1     168.418 186.165  34.589  1.00  0.00    -0.031 C 
ATOM      2  C   UNL     1     168.477 184.845  34.362  1.00  0.00    -0.031 C 
ENDROOT
BRANCH   1   3
ATOM      3  C   UNL     1     169.657 186.979  34.851  1.00  0.00     0.027 C 
BRANCH   3   4
ATOM      4  C   UNL     1     170.935 186.128  34.771  1.00  0.00     0.004 C 
BRANCH   4   5
ATOM      5  C   UNL     1     171.639 186.159  33.401  1.00  0.00     0.000 C 
BRANCH   5   6
ATOM      6  C   UNL     1     171.953 184.755  32.862  1.00  0.00     0.000 C 
BRANCH   6   7
ATOM      7  C   UNL     1     170.977 184.364  31.747  1.00  0.00     0.000 C 
BRANCH   7   8
ATOM      8  C   UNL     1     170.401 185.610  31.059  1.00  0.00     0.006 C 
BRANCH   8   9
ATOM      9  C   UNL     1     168.923 185.437  30.679  1.00  0.00     0.053 C 
BRANCH   9  10
ATOM     10  C   UNL     1     168.231 186.757  30.515  1.00  0.00     0.041 C 
ATOM     11  O   UNL     1     168.074 187.516  31.508  1.00  0.00    -0.550 OA
ATOM     12  O   UNL     1     167.730 187.133  29.276  1.00  0.00    -0.550 OA
ENDBRANCH   9  10
ENDBRANCH   8   9
ENDBRANCH   7   8
ENDBRANCH   6   7
ENDBRANCH   5   6
ENDBRANCH   4   5
ENDBRANCH   3   4
ENDBRANCH   1   3
BRANCH   2  13
ATOM     13  C   UNL     1     167.241 184.043  34.063  1.00  0.00     0.027 C 
BRANCH  13  14
ATOM     14  C   UNL     1     165.977 184.899  34.213  1.00  0.00     0.004 C 
BRANCH  14  15
ATOM     15  C   UNL     1     165.393 185.257  32.837  1.00  0.00     0.000 C 
BRANCH  15  16
ATOM     16  C   UNL     1     165.737 184.219  31.758  1.00  0.00     0.000 C 
BRANCH  16  17
ATOM     17  C   UNL     1     164.554 183.300  31.416  1.00  0.00    -0.000 C 
BRANCH  17  18
ATOM     18  C   UNL     1     164.948 181.822  31.554  1.00  0.00    -0.000 C 
BRANCH  18  19
ATOM     19  C   UNL     1     163.733 180.899  31.735  1.00  0.00    -0.003 C 
ATOM     20  C   UNL     1     162.443 181.505  31.182  1.00  0.00     0.004 C 
ENDBRANCH  18  19
ENDBRANCH  17  18
ENDBRANCH  16  17
ENDBRANCH  15  16
ENDBRANCH  14  15
ENDBRANCH  13  14
ENDBRANCH   2  13
TORSDOF 15
ENDMDL
MODEL 7
REMARK VINA RESULT:    -3.424      1.814      3.495
REMARK INTER + INTRA:          -8.866
REMARK INTER:                  -6.687
REMARK INTRA:                  -2.179
REMARK UNBOUND:                -2.440
REMARK SMILES CCCCCCCCC=CCCCCCCCC(=O)[O-]
REMARK SMILES IDX 10 1 9 2 11 3 12 4 13 5 14 6 15 7 16 8 17 9 18 10 19 11
REMARK SMILES IDX 20 12 8 13 7 14 6 15 5 16 4 17 3 18 2 19 1 20
REMARK H PARENT
REMARK Flexibility Score: inf
ROOT
ATOM      1  C   UNL     1     168.334 184.726  34.077  1.00  0.00    -0.031 C 
ATOM      2  C   UNL     1     168.243 186.026  34.391  1.00  0.00    -0.031 C 
ENDROOT
BRANCH   1   3
ATOM      3  C   UNL     1     167.110 183.872  33.876  1.00  0.00     0.027 C 
BRANCH   3   4
ATOM      4  C   UNL     1     166.012 184.612  33.093  1.00  0.00     0.004 C 
BRANCH   4   5
ATOM      5  C   UNL     1     165.877 184.178  31.620  1.00  0.00     0.000 C 
BRANCH   5   6
ATOM      6  C   UNL     1     165.055 182.892  31.452  1.00  0.00     0.000 C 
BRANCH   6   7
ATOM      7  C   UNL     1     164.460 182.802  30.041  1.00  0.00     0.000 C 
BRANCH   7   8
ATOM      8  C   UNL     1     163.090 182.110  30.067  1.00  0.00     0.006 C 
BRANCH   8   9
ATOM      9  C   UNL     1     162.697 181.645  31.476  1.00  0.00     0.053 C 
BRANCH   9  10
ATOM     10  C   UNL     1     162.621 180.150  31.570  1.00  0.00     0.041 C 
ATOM     11  O   UNL     1     163.583 179.497  32.054  1.00  0.00    -0.550 OA
ATOM     12  O   UNL     1     161.505 179.477  31.091  1.00  0.00    -0.550 OA
ENDBRANCH   9  10
ENDBRANCH   8   9
ENDBRANCH   7   8
ENDBRANCH   6   7
ENDBRANCH   5   6
ENDBRANCH   4   5
ENDBRANCH   3   4
ENDBRANCH   1   3
BRANCH   2  13
ATOM     13  C   UNL     1     169.467 186.884  34.552  1.00  0.00     0.027 C 
BRANCH  13  14
ATOM     14  C   UNL     1     170.719 186.024  34.768  1.00  0.00     0.004 C 
BRANCH  14  15
ATOM     15  C   UNL     1     171.648 186.092  33.546  1.00  0.00     0.000 C 
BRANCH  15  16
ATOM     16  C   UNL     1     171.969 184.706  32.966  1.00  0.00     0.000 C 
BRANCH  16  17
ATOM     17  C   UNL     1     171.059 184.328  31.787  1.00  0.00    -0.000 C 
BRANCH  17  18
ATOM     18  C   UNL     1     170.615 185.580  31.014  1.00  0.00    -0.000 C 
BRANCH  18  19
ATOM     19  C   UNL     1     169.173 185.474  30.494  1.00  0.00    -0.003 C 
ATOM     20  C   UNL     1     168.346 186.727  30.783  1.00  0.00     0.004 C 
ENDBRANCH  18  19
ENDBRANCH  17  18
ENDBRANCH  16  17
ENDBRANCH  15  16
ENDBRANCH  14  15
ENDBRANCH  13  14
ENDBRANCH   2  13
TORSDOF 15
ENDMDL
MODEL 8
REMARK VINA RESULT:    -3.407      0.857      1.875
REMARK INTER + INTRA:          -8.835
REMARK INTER:                  -6.399
REMARK INTRA:                  -2.436
REMARK UNBOUND:                -2.440
REMARK SMILES CCCCCCCCC=CCCCCCCCC(=O)[O-]
REMARK SMILES IDX 10 1 9 2 11 3 12 4 13 5 14 6 15 7 16 8 17 9 18 10 19 11
REMARK SMILES IDX 20 12 8 13 7 14 6 15 5 16 4 17 3 18 2 19 1 20
REMARK H PARENT
REMARK Flexibility Score: inf
ROOT
ATOM      1  C   UNL     1     167.888 185.134  31.860  1.00  0.00    -0.031 C 
ATOM      2  C   UNL     1     168.791 185.933  31.273  1.00  0.00    -0.031 C 
ENDROOT
BRANCH   1   3
ATOM      3  C   UNL     1     166.649 185.685  32.514  1.00  0.00     0.027 C 
BRANCH   3   4
ATOM      4  C   UNL     1     166.730 185.627  34.049  1.00  0.00     0.004 C 
BRANCH   4   5
ATOM      5  C   UNL     1     165.753 184.632  34.702  1.00  0.00     0.000 C 
BRANCH   5   6
ATOM      6  C   UNL     1     166.241 183.177  34.617  1.00  0.00     0.000 C 
BRANCH   6   7
ATOM      7  C   UNL     1     165.125 182.252  34.117  1.00  0.00     0.000 C 
BRANCH   7   8
ATOM      8  C   UNL     1     164.476 182.814  32.844  1.00  0.00     0.006 C 
BRANCH   8   9
ATOM      9  C   UNL     1     164.920 182.059  31.582  1.00  0.00     0.053 C 
BRANCH   9  10
ATOM     10  C   UNL     1     163.985 182.296  30.433  1.00  0.00     0.041 C 
ATOM     11  O   UNL     1     164.277 183.140  29.545  1.00  0.00    -0.550 OA
ATOM     12  O   UNL     1     162.779 181.611  30.362  1.00  0.00    -0.550 OA
ENDBRANCH   9  10
ENDBRANCH   8   9
ENDBRANCH   7   8
ENDBRANCH   6   7
ENDBRANCH   5   6
ENDBRANCH   4   5
ENDBRANCH   3   4
ENDBRANCH   1   3
BRANCH   2  13
ATOM     13  C   UNL     1     170.007 185.374  30.588  1.00  0.00     0.027 C 
BRANCH  13  14
ATOM     14  C   UNL     1     171.286 185.730  31.357  1.00  0.00     0.004 C 
BRANCH  14  15
ATOM     15  C   UNL     1     171.007 186.811  32.413  1.00  0.00     0.000 C 
BRANCH  15  16
ATOM     16  C   UNL     1     171.274 186.323  33.846  1.00  0.00     0.000 C 
BRANCH  16  17
ATOM     17  C   UNL     1     171.653 184.835  33.907  1.00  0.00    -0.000 C 
BRANCH  17  18
ATOM     18  C   UNL     1     170.520 184.006  34.532  1.00  0.00    -0.000 C 
BRANCH  18  19
ATOM     19  C   UNL     1     170.070 182.845  33.631  1.00  0.00    -0.003 C 
ATOM     20  C   UNL     1     171.211 182.271  32.792  1.00  0.00     0.004 C 
ENDBRANCH  18  19
ENDBRANCH  17  18
ENDBRANCH  16  17
ENDBRANCH  15  16
ENDBRANCH  14  15
ENDBRANCH  13  14
ENDBRANCH   2  13
TORSDOF 15
ENDMDL
MODEL 9
REMARK VINA RESULT:    -3.397      1.329      3.465
REMARK INTER + INTRA:          -8.816
REMARK INTER:                  -6.318
REMARK INTRA:                  -2.498
REMARK UNBOUND:                -2.440
REMARK SMILES CCCCCCCCC=CCCCCCCCC(=O)[O-]
REMARK SMILES IDX 10 1 9 2 11 3 12 4 13 5 14 6 15 7 16 8 17 9 18 10 19 11
REMARK SMILES IDX 20 12 8 13 7 14 6 15 5 16 4 17 3 18 2 19 1 20
REMARK H PARENT
REMARK Flexibility Score: inf
ROOT
ATOM      1  C   UNL     1     168.877 183.494  33.793  1.00  0.00    -0.031 C 
ATOM      2  C   UNL     1     169.908 182.747  34.213  1.00  0.00    -0.031 C 
ENDROOT
BRANCH   1   3
ATOM      3  C   UNL     1     167.936 184.161  34.760  1.00  0.00     0.027 C 
BRANCH   3   4
ATOM      4  C   UNL     1     168.212 185.668  34.889  1.00  0.00     0.004 C 
BRANCH   4   5
ATOM      5  C   UNL     1     167.061 186.571  34.406  1.00  0.00     0.000 C 
BRANCH   5   6
ATOM      6  C   UNL     1     166.414 186.066  33.108  1.00  0.00     0.000 C 
BRANCH   6   7
ATOM      7  C   UNL     1     164.933 185.734  33.326  1.00  0.00     0.000 C 
BRANCH   7   8
ATOM      8  C   UNL     1     164.614 184.309  32.850  1.00  0.00     0.006 C 
BRANCH   8   9
ATOM      9  C   UNL     1     165.595 183.820  31.775  1.00  0.00     0.053 C 
BRANCH   9  10
ATOM     10  C   UNL     1     165.009 182.714  30.948  1.00  0.00     0.041 C 
ATOM     11  O   UNL     1     165.108 181.518  31.329  1.00  0.00    -0.550 OA
ATOM     12  O   UNL     1     164.386 183.002  29.741  1.00  0.00    -0.550 OA
ENDBRANCH   9  10
ENDBRANCH   8   9
ENDBRANCH   7   8
ENDBRANCH   6   7
ENDBRANCH   5   6
ENDBRANCH   4   5
ENDBRANCH   3   4
ENDBRANCH   1   3
BRANCH   2  13
ATOM     13  C   UNL     1     170.868 182.115  33.244  1.00  0.00     0.027 C 
BRANCH  13  14
ATOM     14  C   UNL     1     172.222 182.835  33.259  1.00  0.00     0.004 C 
BRANCH  14  15
ATOM     15  C   UNL     1     172.209 184.044  32.311  1.00  0.00     0.000 C 
BRANCH  15  16
ATOM     16  C   UNL     1     171.943 185.370  33.042  1.00  0.00     0.000 C 
BRANCH  16  17
ATOM     17  C   UNL     1     170.919 186.255  32.315  1.00  0.00    -0.000 C 
BRANCH  17  18
ATOM     18  C   UNL     1     170.532 185.646  30.959  1.00  0.00    -0.000 C 
BRANCH  18  19
ATOM     19  C   UNL     1     169.031 185.333  30.857  1.00  0.00    -0.003 C 
ATOM     20  C   UNL     1     168.287 186.295  29.931  1.00  0.00     0.004 C 
ENDBRANCH  18  19
ENDBRANCH  17  18
ENDBRANCH  16  17
ENDBRANCH  15  16
ENDBRANCH  14  15
ENDBRANCH  13  14
ENDBRANCH   2  13
TORSDOF 15
ENDMDL
