MODEL 1
REMARK VINA RESULT:    -3.218      0.000      0.000
REMARK INTER + INTRA:          -6.838
REMARK INTER:                  -6.227
REMARK INTRA:                  -0.610
REMARK UNBOUND:                -0.610
REMARK SMILES CCCCCCCCCCCCCCCCCC(=O)[O-]
REMARK SMILES IDX 10 1 11 2 12 3 13 4 14 5 15 6 16 7 17 8 18 9 19 10 20 11
REMARK SMILES IDX 9 12 8 13 7 14 6 15 5 16 4 17 3 18 2 19 1 20
REMARK H PARENT
REMARK Flexibility Score: inf
ROOT
ATOM      1  C   UNL     1      23.728   2.715  -2.607  1.00  0.00     0.000 C 
ENDROOT
BRANCH   1   2
ATOM      2  C   UNL     1      25.048   3.399  -2.212  1.00  0.00     0.000 C 
BRANCH   2   3
ATOM      3  C   UNL     1      24.943   4.933  -2.215  1.00  0.00     0.000 C 
BRANCH   3   4
ATOM      4  C   UNL     1      26.021   5.602  -1.351  1.00  0.00     0.000 C 
BRANCH   4   5
ATOM      5  C   UNL     1      26.279   7.042  -1.808  1.00  0.00     0.000 C 
BRANCH   5   6
ATOM      6  C   UNL     1      27.174   7.785  -0.805  1.00  0.00     0.000 C 
BRANCH   6   7
ATOM      7  C   UNL     1      28.626   7.917  -1.290  1.00  0.00     0.006 C 
BRANCH   7   8
ATOM      8  C   UNL     1      28.747   8.723  -2.591  1.00  0.00     0.053 C 
BRANCH   8   9
ATOM      9  C   UNL     1      28.607  10.186  -2.311  1.00  0.00     0.041 C 
ATOM     10  O   UNL     1      28.012  10.933  -3.131  1.00  0.00    -0.550 OA
ATOM     11  O   UNL     1      29.090  10.716  -1.120  1.00  0.00    -0.550 OA
ENDBRANCH   8   9
ENDBRANCH   7   8
ENDBRANCH   6   7
ENDBRANCH   5   6
ENDBRANCH   4   5
ENDBRANCH   3   4
ENDBRANCH   2   3
ENDBRANCH   1   2
BRANCH   1  12
ATOM     12  C   UNL     1      23.927   1.253  -3.036  1.00  0.00     0.000 C 
BRANCH  12  13
ATOM     13  C   UNL     1      22.743   0.356  -2.642  1.00  0.00    -0.000 C 
BRANCH  13  14
ATOM     14  C   UNL     1      23.218  -1.069  -2.321  1.00  0.00    -0.000 C 
BRANCH  14  15
ATOM     15  C   UNL     1      24.317  -1.565  -3.278  1.00  0.00    -0.000 C 
BRANCH  15  16
ATOM     16  C   UNL     1      25.430  -2.403  -2.618  1.00  0.00    -0.000 C 
BRANCH  16  17
ATOM     17  C   UNL     1      25.978  -3.555  -3.478  1.00  0.00    -0.000 C 
BRANCH  17  18
ATOM     18  C   UNL     1      27.322  -4.093  -2.967  1.00  0.00    -0.000 C 
BRANCH  18  19
ATOM     19  C   UNL     1      27.110  -5.166  -1.893  1.00  0.00    -0.003 C 
ATOM     20  C   UNL     1      27.586  -4.680  -0.527  1.00  0.00     0.004 C 
ENDBRANCH  18  19
ENDBRANCH  17  18
ENDBRANCH  16  17
ENDBRANCH  15  16
ENDBRANCH  14  15
ENDBRANCH  13  14
ENDBRANCH  12  13
ENDBRANCH   1  12
TORSDOF 16
ENDMDL
MODEL 2
REMARK VINA RESULT:    -2.918      0.906      1.742
REMARK INTER + INTRA:          -6.258
REMARK INTER:                  -5.469
REMARK INTRA:                  -0.788
REMARK UNBOUND:                -0.610
REMARK SMILES CCCCCCCCCCCCCCCCCC(=O)[O-]
REMARK SMILES IDX 10 1 11 2 12 3 13 4 14 5 15 6 16 7 17 8 18 9 19 10 20 11
REMARK SMILES IDX 9 12 8 13 7 14 6 15 5 16 4 17 3 18 2 19 1 20
REMARK H PARENT
REMARK Flexibility Score: inf
ROOT
ATOM      1  C   UNL     1      23.958   1.550  -2.638  1.00  0.00     0.000 C 
ENDROOT
BRANCH   1   2
ATOM      2  C   UNL     1      23.463   2.970  -2.960  1.00  0.00     0.000 C 
BRANCH   2   3
ATOM      3  C   UNL     1      24.402   4.060  -2.419  1.00  0.00     0.000 C 
BRANCH   3   4
ATOM      4  C   UNL     1      25.653   3.479  -1.742  1.00  0.00     0.000 C 
BRANCH   4   5
ATOM      5  C   UNL     1      26.324   4.520  -0.838  1.00  0.00     0.000 C 
BRANCH   5   6
ATOM      6  C   UNL     1      26.075   5.943  -1.361  1.00  0.00     0.000 C 
BRANCH   6   7
ATOM      7  C   UNL     1      27.208   6.915  -0.995  1.00  0.00     0.006 C 
BRANCH   7   8
ATOM      8  C   UNL     1      27.008   8.313  -1.597  1.00  0.00     0.053 C 
BRANCH   8   9
ATOM      9  C   UNL     1      28.266   9.114  -1.482  1.00  0.00     0.041 C 
ATOM     10  O   UNL     1      28.640   9.547  -0.360  1.00  0.00    -0.550 OA
ATOM     11  O   UNL     1      29.054   9.339  -2.604  1.00  0.00    -0.550 OA
ENDBRANCH   8   9
ENDBRANCH   7   8
ENDBRANCH   6   7
ENDBRANCH   5   6
ENDBRANCH   4   5
ENDBRANCH   3   4
ENDBRANCH   2   3
ENDBRANCH   1   2
BRANCH   1  12
ATOM     12  C   UNL     1      22.853   0.492  -2.787  1.00  0.00     0.000 C 
BRANCH  12  13
ATOM     13  C   UNL     1      23.314  -0.909  -2.357  1.00  0.00    -0.000 C 
BRANCH  13  14
ATOM     14  C   UNL     1      24.341  -1.476  -3.348  1.00  0.00    -0.000 C 
BRANCH  14  15
ATOM     15  C   UNL     1      25.424  -2.331  -2.665  1.00  0.00    -0.000 C 
BRANCH  15  16
ATOM     16  C   UNL     1      25.906  -3.548  -3.480  1.00  0.00    -0.000 C 
BRANCH  16  17
ATOM     17  C   UNL     1      27.421  -3.817  -3.419  1.00  0.00    -0.000 C 
BRANCH  17  18
ATOM     18  C   UNL     1      27.757  -5.210  -2.869  1.00  0.00    -0.000 C 
BRANCH  18  19
ATOM     19  C   UNL     1      27.041  -5.462  -1.538  1.00  0.00    -0.003 C 
ATOM     20  C   UNL     1      27.678  -4.658  -0.408  1.00  0.00     0.004 C 
ENDBRANCH  18  19
ENDBRANCH  17  18
ENDBRANCH  16  17
ENDBRANCH  15  16
ENDBRANCH  14  15
ENDBRANCH  13  14
ENDBRANCH  12  13
ENDBRANCH   1  12
TORSDOF 16
ENDMDL
MODEL 3
REMARK VINA RESULT:    -2.918      5.128     11.172
REMARK INTER + INTRA:          -6.257
REMARK INTER:                  -5.705
REMARK INTRA:                  -0.552
REMARK UNBOUND:                -0.610
REMARK SMILES CCCCCCCCCCCCCCCCCC(=O)[O-]
REMARK SMILES IDX 10 1 11 2 12 3 13 4 14 5 15 6 16 7 17 8 18 9 19 10 20 11
REMARK SMILES IDX 9 12 8 13 7 14 6 15 5 16 4 17 3 18 2 19 1 20
REMARK H PARENT
REMARK Flexibility Score: inf
ROOT
ATOM      1  C   UNL     1      23.764   2.612  -2.605  1.00  0.00     0.000 C 
ENDROOT
BRANCH   1   2
ATOM      2  C   UNL     1      24.022   1.148  -3.000  1.00  0.00     0.000 C 
BRANCH   2   3
ATOM      3  C   UNL     1      22.865   0.217  -2.602  1.00  0.00     0.000 C 
BRANCH   3   4
ATOM      4  C   UNL     1      23.323  -1.231  -2.374  1.00  0.00     0.000 C 
BRANCH   4   5
ATOM      5  C   UNL     1      24.469  -1.603  -3.323  1.00  0.00     0.000 C 
BRANCH   5   6
ATOM      6  C   UNL     1      25.487  -2.515  -2.622  1.00  0.00     0.000 C 
BRANCH   6   7
ATOM      7  C   UNL     1      26.042  -3.606  -3.551  1.00  0.00     0.006 C 
BRANCH   7   8
ATOM      8  C   UNL     1      26.104  -4.984  -2.878  1.00  0.00     0.053 C 
BRANCH   8   9
ATOM      9  C   UNL     1      27.473  -5.235  -2.329  1.00  0.00     0.041 C 
ATOM     10  O   UNL     1      28.343  -5.806  -3.036  1.00  0.00    -0.550 OA
ATOM     11  O   UNL     1      27.804  -4.791  -1.054  1.00  0.00    -0.550 OA
ENDBRANCH   8   9
ENDBRANCH   7   8
ENDBRANCH   6   7
ENDBRANCH   5   6
ENDBRANCH   4   5
ENDBRANCH   3   4
ENDBRANCH   2   3
ENDBRANCH   1   2
BRANCH   1  12
ATOM     12  C   UNL     1      25.055   3.355  -2.223  1.00  0.00     0.000 C 
BRANCH  12  13
ATOM     13  C   UNL     1      24.871   4.880  -2.194  1.00  0.00    -0.000 C 
BRANCH  13  14
ATOM     14  C   UNL     1      25.956   5.547  -1.335  1.00  0.00    -0.000 C 
BRANCH  14  15
ATOM     15  C   UNL     1      26.247   6.998  -1.757  1.00  0.00    -0.000 C 
BRANCH  15  16
ATOM     16  C   UNL     1      27.323   7.719  -0.920  1.00  0.00    -0.000 C 
BRANCH  16  17
ATOM     17  C   UNL     1      28.596   8.111  -1.691  1.00  0.00    -0.000 C 
BRANCH  17  18
ATOM     18  C   UNL     1      28.321   9.095  -2.837  1.00  0.00    -0.000 C 
BRANCH  18  19
ATOM     19  C   UNL     1      28.550  10.541  -2.384  1.00  0.00    -0.003 C 
ATOM     20  C   UNL     1      28.254  11.526  -3.511  1.00  0.00     0.004 C 
ENDBRANCH  18  19
ENDBRANCH  17  18
ENDBRANCH  16  17
ENDBRANCH  15  16
ENDBRANCH  14  15
ENDBRANCH  13  14
ENDBRANCH  12  13
ENDBRANCH   1  12
TORSDOF 16
ENDMDL
MODEL 4
REMARK VINA RESULT:    -2.506      5.076     10.845
REMARK INTER + INTRA:          -5.461
REMARK INTER:                  -4.575
REMARK INTRA:                  -0.886
REMARK UNBOUND:                -0.610
REMARK SMILES CCCCCCCCCCCCCCCCCC(=O)[O-]
REMARK SMILES IDX 10 1 11 2 12 3 13 4 14 5 15 6 16 7 17 8 18 9 19 10 20 11
REMARK SMILES IDX 9 12 8 13 7 14 6 15 5 16 4 17 3 18 2 19 1 20
REMARK H PARENT
REMARK Flexibility Score: inf
ROOT
ATOM      1  C   UNL     1      24.309   3.734  -2.653  1.00  0.00     0.000 C 
ENDROOT
BRANCH   1   2
ATOM      2  C   UNL     1      23.259   2.609  -2.630  1.00  0.00     0.000 C 
BRANCH   2   3
ATOM      3  C   UNL     1      23.876   1.221  -2.867  1.00  0.00     0.000 C 
BRANCH   3   4
ATOM      4  C   UNL     1      22.853   0.086  -2.713  1.00  0.00     0.000 C 
BRANCH   4   5
ATOM      5  C   UNL     1      23.541  -1.225  -2.312  1.00  0.00     0.000 C 
BRANCH   5   6
ATOM      6  C   UNL     1      24.660  -1.583  -3.302  1.00  0.00     0.000 C 
BRANCH   6   7
ATOM      7  C   UNL     1      25.784  -2.407  -2.654  1.00  0.00     0.006 C 
BRANCH   7   8
ATOM      8  C   UNL     1      25.754  -3.883  -3.073  1.00  0.00     0.053 C 
BRANCH   8   9
ATOM      9  C   UNL     1      26.696  -4.682  -2.228  1.00  0.00     0.041 C 
ATOM     10  O   UNL     1      27.204  -5.742  -2.678  1.00  0.00    -0.550 OA
ATOM     11  O   UNL     1      27.052  -4.230  -0.963  1.00  0.00    -0.550 OA
ENDBRANCH   8   9
ENDBRANCH   7   8
ENDBRANCH   6   7
ENDBRANCH   5   6
ENDBRANCH   4   5
ENDBRANCH   3   4
ENDBRANCH   2   3
ENDBRANCH   1   2
BRANCH   1  12
ATOM     12  C   UNL     1      25.483   3.465  -1.697  1.00  0.00     0.000 C 
BRANCH  12  13
ATOM     13  C   UNL     1      26.053   4.753  -1.085  1.00  0.00    -0.000 C 
BRANCH  13  14
ATOM     14  C   UNL     1      25.654   5.979  -1.920  1.00  0.00    -0.000 C 
BRANCH  14  15
ATOM     15  C   UNL     1      26.549   7.204  -1.651  1.00  0.00    -0.000 C 
BRANCH  15  16
ATOM     16  C   UNL     1      27.825   6.914  -0.836  1.00  0.00    -0.000 C 
BRANCH  16  17
ATOM     17  C   UNL     1      28.688   8.147  -0.514  1.00  0.00    -0.000 C 
BRANCH  17  18
ATOM     18  C   UNL     1      27.896   9.461  -0.576  1.00  0.00    -0.000 C 
BRANCH  18  19
ATOM     19  C   UNL     1      28.600  10.482  -1.477  1.00  0.00    -0.003 C 
ATOM     20  C   UNL     1      28.269  10.242  -2.947  1.00  0.00     0.004 C 
ENDBRANCH  18  19
ENDBRANCH  17  18
ENDBRANCH  16  17
ENDBRANCH  15  16
ENDBRANCH  14  15
ENDBRANCH  13  14
ENDBRANCH  12  13
ENDBRANCH   1  12
TORSDOF 16
ENDMDL
MODEL 5
REMARK VINA RESULT:    -1.629      4.946     10.991
REMARK INTER + INTRA:          -3.763
REMARK INTER:                  -2.959
REMARK INTRA:                  -0.804
REMARK UNBOUND:                -0.610
REMARK SMILES CCCCCCCCCCCCCCCCCC(=O)[O-]
REMARK SMILES IDX 10 1 11 2 12 3 13 4 14 5 15 6 16 7 17 8 18 9 19 10 20 11
REMARK SMILES IDX 9 12 8 13 7 14 6 15 5 16 4 17 3 18 2 19 1 20
REMARK H PARENT
REMARK Flexibility Score: inf
ROOT
ATOM      1  C   UNL     1      25.569   3.581  -1.810  1.00  0.00     0.000 C 
ENDROOT
BRANCH   1   2
ATOM      2  C   UNL     1      24.107   3.400  -2.253  1.00  0.00     0.000 C 
BRANCH   2   3
ATOM      3  C   UNL     1      23.888   2.105  -3.050  1.00  0.00     0.000 C 
BRANCH   3   4
ATOM      4  C   UNL     1      23.202   1.009  -2.221  1.00  0.00     0.000 C 
BRANCH   4   5
ATOM      5  C   UNL     1      23.016  -0.271  -3.045  1.00  0.00     0.000 C 
BRANCH   5   6
ATOM      6  C   UNL     1      23.758  -1.451  -2.400  1.00  0.00     0.000 C 
BRANCH   6   7
ATOM      7  C   UNL     1      24.831  -2.052  -3.321  1.00  0.00     0.006 C 
BRANCH   7   8
ATOM      8  C   UNL     1      25.992  -2.687  -2.543  1.00  0.00     0.053 C 
BRANCH   8   9
ATOM      9  C   UNL     1      26.571  -3.831  -3.315  1.00  0.00     0.041 C 
ATOM     10  O   UNL     1      27.803  -4.080  -3.249  1.00  0.00    -0.550 OA
ATOM     11  O   UNL     1      25.741  -4.655  -4.066  1.00  0.00    -0.550 OA
ENDBRANCH   8   9
ENDBRANCH   7   8
ENDBRANCH   6   7
ENDBRANCH   5   6
ENDBRANCH   4   5
ENDBRANCH   3   4
ENDBRANCH   2   3
ENDBRANCH   1   2
BRANCH   1  12
ATOM     12  C   UNL     1      25.856   4.997  -1.284  1.00  0.00     0.000 C 
BRANCH  12  13
ATOM     13  C   UNL     1      25.452   6.091  -2.283  1.00  0.00    -0.000 C 
BRANCH  13  14
ATOM     14  C   UNL     1      26.117   7.429  -1.930  1.00  0.00    -0.000 C 
BRANCH  14  15
ATOM     15  C   UNL     1      27.460   7.256  -1.197  1.00  0.00    -0.000 C 
BRANCH  15  16
ATOM     16  C   UNL     1      28.547   8.283  -1.573  1.00  0.00    -0.000 C 
BRANCH  16  17
ATOM     17  C   UNL     1      28.773   8.471  -3.084  1.00  0.00    -0.000 C 
BRANCH  17  18
ATOM     18  C   UNL     1      29.125   9.917  -3.459  1.00  0.00    -0.000 C 
BRANCH  18  19
ATOM     19  C   UNL     1      28.986  10.846  -2.247  1.00  0.00    -0.003 C 
ATOM     20  C   UNL     1      29.077  12.312  -2.662  1.00  0.00     0.004 C 
ENDBRANCH  18  19
ENDBRANCH  17  18
ENDBRANCH  16  17
ENDBRANCH  15  16
ENDBRANCH  14  15
ENDBRANCH  13  14
ENDBRANCH  12  13
ENDBRANCH   1  12
TORSDOF 16
ENDMDL
MODEL 6
REMARK VINA RESULT:    -0.932      5.192     10.475
REMARK INTER + INTRA:          -2.414
REMARK INTER:                  -1.648
REMARK INTRA:                  -0.766
REMARK UNBOUND:                -0.610
REMARK SMILES CCCCCCCCCCCCCCCCCC(=O)[O-]
REMARK SMILES IDX 10 1 11 2 12 3 13 4 14 5 15 6 16 7 17 8 18 9 19 10 20 11
REMARK SMILES IDX 9 12 8 13 7 14 6 15 5 16 4 17 3 18 2 19 1 20
REMARK H PARENT
REMARK Flexibility Score: inf
ROOT
ATOM      1  C   UNL     1      22.322   1.307  -2.619  1.00  0.00     0.000 C 
ENDROOT
BRANCH   1   2
ATOM      2  C   UNL     1      22.388  -0.157  -3.089  1.00  0.00     0.000 C 
BRANCH   2   3
ATOM      3  C   UNL     1      22.831  -1.116  -1.972  1.00  0.00     0.000 C 
BRANCH   3   4
ATOM      4  C   UNL     1      24.318  -1.486  -2.066  1.00  0.00     0.000 C 
BRANCH   4   5
ATOM      5  C   UNL     1      24.678  -1.967  -3.477  1.00  0.00     0.000 C 
BRANCH   5   6
ATOM      6  C   UNL     1      26.104  -2.538  -3.515  1.00  0.00     0.000 C 
BRANCH   6   7
ATOM      7  C   UNL     1      26.177  -3.987  -3.007  1.00  0.00     0.006 C 
BRANCH   7   8
ATOM      8  C   UNL     1      26.567  -4.077  -1.526  1.00  0.00     0.053 C 
BRANCH   8   9
ATOM      9  C   UNL     1      27.777  -4.942  -1.358  1.00  0.00     0.041 C 
ATOM     10  O   UNL     1      28.313  -5.068  -0.226  1.00  0.00    -0.550 OA
ATOM     11  O   UNL     1      28.280  -5.652  -2.442  1.00  0.00    -0.550 OA
ENDBRANCH   8   9
ENDBRANCH   7   8
ENDBRANCH   6   7
ENDBRANCH   5   6
ENDBRANCH   4   5
ENDBRANCH   3   4
ENDBRANCH   2   3
ENDBRANCH   1   2
BRANCH   1  12
ATOM     12  C   UNL     1      23.517   2.139  -3.113  1.00  0.00     0.000 C 
BRANCH  12  13
ATOM     13  C   UNL     1      24.393   2.654  -1.961  1.00  0.00    -0.000 C 
BRANCH  13  14
ATOM     14  C   UNL     1      24.950   4.050  -2.278  1.00  0.00    -0.000 C 
BRANCH  14  15
ATOM     15  C   UNL     1      25.569   4.741  -1.050  1.00  0.00    -0.000 C 
BRANCH  15  16
ATOM     16  C   UNL     1      26.337   6.044  -1.351  1.00  0.00    -0.000 C 
BRANCH  16  17
ATOM     17  C   UNL     1      27.721   6.155  -0.689  1.00  0.00    -0.000 C 
BRANCH  17  18
ATOM     18  C   UNL     1      28.484   7.419  -1.110  1.00  0.00    -0.000 C 
BRANCH  18  19
ATOM     19  C   UNL     1      27.521   8.588  -1.345  1.00  0.00    -0.003 C 
ATOM     20  C   UNL     1      27.251   9.349  -0.050  1.00  0.00     0.004 C 
ENDBRANCH  18  19
ENDBRANCH  17  18
ENDBRANCH  16  17
ENDBRANCH  15  16
ENDBRANCH  14  15
ENDBRANCH  13  14
ENDBRANCH  12  13
ENDBRANCH   1  12
TORSDOF 16
ENDMDL
MODEL 7
REMARK VINA RESULT:    -0.652      1.903      4.088
REMARK INTER + INTRA:          -1.873
REMARK INTER:                  -1.344
REMARK INTRA:                  -0.529
REMARK UNBOUND:                -0.610
REMARK SMILES CCCCCCCCCCCCCCCCCC(=O)[O-]
REMARK SMILES IDX 10 1 11 2 12 3 13 4 14 5 15 6 16 7 17 8 18 9 19 10 20 11
REMARK SMILES IDX 9 12 8 13 7 14 6 15 5 16 4 17 3 18 2 19 1 20
REMARK H PARENT
REMARK Flexibility Score: inf
ROOT
ATOM      1  C   UNL     1      27.754   4.131   0.093  1.00  0.00     0.000 C 
ENDROOT
BRANCH   1   2
ATOM      2  C   UNL     1      29.123   4.831   0.023  1.00  0.00     0.000 C 
BRANCH   2   3
ATOM      3  C   UNL     1      29.099   6.085  -0.866  1.00  0.00     0.000 C 
BRANCH   3   4
ATOM      4  C   UNL     1      28.180   7.184  -0.313  1.00  0.00     0.000 C 
BRANCH   4   5
ATOM      5  C   UNL     1      28.952   8.492  -0.100  1.00  0.00     0.000 C 
BRANCH   5   6
ATOM      6  C   UNL     1      28.152   9.693  -0.627  1.00  0.00     0.000 C 
BRANCH   6   7
ATOM      7  C   UNL     1      29.024  10.689  -1.407  1.00  0.00     0.006 C 
BRANCH   7   8
ATOM      8  C   UNL     1      28.618  10.804  -2.883  1.00  0.00     0.053 C 
BRANCH   8   9
ATOM      9  C   UNL     1      28.174   9.475  -3.406  1.00  0.00     0.041 C 
ATOM     10  O   UNL     1      26.949   9.184  -3.437  1.00  0.00    -0.550 OA
ATOM     11  O   UNL     1      29.108   8.576  -3.906  1.00  0.00    -0.550 OA
ENDBRANCH   8   9
ENDBRANCH   7   8
ENDBRANCH   6   7
ENDBRANCH   5   6
ENDBRANCH   4   5
ENDBRANCH   3   4
ENDBRANCH   2   3
ENDBRANCH   1   2
BRANCH   1  12
ATOM     12  C   UNL     1      26.957   4.263  -1.215  1.00  0.00     0.000 C 
BRANCH  12  13
ATOM     13  C   UNL     1      25.559   3.634  -1.120  1.00  0.00    -0.000 C 
BRANCH  13  14
ATOM     14  C   UNL     1      24.633   4.187  -2.213  1.00  0.00    -0.000 C 
BRANCH  14  15
ATOM     15  C   UNL     1      23.592   3.160  -2.694  1.00  0.00    -0.000 C 
BRANCH  15  16
ATOM     16  C   UNL     1      24.081   1.698  -2.720  1.00  0.00    -0.000 C 
BRANCH  16  17
ATOM     17  C   UNL     1      23.002   0.655  -3.064  1.00  0.00    -0.000 C 
BRANCH  17  18
ATOM     18  C   UNL     1      23.301  -0.729  -2.469  1.00  0.00    -0.000 C 
BRANCH  18  19
ATOM     19  C   UNL     1      24.132  -1.575  -3.440  1.00  0.00    -0.003 C 
ATOM     20  C   UNL     1      25.332  -2.203  -2.736  1.00  0.00     0.004 C 
ENDBRANCH  18  19
ENDBRANCH  17  18
ENDBRANCH  16  17
ENDBRANCH  15  16
ENDBRANCH  14  15
ENDBRANCH  13  14
ENDBRANCH  12  13
ENDBRANCH   1  12
TORSDOF 16
ENDMDL
