MODEL 1
REMARK VINA RESULT:    -3.705      0.000      0.000
REMARK INTER + INTRA:          -8.496
REMARK INTER:                  -6.738
REMARK INTRA:                  -1.758
REMARK UNBOUND:                -1.758
REMARK SMILES CCCCCCCCCCCCCCCC(=O)[O-]
REMARK SMILES IDX 9 1 10 2 11 3 12 4 13 5 14 6 15 7 16 8 17 9 18 10 8 11 7 12
REMARK SMILES IDX 6 13 5 14 4 15 3 16 2 17 1 18
REMARK H PARENT
REMARK Flexibility Score: inf
ROOT
ATOM      1  C   UNL     1       3.449  15.852  11.793  1.00  0.00     0.000 C 
ENDROOT
BRANCH   1   2
ATOM      2  C   UNL     1       2.553  17.106  11.715  1.00  0.00     0.000 C 
BRANCH   2   3
ATOM      3  C   UNL     1       1.944  17.346  10.320  1.00  0.00     0.000 C 
BRANCH   3   4
ATOM      4  C   UNL     1       2.542  18.537   9.547  1.00  0.00     0.000 C 
BRANCH   4   5
ATOM      5  C   UNL     1       3.647  18.173   8.536  1.00  0.00     0.000 C 
BRANCH   5   6
ATOM      6  C   UNL     1       3.536  16.767   7.915  1.00  0.00     0.006 C 
BRANCH   6   7
ATOM      7  C   UNL     1       4.756  15.866   8.182  1.00  0.00     0.053 C 
BRANCH   7   8
ATOM      8  C   UNL     1       5.640  15.727   6.980  1.00  0.00     0.041 C 
ATOM      9  O   UNL     1       5.142  15.487   5.849  1.00  0.00    -0.550 OA
ATOM     10  O   UNL     1       7.020  15.824   7.114  1.00  0.00    -0.550 OA
ENDBRANCH   7   8
ENDBRANCH   6   7
ENDBRANCH   5   6
ENDBRANCH   4   5
ENDBRANCH   3   4
ENDBRANCH   2   3
ENDBRANCH   1   2
BRANCH   1  11
ATOM     11  C   UNL     1       4.848  16.162  12.346  1.00  0.00     0.000 C 
BRANCH  11  12
ATOM     12  C   UNL     1       5.231  15.180  13.460  1.00  0.00    -0.000 C 
BRANCH  12  13
ATOM     13  C   UNL     1       4.066  14.979  14.440  1.00  0.00    -0.000 C 
BRANCH  13  14
ATOM     14  C   UNL     1       4.433  15.364  15.882  1.00  0.00    -0.000 C 
BRANCH  14  15
ATOM     15  C   UNL     1       5.523  16.449  15.945  1.00  0.00    -0.000 C 
BRANCH  15  16
ATOM     16  C   UNL     1       4.983  17.799  16.446  1.00  0.00    -0.000 C 
BRANCH  16  17
ATOM     17  C   UNL     1       4.676  18.772  15.299  1.00  0.00    -0.003 C 
ATOM     18  C   UNL     1       3.186  18.775  14.967  1.00  0.00     0.004 C 
ENDBRANCH  16  17
ENDBRANCH  15  16
ENDBRANCH  14  15
ENDBRANCH  13  14
ENDBRANCH  12  13
ENDBRANCH  11  12
ENDBRANCH   1  11
TORSDOF 14
ENDMDL
MODEL 2
REMARK VINA RESULT:    -3.678      1.759      2.851
REMARK INTER + INTRA:          -8.446
REMARK INTER:                  -7.211
REMARK INTRA:                  -1.236
REMARK UNBOUND:                -1.758
REMARK SMILES CCCCCCCCCCCCCCCC(=O)[O-]
REMARK SMILES IDX 9 1 10 2 11 3 12 4 13 5 14 6 15 7 16 8 17 9 18 10 8 11 7 12
REMARK SMILES IDX 6 13 5 14 4 15 3 16 2 17 1 18
REMARK H PARENT
REMARK Flexibility Score: inf
ROOT
ATOM      1  C   UNL     1       4.497  17.437   8.731  1.00  0.00     0.000 C 
ENDROOT
BRANCH   1   2
ATOM      2  C   UNL     1       3.287  18.373   8.521  1.00  0.00     0.000 C 
BRANCH   2   3
ATOM      3  C   UNL     1       3.284  19.084   7.154  1.00  0.00     0.000 C 
BRANCH   3   4
ATOM      4  C   UNL     1       2.215  18.584   6.164  1.00  0.00     0.000 C 
BRANCH   4   5
ATOM      5  C   UNL     1       2.765  17.931   4.881  1.00  0.00     0.000 C 
BRANCH   5   6
ATOM      6  C   UNL     1       4.142  17.254   5.023  1.00  0.00     0.006 C 
BRANCH   6   7
ATOM      7  C   UNL     1       4.073  15.771   5.433  1.00  0.00     0.053 C 
BRANCH   7   8
ATOM      8  C   UNL     1       5.420  15.116   5.442  1.00  0.00     0.041 C 
ATOM      9  O   UNL     1       5.740  14.310   4.529  1.00  0.00    -0.550 OA
ATOM     10  O   UNL     1       6.310  15.364   6.480  1.00  0.00    -0.550 OA
ENDBRANCH   7   8
ENDBRANCH   6   7
ENDBRANCH   5   6
ENDBRANCH   4   5
ENDBRANCH   3   4
ENDBRANCH   2   3
ENDBRANCH   1   2
BRANCH   1  11
ATOM     11  C   UNL     1       4.104  16.107   9.391  1.00  0.00     0.000 C 
BRANCH  11  12
ATOM     12  C   UNL     1       4.193  16.203  10.919  1.00  0.00    -0.000 C 
BRANCH  12  13
ATOM     13  C   UNL     1       3.964  14.831  11.570  1.00  0.00    -0.000 C 
BRANCH  13  14
ATOM     14  C   UNL     1       4.109  14.871  13.100  1.00  0.00    -0.000 C 
BRANCH  14  15
ATOM     15  C   UNL     1       5.576  14.979  13.551  1.00  0.00    -0.000 C 
BRANCH  15  16
ATOM     16  C   UNL     1       5.874  16.301  14.277  1.00  0.00    -0.000 C 
BRANCH  16  17
ATOM     17  C   UNL     1       4.598  17.021  14.737  1.00  0.00    -0.003 C 
ATOM     18  C   UNL     1       4.813  18.530  14.802  1.00  0.00     0.004 C 
ENDBRANCH  16  17
ENDBRANCH  15  16
ENDBRANCH  14  15
ENDBRANCH  13  14
ENDBRANCH  12  13
ENDBRANCH  11  12
ENDBRANCH   1  11
TORSDOF 14
ENDMDL
MODEL 3
REMARK VINA RESULT:    -3.665      1.854      3.846
REMARK INTER + INTRA:          -8.422
REMARK INTER:                  -6.803
REMARK INTRA:                  -1.619
REMARK UNBOUND:                -1.758
REMARK SMILES CCCCCCCCCCCCCCCC(=O)[O-]
REMARK SMILES IDX 9 1 10 2 11 3 12 4 13 5 14 6 15 7 16 8 17 9 18 10 8 11 7 12
REMARK SMILES IDX 6 13 5 14 4 15 3 16 2 17 1 18
REMARK H PARENT
REMARK Flexibility Score: inf
ROOT
ATOM      1  C   UNL     1       4.457  17.737   8.507  1.00  0.00     0.000 C 
ENDROOT
BRANCH   1   2
ATOM      2  C   UNL     1       3.282  18.707   8.262  1.00  0.00     0.000 C 
BRANCH   2   3
ATOM      3  C   UNL     1       3.197  19.224   6.813  1.00  0.00     0.000 C 
BRANCH   3   4
ATOM      4  C   UNL     1       2.085  18.584   5.960  1.00  0.00     0.000 C 
BRANCH   4   5
ATOM      5  C   UNL     1       2.570  17.571   4.904  1.00  0.00     0.000 C 
BRANCH   5   6
ATOM      6  C   UNL     1       4.100  17.426   4.782  1.00  0.00     0.006 C 
BRANCH   6   7
ATOM      7  C   UNL     1       4.560  16.044   4.282  1.00  0.00     0.053 C 
BRANCH   7   8
ATOM      8  C   UNL     1       4.917  15.118   5.405  1.00  0.00     0.041 C 
ATOM      9  O   UNL     1       6.086  15.107   5.872  1.00  0.00    -0.550 OA
ATOM     10  O   UNL     1       3.967  14.239   5.912  1.00  0.00    -0.550 OA
ENDBRANCH   7   8
ENDBRANCH   6   7
ENDBRANCH   5   6
ENDBRANCH   4   5
ENDBRANCH   3   4
ENDBRANCH   2   3
ENDBRANCH   1   2
BRANCH   1  11
ATOM     11  C   UNL     1       3.987  16.304   8.795  1.00  0.00     0.000 C 
BRANCH  11  12
ATOM     12  C   UNL     1       2.558  16.294   9.351  1.00  0.00    -0.000 C 
BRANCH  12  13
ATOM     13  C   UNL     1       2.525  15.721  10.775  1.00  0.00    -0.000 C 
BRANCH  13  14
ATOM     14  C   UNL     1       2.467  16.816  11.852  1.00  0.00    -0.000 C 
BRANCH  14  15
ATOM     15  C   UNL     1       3.588  16.678  12.898  1.00  0.00    -0.000 C 
BRANCH  15  16
ATOM     16  C   UNL     1       4.713  15.737  12.435  1.00  0.00    -0.000 C 
BRANCH  16  17
ATOM     17  C   UNL     1       5.380  14.998  13.605  1.00  0.00    -0.003 C 
ATOM     18  C   UNL     1       6.381  15.898  14.323  1.00  0.00     0.004 C 
ENDBRANCH  16  17
ENDBRANCH  15  16
ENDBRANCH  14  15
ENDBRANCH  13  14
ENDBRANCH  12  13
ENDBRANCH  11  12
ENDBRANCH   1  11
TORSDOF 14
ENDMDL
MODEL 4
REMARK VINA RESULT:    -3.641      3.589      8.126
REMARK INTER + INTRA:          -8.379
REMARK INTER:                  -6.597
REMARK INTRA:                  -1.782
REMARK UNBOUND:                -1.758
REMARK SMILES CCCCCCCCCCCCCCCC(=O)[O-]
REMARK SMILES IDX 9 1 10 2 11 3 12 4 13 5 14 6 15 7 16 8 17 9 18 10 8 11 7 12
REMARK SMILES IDX 6 13 5 14 4 15 3 16 2 17 1 18
REMARK H PARENT
REMARK Flexibility Score: inf
ROOT
ATOM      1  C   UNL     1       4.691  17.623   8.624  1.00  0.00     0.000 C 
ENDROOT
BRANCH   1   2
ATOM      2  C   UNL     1       4.646  16.099   8.384  1.00  0.00     0.000 C 
BRANCH   2   3
ATOM      3  C   UNL     1       3.311  15.446   8.791  1.00  0.00     0.000 C 
BRANCH   3   4
ATOM      4  C   UNL     1       3.288  14.845  10.209  1.00  0.00     0.000 C 
BRANCH   4   5
ATOM      5  C   UNL     1       2.523  15.674  11.260  1.00  0.00     0.000 C 
BRANCH   5   6
ATOM      6  C   UNL     1       3.404  16.479  12.235  1.00  0.00     0.006 C 
BRANCH   6   7
ATOM      7  C   UNL     1       4.882  16.050  12.244  1.00  0.00     0.053 C 
BRANCH   7   8
ATOM      8  C   UNL     1       5.254  15.304  13.489  1.00  0.00     0.041 C 
ATOM      9  O   UNL     1       4.477  14.435  13.965  1.00  0.00    -0.550 OA
ATOM     10  O   UNL     1       6.442  15.595  14.148  1.00  0.00    -0.550 OA
ENDBRANCH   7   8
ENDBRANCH   6   7
ENDBRANCH   5   6
ENDBRANCH   4   5
ENDBRANCH   3   4
ENDBRANCH   2   3
ENDBRANCH   1   2
BRANCH   1  11
ATOM     11  C   UNL     1       3.331  18.296   8.383  1.00  0.00     0.000 C 
BRANCH  11  12
ATOM     12  C   UNL     1       3.346  19.121   7.090  1.00  0.00    -0.000 C 
BRANCH  12  13
ATOM     13  C   UNL     1       2.238  18.661   6.132  1.00  0.00    -0.000 C 
BRANCH  13  14
ATOM     14  C   UNL     1       2.580  17.342   5.421  1.00  0.00    -0.000 C 
BRANCH  14  15
ATOM     15  C   UNL     1       3.985  17.356   4.792  1.00  0.00    -0.000 C 
BRANCH  15  16
ATOM     16  C   UNL     1       3.952  17.125   3.272  1.00  0.00    -0.000 C 
BRANCH  16  17
ATOM     17  C   UNL     1       2.566  17.388   2.666  1.00  0.00    -0.003 C 
ATOM     18  C   UNL     1       2.544  18.706   1.898  1.00  0.00     0.004 C 
ENDBRANCH  16  17
ENDBRANCH  15  16
ENDBRANCH  14  15
ENDBRANCH  13  14
ENDBRANCH  12  13
ENDBRANCH  11  12
ENDBRANCH   1  11
TORSDOF 14
ENDMDL
MODEL 5
REMARK VINA RESULT:    -3.629      3.505      8.124
REMARK INTER + INTRA:          -8.358
REMARK INTER:                  -7.054
REMARK INTRA:                  -1.304
REMARK UNBOUND:                -1.758
REMARK SMILES CCCCCCCCCCCCCCCC(=O)[O-]
REMARK SMILES IDX 9 1 10 2 11 3 12 4 13 5 14 6 15 7 16 8 17 9 18 10 8 11 7 12
REMARK SMILES IDX 6 13 5 14 4 15 3 16 2 17 1 18
REMARK H PARENT
REMARK Flexibility Score: inf
ROOT
ATOM      1  C   UNL     1       4.108  16.266   8.982  1.00  0.00     0.000 C 
ENDROOT
BRANCH   1   2
ATOM      2  C   UNL     1       3.441  16.288  10.374  1.00  0.00     0.000 C 
BRANCH   2   3
ATOM      3  C   UNL     1       4.439  16.170  11.542  1.00  0.00     0.000 C 
BRANCH   3   4
ATOM      4  C   UNL     1       4.327  14.871  12.362  1.00  0.00     0.000 C 
BRANCH   4   5
ATOM      5  C   UNL     1       5.351  14.729  13.505  1.00  0.00     0.000 C 
BRANCH   5   6
ATOM      6  C   UNL     1       6.004  16.043  13.975  1.00  0.00     0.006 C 
BRANCH   6   7
ATOM      7  C   UNL     1       5.682  16.417  15.434  1.00  0.00     0.053 C 
BRANCH   7   8
ATOM      8  C   UNL     1       4.840  17.651  15.536  1.00  0.00     0.041 C 
ATOM      9  O   UNL     1       4.985  18.441  16.505  1.00  0.00    -0.550 OA
ATOM     10  O   UNL     1       3.865  17.911  14.580  1.00  0.00    -0.550 OA
ENDBRANCH   7   8
ENDBRANCH   6   7
ENDBRANCH   5   6
ENDBRANCH   4   5
ENDBRANCH   3   4
ENDBRANCH   2   3
ENDBRANCH   1   2
BRANCH   1  11
ATOM     11  C   UNL     1       4.560  17.660   8.525  1.00  0.00     0.000 C 
BRANCH  11  12
ATOM     12  C   UNL     1       3.360  18.598   8.345  1.00  0.00    -0.000 C 
BRANCH  12  13
ATOM     13  C   UNL     1       3.272  19.108   6.899  1.00  0.00    -0.000 C 
BRANCH  13  14
ATOM     14  C   UNL     1       2.215  18.359   6.071  1.00  0.00    -0.000 C 
BRANCH  14  15
ATOM     15  C   UNL     1       2.750  17.907   4.701  1.00  0.00    -0.000 C 
BRANCH  15  16
ATOM     16  C   UNL     1       4.134  17.244   4.797  1.00  0.00    -0.000 C 
BRANCH  16  17
ATOM     17  C   UNL     1       4.062  15.806   5.333  1.00  0.00    -0.003 C 
ATOM     18  C   UNL     1       5.435  15.142   5.305  1.00  0.00     0.004 C 
ENDBRANCH  16  17
ENDBRANCH  15  16
ENDBRANCH  14  15
ENDBRANCH  13  14
ENDBRANCH  12  13
ENDBRANCH  11  12
ENDBRANCH   1  11
TORSDOF 14
ENDMDL
MODEL 6
REMARK VINA RESULT:    -3.622      3.407      8.013
REMARK INTER + INTRA:          -8.345
REMARK INTER:                  -6.835
REMARK INTRA:                  -1.509
REMARK UNBOUND:                -1.758
REMARK SMILES CCCCCCCCCCCCCCCC(=O)[O-]
REMARK SMILES IDX 9 1 10 2 11 3 12 4 13 5 14 6 15 7 16 8 17 9 18 10 8 11 7 12
REMARK SMILES IDX 6 13 5 14 4 15 3 16 2 17 1 18
REMARK H PARENT
REMARK Flexibility Score: inf
ROOT
ATOM      1  C   UNL     1       4.106  17.672   8.572  1.00  0.00     0.000 C 
ENDROOT
BRANCH   1   2
ATOM      2  C   UNL     1       3.288  16.388   8.824  1.00  0.00     0.000 C 
BRANCH   2   3
ATOM      3  C   UNL     1       3.980  15.389   9.772  1.00  0.00     0.000 C 
BRANCH   3   4
ATOM      4  C   UNL     1       4.422  15.978  11.125  1.00  0.00     0.000 C 
BRANCH   4   5
ATOM      5  C   UNL     1       4.036  15.142  12.361  1.00  0.00     0.000 C 
BRANCH   5   6
ATOM      6  C   UNL     1       5.186  14.844  13.342  1.00  0.00     0.006 C 
BRANCH   6   7
ATOM      7  C   UNL     1       5.971  16.093  13.785  1.00  0.00     0.053 C 
BRANCH   7   8
ATOM      8  C   UNL     1       5.277  16.848  14.877  1.00  0.00     0.041 C 
ATOM      9  O   UNL     1       4.519  17.813  14.600  1.00  0.00    -0.550 OA
ATOM     10  O   UNL     1       5.499  16.511  16.207  1.00  0.00    -0.550 OA
ENDBRANCH   7   8
ENDBRANCH   6   7
ENDBRANCH   5   6
ENDBRANCH   4   5
ENDBRANCH   3   4
ENDBRANCH   2   3
ENDBRANCH   1   2
BRANCH   1  11
ATOM     11  C   UNL     1       3.224  18.861   8.164  1.00  0.00     0.000 C 
BRANCH  11  12
ATOM     12  C   UNL     1       3.383  19.180   6.672  1.00  0.00    -0.000 C 
BRANCH  12  13
ATOM     13  C   UNL     1       2.190  18.646   5.866  1.00  0.00    -0.000 C 
BRANCH  13  14
ATOM     14  C   UNL     1       2.603  17.592   4.826  1.00  0.00    -0.000 C 
BRANCH  14  15
ATOM     15  C   UNL     1       4.125  17.364   4.788  1.00  0.00    -0.000 C 
BRANCH  15  16
ATOM     16  C   UNL     1       4.494  15.907   4.464  1.00  0.00    -0.000 C 
BRANCH  16  17
ATOM     17  C   UNL     1       4.736  15.066   5.726  1.00  0.00    -0.003 C 
ATOM     18  C   UNL     1       6.057  15.441   6.390  1.00  0.00     0.004 C 
ENDBRANCH  16  17
ENDBRANCH  15  16
ENDBRANCH  14  15
ENDBRANCH  13  14
ENDBRANCH  12  13
ENDBRANCH  11  12
ENDBRANCH   1  11
TORSDOF 14
ENDMDL
MODEL 7
REMARK VINA RESULT:    -3.587      0.910      2.325
REMARK INTER + INTRA:          -8.281
REMARK INTER:                  -6.921
REMARK INTRA:                  -1.360
REMARK UNBOUND:                -1.758
REMARK SMILES CCCCCCCCCCCCCCCC(=O)[O-]
REMARK SMILES IDX 9 1 10 2 11 3 12 4 13 5 14 6 15 7 16 8 17 9 18 10 8 11 7 12
REMARK SMILES IDX 6 13 5 14 4 15 3 16 2 17 1 18
REMARK H PARENT
REMARK Flexibility Score: inf
ROOT
ATOM      1  C   UNL     1       2.263  16.718  12.154  1.00  0.00     0.000 C 
ENDROOT
BRANCH   1   2
ATOM      2  C   UNL     1       2.543  16.955  10.655  1.00  0.00     0.000 C 
BRANCH   2   3
ATOM      3  C   UNL     1       2.304  18.409  10.202  1.00  0.00     0.000 C 
BRANCH   3   4
ATOM      4  C   UNL     1       2.868  18.757   8.812  1.00  0.00     0.000 C 
BRANCH   4   5
ATOM      5  C   UNL     1       4.128  17.970   8.401  1.00  0.00     0.000 C 
BRANCH   5   6
ATOM      6  C   UNL     1       3.962  17.049   7.176  1.00  0.00     0.006 C 
BRANCH   6   7
ATOM      7  C   UNL     1       4.595  15.656   7.349  1.00  0.00     0.053 C 
BRANCH   7   8
ATOM      8  C   UNL     1       5.924  15.543   6.666  1.00  0.00     0.041 C 
ATOM      9  O   UNL     1       6.015  14.987   5.541  1.00  0.00    -0.550 OA
ATOM     10  O   UNL     1       7.071  16.017   7.292  1.00  0.00    -0.550 OA
ENDBRANCH   7   8
ENDBRANCH   6   7
ENDBRANCH   5   6
ENDBRANCH   4   5
ENDBRANCH   3   4
ENDBRANCH   2   3
ENDBRANCH   1   2
BRANCH   1  11
ATOM     11  C   UNL     1       2.254  18.022  12.965  1.00  0.00     0.000 C 
BRANCH  11  12
ATOM     12  C   UNL     1       2.305  17.736  14.470  1.00  0.00    -0.000 C 
BRANCH  12  13
ATOM     13  C   UNL     1       3.148  18.790  15.202  1.00  0.00    -0.000 C 
BRANCH  13  14
ATOM     14  C   UNL     1       4.659  18.560  15.034  1.00  0.00    -0.000 C 
BRANCH  14  15
ATOM     15  C   UNL     1       5.259  17.718  16.174  1.00  0.00    -0.000 C 
BRANCH  15  16
ATOM     16  C   UNL     1       5.541  16.268  15.750  1.00  0.00    -0.000 C 
BRANCH  16  17
ATOM     17  C   UNL     1       6.029  16.163  14.297  1.00  0.00    -0.003 C 
ATOM     18  C   UNL     1       5.315  15.034  13.559  1.00  0.00     0.004 C 
ENDBRANCH  16  17
ENDBRANCH  15  16
ENDBRANCH  14  15
ENDBRANCH  13  14
ENDBRANCH  12  13
ENDBRANCH  11  12
ENDBRANCH   1  11
TORSDOF 14
ENDMDL
MODEL 8
REMARK VINA RESULT:    -3.537      1.806      4.025
REMARK INTER + INTRA:          -8.189
REMARK INTER:                  -7.133
REMARK INTRA:                  -1.057
REMARK UNBOUND:                -1.758
REMARK SMILES CCCCCCCCCCCCCCCC(=O)[O-]
REMARK SMILES IDX 9 1 10 2 11 3 12 4 13 5 14 6 15 7 16 8 17 9 18 10 8 11 7 12
REMARK SMILES IDX 6 13 5 14 4 15 3 16 2 17 1 18
REMARK H PARENT
REMARK Flexibility Score: inf
ROOT
ATOM      1  C   UNL     1       3.392  18.674   8.158  1.00  0.00     0.000 C 
ENDROOT
BRANCH   1   2
ATOM      2  C   UNL     1       3.145  19.134   6.706  1.00  0.00     0.000 C 
BRANCH   2   3
ATOM      3  C   UNL     1       2.329  18.130   5.868  1.00  0.00     0.000 C 
BRANCH   3   4
ATOM      4  C   UNL     1       2.878  17.869   4.453  1.00  0.00     0.000 C 
BRANCH   4   5
ATOM      5  C   UNL     1       4.289  17.251   4.402  1.00  0.00     0.000 C 
BRANCH   5   6
ATOM      6  C   UNL     1       4.339  15.712   4.442  1.00  0.00     0.006 C 
BRANCH   6   7
ATOM      7  C   UNL     1       5.430  15.144   5.368  1.00  0.00     0.053 C 
BRANCH   7   8
ATOM      8  C   UNL     1       5.279  15.608   6.784  1.00  0.00     0.041 C 
ATOM      9  O   UNL     1       6.234  16.182   7.370  1.00  0.00    -0.550 OA
ATOM     10  O   UNL     1       4.095  15.372   7.472  1.00  0.00    -0.550 OA
ENDBRANCH   7   8
ENDBRANCH   6   7
ENDBRANCH   5   6
ENDBRANCH   4   5
ENDBRANCH   3   4
ENDBRANCH   2   3
ENDBRANCH   1   2
BRANCH   1  11
ATOM     11  C   UNL     1       2.100  18.239   8.866  1.00  0.00     0.000 C 
BRANCH  11  12
ATOM     12  C   UNL     1       2.332  18.052  10.370  1.00  0.00    -0.000 C 
BRANCH  12  13
ATOM     13  C   UNL     1       2.961  16.682  10.663  1.00  0.00    -0.000 C 
BRANCH  13  14
ATOM     14  C   UNL     1       3.434  16.547  12.119  1.00  0.00    -0.000 C 
BRANCH  14  15
ATOM     15  C   UNL     1       4.919  16.157  12.225  1.00  0.00    -0.000 C 
BRANCH  15  16
ATOM     16  C   UNL     1       5.208  15.264  13.442  1.00  0.00    -0.000 C 
BRANCH  16  17
ATOM     17  C   UNL     1       6.280  15.859  14.368  1.00  0.00    -0.003 C 
ATOM     18  C   UNL     1       5.672  16.310  15.692  1.00  0.00     0.004 C 
ENDBRANCH  16  17
ENDBRANCH  15  16
ENDBRANCH  14  15
ENDBRANCH  13  14
ENDBRANCH  12  13
ENDBRANCH  11  12
ENDBRANCH   1  11
TORSDOF 14
ENDMDL
MODEL 9
REMARK VINA RESULT:    -3.527      3.328      8.161
REMARK INTER + INTRA:          -8.172
REMARK INTER:                  -6.632
REMARK INTRA:                  -1.540
REMARK UNBOUND:                -1.758
REMARK SMILES CCCCCCCCCCCCCCCC(=O)[O-]
REMARK SMILES IDX 9 1 10 2 11 3 12 4 13 5 14 6 15 7 16 8 17 9 18 10 8 11 7 12
REMARK SMILES IDX 6 13 5 14 4 15 3 16 2 17 1 18
REMARK H PARENT
REMARK Flexibility Score: inf
ROOT
ATOM      1  C   UNL     1       2.844  19.064   6.253  1.00  0.00     0.000 C 
ENDROOT
BRANCH   1   2
ATOM      2  C   UNL     1       3.626  18.432   7.423  1.00  0.00     0.000 C 
BRANCH   2   3
ATOM      3  C   UNL     1       3.005  18.709   8.806  1.00  0.00     0.000 C 
BRANCH   3   4
ATOM      4  C   UNL     1       2.810  17.465   9.691  1.00  0.00     0.000 C 
BRANCH   4   5
ATOM      5  C   UNL     1       3.930  16.411   9.596  1.00  0.00     0.000 C 
BRANCH   5   6
ATOM      6  C   UNL     1       4.120  15.533  10.848  1.00  0.00     0.006 C 
BRANCH   6   7
ATOM      7  C   UNL     1       4.162  16.325  12.168  1.00  0.00     0.053 C 
BRANCH   7   8
ATOM      8  C   UNL     1       5.223  15.828  13.101  1.00  0.00     0.041 C 
ATOM      9  O   UNL     1       5.393  14.593  13.269  1.00  0.00    -0.550 OA
ATOM     10  O   UNL     1       6.001  16.731  13.817  1.00  0.00    -0.550 OA
ENDBRANCH   7   8
ENDBRANCH   6   7
ENDBRANCH   5   6
ENDBRANCH   4   5
ENDBRANCH   3   4
ENDBRANCH   2   3
ENDBRANCH   1   2
BRANCH   1  11
ATOM     11  C   UNL     1       2.143  18.014   5.378  1.00  0.00     0.000 C 
BRANCH  11  12
ATOM     12  C   UNL     1       2.295  18.347   3.888  1.00  0.00    -0.000 C 
BRANCH  12  13
ATOM     13  C   UNL     1       2.975  17.196   3.134  1.00  0.00    -0.000 C 
BRANCH  13  14
ATOM     14  C   UNL     1       4.443  17.004   3.546  1.00  0.00    -0.000 C 
BRANCH  14  15
ATOM     15  C   UNL     1       4.930  15.558   3.344  1.00  0.00    -0.000 C 
BRANCH  15  16
ATOM     16  C   UNL     1       5.596  14.978   4.602  1.00  0.00    -0.000 C 
BRANCH  16  17
ATOM     17  C   UNL     1       4.973  15.516   5.899  1.00  0.00    -0.003 C 
ATOM     18  C   UNL     1       3.759  14.687   6.309  1.00  0.00     0.004 C 
ENDBRANCH  16  17
ENDBRANCH  15  16
ENDBRANCH  14  15
ENDBRANCH  13  14
ENDBRANCH  12  13
ENDBRANCH  11  12
ENDBRANCH   1  11
TORSDOF 14
ENDMDL
