MODEL 1
REMARK VINA RESULT:    -3.568      0.000      0.000
REMARK INTER + INTRA:          -7.527
REMARK INTER:                  -6.488
REMARK INTRA:                  -1.039
REMARK UNBOUND:                -1.039
REMARK SMILES CCCCCCCCCCCCCCCC(=O)[O-]
REMARK SMILES IDX 9 1 10 2 11 3 12 4 13 5 14 6 15 7 16 8 17 9 18 10 8 11 7 12
REMARK SMILES IDX 6 13 5 14 4 15 3 16 2 17 1 18
REMARK H PARENT
REMARK Flexibility Score: inf
ROOT
ATOM      1  C   UNL     1     -19.984   1.228   7.664  1.00  0.00     0.000 C 
ENDROOT
BRANCH   1   2
ATOM      2  C   UNL     1     -21.054   2.337   7.612  1.00  0.00     0.000 C 
BRANCH   2   3
ATOM      3  C   UNL     1     -21.489   2.892   8.981  1.00  0.00     0.000 C 
BRANCH   3   4
ATOM      4  C   UNL     1     -21.843   1.788   9.987  1.00  0.00     0.000 C 
BRANCH   4   5
ATOM      5  C   UNL     1     -21.066   1.973  11.299  1.00  0.00     0.000 C 
BRANCH   5   6
ATOM      6  C   UNL     1     -21.750   1.288  12.493  1.00  0.00     0.006 C 
BRANCH   6   7
ATOM      7  C   UNL     1     -20.746   0.726  13.508  1.00  0.00     0.053 C 
BRANCH   7   8
ATOM      8  C   UNL     1     -21.119  -0.672  13.889  1.00  0.00     0.041 C 
ATOM      9  O   UNL     1     -20.804  -1.638  13.144  1.00  0.00    -0.550 OA
ATOM     10  O   UNL     1     -21.862  -0.904  15.039  1.00  0.00    -0.550 OA
ENDBRANCH   7   8
ENDBRANCH   6   7
ENDBRANCH   5   6
ENDBRANCH   4   5
ENDBRANCH   3   4
ENDBRANCH   2   3
ENDBRANCH   1   2
BRANCH   1  11
ATOM     11  C   UNL     1     -20.284  -0.011   6.802  1.00  0.00     0.000 C 
BRANCH  11  12
ATOM     12  C   UNL     1     -20.439  -1.293   7.633  1.00  0.00    -0.000 C 
BRANCH  12  13
ATOM     13  C   UNL     1     -20.366  -0.986   9.134  1.00  0.00    -0.000 C 
BRANCH  13  14
ATOM     14  C   UNL     1     -19.506  -2.027   9.867  1.00  0.00    -0.000 C 
BRANCH  14  15
ATOM     15  C   UNL     1     -19.966  -3.468   9.600  1.00  0.00    -0.000 C 
BRANCH  15  16
ATOM     16  C   UNL     1     -18.963  -4.259   8.743  1.00  0.00    -0.000 C 
BRANCH  16  17
ATOM     17  C   UNL     1     -19.384  -5.725   8.548  1.00  0.00    -0.003 C 
ATOM     18  C   UNL     1     -20.824  -5.988   8.991  1.00  0.00     0.004 C 
ENDBRANCH  16  17
ENDBRANCH  15  16
ENDBRANCH  14  15
ENDBRANCH  13  14
ENDBRANCH  12  13
ENDBRANCH  11  12
ENDBRANCH   1  11
TORSDOF 14
ENDMDL
MODEL 2
REMARK VINA RESULT:    -3.079      1.619      5.546
REMARK INTER + INTRA:          -6.638
REMARK INTER:                  -5.783
REMARK INTRA:                  -0.855
REMARK UNBOUND:                -1.039
REMARK SMILES CCCCCCCCCCCCCCCC(=O)[O-]
REMARK SMILES IDX 9 1 10 2 11 3 12 4 13 5 14 6 15 7 16 8 17 9 18 10 8 11 7 12
REMARK SMILES IDX 6 13 5 14 4 15 3 16 2 17 1 18
REMARK H PARENT
REMARK Flexibility Score: inf
ROOT
ATOM      1  C   UNL     1     -19.761  -0.799   6.873  1.00  0.00     0.000 C 
ENDROOT
BRANCH   1   2
ATOM      2  C   UNL     1     -20.392  -1.981   7.636  1.00  0.00     0.000 C 
BRANCH   2   3
ATOM      3  C   UNL     1     -19.480  -2.645   8.685  1.00  0.00     0.000 C 
BRANCH   3   4
ATOM      4  C   UNL     1     -20.169  -2.828  10.045  1.00  0.00     0.000 C 
BRANCH   4   5
ATOM      5  C   UNL     1     -19.806  -1.684  11.002  1.00  0.00     0.000 C 
BRANCH   5   6
ATOM      6  C   UNL     1     -20.507  -1.807  12.364  1.00  0.00     0.006 C 
BRANCH   6   7
ATOM      7  C   UNL     1     -21.041  -0.464  12.879  1.00  0.00     0.053 C 
BRANCH   7   8
ATOM      8  C   UNL     1     -21.086  -0.461  14.374  1.00  0.00     0.041 C 
ATOM      9  O   UNL     1     -20.054  -0.181  15.040  1.00  0.00    -0.550 OA
ATOM     10  O   UNL     1     -22.255  -0.820  15.034  1.00  0.00    -0.550 OA
ENDBRANCH   7   8
ENDBRANCH   6   7
ENDBRANCH   5   6
ENDBRANCH   4   5
ENDBRANCH   3   4
ENDBRANCH   2   3
ENDBRANCH   1   2
BRANCH   1  11
ATOM     11  C   UNL     1     -20.691   0.407   6.653  1.00  0.00     0.000 C 
BRANCH  11  12
ATOM     12  C   UNL     1     -20.479   1.521   7.689  1.00  0.00    -0.000 C 
BRANCH  12  13
ATOM     13  C   UNL     1     -20.685   0.992   9.113  1.00  0.00    -0.000 C 
BRANCH  13  14
ATOM     14  C   UNL     1     -21.748   1.814   9.858  1.00  0.00    -0.000 C 
BRANCH  14  15
ATOM     15  C   UNL     1     -21.380   3.301   9.962  1.00  0.00    -0.000 C 
BRANCH  15  16
ATOM     16  C   UNL     1     -22.111   4.166   8.919  1.00  0.00    -0.000 C 
BRANCH  16  17
ATOM     17  C   UNL     1     -21.658   5.634   8.951  1.00  0.00    -0.003 C 
ATOM     18  C   UNL     1     -20.396   5.843   9.789  1.00  0.00     0.004 C 
ENDBRANCH  16  17
ENDBRANCH  15  16
ENDBRANCH  14  15
ENDBRANCH  13  14
ENDBRANCH  12  13
ENDBRANCH  11  12
ENDBRANCH   1  11
TORSDOF 14
ENDMDL
MODEL 3
REMARK VINA RESULT:    -3.071      2.554      4.700
REMARK INTER + INTRA:          -6.624
REMARK INTER:                  -5.305
REMARK INTRA:                  -1.319
REMARK UNBOUND:                -1.039
REMARK SMILES CCCCCCCCCCCCCCCC(=O)[O-]
REMARK SMILES IDX 9 1 10 2 11 3 12 4 13 5 14 6 15 7 16 8 17 9 18 10 8 11 7 12
REMARK SMILES IDX 6 13 5 14 4 15 3 16 2 17 1 18
REMARK H PARENT
REMARK Flexibility Score: inf
ROOT
ATOM      1  C   UNL     1     -20.704   0.314  13.571  1.00  0.00     0.000 C 
ENDROOT
BRANCH   1   2
ATOM      2  C   UNL     1     -21.650   1.292  12.844  1.00  0.00     0.000 C 
BRANCH   2   3
ATOM      3  C   UNL     1     -21.069   1.943  11.576  1.00  0.00     0.000 C 
BRANCH   3   4
ATOM      4  C   UNL     1     -21.825   1.546  10.301  1.00  0.00     0.000 C 
BRANCH   4   5
ATOM      5  C   UNL     1     -21.557   2.549   9.169  1.00  0.00     0.000 C 
BRANCH   5   6
ATOM      6  C   UNL     1     -20.865   1.904   7.958  1.00  0.00     0.006 C 
BRANCH   6   7
ATOM      7  C   UNL     1     -20.320   0.502   8.265  1.00  0.00     0.053 C 
BRANCH   7   8
ATOM      8  C   UNL     1     -20.290  -0.328   7.021  1.00  0.00     0.041 C 
ATOM      9  O   UNL     1     -21.129  -1.253   6.855  1.00  0.00    -0.550 OA
ATOM     10  O   UNL     1     -19.302  -0.117   6.068  1.00  0.00    -0.550 OA
ENDBRANCH   7   8
ENDBRANCH   6   7
ENDBRANCH   5   6
ENDBRANCH   4   5
ENDBRANCH   3   4
ENDBRANCH   2   3
ENDBRANCH   1   2
BRANCH   1  11
ATOM     11  C   UNL     1     -21.336  -1.032  13.967  1.00  0.00     0.000 C 
BRANCH  11  12
ATOM     12  C   UNL     1     -21.066  -2.143  12.941  1.00  0.00    -0.000 C 
BRANCH  12  13
ATOM     13  C   UNL     1     -20.106  -1.658  11.848  1.00  0.00    -0.000 C 
BRANCH  13  14
ATOM     14  C   UNL     1     -20.395  -2.360  10.512  1.00  0.00    -0.000 C 
BRANCH  14  15
ATOM     15  C   UNL     1     -19.114  -2.722   9.745  1.00  0.00    -0.000 C 
BRANCH  15  16
ATOM     16  C   UNL     1     -19.395  -3.583   8.500  1.00  0.00    -0.000 C 
BRANCH  16  17
ATOM     17  C   UNL     1     -19.228  -5.086   8.776  1.00  0.00    -0.003 C 
ATOM     18  C   UNL     1     -20.567  -5.812   8.912  1.00  0.00     0.004 C 
ENDBRANCH  16  17
ENDBRANCH  15  16
ENDBRANCH  14  15
ENDBRANCH  13  14
ENDBRANCH  12  13
ENDBRANCH  11  12
ENDBRANCH   1  11
TORSDOF 14
ENDMDL
MODEL 4
REMARK VINA RESULT:    -2.973      2.932      7.065
REMARK INTER + INTRA:          -6.446
REMARK INTER:                  -5.178
REMARK INTRA:                  -1.268
REMARK UNBOUND:                -1.039
REMARK SMILES CCCCCCCCCCCCCCCC(=O)[O-]
REMARK SMILES IDX 9 1 10 2 11 3 12 4 13 5 14 6 15 7 16 8 17 9 18 10 8 11 7 12
REMARK SMILES IDX 6 13 5 14 4 15 3 16 2 17 1 18
REMARK H PARENT
REMARK Flexibility Score: inf
ROOT
ATOM      1  C   UNL     1     -21.350  -0.970  13.476  1.00  0.00     0.000 C 
ENDROOT
BRANCH   1   2
ATOM      2  C   UNL     1     -20.395  -2.020  12.872  1.00  0.00     0.000 C 
BRANCH   2   3
ATOM      3  C   UNL     1     -20.667  -2.381  11.400  1.00  0.00     0.000 C 
BRANCH   3   4
ATOM      4  C   UNL     1     -19.612  -1.812  10.441  1.00  0.00     0.000 C 
BRANCH   4   5
ATOM      5  C   UNL     1     -19.522  -2.655   9.161  1.00  0.00     0.000 C 
BRANCH   5   6
ATOM      6  C   UNL     1     -20.077  -1.921   7.930  1.00  0.00     0.006 C 
BRANCH   6   7
ATOM      7  C   UNL     1     -20.622  -0.528   8.266  1.00  0.00     0.053 C 
BRANCH   7   8
ATOM      8  C   UNL     1     -20.389   0.412   7.125  1.00  0.00     0.041 C 
ATOM      9  O   UNL     1     -21.063   0.304   6.067  1.00  0.00    -0.550 OA
ATOM     10  O   UNL     1     -19.390   1.373   7.210  1.00  0.00    -0.550 OA
ENDBRANCH   7   8
ENDBRANCH   6   7
ENDBRANCH   5   6
ENDBRANCH   4   5
ENDBRANCH   3   4
ENDBRANCH   2   3
ENDBRANCH   1   2
BRANCH   1  11
ATOM     11  C   UNL     1     -20.673   0.323  13.967  1.00  0.00     0.000 C 
BRANCH  11  12
ATOM     12  C   UNL     1     -21.083   1.558  13.151  1.00  0.00    -0.000 C 
BRANCH  12  13
ATOM     13  C   UNL     1     -21.834   1.149  11.878  1.00  0.00    -0.000 C 
BRANCH  13  14
ATOM     14  C   UNL     1     -21.179   1.764  10.632  1.00  0.00    -0.000 C 
BRANCH  14  15
ATOM     15  C   UNL     1     -22.178   2.541   9.761  1.00  0.00    -0.000 C 
BRANCH  15  16
ATOM     16  C   UNL     1     -21.484   3.509   8.786  1.00  0.00    -0.000 C 
BRANCH  16  17
ATOM     17  C   UNL     1     -21.943   4.963   8.975  1.00  0.00    -0.003 C 
ATOM     18  C   UNL     1     -20.779   5.919   9.241  1.00  0.00     0.004 C 
ENDBRANCH  16  17
ENDBRANCH  15  16
ENDBRANCH  14  15
ENDBRANCH  13  14
ENDBRANCH  12  13
ENDBRANCH  11  12
ENDBRANCH   1  11
TORSDOF 14
ENDMDL
MODEL 5
REMARK VINA RESULT:    -2.966      0.924      2.240
REMARK INTER + INTRA:          -6.433
REMARK INTER:                  -5.445
REMARK INTRA:                  -0.987
REMARK UNBOUND:                -1.039
REMARK SMILES CCCCCCCCCCCCCCCC(=O)[O-]
REMARK SMILES IDX 9 1 10 2 11 3 12 4 13 5 14 6 15 7 16 8 17 9 18 10 8 11 7 12
REMARK SMILES IDX 6 13 5 14 4 15 3 16 2 17 1 18
REMARK H PARENT
REMARK Flexibility Score: inf
ROOT
ATOM      1  C   UNL     1     -21.483   2.730   8.791  1.00  0.00     0.000 C 
ENDROOT
BRANCH   1   2
ATOM      2  C   UNL     1     -21.782   1.724   9.921  1.00  0.00     0.000 C 
BRANCH   2   3
ATOM      3  C   UNL     1     -21.021   1.972  11.236  1.00  0.00     0.000 C 
BRANCH   3   4
ATOM      4  C   UNL     1     -21.747   1.402  12.463  1.00  0.00     0.000 C 
BRANCH   4   5
ATOM      5  C   UNL     1     -20.895   1.568  13.730  1.00  0.00     0.000 C 
BRANCH   5   6
ATOM      6  C   UNL     1     -20.566   0.226  14.402  1.00  0.00     0.006 C 
BRANCH   6   7
ATOM      7  C   UNL     1     -21.624  -0.850  14.126  1.00  0.00     0.053 C 
BRANCH   7   8
ATOM      8  C   UNL     1     -21.042  -1.951  13.296  1.00  0.00     0.041 C 
ATOM      9  O   UNL     1     -21.370  -3.148  13.511  1.00  0.00    -0.550 OA
ATOM     10  O   UNL     1     -20.097  -1.660  12.321  1.00  0.00    -0.550 OA
ENDBRANCH   7   8
ENDBRANCH   6   7
ENDBRANCH   5   6
ENDBRANCH   4   5
ENDBRANCH   3   4
ENDBRANCH   2   3
ENDBRANCH   1   2
BRANCH   1  11
ATOM     11  C   UNL     1     -20.789   2.135   7.553  1.00  0.00     0.000 C 
BRANCH  11  12
ATOM     12  C   UNL     1     -20.054   0.821   7.856  1.00  0.00    -0.000 C 
BRANCH  12  13
ATOM     13  C   UNL     1     -20.403  -0.255   6.820  1.00  0.00    -0.000 C 
BRANCH  13  14
ATOM     14  C   UNL     1     -20.226  -1.663   7.408  1.00  0.00    -0.000 C 
BRANCH  14  15
ATOM     15  C   UNL     1     -19.991  -1.645   8.926  1.00  0.00    -0.000 C 
BRANCH  15  16
ATOM     16  C   UNL     1     -19.539  -3.012   9.470  1.00  0.00    -0.000 C 
BRANCH  16  17
ATOM     17  C   UNL     1     -19.186  -4.003   8.349  1.00  0.00    -0.003 C 
ATOM     18  C   UNL     1     -19.462  -5.456   8.738  1.00  0.00     0.004 C 
ENDBRANCH  16  17
ENDBRANCH  15  16
ENDBRANCH  14  15
ENDBRANCH  13  14
ENDBRANCH  12  13
ENDBRANCH  11  12
ENDBRANCH   1  11
TORSDOF 14
ENDMDL
MODEL 6
REMARK VINA RESULT:    -2.923      2.295      5.439
REMARK INTER + INTRA:          -6.354
REMARK INTER:                  -5.349
REMARK INTRA:                  -1.005
REMARK UNBOUND:                -1.039
REMARK SMILES CCCCCCCCCCCCCCCC(=O)[O-]
REMARK SMILES IDX 9 1 10 2 11 3 12 4 13 5 14 6 15 7 16 8 17 9 18 10 8 11 7 12
REMARK SMILES IDX 6 13 5 14 4 15 3 16 2 17 1 18
REMARK H PARENT
REMARK Flexibility Score: inf
ROOT
ATOM      1  C   UNL     1     -20.758   2.237   7.709  1.00  0.00     0.000 C 
ENDROOT
BRANCH   1   2
ATOM      2  C   UNL     1     -19.970   0.912   7.642  1.00  0.00     0.000 C 
BRANCH   2   3
ATOM      3  C   UNL     1     -20.655  -0.217   6.849  1.00  0.00     0.000 C 
BRANCH   3   4
ATOM      4  C   UNL     1     -20.295  -1.615   7.371  1.00  0.00     0.000 C 
BRANCH   4   5
ATOM      5  C   UNL     1     -19.944  -1.570   8.865  1.00  0.00     0.000 C 
BRANCH   5   6
ATOM      6  C   UNL     1     -19.686  -2.966   9.454  1.00  0.00     0.006 C 
BRANCH   6   7
ATOM      7  C   UNL     1     -19.144  -3.957   8.415  1.00  0.00     0.053 C 
BRANCH   7   8
ATOM      8  C   UNL     1     -19.510  -5.358   8.792  1.00  0.00     0.041 C 
ATOM      9  O   UNL     1     -18.680  -6.293   8.639  1.00  0.00    -0.550 OA
ATOM     10  O   UNL     1     -20.786  -5.640   9.262  1.00  0.00    -0.550 OA
ENDBRANCH   7   8
ENDBRANCH   6   7
ENDBRANCH   5   6
ENDBRANCH   4   5
ENDBRANCH   3   4
ENDBRANCH   2   3
ENDBRANCH   1   2
BRANCH   1  11
ATOM     11  C   UNL     1     -21.631   2.415   8.963  1.00  0.00     0.000 C 
BRANCH  11  12
ATOM     12  C   UNL     1     -21.358   1.349  10.036  1.00  0.00    -0.000 C 
BRANCH  12  13
ATOM     13  C   UNL     1     -21.038   2.000  11.387  1.00  0.00    -0.000 C 
BRANCH  13  14
ATOM     14  C   UNL     1     -21.695   1.226  12.540  1.00  0.00    -0.000 C 
BRANCH  14  15
ATOM     15  C   UNL     1     -20.835   1.220  13.813  1.00  0.00    -0.000 C 
BRANCH  15  16
ATOM     16  C   UNL     1     -20.779  -0.165  14.482  1.00  0.00    -0.000 C 
BRANCH  16  17
ATOM     17  C   UNL     1     -21.386  -1.268  13.600  1.00  0.00    -0.003 C 
ATOM     18  C   UNL     1     -20.367  -1.886  12.642  1.00  0.00     0.004 C 
ENDBRANCH  16  17
ENDBRANCH  15  16
ENDBRANCH  14  15
ENDBRANCH  13  14
ENDBRANCH  12  13
ENDBRANCH  11  12
ENDBRANCH   1  11
TORSDOF 14
ENDMDL
MODEL 7
REMARK VINA RESULT:    -2.727      2.437      6.012
REMARK INTER + INTRA:          -5.997
REMARK INTER:                  -4.699
REMARK INTRA:                  -1.299
REMARK UNBOUND:                -1.039
REMARK SMILES CCCCCCCCCCCCCCCC(=O)[O-]
REMARK SMILES IDX 9 1 10 2 11 3 12 4 13 5 14 6 15 7 16 8 17 9 18 10 8 11 7 12
REMARK SMILES IDX 6 13 5 14 4 15 3 16 2 17 1 18
REMARK H PARENT
REMARK Flexibility Score: inf
ROOT
ATOM      1  C   UNL     1     -20.547  -0.201  13.882  1.00  0.00     0.000 C 
ENDROOT
BRANCH   1   2
ATOM      2  C   UNL     1     -21.242  -1.556  13.634  1.00  0.00     0.000 C 
BRANCH   2   3
ATOM      3  C   UNL     1     -20.755  -2.323  12.391  1.00  0.00     0.000 C 
BRANCH   3   4
ATOM      4  C   UNL     1     -19.633  -1.592  11.640  1.00  0.00     0.000 C 
BRANCH   4   5
ATOM      5  C   UNL     1     -19.759  -1.805  10.124  1.00  0.00     0.000 C 
BRANCH   5   6
ATOM      6  C   UNL     1     -20.168  -3.241   9.760  1.00  0.00     0.006 C 
BRANCH   6   7
ATOM      7  C   UNL     1     -19.252  -3.867   8.700  1.00  0.00     0.053 C 
BRANCH   7   8
ATOM      8  C   UNL     1     -19.485  -5.342   8.616  1.00  0.00     0.041 C 
ATOM      9  O   UNL     1     -18.683  -6.076   7.980  1.00  0.00    -0.550 OA
ATOM     10  O   UNL     1     -20.617  -5.900   9.195  1.00  0.00    -0.550 OA
ENDBRANCH   7   8
ENDBRANCH   6   7
ENDBRANCH   5   6
ENDBRANCH   4   5
ENDBRANCH   3   4
ENDBRANCH   2   3
ENDBRANCH   1   2
BRANCH   1  11
ATOM     11  C   UNL     1     -21.439   1.037  13.682  1.00  0.00     0.000 C 
BRANCH  11  12
ATOM     12  C   UNL     1     -21.096   1.819  12.405  1.00  0.00    -0.000 C 
BRANCH  12  13
ATOM     13  C   UNL     1     -21.997   1.389  11.241  1.00  0.00    -0.000 C 
BRANCH  13  14
ATOM     14  C   UNL     1     -21.493   1.971   9.912  1.00  0.00    -0.000 C 
BRANCH  14  15
ATOM     15  C   UNL     1     -20.790   0.922   9.036  1.00  0.00    -0.000 C 
BRANCH  15  16
ATOM     16  C   UNL     1     -20.490   1.441   7.618  1.00  0.00    -0.000 C 
BRANCH  16  17
ATOM     17  C   UNL     1     -20.011   0.328   6.674  1.00  0.00    -0.003 C 
ATOM     18  C   UNL     1     -20.758  -0.990   6.889  1.00  0.00     0.004 C 
ENDBRANCH  16  17
ENDBRANCH  15  16
ENDBRANCH  14  15
ENDBRANCH  13  14
ENDBRANCH  12  13
ENDBRANCH  11  12
ENDBRANCH   1  11
TORSDOF 14
ENDMDL
MODEL 8
REMARK VINA RESULT:    -2.588      3.020      5.449
REMARK INTER + INTRA:          -5.745
REMARK INTER:                  -4.563
REMARK INTRA:                  -1.182
REMARK UNBOUND:                -1.039
REMARK SMILES CCCCCCCCCCCCCCCC(=O)[O-]
REMARK SMILES IDX 9 1 10 2 11 3 12 4 13 5 14 6 15 7 16 8 17 9 18 10 8 11 7 12
REMARK SMILES IDX 6 13 5 14 4 15 3 16 2 17 1 18
REMARK H PARENT
REMARK Flexibility Score: inf
ROOT
ATOM      1  C   UNL     1     -21.396  -0.910  13.700  1.00  0.00     0.000 C 
ENDROOT
BRANCH   1   2
ATOM      2  C   UNL     1     -20.869   0.458  14.179  1.00  0.00     0.000 C 
BRANCH   2   3
ATOM      3  C   UNL     1     -20.858   1.566  13.109  1.00  0.00     0.000 C 
BRANCH   3   4
ATOM      4  C   UNL     1     -21.841   1.297  11.961  1.00  0.00     0.000 C 
BRANCH   4   5
ATOM      5  C   UNL     1     -21.255   1.756  10.618  1.00  0.00     0.000 C 
BRANCH   5   6
ATOM      6  C   UNL     1     -22.213   2.666   9.834  1.00  0.00     0.006 C 
BRANCH   6   7
ATOM      7  C   UNL     1     -21.500   3.476   8.744  1.00  0.00     0.053 C 
BRANCH   7   8
ATOM      8  C   UNL     1     -21.588   4.940   9.041  1.00  0.00     0.041 C 
ATOM      9  O   UNL     1     -22.408   5.666   8.419  1.00  0.00    -0.550 OA
ATOM     10  O   UNL     1     -20.726   5.513   9.968  1.00  0.00    -0.550 OA
ENDBRANCH   7   8
ENDBRANCH   6   7
ENDBRANCH   5   6
ENDBRANCH   4   5
ENDBRANCH   3   4
ENDBRANCH   2   3
ENDBRANCH   1   2
BRANCH   1  11
ATOM     11  C   UNL     1     -20.331  -1.848  13.104  1.00  0.00     0.000 C 
BRANCH  11  12
ATOM     12  C   UNL     1     -20.712  -2.377  11.713  1.00  0.00    -0.000 C 
BRANCH  12  13
ATOM     13  C   UNL     1     -19.880  -1.696  10.620  1.00  0.00    -0.000 C 
BRANCH  13  14
ATOM     14  C   UNL     1     -19.504  -2.692   9.514  1.00  0.00    -0.000 C 
BRANCH  14  15
ATOM     15  C   UNL     1     -19.908  -2.203   8.114  1.00  0.00    -0.000 C 
BRANCH  15  16
ATOM     16  C   UNL     1     -20.534  -0.797   8.138  1.00  0.00    -0.000 C 
BRANCH  16  17
ATOM     17  C   UNL     1     -20.269  -0.014   6.843  1.00  0.00    -0.003 C 
ATOM     18  C   UNL     1     -19.901   1.447   7.102  1.00  0.00     0.004 C 
ENDBRANCH  16  17
ENDBRANCH  15  16
ENDBRANCH  14  15
ENDBRANCH  13  14
ENDBRANCH  12  13
ENDBRANCH  11  12
ENDBRANCH   1  11
TORSDOF 14
ENDMDL
MODEL 9
REMARK VINA RESULT:    -2.575      3.027      5.531
REMARK INTER + INTRA:          -5.722
REMARK INTER:                  -4.570
REMARK INTRA:                  -1.152
REMARK UNBOUND:                -1.039
REMARK SMILES CCCCCCCCCCCCCCCC(=O)[O-]
REMARK SMILES IDX 9 1 10 2 11 3 12 4 13 5 14 6 15 7 16 8 17 9 18 10 8 11 7 12
REMARK SMILES IDX 6 13 5 14 4 15 3 16 2 17 1 18
REMARK H PARENT
REMARK Flexibility Score: inf
ROOT
ATOM      1  C   UNL     1     -19.998  -2.215   7.636  1.00  0.00     0.000 C 
ENDROOT
BRANCH   1   2
ATOM      2  C   UNL     1     -20.805  -0.905   7.751  1.00  0.00     0.000 C 
BRANCH   2   3
ATOM      3  C   UNL     1     -20.296   0.256   6.877  1.00  0.00     0.000 C 
BRANCH   3   4
ATOM      4  C   UNL     1     -20.383   1.617   7.581  1.00  0.00     0.000 C 
BRANCH   4   5
ATOM      5  C   UNL     1     -21.067   1.484   8.950  1.00  0.00     0.000 C 
BRANCH   5   6
ATOM      6  C   UNL     1     -21.573   2.830   9.492  1.00  0.00     0.006 C 
BRANCH   6   7
ATOM      7  C   UNL     1     -21.513   3.950   8.446  1.00  0.00     0.053 C 
BRANCH   7   8
ATOM      8  C   UNL     1     -21.501   5.288   9.115  1.00  0.00     0.041 C 
ATOM      9  O   UNL     1     -22.244   6.214   8.696  1.00  0.00    -0.550 OA
ATOM     10  O   UNL     1     -20.630   5.529  10.170  1.00  0.00    -0.550 OA
ENDBRANCH   7   8
ENDBRANCH   6   7
ENDBRANCH   5   6
ENDBRANCH   4   5
ENDBRANCH   3   4
ENDBRANCH   2   3
ENDBRANCH   1   2
BRANCH   1  11
ATOM     11  C   UNL     1     -19.420  -2.744   8.960  1.00  0.00     0.000 C 
BRANCH  11  12
ATOM     12  C   UNL     1     -19.628  -1.773  10.132  1.00  0.00    -0.000 C 
BRANCH  12  13
ATOM     13  C   UNL     1     -20.402  -2.446  11.272  1.00  0.00    -0.000 C 
BRANCH  13  14
ATOM     14  C   UNL     1     -20.116  -1.756  12.614  1.00  0.00    -0.000 C 
BRANCH  14  15
ATOM     15  C   UNL     1     -21.296  -1.856  13.593  1.00  0.00    -0.000 C 
BRANCH  15  16
ATOM     16  C   UNL     1     -21.562  -0.533  14.334  1.00  0.00    -0.000 C 
BRANCH  16  17
ATOM     17  C   UNL     1     -20.747   0.636  13.759  1.00  0.00    -0.003 C 
ATOM     18  C   UNL     1     -21.501   1.403  12.672  1.00  0.00     0.004 C 
ENDBRANCH  16  17
ENDBRANCH  15  16
ENDBRANCH  14  15
ENDBRANCH  13  14
ENDBRANCH  12  13
ENDBRANCH  11  12
ENDBRANCH   1  11
TORSDOF 14
ENDMDL
