MODEL 1
REMARK VINA RESULT:    -3.420      0.000      0.000
REMARK INTER + INTRA:         -13.781
REMARK INTER:                  -8.619
REMARK INTRA:                  -5.163
REMARK UNBOUND:                -5.163
REMARK SMILES CCCCCCCCCCCCCCCCCCCCCCCCCCCC(=O)[O-]
REMARK SMILES IDX 15 1 16 2 17 3 18 4 19 5 20 6 21 7 22 8 23 9 24 10 25 11
REMARK SMILES IDX 26 12 27 13 28 14 29 15 30 16 14 17 13 18 12 19 11 20 10 21
REMARK SMILES IDX 9 22 8 23 7 24 6 25 5 26 4 27 3 28 2 29 1 30
REMARK H PARENT
REMARK Flexibility Score: inf
ROOT
ATOM      1  C   UNL     1      30.882   1.163 -35.608  1.00  0.00     0.000 C 
ENDROOT
BRANCH   1   2
ATOM      2  C   UNL     1      29.903   2.266 -35.185  1.00  0.00     0.000 C 
BRANCH   2   3
ATOM      3  C   UNL     1      29.050   2.792 -36.354  1.00  0.00     0.000 C 
BRANCH   3   4
ATOM      4  C   UNL     1      28.896   1.781 -37.511  1.00  0.00     0.000 C 
BRANCH   4   5
ATOM      5  C   UNL     1      27.440   1.311 -37.683  1.00  0.00     0.000 C 
BRANCH   5   6
ATOM      6  C   UNL     1      26.912   0.559 -36.449  1.00  0.00     0.000 C 
BRANCH   6   7
ATOM      7  C   UNL     1      27.603  -0.802 -36.251  1.00  0.00     0.000 C 
BRANCH   7   8
ATOM      8  C   UNL     1      27.132  -1.863 -37.259  1.00  0.00     0.000 C 
BRANCH   8   9
ATOM      9  C   UNL     1      26.013  -2.760 -36.704  1.00  0.00     0.000 C 
BRANCH   9  10
ATOM     10  C   UNL     1      26.419  -4.241 -36.610  1.00  0.00     0.000 C 
BRANCH  10  11
ATOM     11  C   UNL     1      26.647  -4.743 -35.168  1.00  0.00     0.000 C 
BRANCH  11  12
ATOM     12  C   UNL     1      25.748  -4.034 -34.139  1.00  0.00     0.006 C 
BRANCH  12  13
ATOM     13  C   UNL     1      25.539  -4.874 -32.872  1.00  0.00     0.053 C 
BRANCH  13  14
ATOM     14  C   UNL     1      24.109  -4.864 -32.421  1.00  0.00     0.041 C 
ATOM     15  O   UNL     1      23.217  -4.344 -33.146  1.00  0.00    -0.550 OA
ATOM     16  O   UNL     1      23.762  -5.426 -31.194  1.00  0.00    -0.550 OA
ENDBRANCH  13  14
ENDBRANCH  12  13
ENDBRANCH  11  12
ENDBRANCH  10  11
ENDBRANCH   9  10
ENDBRANCH   8   9
ENDBRANCH   7   8
ENDBRANCH   6   7
ENDBRANCH   5   6
ENDBRANCH   4   5
ENDBRANCH   3   4
ENDBRANCH   2   3
ENDBRANCH   1   2
BRANCH   1  17
ATOM     17  C   UNL     1      31.764   0.733 -34.429  1.00  0.00     0.000 C 
BRANCH  17  18
ATOM     18  C   UNL     1      32.749  -0.389 -34.798  1.00  0.00     0.000 C 
BRANCH  18  19
ATOM     19  C   UNL     1      33.304  -0.238 -36.225  1.00  0.00     0.000 C 
BRANCH  19  20
ATOM     20  C   UNL     1      33.223  -1.539 -37.044  1.00  0.00     0.000 C 
BRANCH  20  21
ATOM     21  C   UNL     1      32.814  -1.367 -38.519  1.00  0.00     0.000 C 
BRANCH  21  22
ATOM     22  C   UNL     1      31.533  -0.534 -38.696  1.00  0.00    -0.000 C 
BRANCH  22  23
ATOM     23  C   UNL     1      30.285  -1.402 -38.945  1.00  0.00    -0.000 C 
BRANCH  23  24
ATOM     24  C   UNL     1      30.545  -2.733 -39.679  1.00  0.00    -0.000 C 
BRANCH  24  25
ATOM     25  C   UNL     1      29.447  -3.801 -39.511  1.00  0.00    -0.000 C 
BRANCH  25  26
ATOM     26  C   UNL     1      29.585  -4.686 -38.254  1.00  0.00    -0.000 C 
BRANCH  26  27
ATOM     27  C   UNL     1      31.029  -4.913 -37.778  1.00  0.00    -0.000 C 
BRANCH  27  28
ATOM     28  C   UNL     1      31.264  -4.418 -36.340  1.00  0.00    -0.000 C 
BRANCH  28  29
ATOM     29  C   UNL     1      30.129  -3.510 -35.845  1.00  0.00    -0.003 C 
ATOM     30  C   UNL     1      30.194  -3.254 -34.338  1.00  0.00     0.004 C 
ENDBRANCH  28  29
ENDBRANCH  27  28
ENDBRANCH  26  27
ENDBRANCH  25  26
ENDBRANCH  24  25
ENDBRANCH  23  24
ENDBRANCH  22  23
ENDBRANCH  21  22
ENDBRANCH  20  21
ENDBRANCH  19  20
ENDBRANCH  18  19
ENDBRANCH  17  18
ENDBRANCH   1  17
TORSDOF 26
ENDMDL
MODEL 2
REMARK VINA RESULT:    -3.294      4.704      7.494
REMARK INTER + INTRA:         -13.464
REMARK INTER:                  -8.806
REMARK INTRA:                  -4.657
REMARK UNBOUND:                -5.163
REMARK SMILES CCCCCCCCCCCCCCCCCCCCCCCCCCCC(=O)[O-]
REMARK SMILES IDX 15 1 16 2 17 3 18 4 19 5 20 6 21 7 22 8 23 9 24 10 25 11
REMARK SMILES IDX 26 12 27 13 28 14 29 15 30 16 14 17 13 18 12 19 11 20 10 21
REMARK SMILES IDX 9 22 8 23 7 24 6 25 5 26 4 27 3 28 2 29 1 30
REMARK H PARENT
REMARK Flexibility Score: inf
ROOT
ATOM      1  C   UNL     1      31.700  -1.742 -33.826  1.00  0.00     0.000 C 
ENDROOT
BRANCH   1   2
ATOM      2  C   UNL     1      30.649  -2.052 -34.900  1.00  0.00     0.000 C 
BRANCH   2   3
ATOM      3  C   UNL     1      29.500  -1.028 -34.927  1.00  0.00     0.000 C 
BRANCH   3   4
ATOM      4  C   UNL     1      29.396  -0.250 -36.257  1.00  0.00     0.000 C 
BRANCH   4   5
ATOM      5  C   UNL     1      29.550   1.268 -36.056  1.00  0.00     0.000 C 
BRANCH   5   6
ATOM      6  C   UNL     1      30.902   1.647 -35.428  1.00  0.00     0.000 C 
BRANCH   6   7
ATOM      7  C   UNL     1      30.741   2.516 -34.167  1.00  0.00     0.000 C 
BRANCH   7   8
ATOM      8  C   UNL     1      31.672   2.086 -33.022  1.00  0.00     0.000 C 
BRANCH   8   9
ATOM      9  C   UNL     1      33.162   2.227 -33.378  1.00  0.00     0.000 C 
BRANCH   9  10
ATOM     10  C   UNL     1      33.666   3.678 -33.291  1.00  0.00     0.000 C 
BRANCH  10  11
ATOM     11  C   UNL     1      33.733   4.239 -31.855  1.00  0.00     0.000 C 
BRANCH  11  12
ATOM     12  C   UNL     1      34.864   5.266 -31.665  1.00  0.00     0.006 C 
BRANCH  12  13
ATOM     13  C   UNL     1      34.330   6.690 -31.466  1.00  0.00     0.053 C 
BRANCH  13  14
ATOM     14  C   UNL     1      33.159   6.726 -30.530  1.00  0.00     0.041 C 
ATOM     15  O   UNL     1      33.327   6.541 -29.294  1.00  0.00    -0.550 OA
ATOM     16  O   UNL     1      31.878   6.958 -31.026  1.00  0.00    -0.550 OA
ENDBRANCH  13  14
ENDBRANCH  12  13
ENDBRANCH  11  12
ENDBRANCH  10  11
ENDBRANCH   9  10
ENDBRANCH   8   9
ENDBRANCH   7   8
ENDBRANCH   6   7
ENDBRANCH   5   6
ENDBRANCH   4   5
ENDBRANCH   3   4
ENDBRANCH   2   3
ENDBRANCH   1   2
BRANCH   1  17
ATOM     17  C   UNL     1      33.011  -1.265 -34.465  1.00  0.00     0.000 C 
BRANCH  17  18
ATOM     18  C   UNL     1      33.108  -1.614 -35.959  1.00  0.00     0.000 C 
BRANCH  18  19
ATOM     19  C   UNL     1      33.458  -0.391 -36.826  1.00  0.00     0.000 C 
BRANCH  19  20
ATOM     20  C   UNL     1      32.671  -0.345 -38.149  1.00  0.00     0.000 C 
BRANCH  20  21
ATOM     21  C   UNL     1      31.981  -1.662 -38.553  1.00  0.00     0.000 C 
BRANCH  21  22
ATOM     22  C   UNL     1      30.709  -1.443 -39.390  1.00  0.00    -0.000 C 
BRANCH  22  23
ATOM     23  C   UNL     1      29.727  -2.627 -39.307  1.00  0.00    -0.000 C 
BRANCH  23  24
ATOM     24  C   UNL     1      30.025  -3.650 -38.192  1.00  0.00    -0.000 C 
BRANCH  24  25
ATOM     25  C   UNL     1      28.803  -4.086 -37.360  1.00  0.00    -0.000 C 
BRANCH  25  26
ATOM     26  C   UNL     1      27.529  -3.244 -37.579  1.00  0.00    -0.000 C 
BRANCH  26  27
ATOM     27  C   UNL     1      26.444  -3.420 -36.503  1.00  0.00    -0.000 C 
BRANCH  27  28
ATOM     28  C   UNL     1      26.516  -4.790 -35.807  1.00  0.00    -0.000 C 
BRANCH  28  29
ATOM     29  C   UNL     1      26.244  -4.693 -34.299  1.00  0.00    -0.003 C 
ATOM     30  C   UNL     1      27.475  -4.256 -33.504  1.00  0.00     0.004 C 
ENDBRANCH  28  29
ENDBRANCH  27  28
ENDBRANCH  26  27
ENDBRANCH  25  26
ENDBRANCH  24  25
ENDBRANCH  23  24
ENDBRANCH  22  23
ENDBRANCH  21  22
ENDBRANCH  20  21
ENDBRANCH  19  20
ENDBRANCH  18  19
ENDBRANCH  17  18
ENDBRANCH   1  17
TORSDOF 26
ENDMDL
MODEL 3
REMARK VINA RESULT:    -3.284      3.218      6.183
REMARK INTER + INTRA:         -13.439
REMARK INTER:                  -7.624
REMARK INTRA:                  -5.816
REMARK UNBOUND:                -5.163
REMARK SMILES CCCCCCCCCCCCCCCCCCCCCCCCCCCC(=O)[O-]
REMARK SMILES IDX 15 1 16 2 17 3 18 4 19 5 20 6 21 7 22 8 23 9 24 10 25 11
REMARK SMILES IDX 26 12 27 13 28 14 29 15 30 16 14 17 13 18 12 19 11 20 10 21
REMARK SMILES IDX 9 22 8 23 7 24 6 25 5 26 4 27 3 28 2 29 1 30
REMARK H PARENT
REMARK Flexibility Score: inf
ROOT
ATOM      1  C   UNL     1      33.025  -0.556 -38.001  1.00  0.00     0.000 C 
ENDROOT
BRANCH   1   2
ATOM      2  C   UNL     1      32.681  -1.680 -38.987  1.00  0.00     0.000 C 
BRANCH   2   3
ATOM      3  C   UNL     1      32.787  -3.082 -38.359  1.00  0.00     0.000 C 
BRANCH   3   4
ATOM      4  C   UNL     1      31.852  -4.124 -39.009  1.00  0.00     0.000 C 
BRANCH   4   5
ATOM      5  C   UNL     1      30.775  -3.469 -39.893  1.00  0.00     0.000 C 
BRANCH   5   6
ATOM      6  C   UNL     1      29.370  -4.037 -39.632  1.00  0.00     0.000 C 
BRANCH   6   7
ATOM      7  C   UNL     1      28.630  -3.283 -38.512  1.00  0.00     0.000 C 
BRANCH   7   8
ATOM      8  C   UNL     1      28.406  -4.144 -37.259  1.00  0.00     0.000 C 
BRANCH   8   9
ATOM      9  C   UNL     1      29.381  -3.805 -36.118  1.00  0.00     0.000 C 
BRANCH   9  10
ATOM     10  C   UNL     1      29.982  -2.394 -36.240  1.00  0.00     0.000 C 
BRANCH  10  11
ATOM     11  C   UNL     1      31.016  -2.052 -35.146  1.00  0.00     0.000 C 
BRANCH  11  12
ATOM     12  C   UNL     1      30.865  -0.618 -34.608  1.00  0.00     0.006 C 
BRANCH  12  13
ATOM     13  C   UNL     1      32.099  -0.158 -33.821  1.00  0.00     0.053 C 
BRANCH  13  14
ATOM     14  C   UNL     1      32.425   1.283 -34.078  1.00  0.00     0.041 C 
ATOM     15  O   UNL     1      33.588   1.721 -33.864  1.00  0.00    -0.550 OA
ATOM     16  O   UNL     1      31.437   2.147 -34.550  1.00  0.00    -0.550 OA
ENDBRANCH  13  14
ENDBRANCH  12  13
ENDBRANCH  11  12
ENDBRANCH  10  11
ENDBRANCH   9  10
ENDBRANCH   8   9
ENDBRANCH   7   8
ENDBRANCH   6   7
ENDBRANCH   5   6
ENDBRANCH   4   5
ENDBRANCH   3   4
ENDBRANCH   2   3
ENDBRANCH   1   2
BRANCH   1  17
ATOM     17  C   UNL     1      31.928   0.516 -37.988  1.00  0.00     0.000 C 
BRANCH  17  18
ATOM     18  C   UNL     1      30.672   0.094 -38.769  1.00  0.00     0.000 C 
BRANCH  18  19
ATOM     19  C   UNL     1      29.901   1.299 -39.337  1.00  0.00     0.000 C 
BRANCH  19  20
ATOM     20  C   UNL     1      28.569   1.559 -38.608  1.00  0.00     0.000 C 
BRANCH  20  21
ATOM     21  C   UNL     1      28.163   0.492 -37.574  1.00  0.00     0.000 C 
BRANCH  21  22
ATOM     22  C   UNL     1      28.106   1.038 -36.137  1.00  0.00    -0.000 C 
BRANCH  22  23
ATOM     23  C   UNL     1      27.170   0.223 -35.225  1.00  0.00    -0.000 C 
BRANCH  23  24
ATOM     24  C   UNL     1      26.722  -1.140 -35.791  1.00  0.00    -0.000 C 
BRANCH  24  25
ATOM     25  C   UNL     1      25.643  -1.869 -34.968  1.00  0.00    -0.000 C 
BRANCH  25  26
ATOM     26  C   UNL     1      25.401  -3.340 -35.367  1.00  0.00    -0.000 C 
BRANCH  26  27
ATOM     27  C   UNL     1      25.367  -4.332 -34.192  1.00  0.00    -0.000 C 
BRANCH  27  28
ATOM     28  C   UNL     1      26.773  -4.767 -33.743  1.00  0.00    -0.000 C 
BRANCH  28  29
ATOM     29  C   UNL     1      27.213  -4.067 -32.448  1.00  0.00    -0.003 C 
ATOM     30  C   UNL     1      28.502  -3.263 -32.621  1.00  0.00     0.004 C 
ENDBRANCH  28  29
ENDBRANCH  27  28
ENDBRANCH  26  27
ENDBRANCH  25  26
ENDBRANCH  24  25
ENDBRANCH  23  24
ENDBRANCH  22  23
ENDBRANCH  21  22
ENDBRANCH  20  21
ENDBRANCH  19  20
ENDBRANCH  18  19
ENDBRANCH  17  18
ENDBRANCH   1  17
TORSDOF 26
ENDMDL
MODEL 4
REMARK VINA RESULT:    -3.280      1.566      3.512
REMARK INTER + INTRA:         -13.427
REMARK INTER:                  -7.778
REMARK INTRA:                  -5.649
REMARK UNBOUND:                -5.163
REMARK SMILES CCCCCCCCCCCCCCCCCCCCCCCCCCCC(=O)[O-]
REMARK SMILES IDX 15 1 16 2 17 3 18 4 19 5 20 6 21 7 22 8 23 9 24 10 25 11
REMARK SMILES IDX 26 12 27 13 28 14 29 15 30 16 14 17 13 18 12 19 11 20 10 21
REMARK SMILES IDX 9 22 8 23 7 24 6 25 5 26 4 27 3 28 2 29 1 30
REMARK H PARENT
REMARK Flexibility Score: inf
ROOT
ATOM      1  C   UNL     1      30.253   0.803 -38.384  1.00  0.00     0.000 C 
ENDROOT
BRANCH   1   2
ATOM      2  C   UNL     1      29.397   0.985 -37.123  1.00  0.00     0.000 C 
BRANCH   2   3
ATOM      3  C   UNL     1      28.533  -0.247 -36.802  1.00  0.00     0.000 C 
BRANCH   3   4
ATOM      4  C   UNL     1      27.112   0.104 -36.312  1.00  0.00     0.000 C 
BRANCH   4   5
ATOM      5  C   UNL     1      26.240  -1.149 -36.108  1.00  0.00     0.000 C 
BRANCH   5   6
ATOM      6  C   UNL     1      26.811  -2.388 -36.819  1.00  0.00     0.000 C 
BRANCH   6   7
ATOM      7  C   UNL     1      25.958  -3.647 -36.579  1.00  0.00     0.000 C 
BRANCH   7   8
ATOM      8  C   UNL     1      26.741  -4.775 -35.887  1.00  0.00     0.000 C 
BRANCH   8   9
ATOM      9  C   UNL     1      26.188  -5.119 -34.493  1.00  0.00     0.000 C 
BRANCH   9  10
ATOM     10  C   UNL     1      26.792  -4.250 -33.375  1.00  0.00     0.000 C 
BRANCH  10  11
ATOM     11  C   UNL     1      25.779  -3.309 -32.689  1.00  0.00     0.000 C 
BRANCH  11  12
ATOM     12  C   UNL     1      24.335  -3.529 -33.175  1.00  0.00     0.006 C 
BRANCH  12  13
ATOM     13  C   UNL     1      23.670  -2.224 -33.632  1.00  0.00     0.053 C 
BRANCH  13  14
ATOM     14  C   UNL     1      22.749  -1.667 -32.588  1.00  0.00     0.041 C 
ATOM     15  O   UNL     1      21.983  -0.704 -32.864  1.00  0.00    -0.550 OA
ATOM     16  O   UNL     1      22.742  -2.209 -31.304  1.00  0.00    -0.550 OA
ENDBRANCH  13  14
ENDBRANCH  12  13
ENDBRANCH  11  12
ENDBRANCH  10  11
ENDBRANCH   9  10
ENDBRANCH   8   9
ENDBRANCH   7   8
ENDBRANCH   6   7
ENDBRANCH   5   6
ENDBRANCH   4   5
ENDBRANCH   3   4
ENDBRANCH   2   3
ENDBRANCH   1   2
BRANCH   1  17
ATOM     17  C   UNL     1      30.088  -0.610 -38.958  1.00  0.00     0.000 C 
BRANCH  17  18
ATOM     18  C   UNL     1      31.406  -1.400 -38.988  1.00  0.00     0.000 C 
BRANCH  18  19
ATOM     19  C   UNL     1      32.540  -0.680 -38.236  1.00  0.00     0.000 C 
BRANCH  19  20
ATOM     20  C   UNL     1      33.334  -1.616 -37.306  1.00  0.00     0.000 C 
BRANCH  20  21
ATOM     21  C   UNL     1      33.129  -1.378 -35.798  1.00  0.00     0.000 C 
BRANCH  21  22
ATOM     22  C   UNL     1      32.403  -0.057 -35.490  1.00  0.00    -0.000 C 
BRANCH  22  23
ATOM     23  C   UNL     1      31.566  -0.121 -34.199  1.00  0.00    -0.000 C 
BRANCH  23  24
ATOM     24  C   UNL     1      31.298  -1.541 -33.659  1.00  0.00    -0.000 C 
BRANCH  24  25
ATOM     25  C   UNL     1      29.959  -2.166 -34.093  1.00  0.00    -0.000 C 
BRANCH  25  26
ATOM     26  C   UNL     1      30.073  -3.539 -34.788  1.00  0.00    -0.000 C 
BRANCH  26  27
ATOM     27  C   UNL     1      30.178  -3.481 -36.321  1.00  0.00    -0.000 C 
BRANCH  27  28
ATOM     28  C   UNL     1      31.106  -4.567 -36.893  1.00  0.00    -0.000 C 
BRANCH  28  29
ATOM     29  C   UNL     1      30.781  -4.899 -38.357  1.00  0.00    -0.003 C 
ATOM     30  C   UNL     1      29.367  -5.456 -38.535  1.00  0.00     0.004 C 
ENDBRANCH  28  29
ENDBRANCH  27  28
ENDBRANCH  26  27
ENDBRANCH  25  26
ENDBRANCH  24  25
ENDBRANCH  23  24
ENDBRANCH  22  23
ENDBRANCH  21  22
ENDBRANCH  20  21
ENDBRANCH  19  20
ENDBRANCH  18  19
ENDBRANCH  17  18
ENDBRANCH   1  17
TORSDOF 26
ENDMDL
MODEL 5
REMARK VINA RESULT:    -3.240      5.269      8.802
REMARK INTER + INTRA:         -13.327
REMARK INTER:                  -8.883
REMARK INTRA:                  -4.444
REMARK UNBOUND:                -5.163
REMARK SMILES CCCCCCCCCCCCCCCCCCCCCCCCCCCC(=O)[O-]
REMARK SMILES IDX 15 1 16 2 17 3 18 4 19 5 20 6 21 7 22 8 23 9 24 10 25 11
REMARK SMILES IDX 26 12 27 13 28 14 29 15 30 16 14 17 13 18 12 19 11 20 10 21
REMARK SMILES IDX 9 22 8 23 7 24 6 25 5 26 4 27 3 28 2 29 1 30
REMARK H PARENT
REMARK Flexibility Score: inf
ROOT
ATOM      1  C   UNL     1      30.992  -2.138 -35.023  1.00  0.00     0.000 C 
ENDROOT
BRANCH   1   2
ATOM      2  C   UNL     1      30.301  -1.323 -33.921  1.00  0.00     0.000 C 
BRANCH   2   3
ATOM      3  C   UNL     1      31.215  -0.247 -33.308  1.00  0.00     0.000 C 
BRANCH   3   4
ATOM      4  C   UNL     1      32.470   0.055 -34.156  1.00  0.00     0.000 C 
BRANCH   4   5
ATOM      5  C   UNL     1      33.116   1.401 -33.780  1.00  0.00     0.000 C 
BRANCH   5   6
ATOM      6  C   UNL     1      32.111   2.566 -33.803  1.00  0.00     0.000 C 
BRANCH   6   7
ATOM      7  C   UNL     1      32.515   3.708 -32.853  1.00  0.00     0.000 C 
BRANCH   7   8
ATOM      8  C   UNL     1      33.967   4.169 -33.057  1.00  0.00     0.000 C 
BRANCH   8   9
ATOM      9  C   UNL     1      34.611   4.707 -31.768  1.00  0.00     0.000 C 
BRANCH   9  10
ATOM     10  C   UNL     1      35.430   5.990 -31.994  1.00  0.00     0.000 C 
BRANCH  10  11
ATOM     11  C   UNL     1      35.174   7.096 -30.949  1.00  0.00     0.000 C 
BRANCH  11  12
ATOM     12  C   UNL     1      33.853   7.850 -31.187  1.00  0.00     0.006 C 
BRANCH  12  13
ATOM     13  C   UNL     1      33.033   8.011 -29.901  1.00  0.00     0.053 C 
BRANCH  13  14
ATOM     14  C   UNL     1      32.708   6.689 -29.273  1.00  0.00     0.041 C 
ATOM     15  O   UNL     1      33.211   6.372 -28.160  1.00  0.00    -0.550 OA
ATOM     16  O   UNL     1      31.852   5.801 -29.922  1.00  0.00    -0.550 OA
ENDBRANCH  13  14
ENDBRANCH  12  13
ENDBRANCH  11  12
ENDBRANCH  10  11
ENDBRANCH   9  10
ENDBRANCH   8   9
ENDBRANCH   7   8
ENDBRANCH   6   7
ENDBRANCH   5   6
ENDBRANCH   4   5
ENDBRANCH   3   4
ENDBRANCH   2   3
ENDBRANCH   1   2
BRANCH   1  17
ATOM     17  C   UNL     1      30.016  -3.137 -35.659  1.00  0.00     0.000 C 
BRANCH  17  18
ATOM     18  C   UNL     1      28.959  -2.457 -36.543  1.00  0.00     0.000 C 
BRANCH  18  19
ATOM     19  C   UNL     1      28.670  -3.250 -37.830  1.00  0.00     0.000 C 
BRANCH  19  20
ATOM     20  C   UNL     1      28.926  -2.435 -39.111  1.00  0.00     0.000 C 
BRANCH  20  21
ATOM     21  C   UNL     1      30.151  -2.871 -39.937  1.00  0.00     0.000 C 
BRANCH  21  22
ATOM     22  C   UNL     1      31.043  -3.886 -39.202  1.00  0.00    -0.000 C 
BRANCH  22  23
ATOM     23  C   UNL     1      32.347  -3.261 -38.669  1.00  0.00    -0.000 C 
BRANCH  23  24
ATOM     24  C   UNL     1      32.563  -1.779 -39.036  1.00  0.00    -0.000 C 
BRANCH  24  25
ATOM     25  C   UNL     1      32.942  -0.861 -37.858  1.00  0.00    -0.000 C 
BRANCH  25  26
ATOM     26  C   UNL     1      32.196   0.489 -37.815  1.00  0.00    -0.000 C 
BRANCH  26  27
ATOM     27  C   UNL     1      30.979   0.585 -38.750  1.00  0.00    -0.000 C 
BRANCH  27  28
ATOM     28  C   UNL     1      29.703   1.039 -38.019  1.00  0.00    -0.000 C 
BRANCH  28  29
ATOM     29  C   UNL     1      29.942   1.266 -36.519  1.00  0.00    -0.003 C 
ATOM     30  C   UNL     1      29.157   2.458 -35.971  1.00  0.00     0.004 C 
ENDBRANCH  28  29
ENDBRANCH  27  28
ENDBRANCH  26  27
ENDBRANCH  25  26
ENDBRANCH  24  25
ENDBRANCH  23  24
ENDBRANCH  22  23
ENDBRANCH  21  22
ENDBRANCH  20  21
ENDBRANCH  19  20
ENDBRANCH  18  19
ENDBRANCH  17  18
ENDBRANCH   1  17
TORSDOF 26
ENDMDL
MODEL 6
REMARK VINA RESULT:    -3.217      1.611      3.493
REMARK INTER + INTRA:         -13.270
REMARK INTER:                  -7.644
REMARK INTRA:                  -5.626
REMARK UNBOUND:                -5.163
REMARK SMILES CCCCCCCCCCCCCCCCCCCCCCCCCCCC(=O)[O-]
REMARK SMILES IDX 15 1 16 2 17 3 18 4 19 5 20 6 21 7 22 8 23 9 24 10 25 11
REMARK SMILES IDX 26 12 27 13 28 14 29 15 30 16 14 17 13 18 12 19 11 20 10 21
REMARK SMILES IDX 9 22 8 23 7 24 6 25 5 26 4 27 3 28 2 29 1 30
REMARK H PARENT
REMARK Flexibility Score: inf
ROOT
ATOM      1  C   UNL     1      33.500   0.176 -35.274  1.00  0.00     0.000 C 
ENDROOT
BRANCH   1   2
ATOM      2  C   UNL     1      32.236   0.054 -34.412  1.00  0.00     0.000 C 
BRANCH   2   3
ATOM      3  C   UNL     1      31.098   0.978 -34.881  1.00  0.00     0.000 C 
BRANCH   3   4
ATOM      4  C   UNL     1      29.975   0.240 -35.640  1.00  0.00     0.000 C 
BRANCH   4   5
ATOM      5  C   UNL     1      29.622   0.929 -36.971  1.00  0.00     0.000 C 
BRANCH   5   6
ATOM      6  C   UNL     1      28.864  -0.001 -37.935  1.00  0.00     0.000 C 
BRANCH   6   7
ATOM      7  C   UNL     1      28.643  -1.405 -37.344  1.00  0.00     0.000 C 
BRANCH   7   8
ATOM      8  C   UNL     1      28.100  -2.408 -38.375  1.00  0.00     0.000 C 
BRANCH   8   9
ATOM      9  C   UNL     1      28.169  -3.864 -37.886  1.00  0.00     0.000 C 
BRANCH   9  10
ATOM     10  C   UNL     1      27.519  -4.068 -36.506  1.00  0.00     0.000 C 
BRANCH  10  11
ATOM     11  C   UNL     1      25.977  -4.004 -36.520  1.00  0.00     0.000 C 
BRANCH  11  12
ATOM     12  C   UNL     1      25.372  -3.836 -35.114  1.00  0.00     0.006 C 
BRANCH  12  13
ATOM     13  C   UNL     1      25.895  -4.885 -34.125  1.00  0.00     0.053 C 
BRANCH  13  14
ATOM     14  C   UNL     1      25.196  -4.807 -32.801  1.00  0.00     0.041 C 
ATOM     15  O   UNL     1      25.863  -4.761 -31.731  1.00  0.00    -0.550 OA
ATOM     16  O   UNL     1      23.804  -4.791 -32.748  1.00  0.00    -0.550 OA
ENDBRANCH  13  14
ENDBRANCH  12  13
ENDBRANCH  11  12
ENDBRANCH  10  11
ENDBRANCH   9  10
ENDBRANCH   8   9
ENDBRANCH   7   8
ENDBRANCH   6   7
ENDBRANCH   5   6
ENDBRANCH   4   5
ENDBRANCH   3   4
ENDBRANCH   2   3
ENDBRANCH   1   2
BRANCH   1  17
ATOM     17  C   UNL     1      33.490  -0.858 -36.408  1.00  0.00     0.000 C 
BRANCH  17  18
ATOM     18  C   UNL     1      33.116  -0.248 -37.769  1.00  0.00     0.000 C 
BRANCH  18  19
ATOM     19  C   UNL     1      32.248  -1.194 -38.618  1.00  0.00     0.000 C 
BRANCH  19  20
ATOM     20  C   UNL     1      32.727  -2.657 -38.570  1.00  0.00     0.000 C 
BRANCH  20  21
ATOM     21  C   UNL     1      31.680  -3.679 -38.087  1.00  0.00     0.000 C 
BRANCH  21  22
ATOM     22  C   UNL     1      32.266  -4.740 -37.140  1.00  0.00    -0.000 C 
BRANCH  22  23
ATOM     23  C   UNL     1      32.064  -4.392 -35.653  1.00  0.00    -0.000 C 
BRANCH  23  24
ATOM     24  C   UNL     1      30.969  -3.345 -35.366  1.00  0.00    -0.000 C 
BRANCH  24  25
ATOM     25  C   UNL     1      30.564  -3.209 -33.886  1.00  0.00    -0.000 C 
BRANCH  25  26
ATOM     26  C   UNL     1      29.064  -2.945 -33.641  1.00  0.00    -0.000 C 
BRANCH  26  27
ATOM     27  C   UNL     1      28.740  -2.227 -32.319  1.00  0.00    -0.000 C 
BRANCH  27  28
ATOM     28  C   UNL     1      28.371  -0.747 -32.524  1.00  0.00    -0.000 C 
BRANCH  28  29
ATOM     29  C   UNL     1      27.097  -0.576 -33.364  1.00  0.00    -0.003 C 
ATOM     30  C   UNL     1      25.854  -1.141 -32.673  1.00  0.00     0.004 C 
ENDBRANCH  28  29
ENDBRANCH  27  28
ENDBRANCH  26  27
ENDBRANCH  25  26
ENDBRANCH  24  25
ENDBRANCH  23  24
ENDBRANCH  22  23
ENDBRANCH  21  22
ENDBRANCH  20  21
ENDBRANCH  19  20
ENDBRANCH  18  19
ENDBRANCH  17  18
ENDBRANCH   1  17
TORSDOF 26
ENDMDL
MODEL 7
REMARK VINA RESULT:    -3.200      1.742      2.935
REMARK INTER + INTRA:         -13.227
REMARK INTER:                  -7.380
REMARK INTRA:                  -5.847
REMARK UNBOUND:                -5.163
REMARK SMILES CCCCCCCCCCCCCCCCCCCCCCCCCCCC(=O)[O-]
REMARK SMILES IDX 15 1 16 2 17 3 18 4 19 5 20 6 21 7 22 8 23 9 24 10 25 11
REMARK SMILES IDX 26 12 27 13 28 14 29 15 30 16 14 17 13 18 12 19 11 20 10 21
REMARK SMILES IDX 9 22 8 23 7 24 6 25 5 26 4 27 3 28 2 29 1 30
REMARK H PARENT
REMARK Flexibility Score: inf
ROOT
ATOM      1  C   UNL     1      28.270   1.939 -35.582  1.00  0.00     0.000 C 
ENDROOT
BRANCH   1   2
ATOM      2  C   UNL     1      27.416   2.848 -36.477  1.00  0.00     0.000 C 
BRANCH   2   3
ATOM      3  C   UNL     1      28.258   3.717 -37.428  1.00  0.00     0.000 C 
BRANCH   3   4
ATOM      4  C   UNL     1      27.909   3.522 -38.919  1.00  0.00     0.000 C 
BRANCH   4   5
ATOM      5  C   UNL     1      29.034   2.810 -39.692  1.00  0.00     0.000 C 
BRANCH   5   6
ATOM      6  C   UNL     1      28.649   1.381 -40.114  1.00  0.00     0.000 C 
BRANCH   6   7
ATOM      7  C   UNL     1      27.202   1.026 -39.729  1.00  0.00     0.000 C 
BRANCH   7   8
ATOM      8  C   UNL     1      27.027  -0.459 -39.369  1.00  0.00     0.000 C 
BRANCH   8   9
ATOM      9  C   UNL     1      26.345  -0.667 -38.006  1.00  0.00     0.000 C 
BRANCH   9  10
ATOM     10  C   UNL     1      27.233  -1.413 -36.996  1.00  0.00     0.000 C 
BRANCH  10  11
ATOM     11  C   UNL     1      27.347  -2.930 -37.255  1.00  0.00     0.000 C 
BRANCH  11  12
ATOM     12  C   UNL     1      28.095  -3.675 -36.134  1.00  0.00     0.006 C 
BRANCH  12  13
ATOM     13  C   UNL     1      27.426  -3.492 -34.766  1.00  0.00     0.053 C 
BRANCH  13  14
ATOM     14  C   UNL     1      26.119  -4.220 -34.678  1.00  0.00     0.041 C 
ATOM     15  O   UNL     1      25.043  -3.636 -34.983  1.00  0.00    -0.550 OA
ATOM     16  O   UNL     1      26.087  -5.547 -34.252  1.00  0.00    -0.550 OA
ENDBRANCH  13  14
ENDBRANCH  12  13
ENDBRANCH  11  12
ENDBRANCH  10  11
ENDBRANCH   9  10
ENDBRANCH   8   9
ENDBRANCH   7   8
ENDBRANCH   6   7
ENDBRANCH   5   6
ENDBRANCH   4   5
ENDBRANCH   3   4
ENDBRANCH   2   3
ENDBRANCH   1   2
BRANCH   1  17
ATOM     17  C   UNL     1      29.737   1.955 -36.029  1.00  0.00     0.000 C 
BRANCH  17  18
ATOM     18  C   UNL     1      30.192   0.616 -36.633  1.00  0.00     0.000 C 
BRANCH  18  19
ATOM     19  C   UNL     1      31.389   0.777 -37.586  1.00  0.00     0.000 C 
BRANCH  19  20
ATOM     20  C   UNL     1      31.455  -0.324 -38.661  1.00  0.00     0.000 C 
BRANCH  20  21
ATOM     21  C   UNL     1      30.491  -1.507 -38.455  1.00  0.00     0.000 C 
BRANCH  21  22
ATOM     22  C   UNL     1      30.251  -2.320 -39.739  1.00  0.00    -0.000 C 
BRANCH  22  23
ATOM     23  C   UNL     1      30.958  -3.688 -39.721  1.00  0.00    -0.000 C 
BRANCH  23  24
ATOM     24  C   UNL     1      30.685  -4.553 -38.474  1.00  0.00    -0.000 C 
BRANCH  24  25
ATOM     25  C   UNL     1      31.922  -4.870 -37.612  1.00  0.00    -0.000 C 
BRANCH  25  26
ATOM     26  C   UNL     1      33.199  -4.090 -37.991  1.00  0.00    -0.000 C 
BRANCH  26  27
ATOM     27  C   UNL     1      33.980  -3.511 -36.799  1.00  0.00    -0.000 C 
BRANCH  27  28
ATOM     28  C   UNL     1      33.383  -2.189 -36.286  1.00  0.00    -0.000 C 
BRANCH  28  29
ATOM     29  C   UNL     1      32.815  -2.320 -34.865  1.00  0.00    -0.003 C 
ATOM     30  C   UNL     1      31.292  -2.186 -34.824  1.00  0.00     0.004 C 
ENDBRANCH  28  29
ENDBRANCH  27  28
ENDBRANCH  26  27
ENDBRANCH  25  26
ENDBRANCH  24  25
ENDBRANCH  23  24
ENDBRANCH  22  23
ENDBRANCH  21  22
ENDBRANCH  20  21
ENDBRANCH  19  20
ENDBRANCH  18  19
ENDBRANCH  17  18
ENDBRANCH   1  17
TORSDOF 26
ENDMDL
MODEL 8
REMARK VINA RESULT:    -3.177      1.640      3.603
REMARK INTER + INTRA:         -13.169
REMARK INTER:                  -7.915
REMARK INTRA:                  -5.253
REMARK UNBOUND:                -5.163
REMARK SMILES CCCCCCCCCCCCCCCCCCCCCCCCCCCC(=O)[O-]
REMARK SMILES IDX 15 1 16 2 17 3 18 4 19 5 20 6 21 7 22 8 23 9 24 10 25 11
REMARK SMILES IDX 26 12 27 13 28 14 29 15 30 16 14 17 13 18 12 19 11 20 10 21
REMARK SMILES IDX 9 22 8 23 7 24 6 25 5 26 4 27 3 28 2 29 1 30
REMARK H PARENT
REMARK Flexibility Score: inf
ROOT
ATOM      1  C   UNL     1      31.399   0.750 -34.111  1.00  0.00     0.000 C 
ENDROOT
BRANCH   1   2
ATOM      2  C   UNL     1      30.536   1.198 -35.298  1.00  0.00     0.000 C 
BRANCH   2   3
ATOM      3  C   UNL     1      29.271   0.340 -35.478  1.00  0.00     0.000 C 
BRANCH   3   4
ATOM      4  C   UNL     1      29.330  -1.013 -34.736  1.00  0.00     0.000 C 
BRANCH   4   5
ATOM      5  C   UNL     1      29.395  -2.207 -35.705  1.00  0.00     0.000 C 
BRANCH   5   6
ATOM      6  C   UNL     1      28.241  -2.205 -36.722  1.00  0.00     0.000 C 
BRANCH   6   7
ATOM      7  C   UNL     1      28.340  -3.371 -37.723  1.00  0.00     0.000 C 
BRANCH   7   8
ATOM      8  C   UNL     1      27.659  -4.653 -37.216  1.00  0.00     0.000 C 
BRANCH   8   9
ATOM      9  C   UNL     1      26.407  -4.369 -36.369  1.00  0.00     0.000 C 
BRANCH   9  10
ATOM     10  C   UNL     1      26.395  -5.140 -35.037  1.00  0.00     0.000 C 
BRANCH  10  11
ATOM     11  C   UNL     1      26.030  -4.276 -33.811  1.00  0.00     0.000 C 
BRANCH  11  12
ATOM     12  C   UNL     1      24.727  -4.726 -33.127  1.00  0.00     0.006 C 
BRANCH  12  13
ATOM     13  C   UNL     1      23.555  -3.783 -33.428  1.00  0.00     0.053 C 
BRANCH  13  14
ATOM     14  C   UNL     1      23.387  -2.740 -32.364  1.00  0.00     0.041 C 
ATOM     15  O   UNL     1      22.395  -1.962 -32.387  1.00  0.00    -0.550 OA
ATOM     16  O   UNL     1      24.333  -2.623 -31.347  1.00  0.00    -0.550 OA
ENDBRANCH  13  14
ENDBRANCH  12  13
ENDBRANCH  11  12
ENDBRANCH  10  11
ENDBRANCH   9  10
ENDBRANCH   8   9
ENDBRANCH   7   8
ENDBRANCH   6   7
ENDBRANCH   5   6
ENDBRANCH   4   5
ENDBRANCH   3   4
ENDBRANCH   2   3
ENDBRANCH   1   2
BRANCH   1  17
ATOM     17  C   UNL     1      32.831   0.436 -34.564  1.00  0.00     0.000 C 
BRANCH  17  18
ATOM     18  C   UNL     1      33.057  -1.060 -34.835  1.00  0.00     0.000 C 
BRANCH  18  19
ATOM     19  C   UNL     1      33.058  -1.392 -36.338  1.00  0.00     0.000 C 
BRANCH  19  20
ATOM     20  C   UNL     1      33.445  -0.191 -37.220  1.00  0.00     0.000 C 
BRANCH  20  21
ATOM     21  C   UNL     1      32.401   0.217 -38.276  1.00  0.00     0.000 C 
BRANCH  21  22
ATOM     22  C   UNL     1      31.332  -0.863 -38.514  1.00  0.00    -0.000 C 
BRANCH  22  23
ATOM     23  C   UNL     1      30.049  -0.303 -39.157  1.00  0.00    -0.000 C 
BRANCH  23  24
ATOM     24  C   UNL     1      29.983   1.234 -39.262  1.00  0.00    -0.000 C 
BRANCH  24  25
ATOM     25  C   UNL     1      28.577   1.815 -39.505  1.00  0.00    -0.000 C 
BRANCH  25  26
ATOM     26  C   UNL     1      27.660   1.847 -38.264  1.00  0.00    -0.000 C 
BRANCH  26  27
ATOM     27  C   UNL     1      26.596   0.737 -38.218  1.00  0.00    -0.000 C 
BRANCH  27  28
ATOM     28  C   UNL     1      25.729   0.801 -36.948  1.00  0.00    -0.000 C 
BRANCH  28  29
ATOM     29  C   UNL     1      25.103  -0.558 -36.602  1.00  0.00    -0.003 C 
ATOM     30  C   UNL     1      25.270  -0.925 -35.126  1.00  0.00     0.004 C 
ENDBRANCH  28  29
ENDBRANCH  27  28
ENDBRANCH  26  27
ENDBRANCH  25  26
ENDBRANCH  24  25
ENDBRANCH  23  24
ENDBRANCH  22  23
ENDBRANCH  21  22
ENDBRANCH  20  21
ENDBRANCH  19  20
ENDBRANCH  18  19
ENDBRANCH  17  18
ENDBRANCH   1  17
TORSDOF 26
ENDMDL
MODEL 9
REMARK VINA RESULT:    -3.159      2.384      4.973
REMARK INTER + INTRA:         -13.122
REMARK INTER:                  -8.373
REMARK INTRA:                  -4.750
REMARK UNBOUND:                -5.163
REMARK SMILES CCCCCCCCCCCCCCCCCCCCCCCCCCCC(=O)[O-]
REMARK SMILES IDX 15 1 16 2 17 3 18 4 19 5 20 6 21 7 22 8 23 9 24 10 25 11
REMARK SMILES IDX 26 12 27 13 28 14 29 15 30 16 14 17 13 18 12 19 11 20 10 21
REMARK SMILES IDX 9 22 8 23 7 24 6 25 5 26 4 27 3 28 2 29 1 30
REMARK H PARENT
REMARK Flexibility Score: inf
ROOT
ATOM      1  C   UNL     1      30.926   0.520 -38.495  1.00  0.00     0.000 C 
ENDROOT
BRANCH   1   2
ATOM      2  C   UNL     1      30.060   0.866 -37.277  1.00  0.00     0.000 C 
BRANCH   2   3
ATOM      3  C   UNL     1      28.638   0.282 -37.367  1.00  0.00     0.000 C 
BRANCH   3   4
ATOM      4  C   UNL     1      28.571  -1.233 -37.074  1.00  0.00     0.000 C 
BRANCH   4   5
ATOM      5  C   UNL     1      27.944  -2.024 -38.237  1.00  0.00     0.000 C 
BRANCH   5   6
ATOM      6  C   UNL     1      28.257  -3.528 -38.164  1.00  0.00     0.000 C 
BRANCH   6   7
ATOM      7  C   UNL     1      28.129  -4.086 -36.735  1.00  0.00     0.000 C 
BRANCH   7   8
ATOM      8  C   UNL     1      26.760  -4.731 -36.466  1.00  0.00     0.000 C 
BRANCH   8   9
ATOM      9  C   UNL     1      26.294  -4.562 -35.010  1.00  0.00     0.000 C 
BRANCH   9  10
ATOM     10  C   UNL     1      25.907  -3.113 -34.667  1.00  0.00     0.000 C 
BRANCH  10  11
ATOM     11  C   UNL     1      24.953  -2.456 -35.687  1.00  0.00     0.000 C 
BRANCH  11  12
ATOM     12  C   UNL     1      25.105  -0.925 -35.749  1.00  0.00     0.006 C 
BRANCH  12  13
ATOM     13  C   UNL     1      24.747  -0.359 -37.129  1.00  0.00     0.053 C 
BRANCH  13  14
ATOM     14  C   UNL     1      23.271  -0.142 -37.280  1.00  0.00     0.041 C 
ATOM     15  O   UNL     1      22.501  -1.120 -37.483  1.00  0.00    -0.550 OA
ATOM     16  O   UNL     1      22.745   1.147 -37.205  1.00  0.00    -0.550 OA
ENDBRANCH  13  14
ENDBRANCH  12  13
ENDBRANCH  11  12
ENDBRANCH  10  11
ENDBRANCH   9  10
ENDBRANCH   8   9
ENDBRANCH   7   8
ENDBRANCH   6   7
ENDBRANCH   5   6
ENDBRANCH   4   5
ENDBRANCH   3   4
ENDBRANCH   2   3
ENDBRANCH   1   2
BRANCH   1  17
ATOM     17  C   UNL     1      32.345   0.126 -38.064  1.00  0.00     0.000 C 
BRANCH  17  18
ATOM     18  C   UNL     1      32.793  -1.223 -38.649  1.00  0.00     0.000 C 
BRANCH  18  19
ATOM     19  C   UNL     1      31.604  -2.118 -39.043  1.00  0.00     0.000 C 
BRANCH  19  20
ATOM     20  C   UNL     1      31.987  -3.603 -39.182  1.00  0.00     0.000 C 
BRANCH  20  21
ATOM     21  C   UNL     1      32.677  -4.224 -37.953  1.00  0.00     0.000 C 
BRANCH  21  22
ATOM     22  C   UNL     1      31.682  -4.700 -36.880  1.00  0.00    -0.000 C 
BRANCH  22  23
ATOM     23  C   UNL     1      31.916  -4.036 -35.510  1.00  0.00    -0.000 C 
BRANCH  23  24
ATOM     24  C   UNL     1      31.439  -2.574 -35.398  1.00  0.00    -0.000 C 
BRANCH  24  25
ATOM     25  C   UNL     1      32.452  -1.600 -34.767  1.00  0.00    -0.000 C 
BRANCH  25  26
ATOM     26  C   UNL     1      31.835  -0.331 -34.142  1.00  0.00    -0.000 C 
BRANCH  26  27
ATOM     27  C   UNL     1      32.529   0.985 -34.533  1.00  0.00    -0.000 C 
BRANCH  27  28
ATOM     28  C   UNL     1      33.137   1.717 -33.324  1.00  0.00    -0.000 C 
BRANCH  28  29
ATOM     29  C   UNL     1      32.828   3.221 -33.339  1.00  0.00    -0.003 C 
ATOM     30  C   UNL     1      34.041   4.075 -32.966  1.00  0.00     0.004 C 
ENDBRANCH  28  29
ENDBRANCH  27  28
ENDBRANCH  26  27
ENDBRANCH  25  26
ENDBRANCH  24  25
ENDBRANCH  23  24
ENDBRANCH  22  23
ENDBRANCH  21  22
ENDBRANCH  20  21
ENDBRANCH  19  20
ENDBRANCH  18  19
ENDBRANCH  17  18
ENDBRANCH   1  17
TORSDOF 26
ENDMDL
