MODEL 1
REMARK VINA RESULT:    -4.904      0.000      0.000
REMARK INTER + INTRA:          -8.510
REMARK INTER:                  -7.770
REMARK INTRA:                  -0.740
REMARK UNBOUND:                -0.740
REMARK SMILES CCCCCCCCCCCC(=O)[O-]
REMARK SMILES IDX 7 1 8 2 9 3 10 4 11 5 12 6 13 7 14 8 6 9 5 10 4 11 3 12 2 13
REMARK SMILES IDX 1 14
REMARK H PARENT
REMARK Flexibility Score: inf
ROOT
ATOM      1  C   UNL     1      51.041  22.111  52.856  1.00  0.00     0.000 C 
ENDROOT
BRANCH   1   2
ATOM      2  C   UNL     1      50.304  23.206  52.063  1.00  0.00     0.000 C 
BRANCH   2   3
ATOM      3  C   UNL     1      48.788  23.289  52.316  1.00  0.00     0.000 C 
BRANCH   3   4
ATOM      4  C   UNL     1      48.105  21.911  52.331  1.00  0.00     0.006 C 
BRANCH   4   5
ATOM      5  C   UNL     1      47.767  21.417  50.918  1.00  0.00     0.053 C 
BRANCH   5   6
ATOM      6  C   UNL     1      47.601  19.928  50.872  1.00  0.00     0.041 C 
ATOM      7  O   UNL     1      46.573  19.391  51.360  1.00  0.00    -0.550 OA
ATOM      8  O   UNL     1      48.570  19.138  50.267  1.00  0.00    -0.550 OA
ENDBRANCH   5   6
ENDBRANCH   4   5
ENDBRANCH   3   4
ENDBRANCH   2   3
ENDBRANCH   1   2
BRANCH   1   9
ATOM      9  C   UNL     1      52.040  21.319  51.999  1.00  0.00     0.000 C 
BRANCH   9  10
ATOM     10  C   UNL     1      51.390  20.850  50.689  1.00  0.00    -0.000 C 
BRANCH  10  11
ATOM     11  C   UNL     1      52.419  20.495  49.601  1.00  0.00    -0.000 C 
BRANCH  11  12
ATOM     12  C   UNL     1      53.892  20.611  50.034  1.00  0.00    -0.000 C 
BRANCH  12  13
ATOM     13  C   UNL     1      54.874  20.166  48.942  1.00  0.00    -0.003 C 
ATOM     14  C   UNL     1      55.174  21.306  47.972  1.00  0.00     0.004 C 
ENDBRANCH  12  13
ENDBRANCH  11  12
ENDBRANCH  10  11
ENDBRANCH   9  10
ENDBRANCH   1   9
TORSDOF 10
ENDMDL
MODEL 2
REMARK VINA RESULT:    -4.837      2.290      3.153
REMARK INTER + INTRA:          -8.405
REMARK INTER:                  -7.543
REMARK INTRA:                  -0.862
REMARK UNBOUND:                -0.740
REMARK SMILES CCCCCCCCCCCC(=O)[O-]
REMARK SMILES IDX 7 1 8 2 9 3 10 4 11 5 12 6 13 7 14 8 6 9 5 10 4 11 3 12 2 13
REMARK SMILES IDX 1 14
REMARK H PARENT
REMARK Flexibility Score: inf
ROOT
ATOM      1  C   UNL     1      49.207  19.307  50.108  1.00  0.00     0.000 C 
ENDROOT
BRANCH   1   2
ATOM      2  C   UNL     1      48.543  20.681  49.901  1.00  0.00     0.000 C 
BRANCH   2   3
ATOM      3  C   UNL     1      47.570  21.111  51.014  1.00  0.00     0.000 C 
BRANCH   3   4
ATOM      4  C   UNL     1      48.044  22.359  51.776  1.00  0.00     0.006 C 
BRANCH   4   5
ATOM      5  C   UNL     1      48.963  22.005  52.954  1.00  0.00     0.053 C 
BRANCH   5   6
ATOM      6  C   UNL     1      50.314  22.637  52.816  1.00  0.00     0.041 C 
ATOM      7  O   UNL     1      51.306  22.145  53.414  1.00  0.00    -0.550 OA
ATOM      8  O   UNL     1      50.482  23.752  52.006  1.00  0.00    -0.550 OA
ENDBRANCH   5   6
ENDBRANCH   4   5
ENDBRANCH   3   4
ENDBRANCH   2   3
ENDBRANCH   1   2
BRANCH   1   9
ATOM      9  C   UNL     1      50.738  19.389  50.209  1.00  0.00     0.000 C 
BRANCH   9  10
ATOM     10  C   UNL     1      51.230  20.821  49.955  1.00  0.00    -0.000 C 
BRANCH  10  11
ATOM     11  C   UNL     1      52.764  20.936  49.943  1.00  0.00    -0.000 C 
BRANCH  11  12
ATOM     12  C   UNL     1      53.492  19.872  49.102  1.00  0.00    -0.000 C 
BRANCH  12  13
ATOM     13  C   UNL     1      54.990  20.161  48.935  1.00  0.00    -0.003 C 
ATOM     14  C   UNL     1      55.219  21.390  48.061  1.00  0.00     0.004 C 
ENDBRANCH  12  13
ENDBRANCH  11  12
ENDBRANCH  10  11
ENDBRANCH   9  10
ENDBRANCH   1   9
TORSDOF 10
ENDMDL
MODEL 3
REMARK VINA RESULT:    -4.815      1.953      2.887
REMARK INTER + INTRA:          -8.369
REMARK INTER:                  -7.894
REMARK INTRA:                  -0.476
REMARK UNBOUND:                -0.740
REMARK SMILES CCCCCCCCCCCC(=O)[O-]
REMARK SMILES IDX 7 1 8 2 9 3 10 4 11 5 12 6 13 7 14 8 6 9 5 10 4 11 3 12 2 13
REMARK SMILES IDX 1 14
REMARK H PARENT
REMARK Flexibility Score: inf
ROOT
ATOM      1  C   UNL     1      51.018  20.767  49.895  1.00  0.00     0.000 C 
ENDROOT
BRANCH   1   2
ATOM      2  C   UNL     1      49.818  19.895  50.309  1.00  0.00     0.000 C 
BRANCH   2   3
ATOM      3  C   UNL     1      48.438  20.458  49.925  1.00  0.00     0.000 C 
BRANCH   3   4
ATOM      4  C   UNL     1      47.671  21.038  51.124  1.00  0.00     0.006 C 
BRANCH   4   5
ATOM      5  C   UNL     1      48.417  22.209  51.779  1.00  0.00     0.053 C 
BRANCH   5   6
ATOM      6  C   UNL     1      47.761  22.647  53.052  1.00  0.00     0.041 C 
ATOM      7  O   UNL     1      47.431  23.851  53.212  1.00  0.00    -0.550 OA
ATOM      8  O   UNL     1      47.491  21.720  54.051  1.00  0.00    -0.550 OA
ENDBRANCH   5   6
ENDBRANCH   4   5
ENDBRANCH   3   4
ENDBRANCH   2   3
ENDBRANCH   1   2
BRANCH   1   9
ATOM      9  C   UNL     1      52.001  21.021  51.048  1.00  0.00     0.000 C 
BRANCH   9  10
ATOM     10  C   UNL     1      53.455  20.928  50.562  1.00  0.00    -0.000 C 
BRANCH  10  11
ATOM     11  C   UNL     1      53.608  20.080  49.287  1.00  0.00    -0.000 C 
BRANCH  11  12
ATOM     12  C   UNL     1      54.968  20.211  48.576  1.00  0.00    -0.000 C 
BRANCH  12  13
ATOM     13  C   UNL     1      55.351  21.667  48.278  1.00  0.00    -0.003 C 
ATOM     14  C   UNL     1      56.027  21.789  46.915  1.00  0.00     0.004 C 
ENDBRANCH  12  13
ENDBRANCH  11  12
ENDBRANCH  10  11
ENDBRANCH   9  10
ENDBRANCH   1   9
TORSDOF 10
ENDMDL
MODEL 4
REMARK VINA RESULT:    -4.796      2.311      3.031
REMARK INTER + INTRA:          -8.340
REMARK INTER:                  -7.866
REMARK INTRA:                  -0.473
REMARK UNBOUND:                -0.740
REMARK SMILES CCCCCCCCCCCC(=O)[O-]
REMARK SMILES IDX 7 1 8 2 9 3 10 4 11 5 12 6 13 7 14 8 6 9 5 10 4 11 3 12 2 13
REMARK SMILES IDX 1 14
REMARK H PARENT
REMARK Flexibility Score: inf
ROOT
ATOM      1  C   UNL     1      49.306  19.330  49.831  1.00  0.00     0.000 C 
ENDROOT
BRANCH   1   2
ATOM      2  C   UNL     1      48.479  20.625  49.936  1.00  0.00     0.000 C 
BRANCH   2   3
ATOM      3  C   UNL     1      47.409  20.629  51.043  1.00  0.00     0.000 C 
BRANCH   3   4
ATOM      4  C   UNL     1      46.191  19.754  50.704  1.00  0.00     0.006 C 
BRANCH   4   5
ATOM      5  C   UNL     1      45.959  18.654  51.750  1.00  0.00     0.053 C 
BRANCH   5   6
ATOM      6  C   UNL     1      44.743  17.836  51.437  1.00  0.00     0.041 C 
ATOM      7  O   UNL     1      44.825  16.581  51.372  1.00  0.00    -0.550 OA
ATOM      8  O   UNL     1      43.516  18.457  51.245  1.00  0.00    -0.550 OA
ENDBRANCH   5   6
ENDBRANCH   4   5
ENDBRANCH   3   4
ENDBRANCH   2   3
ENDBRANCH   1   2
BRANCH   1   9
ATOM      9  C   UNL     1      50.757  19.504  50.303  1.00  0.00     0.000 C 
BRANCH   9  10
ATOM     10  C   UNL     1      51.264  20.924  50.009  1.00  0.00    -0.000 C 
BRANCH  10  11
ATOM     11  C   UNL     1      52.799  21.010  49.933  1.00  0.00    -0.000 C 
BRANCH  11  12
ATOM     12  C   UNL     1      53.484  19.832  49.216  1.00  0.00    -0.000 C 
BRANCH  12  13
ATOM     13  C   UNL     1      54.964  20.096  48.907  1.00  0.00    -0.003 C 
ATOM     14  C   UNL     1      55.137  21.380  48.101  1.00  0.00     0.004 C 
ENDBRANCH  12  13
ENDBRANCH  11  12
ENDBRANCH  10  11
ENDBRANCH   9  10
ENDBRANCH   1   9
TORSDOF 10
ENDMDL
MODEL 5
REMARK VINA RESULT:    -4.707      2.126      2.933
REMARK INTER + INTRA:          -8.199
REMARK INTER:                  -7.572
REMARK INTRA:                  -0.627
REMARK UNBOUND:                -0.740
REMARK SMILES CCCCCCCCCCCC(=O)[O-]
REMARK SMILES IDX 7 1 8 2 9 3 10 4 11 5 12 6 13 7 14 8 6 9 5 10 4 11 3 12 2 13
REMARK SMILES IDX 1 14
REMARK H PARENT
REMARK Flexibility Score: inf
ROOT
ATOM      1  C   UNL     1      49.029  19.567  50.313  1.00  0.00     0.000 C 
ENDROOT
BRANCH   1   2
ATOM      2  C   UNL     1      48.239  20.888  50.274  1.00  0.00     0.000 C 
BRANCH   2   3
ATOM      3  C   UNL     1      47.604  21.311  51.611  1.00  0.00     0.000 C 
BRANCH   3   4
ATOM      4  C   UNL     1      48.184  22.624  52.163  1.00  0.00     0.006 C 
BRANCH   4   5
ATOM      5  C   UNL     1      47.741  22.891  53.608  1.00  0.00     0.053 C 
BRANCH   5   6
ATOM      6  C   UNL     1      48.242  21.839  54.549  1.00  0.00     0.041 C 
ATOM      7  O   UNL     1      47.429  21.139  55.207  1.00  0.00    -0.550 OA
ATOM      8  O   UNL     1      49.606  21.613  54.678  1.00  0.00    -0.550 OA
ENDBRANCH   5   6
ENDBRANCH   4   5
ENDBRANCH   3   4
ENDBRANCH   2   3
ENDBRANCH   1   2
BRANCH   1   9
ATOM      9  C   UNL     1      50.525  19.754  50.018  1.00  0.00     0.000 C 
BRANCH   9  10
ATOM     10  C   UNL     1      51.205  20.577  51.123  1.00  0.00    -0.000 C 
BRANCH  10  11
ATOM     11  C   UNL     1      52.631  21.019  50.751  1.00  0.00    -0.000 C 
BRANCH  11  12
ATOM     12  C   UNL     1      53.076  20.654  49.323  1.00  0.00    -0.000 C 
BRANCH  12  13
ATOM     13  C   UNL     1      54.581  20.371  49.218  1.00  0.00    -0.003 C 
ATOM     14  C   UNL     1      55.236  21.262  48.166  1.00  0.00     0.004 C 
ENDBRANCH  12  13
ENDBRANCH  11  12
ENDBRANCH  10  11
ENDBRANCH   9  10
ENDBRANCH   1   9
TORSDOF 10
ENDMDL
MODEL 6
REMARK VINA RESULT:    -4.678      4.807      6.188
REMARK INTER + INTRA:          -8.152
REMARK INTER:                  -7.558
REMARK INTRA:                  -0.595
REMARK UNBOUND:                -0.740
REMARK SMILES CCCCCCCCCCCC(=O)[O-]
REMARK SMILES IDX 7 1 8 2 9 3 10 4 11 5 12 6 13 7 14 8 6 9 5 10 4 11 3 12 2 13
REMARK SMILES IDX 1 14
REMARK H PARENT
REMARK Flexibility Score: inf
ROOT
ATOM      1  C   UNL     1      51.307  20.829  53.559  1.00  0.00     0.000 C 
ENDROOT
BRANCH   1   2
ATOM      2  C   UNL     1      52.306  20.701  54.724  1.00  0.00     0.000 C 
BRANCH   2   3
ATOM      3  C   UNL     1      53.739  21.169  54.410  1.00  0.00     0.000 C 
BRANCH   3   4
ATOM      4  C   UNL     1      54.256  22.225  55.401  1.00  0.00     0.006 C 
BRANCH   4   5
ATOM      5  C   UNL     1      54.885  23.430  54.687  1.00  0.00     0.053 C 
BRANCH   5   6
ATOM      6  C   UNL     1      56.312  23.637  55.095  1.00  0.00     0.041 C 
ATOM      7  O   UNL     1      56.802  22.970  56.043  1.00  0.00    -0.550 OA
ATOM      8  O   UNL     1      57.107  24.547  54.411  1.00  0.00    -0.550 OA
ENDBRANCH   5   6
ENDBRANCH   4   5
ENDBRANCH   3   4
ENDBRANCH   2   3
ENDBRANCH   1   2
BRANCH   1   9
ATOM      9  C   UNL     1      51.964  21.296  52.252  1.00  0.00     0.000 C 
BRANCH   9  10
ATOM     10  C   UNL     1      51.241  20.705  51.032  1.00  0.00    -0.000 C 
BRANCH  10  11
ATOM     11  C   UNL     1      52.122  20.670  49.771  1.00  0.00    -0.000 C 
BRANCH  11  12
ATOM     12  C   UNL     1      53.634  20.812  50.027  1.00  0.00    -0.000 C 
BRANCH  12  13
ATOM     13  C   UNL     1      54.491  20.206  48.907  1.00  0.00    -0.003 C 
ATOM     14  C   UNL     1      55.202  21.296  48.108  1.00  0.00     0.004 C 
ENDBRANCH  12  13
ENDBRANCH  11  12
ENDBRANCH  10  11
ENDBRANCH   9  10
ENDBRANCH   1   9
TORSDOF 10
ENDMDL
MODEL 7
REMARK VINA RESULT:    -4.567      3.380      6.179
REMARK INTER + INTRA:          -7.977
REMARK INTER:                  -7.025
REMARK INTRA:                  -0.952
REMARK UNBOUND:                -0.740
REMARK SMILES CCCCCCCCCCCC(=O)[O-]
REMARK SMILES IDX 7 1 8 2 9 3 10 4 11 5 12 6 13 7 14 8 6 9 5 10 4 11 3 12 2 13
REMARK SMILES IDX 1 14
REMARK H PARENT
REMARK Flexibility Score: inf
ROOT
ATOM      1  C   UNL     1      50.280  19.583  50.434  1.00  0.00     0.000 C 
ENDROOT
BRANCH   1   2
ATOM      2  C   UNL     1      50.958  20.874  49.937  1.00  0.00     0.000 C 
BRANCH   2   3
ATOM      3  C   UNL     1      51.978  21.493  50.910  1.00  0.00     0.000 C 
BRANCH   3   4
ATOM      4  C   UNL     1      53.420  21.032  50.643  1.00  0.00     0.006 C 
BRANCH   4   5
ATOM      5  C   UNL     1      53.555  20.301  49.300  1.00  0.00     0.053 C 
BRANCH   5   6
ATOM      6  C   UNL     1      54.930  20.446  48.722  1.00  0.00     0.041 C 
ATOM      7  O   UNL     1      55.216  21.445  48.012  1.00  0.00    -0.550 OA
ATOM      8  O   UNL     1      55.902  19.491  48.989  1.00  0.00    -0.550 OA
ENDBRANCH   5   6
ENDBRANCH   4   5
ENDBRANCH   3   4
ENDBRANCH   2   3
ENDBRANCH   1   2
BRANCH   1   9
ATOM      9  C   UNL     1      48.759  19.582  50.216  1.00  0.00     0.000 C 
BRANCH   9  10
ATOM     10  C   UNL     1      48.190  21.006  50.311  1.00  0.00    -0.000 C 
BRANCH  10  11
ATOM     11  C   UNL     1      47.862  21.427  51.754  1.00  0.00    -0.000 C 
BRANCH  11  12
ATOM     12  C   UNL     1      48.061  22.923  52.059  1.00  0.00    -0.000 C 
BRANCH  12  13
ATOM     13  C   UNL     1      49.058  23.175  53.198  1.00  0.00    -0.003 C 
ATOM     14  C   UNL     1      49.618  21.862  53.740  1.00  0.00     0.004 C 
ENDBRANCH  12  13
ENDBRANCH  11  12
ENDBRANCH  10  11
ENDBRANCH   9  10
ENDBRANCH   1   9
TORSDOF 10
ENDMDL
MODEL 8
REMARK VINA RESULT:    -4.565      2.194      2.536
REMARK INTER + INTRA:          -7.974
REMARK INTER:                  -7.221
REMARK INTRA:                  -0.752
REMARK UNBOUND:                -0.740
REMARK SMILES CCCCCCCCCCCC(=O)[O-]
REMARK SMILES IDX 7 1 8 2 9 3 10 4 11 5 12 6 13 7 14 8 6 9 5 10 4 11 3 12 2 13
REMARK SMILES IDX 1 14
REMARK H PARENT
REMARK Flexibility Score: inf
ROOT
ATOM      1  C   UNL     1      51.505  22.751  52.560  1.00  0.00     0.000 C 
ENDROOT
BRANCH   1   2
ATOM      2  C   UNL     1      50.393  23.321  51.659  1.00  0.00     0.000 C 
BRANCH   2   3
ATOM      3  C   UNL     1      49.196  23.935  52.407  1.00  0.00     0.000 C 
BRANCH   3   4
ATOM      4  C   UNL     1      48.026  22.952  52.579  1.00  0.00     0.006 C 
BRANCH   4   5
ATOM      5  C   UNL     1      47.474  22.953  54.011  1.00  0.00     0.053 C 
BRANCH   5   6
ATOM      6  C   UNL     1      47.947  21.764  54.791  1.00  0.00     0.041 C 
ATOM      7  O   UNL     1      49.179  21.559  54.946  1.00  0.00    -0.550 OA
ATOM      8  O   UNL     1      47.027  20.900  55.370  1.00  0.00    -0.550 OA
ENDBRANCH   5   6
ENDBRANCH   4   5
ENDBRANCH   3   4
ENDBRANCH   2   3
ENDBRANCH   1   2
BRANCH   1   9
ATOM      9  C   UNL     1      51.834  21.283  52.252  1.00  0.00     0.000 C 
BRANCH   9  10
ATOM     10  C   UNL     1      51.157  20.829  50.951  1.00  0.00    -0.000 C 
BRANCH  10  11
ATOM     11  C   UNL     1      52.152  20.635  49.792  1.00  0.00    -0.000 C 
BRANCH  11  12
ATOM     12  C   UNL     1      53.637  20.757  50.180  1.00  0.00    -0.000 C 
BRANCH  12  13
ATOM     13  C   UNL     1      54.582  20.163  49.127  1.00  0.00    -0.003 C 
ATOM     14  C   UNL     1      55.062  21.235  48.152  1.00  0.00     0.004 C 
ENDBRANCH  12  13
ENDBRANCH  11  12
ENDBRANCH  10  11
ENDBRANCH   9  10
ENDBRANCH   1   9
TORSDOF 10
ENDMDL
MODEL 9
REMARK VINA RESULT:    -4.524      2.578      3.632
REMARK INTER + INTRA:          -7.910
REMARK INTER:                  -6.963
REMARK INTRA:                  -0.946
REMARK UNBOUND:                -0.740
REMARK SMILES CCCCCCCCCCCC(=O)[O-]
REMARK SMILES IDX 7 1 8 2 9 3 10 4 11 5 12 6 13 7 14 8 6 9 5 10 4 11 3 12 2 13
REMARK SMILES IDX 1 14
REMARK H PARENT
REMARK Flexibility Score: inf
ROOT
ATOM      1  C   UNL     1      48.794  20.966  50.250  1.00  0.00     0.000 C 
ENDROOT
BRANCH   1   2
ATOM      2  C   UNL     1      48.167  21.429  51.578  1.00  0.00     0.000 C 
BRANCH   2   3
ATOM      3  C   UNL     1      48.978  22.485  52.351  1.00  0.00     0.000 C 
BRANCH   3   4
ATOM      4  C   UNL     1      49.795  21.885  53.508  1.00  0.00     0.006 C 
BRANCH   4   5
ATOM      5  C   UNL     1      51.307  21.960  53.249  1.00  0.00     0.053 C 
BRANCH   5   6
ATOM      6  C   UNL     1      52.079  21.103  54.205  1.00  0.00     0.041 C 
ATOM      7  O   UNL     1      53.203  21.481  54.627  1.00  0.00    -0.550 OA
ATOM      8  O   UNL     1      51.545  19.901  54.650  1.00  0.00    -0.550 OA
ENDBRANCH   5   6
ENDBRANCH   4   5
ENDBRANCH   3   4
ENDBRANCH   2   3
ENDBRANCH   1   2
BRANCH   1   9
ATOM      9  C   UNL     1      49.307  19.519  50.300  1.00  0.00     0.000 C 
BRANCH   9  10
ATOM     10  C   UNL     1      50.801  19.453  49.952  1.00  0.00    -0.000 C 
BRANCH  10  11
ATOM     11  C   UNL     1      51.451  20.843  49.832  1.00  0.00    -0.000 C 
BRANCH  11  12
ATOM     12  C   UNL     1      52.953  20.893  50.171  1.00  0.00    -0.000 C 
BRANCH  12  13
ATOM     13  C   UNL     1      53.818  20.104  49.178  1.00  0.00    -0.003 C 
ATOM     14  C   UNL     1      54.890  20.995  48.555  1.00  0.00     0.004 C 
ENDBRANCH  12  13
ENDBRANCH  11  12
ENDBRANCH  10  11
ENDBRANCH   9  10
ENDBRANCH   1   9
TORSDOF 10
ENDMDL
