MODEL 1
REMARK VINA RESULT:    -6.345      0.000      0.000
REMARK INTER + INTRA:          -7.991
REMARK INTER:                  -7.643
REMARK INTRA:                  -0.348
REMARK UNBOUND:                -0.348
REMARK SMILES Oc1cc(O)c2cc(O)c(-c3ccc(O)c(O)c3)[o+]c2c1
REMARK SMILES IDX 10 1 19 2 20 3 21 4 2 5 3 6 4 7 6 8 7 9 8 10 11 11 12 12
REMARK SMILES IDX 13 13 14 14 18 15 16 16 15 17 17 19 9 21 1 23 5 25
REMARK H PARENT 15 18 17 20 9 22 1 24 5 26
REMARK Flexibility Score: inf
ROOT
ATOM      1  C   UNL     1     182.398 179.397 174.903  1.00  0.00     0.402 A 
ATOM      2  O   UNL     1     181.239 179.980 174.605  1.00  0.00    -0.202 OA
ATOM      3  C   UNL     1     180.388 180.423 175.524  1.00  0.00     0.368 A 
ATOM      4  C   UNL     1     179.197 181.026 175.113  1.00  0.00     0.162 A 
ATOM      5  C   UNL     1     178.285 181.504 176.058  1.00  0.00     0.128 A 
ATOM      6  C   UNL     1     178.567 181.381 177.420  1.00  0.00     0.093 A 
ATOM      7  C   UNL     1     179.754 180.783 177.858  1.00  0.00     0.136 A 
ATOM      8  C   UNL     1     180.683 180.292 176.903  1.00  0.00     0.125 A 
ATOM      9  C   UNL     1     181.890 179.667 177.250  1.00  0.00     0.078 A 
ATOM     10  C   UNL     1     182.753 179.204 176.251  1.00  0.00     0.223 A 
ENDROOT
BRANCH   1  11
ATOM     11  C   UNL     1     183.266 178.954 173.788  1.00  0.00     0.087 A 
ATOM     12  C   UNL     1     184.335 179.745 173.331  1.00  0.00     0.022 A 
ATOM     13  C   UNL     1     185.125 179.315 172.263  1.00  0.00     0.051 A 
ATOM     14  C   UNL     1     184.853 178.098 171.626  1.00  0.00     0.157 A 
ATOM     15  C   UNL     1     182.985 177.743 173.133  1.00  0.00     0.068 A 
ATOM     16  C   UNL     1     183.776 177.310 172.062  1.00  0.00     0.158 A 
BRANCH  14  17
ATOM     17  O   UNL     1     185.646 177.672 170.561  1.00  0.00    -0.504 OA
ATOM     18  H   UNL     1     185.267 177.107 169.810  1.00  0.00     0.293 HD
ENDBRANCH  14  17
BRANCH  16  19
ATOM     19  O   UNL     1     183.474 176.096 171.445  1.00  0.00    -0.504 OA
ATOM     20  H   UNL     1     184.187 175.406 171.238  1.00  0.00     0.293 HD
ENDBRANCH  16  19
ENDBRANCH   1  11
BRANCH  10  21
ATOM     21  O   UNL     1     183.929 178.539 176.595  1.00  0.00    -0.500 OA
ATOM     22  H   UNL     1     184.146 177.618 176.232  1.00  0.00     0.294 HD
ENDBRANCH  10  21
BRANCH   5  23
ATOM     23  O   UNL     1     177.095 182.105 175.655  1.00  0.00    -0.507 OA
ATOM     24  H   UNL     1     176.594 182.749 176.257  1.00  0.00     0.293 HD
ENDBRANCH   5  23
BRANCH   7  25
ATOM     25  O   UNL     1     179.964 180.701 179.238  1.00  0.00    -0.507 OA
ATOM     26  H   UNL     1     180.467 179.955 179.696  1.00  0.00     0.293 HD
ENDBRANCH   7  25
TORSDOF 6
ENDMDL
MODEL 2
REMARK VINA RESULT:    -6.338      2.777      6.662
REMARK INTER + INTRA:          -7.982
REMARK INTER:                  -7.635
REMARK INTRA:                  -0.347
REMARK UNBOUND:                -0.348
REMARK SMILES Oc1cc(O)c2cc(O)c(-c3ccc(O)c(O)c3)[o+]c2c1
REMARK SMILES IDX 10 1 19 2 20 3 21 4 2 5 3 6 4 7 6 8 7 9 8 10 11 11 12 12
REMARK SMILES IDX 13 13 14 14 18 15 16 16 15 17 17 19 9 21 1 23 5 25
REMARK H PARENT 15 18 17 20 9 22 1 24 5 26
REMARK Flexibility Score: inf
ROOT
ATOM      1  C   UNL     1     178.297 181.278 174.857  1.00  0.00     0.402 A 
ATOM      2  O   UNL     1     179.438 180.672 174.537  1.00  0.00    -0.202 OA
ATOM      3  C   UNL     1     180.317 180.247 175.439  1.00  0.00     0.368 A 
ATOM      4  C   UNL     1     181.486 179.618 175.004  1.00  0.00     0.162 A 
ATOM      5  C   UNL     1     182.426 179.157 175.930  1.00  0.00     0.128 A 
ATOM      6  C   UNL     1     182.193 179.324 177.298  1.00  0.00     0.093 A 
ATOM      7  C   UNL     1     181.029 179.950 177.759  1.00  0.00     0.136 A 
ATOM      8  C   UNL     1     180.073 180.423 176.822  1.00  0.00     0.125 A 
ATOM      9  C   UNL     1     178.885 181.073 177.192  1.00  0.00     0.078 A 
ATOM     10  C   UNL     1     177.993 181.515 176.210  1.00  0.00     0.223 A 
ENDROOT
BRANCH   1  11
ATOM     11  C   UNL     1     177.395 181.698 173.761  1.00  0.00     0.087 A 
ATOM     12  C   UNL     1     176.297 180.910 173.372  1.00  0.00     0.022 A 
ATOM     13  C   UNL     1     175.474 181.317 172.319  1.00  0.00     0.051 A 
ATOM     14  C   UNL     1     175.741 182.507 171.631  1.00  0.00     0.157 A 
ATOM     15  C   UNL     1     177.670 182.880 173.053  1.00  0.00     0.068 A 
ATOM     16  C   UNL     1     176.847 183.290 171.999  1.00  0.00     0.158 A 
BRANCH  14  17
ATOM     17  O   UNL     1     174.916 182.910 170.581  1.00  0.00    -0.504 OA
ATOM     18  H   UNL     1     174.154 182.329 170.253  1.00  0.00     0.293 HD
ENDBRANCH  14  17
BRANCH  16  19
ATOM     19  O   UNL     1     177.145 184.477 171.329  1.00  0.00    -0.504 OA
ATOM     20  H   UNL     1     176.440 185.001 170.824  1.00  0.00     0.293 HD
ENDBRANCH  16  19
ENDBRANCH   1  11
BRANCH  10  21
ATOM     21  O   UNL     1     176.837 182.205 176.575  1.00  0.00    -0.500 OA
ATOM     22  H   UNL     1     176.034 182.261 175.960  1.00  0.00     0.294 HD
ENDBRANCH  10  21
BRANCH   5  23
ATOM     23  O   UNL     1     183.594 178.530 175.504  1.00  0.00    -0.507 OA
ATOM     24  H   UNL     1     184.166 178.921 174.764  1.00  0.00     0.293 HD
ENDBRANCH   5  23
BRANCH   7  25
ATOM     25  O   UNL     1     180.870 180.076 179.142  1.00  0.00    -0.507 OA
ATOM     26  H   UNL     1     181.198 180.860 179.686  1.00  0.00     0.293 HD
ENDBRANCH   7  25
TORSDOF 6
ENDMDL
MODEL 3
REMARK VINA RESULT:    -6.231      4.281      6.977
REMARK INTER + INTRA:          -7.854
REMARK INTER:                  -7.665
REMARK INTRA:                  -0.190
REMARK UNBOUND:                -0.348
REMARK SMILES Oc1cc(O)c2cc(O)c(-c3ccc(O)c(O)c3)[o+]c2c1
REMARK SMILES IDX 10 1 19 2 20 3 21 4 2 5 3 6 4 7 6 8 7 9 8 10 11 11 12 12
REMARK SMILES IDX 13 13 14 14 18 15 16 16 15 17 17 19 9 21 1 23 5 25
REMARK H PARENT 15 18 17 20 9 22 1 24 5 26
REMARK Flexibility Score: inf
ROOT
ATOM      1  C   UNL     1     177.793 180.587 174.470  1.00  0.00     0.402 A 
ATOM      2  O   UNL     1     177.947 181.742 173.826  1.00  0.00    -0.202 OA
ATOM      3  C   UNL     1     177.186 182.113 172.802  1.00  0.00     0.368 A 
ATOM      4  C   UNL     1     177.423 183.347 172.192  1.00  0.00     0.162 A 
ATOM      5  C   UNL     1     176.637 183.764 171.114  1.00  0.00     0.128 A 
ATOM      6  C   UNL     1     175.607 182.944 170.647  1.00  0.00     0.093 A 
ATOM      7  C   UNL     1     175.349 181.703 171.242  1.00  0.00     0.136 A 
ATOM      8  C   UNL     1     176.147 181.273 172.334  1.00  0.00     0.125 A 
ATOM      9  C   UNL     1     175.969 180.041 172.982  1.00  0.00     0.078 A 
ATOM     10  C   UNL     1     176.799 179.684 174.050  1.00  0.00     0.223 A 
ENDROOT
BRANCH   1  11
ATOM     11  C   UNL     1     178.698 180.291 175.604  1.00  0.00     0.087 A 
ATOM     12  C   UNL     1     179.606 179.219 175.557  1.00  0.00     0.022 A 
ATOM     13  C   UNL     1     180.434 178.947 176.649  1.00  0.00     0.051 A 
ATOM     14  C   UNL     1     180.358 179.730 177.808  1.00  0.00     0.157 A 
ATOM     15  C   UNL     1     178.611 181.061 176.777  1.00  0.00     0.068 A 
ATOM     16  C   UNL     1     179.439 180.790 177.872  1.00  0.00     0.158 A 
BRANCH  14  17
ATOM     17  O   UNL     1     181.187 179.455 178.895  1.00  0.00    -0.504 OA
ATOM     18  H   UNL     1     182.053 178.942 178.785  1.00  0.00     0.293 HD
ENDBRANCH  14  17
BRANCH  16  19
ATOM     19  O   UNL     1     179.334 181.585 179.013  1.00  0.00    -0.504 OA
ATOM     20  H   UNL     1     179.827 182.465 179.103  1.00  0.00     0.293 HD
ENDBRANCH  16  19
ENDBRANCH   1  11
BRANCH  10  21
ATOM     21  O   UNL     1     176.655 178.439 174.662  1.00  0.00    -0.500 OA
ATOM     22  H   UNL     1     176.529 177.591 174.122  1.00  0.00     0.294 HD
ENDBRANCH  10  21
BRANCH   5  23
ATOM     23  O   UNL     1     176.868 184.993 170.501  1.00  0.00    -0.507 OA
ATOM     24  H   UNL     1     176.111 185.540 170.106  1.00  0.00     0.293 HD
ENDBRANCH   5  23
BRANCH   7  25
ATOM     25  O   UNL     1     174.299 180.944 170.717  1.00  0.00    -0.507 OA
ATOM     26  H   UNL     1     173.701 180.342 171.264  1.00  0.00     0.293 HD
ENDBRANCH   7  25
TORSDOF 6
ENDMDL
MODEL 4
REMARK VINA RESULT:    -6.209      1.727      6.919
REMARK INTER + INTRA:          -7.827
REMARK INTER:                  -7.486
REMARK INTRA:                  -0.341
REMARK UNBOUND:                -0.348
REMARK SMILES Oc1cc(O)c2cc(O)c(-c3ccc(O)c(O)c3)[o+]c2c1
REMARK SMILES IDX 10 1 19 2 20 3 21 4 2 5 3 6 4 7 6 8 7 9 8 10 11 11 12 12
REMARK SMILES IDX 13 13 14 14 18 15 16 16 15 17 17 19 9 21 1 23 5 25
REMARK H PARENT 15 18 17 20 9 22 1 24 5 26
REMARK Flexibility Score: inf
ROOT
ATOM      1  C   UNL     1     181.569 178.876 175.152  1.00  0.00     0.402 A 
ATOM      2  O   UNL     1     181.000 177.775 174.667  1.00  0.00    -0.202 OA
ATOM      3  C   UNL     1     181.492 177.093 173.638  1.00  0.00     0.368 A 
ATOM      4  C   UNL     1     180.823 175.946 173.202  1.00  0.00     0.162 A 
ATOM      5  C   UNL     1     181.320 175.207 172.124  1.00  0.00     0.128 A 
ATOM      6  C   UNL     1     182.491 175.616 171.482  1.00  0.00     0.093 A 
ATOM      7  C   UNL     1     183.180 176.761 171.901  1.00  0.00     0.136 A 
ATOM      8  C   UNL     1     182.678 177.517 172.992  1.00  0.00     0.125 A 
ATOM      9  C   UNL     1     183.294 178.683 173.471  1.00  0.00     0.078 A 
ATOM     10  C   UNL     1     182.737 179.378 174.550  1.00  0.00     0.223 A 
ENDROOT
BRANCH   1  11
ATOM     11  C   UNL     1     180.930 179.542 176.310  1.00  0.00     0.087 A 
ATOM     12  C   UNL     1     179.893 180.477 176.138  1.00  0.00     0.022 A 
ATOM     13  C   UNL     1     179.321 181.109 177.245  1.00  0.00     0.051 A 
ATOM     14  C   UNL     1     179.785 180.829 178.537  1.00  0.00     0.157 A 
ATOM     15  C   UNL     1     181.404 179.281 177.607  1.00  0.00     0.068 A 
ATOM     16  C   UNL     1     180.833 179.913 178.717  1.00  0.00     0.158 A 
BRANCH  14  17
ATOM     17  O   UNL     1     179.211 181.461 179.639  1.00  0.00    -0.504 OA
ATOM     18  H   UNL     1     179.777 181.826 180.396  1.00  0.00     0.293 HD
ENDBRANCH  14  17
BRANCH  16  19
ATOM     19  O   UNL     1     181.322 179.617 179.990  1.00  0.00    -0.504 OA
ATOM     20  H   UNL     1     180.977 178.832 180.529  1.00  0.00     0.293 HD
ENDBRANCH  16  19
ENDBRANCH   1  11
BRANCH  10  21
ATOM     21  O   UNL     1     183.321 180.564 174.994  1.00  0.00    -0.500 OA
ATOM     22  H   UNL     1     184.170 180.928 174.579  1.00  0.00     0.294 HD
ENDBRANCH  10  21
BRANCH   5  23
ATOM     23  O   UNL     1     180.659 174.063 171.684  1.00  0.00    -0.507 OA
ATOM     24  H   UNL     1     181.117 173.380 171.092  1.00  0.00     0.293 HD
ENDBRANCH   5  23
BRANCH   7  25
ATOM     25  O   UNL     1     184.345 177.101 171.208  1.00  0.00    -0.507 OA
ATOM     26  H   UNL     1     184.797 176.510 170.526  1.00  0.00     0.293 HD
ENDBRANCH   7  25
TORSDOF 6
ENDMDL
MODEL 5
REMARK VINA RESULT:    -6.189      4.094      6.747
REMARK INTER + INTRA:          -7.803
REMARK INTER:                  -7.458
REMARK INTRA:                  -0.344
REMARK UNBOUND:                -0.348
REMARK SMILES Oc1cc(O)c2cc(O)c(-c3ccc(O)c(O)c3)[o+]c2c1
REMARK SMILES IDX 10 1 19 2 20 3 21 4 2 5 3 6 4 7 6 8 7 9 8 10 11 11 12 12
REMARK SMILES IDX 13 13 14 14 18 15 16 16 15 17 17 19 9 21 1 23 5 25
REMARK H PARENT 15 18 17 20 9 22 1 24 5 26
REMARK Flexibility Score: inf
ROOT
ATOM      1  C   UNL     1     179.134 181.834 175.127  1.00  0.00     0.402 A 
ATOM      2  O   UNL     1     179.678 182.953 174.655  1.00  0.00    -0.202 OA
ATOM      3  C   UNL     1     179.176 183.631 173.628  1.00  0.00     0.368 A 
ATOM      4  C   UNL     1     179.816 184.799 173.207  1.00  0.00     0.162 A 
ATOM      5  C   UNL     1     179.309 185.534 172.132  1.00  0.00     0.128 A 
ATOM      6  C   UNL     1     178.154 185.100 171.477  1.00  0.00     0.093 A 
ATOM      7  C   UNL     1     177.493 183.933 171.880  1.00  0.00     0.136 A 
ATOM      8  C   UNL     1     178.006 183.181 172.969  1.00  0.00     0.125 A 
ATOM      9  C   UNL     1     177.418 181.995 173.433  1.00  0.00     0.078 A 
ATOM     10  C   UNL     1     177.985 181.305 174.510  1.00  0.00     0.223 A 
ENDROOT
BRANCH   1  11
ATOM     11  C   UNL     1     179.781 181.174 176.283  1.00  0.00     0.087 A 
ATOM     12  C   UNL     1     180.828 180.252 176.111  1.00  0.00     0.022 A 
ATOM     13  C   UNL     1     181.408 179.626 177.217  1.00  0.00     0.051 A 
ATOM     14  C   UNL     1     180.943 179.900 178.510  1.00  0.00     0.157 A 
ATOM     15  C   UNL     1     179.306 181.431 177.581  1.00  0.00     0.068 A 
ATOM     16  C   UNL     1     179.884 180.805 178.691  1.00  0.00     0.158 A 
BRANCH  14  17
ATOM     17  O   UNL     1     181.525 179.274 179.611  1.00  0.00    -0.504 OA
ATOM     18  H   UNL     1     181.614 179.746 180.504  1.00  0.00     0.293 HD
ENDBRANCH  14  17
BRANCH  16  19
ATOM     19  O   UNL     1     179.394 181.095 179.964  1.00  0.00    -0.504 OA
ATOM     20  H   UNL     1     178.991 180.383 180.560  1.00  0.00     0.293 HD
ENDBRANCH  16  19
ENDBRANCH   1  11
BRANCH  10  21
ATOM     21  O   UNL     1     177.430 180.100 174.939  1.00  0.00    -0.500 OA
ATOM     22  H   UNL     1     178.004 179.349 175.304  1.00  0.00     0.294 HD
ENDBRANCH  10  21
BRANCH   5  23
ATOM     23  O   UNL     1     179.942 186.699 171.707  1.00  0.00    -0.507 OA
ATOM     24  H   UNL     1     179.652 187.185 170.866  1.00  0.00     0.293 HD
ENDBRANCH   5  23
BRANCH   7  25
ATOM     25  O   UNL     1     176.343 183.568 171.175  1.00  0.00    -0.507 OA
ATOM     26  H   UNL     1     175.689 184.223 170.770  1.00  0.00     0.293 HD
ENDBRANCH   7  25
TORSDOF 6
ENDMDL
MODEL 6
REMARK VINA RESULT:    -6.143      1.643      7.029
REMARK INTER + INTRA:          -7.747
REMARK INTER:                  -7.536
REMARK INTRA:                  -0.211
REMARK UNBOUND:                -0.348
REMARK SMILES Oc1cc(O)c2cc(O)c(-c3ccc(O)c(O)c3)[o+]c2c1
REMARK SMILES IDX 10 1 19 2 20 3 21 4 2 5 3 6 4 7 6 8 7 9 8 10 11 11 12 12
REMARK SMILES IDX 13 13 14 14 18 15 16 16 15 17 17 19 9 21 1 23 5 25
REMARK H PARENT 15 18 17 20 9 22 1 24 5 26
REMARK Flexibility Score: inf
ROOT
ATOM      1  C   UNL     1     182.896 180.139 174.474  1.00  0.00     0.402 A 
ATOM      2  O   UNL     1     182.722 178.989 173.827  1.00  0.00    -0.202 OA
ATOM      3  C   UNL     1     183.504 178.587 172.831  1.00  0.00     0.368 A 
ATOM      4  C   UNL     1     183.244 177.360 172.215  1.00  0.00     0.162 A 
ATOM      5  C   UNL     1     184.052 176.911 171.167  1.00  0.00     0.128 A 
ATOM      6  C   UNL     1     185.128 177.691 170.735  1.00  0.00     0.093 A 
ATOM      7  C   UNL     1     185.411 178.923 171.337  1.00  0.00     0.136 A 
ATOM      8  C   UNL     1     184.590 179.386 172.399  1.00  0.00     0.125 A 
ATOM      9  C   UNL     1     184.791 180.612 173.052  1.00  0.00     0.078 A 
ATOM     10  C   UNL     1     183.937 181.003 174.088  1.00  0.00     0.223 A 
ENDROOT
BRANCH   1  11
ATOM     11  C   UNL     1     181.963 180.471 175.574  1.00  0.00     0.087 A 
ATOM     12  C   UNL     1     181.070 181.554 175.477  1.00  0.00     0.022 A 
ATOM     13  C   UNL     1     180.215 181.861 176.539  1.00  0.00     0.051 A 
ATOM     14  C   UNL     1     180.247 181.103 177.716  1.00  0.00     0.157 A 
ATOM     15  C   UNL     1     182.005 179.727 176.765  1.00  0.00     0.068 A 
ATOM     16  C   UNL     1     181.149 180.033 177.830  1.00  0.00     0.158 A 
BRANCH  14  17
ATOM     17  O   UNL     1     179.391 181.412 178.772  1.00  0.00    -0.504 OA
ATOM     18  H   UNL     1     178.459 181.775 178.611  1.00  0.00     0.293 HD
ENDBRANCH  14  17
BRANCH  16  19
ATOM     19  O   UNL     1     181.211 179.262 178.991  1.00  0.00    -0.504 OA
ATOM     20  H   UNL     1     181.991 179.322 179.635  1.00  0.00     0.293 HD
ENDBRANCH  16  19
ENDBRANCH   1  11
BRANCH  10  21
ATOM     21  O   UNL     1     184.105 182.244 174.703  1.00  0.00    -0.500 OA
ATOM     22  H   UNL     1     184.963 182.487 175.184  1.00  0.00     0.294 HD
ENDBRANCH  10  21
BRANCH   5  23
ATOM     23  O   UNL     1     183.798 175.690 170.548  1.00  0.00    -0.507 OA
ATOM     24  H   UNL     1     182.962 175.539 169.994  1.00  0.00     0.293 HD
ENDBRANCH   5  23
BRANCH   7  25
ATOM     25  O   UNL     1     186.506 179.642 170.849  1.00  0.00    -0.507 OA
ATOM     26  H   UNL     1     187.235 179.249 170.272  1.00  0.00     0.293 HD
ENDBRANCH   7  25
TORSDOF 6
ENDMDL
MODEL 7
REMARK VINA RESULT:    -6.022      4.303      6.774
REMARK INTER + INTRA:          -7.602
REMARK INTER:                  -7.306
REMARK INTRA:                  -0.296
REMARK UNBOUND:                -0.348
REMARK SMILES Oc1cc(O)c2cc(O)c(-c3ccc(O)c(O)c3)[o+]c2c1
REMARK SMILES IDX 10 1 19 2 20 3 21 4 2 5 3 6 4 7 6 8 7 9 8 10 11 11 12 12
REMARK SMILES IDX 13 13 14 14 18 15 16 16 15 17 17 19 9 21 1 23 5 25
REMARK H PARENT 15 18 17 20 9 22 1 24 5 26
REMARK Flexibility Score: inf
ROOT
ATOM      1  C   UNL     1     178.775 181.638 174.904  1.00  0.00     0.402 A 
ATOM      2  O   UNL     1     177.632 181.216 174.369  1.00  0.00    -0.202 OA
ATOM      3  C   UNL     1     177.080 181.774 173.296  1.00  0.00     0.368 A 
ATOM      4  C   UNL     1     175.878 181.257 172.805  1.00  0.00     0.162 A 
ATOM      5  C   UNL     1     175.276 181.822 171.677  1.00  0.00     0.128 A 
ATOM      6  C   UNL     1     175.881 182.905 171.035  1.00  0.00     0.093 A 
ATOM      7  C   UNL     1     177.086 183.440 171.507  1.00  0.00     0.136 A 
ATOM      8  C   UNL     1     177.699 182.873 172.655  1.00  0.00     0.125 A 
ATOM      9  C   UNL     1     178.899 183.351 173.205  1.00  0.00     0.078 A 
ATOM     10  C   UNL     1     179.440 182.743 174.342  1.00  0.00     0.223 A 
ENDROOT
BRANCH   1  11
ATOM     11  C   UNL     1     179.294 180.928 176.095  1.00  0.00     0.087 A 
ATOM     12  C   UNL     1     179.907 179.666 175.988  1.00  0.00     0.022 A 
ATOM     13  C   UNL     1     180.368 179.007 177.130  1.00  0.00     0.051 A 
ATOM     14  C   UNL     1     180.214 179.588 178.395  1.00  0.00     0.157 A 
ATOM     15  C   UNL     1     179.124 181.497 177.369  1.00  0.00     0.068 A 
ATOM     16  C   UNL     1     179.586 180.838 178.514  1.00  0.00     0.158 A 
BRANCH  14  17
ATOM     17  O   UNL     1     180.677 178.927 179.531  1.00  0.00    -0.504 OA
ATOM     18  H   UNL     1     180.918 177.943 179.512  1.00  0.00     0.293 HD
ENDBRANCH  14  17
BRANCH  16  19
ATOM     19  O   UNL     1     179.411 181.442 179.759  1.00  0.00    -0.504 OA
ATOM     20  H   UNL     1     179.596 182.426 179.911  1.00  0.00     0.293 HD
ENDBRANCH  16  19
ENDBRANCH   1  11
BRANCH  10  21
ATOM     21  O   UNL     1     180.605 183.249 174.918  1.00  0.00    -0.500 OA
ATOM     22  H   UNL     1     181.182 183.932 174.442  1.00  0.00     0.294 HD
ENDBRANCH  10  21
BRANCH   5  23
ATOM     23  O   UNL     1     174.078 181.312 171.182  1.00  0.00    -0.507 OA
ATOM     24  H   UNL     1     173.901 180.315 171.143  1.00  0.00     0.293 HD
ENDBRANCH   5  23
BRANCH   7  25
ATOM     25  O   UNL     1     177.628 184.522 170.807  1.00  0.00    -0.507 OA
ATOM     26  H   UNL     1     177.116 185.091 170.149  1.00  0.00     0.293 HD
ENDBRANCH   7  25
TORSDOF 6
ENDMDL
MODEL 8
REMARK VINA RESULT:    -6.002      3.941      7.074
REMARK INTER + INTRA:          -7.578
REMARK INTER:                  -7.308
REMARK INTRA:                  -0.270
REMARK UNBOUND:                -0.348
REMARK SMILES Oc1cc(O)c2cc(O)c(-c3ccc(O)c(O)c3)[o+]c2c1
REMARK SMILES IDX 10 1 19 2 20 3 21 4 2 5 3 6 4 7 6 8 7 9 8 10 11 11 12 12
REMARK SMILES IDX 13 13 14 14 18 15 16 16 15 17 17 19 9 21 1 23 5 25
REMARK H PARENT 15 18 17 20 9 22 1 24 5 26
REMARK Flexibility Score: inf
ROOT
ATOM      1  C   UNL     1     180.943 182.238 175.368  1.00  0.00     0.402 A 
ATOM      2  O   UNL     1     182.175 182.686 175.138  1.00  0.00    -0.202 OA
ATOM      3  C   UNL     1     182.475 183.519 174.147  1.00  0.00     0.368 A 
ATOM      4  C   UNL     1     183.799 183.937 173.988  1.00  0.00     0.162 A 
ATOM      5  C   UNL     1     184.142 184.815 172.957  1.00  0.00     0.128 A 
ATOM      6  C   UNL     1     183.157 185.280 172.083  1.00  0.00     0.093 A 
ATOM      7  C   UNL     1     181.823 184.878 172.222  1.00  0.00     0.136 A 
ATOM      8  C   UNL     1     181.469 183.983 173.266  1.00  0.00     0.125 A 
ATOM      9  C   UNL     1     180.162 183.516 173.473  1.00  0.00     0.078 A 
ATOM     10  C   UNL     1     179.891 182.631 174.521  1.00  0.00     0.223 A 
ENDROOT
BRANCH   1  11
ATOM     11  C   UNL     1     180.734 181.320 176.511  1.00  0.00     0.087 A 
ATOM     12  C   UNL     1     181.158 179.980 176.462  1.00  0.00     0.022 A 
ATOM     13  C   UNL     1     180.928 179.127 177.545  1.00  0.00     0.051 A 
ATOM     14  C   UNL     1     180.262 179.594 178.685  1.00  0.00     0.157 A 
ATOM     15  C   UNL     1     180.048 181.777 177.649  1.00  0.00     0.068 A 
ATOM     16  C   UNL     1     179.817 180.925 178.735  1.00  0.00     0.158 A 
BRANCH  14  17
ATOM     17  O   UNL     1     180.036 178.740 179.764  1.00  0.00    -0.504 OA
ATOM     18  H   UNL     1     180.031 177.733 179.651  1.00  0.00     0.293 HD
ENDBRANCH  14  17
BRANCH  16  19
ATOM     19  O   UNL     1     179.144 181.419 179.852  1.00  0.00    -0.504 OA
ATOM     20  H   UNL     1     179.274 181.025 180.776  1.00  0.00     0.293 HD
ENDBRANCH  16  19
ENDBRANCH   1  11
BRANCH  10  21
ATOM     21  O   UNL     1     178.602 182.128 174.696  1.00  0.00    -0.500 OA
ATOM     22  H   UNL     1     177.971 182.512 175.390  1.00  0.00     0.294 HD
ENDBRANCH  10  21
BRANCH   5  23
ATOM     23  O   UNL     1     185.460 185.235 172.792  1.00  0.00    -0.507 OA
ATOM     24  H   UNL     1     185.702 186.218 172.743  1.00  0.00     0.293 HD
ENDBRANCH   5  23
BRANCH   7  25
ATOM     25  O   UNL     1     180.897 185.391 171.309  1.00  0.00    -0.507 OA
ATOM     26  H   UNL     1     179.897 185.274 171.384  1.00  0.00     0.293 HD
ENDBRANCH   7  25
TORSDOF 6
ENDMDL
MODEL 9
REMARK VINA RESULT:    -5.890      1.578      7.058
REMARK INTER + INTRA:          -7.444
REMARK INTER:                  -7.098
REMARK INTRA:                  -0.345
REMARK UNBOUND:                -0.348
REMARK SMILES Oc1cc(O)c2cc(O)c(-c3ccc(O)c(O)c3)[o+]c2c1
REMARK SMILES IDX 10 1 19 2 20 3 21 4 2 5 3 6 4 7 6 8 7 9 8 10 11 11 12 12
REMARK SMILES IDX 13 13 14 14 18 15 16 16 15 17 17 19 9 21 1 23 5 25
REMARK H PARENT 15 18 17 20 9 22 1 24 5 26
REMARK Flexibility Score: inf
ROOT
ATOM      1  C   UNL     1     181.822 178.910 174.821  1.00  0.00     0.402 A 
ATOM      2  O   UNL     1     182.938 179.413 174.298  1.00  0.00    -0.202 OA
ATOM      3  C   UNL     1     183.543 178.895 173.234  1.00  0.00     0.368 A 
ATOM      4  C   UNL     1     184.710 179.496 172.755  1.00  0.00     0.162 A 
ATOM      5  C   UNL     1     185.365 178.974 171.636  1.00  0.00     0.128 A 
ATOM      6  C   UNL     1     184.849 177.847 170.992  1.00  0.00     0.093 A 
ATOM      7  C   UNL     1     183.681 177.227 171.451  1.00  0.00     0.136 A 
ATOM      8  C   UNL     1     183.013 177.751 172.589  1.00  0.00     0.125 A 
ATOM      9  C   UNL     1     181.845 177.188 173.126  1.00  0.00     0.078 A 
ATOM     10  C   UNL     1     181.247 177.758 174.254  1.00  0.00     0.223 A 
ENDROOT
BRANCH   1  11
ATOM     11  C   UNL     1     181.238 179.584 176.002  1.00  0.00     0.087 A 
ATOM     12  C   UNL     1     180.356 180.671 175.866  1.00  0.00     0.022 A 
ATOM     13  C   UNL     1     179.835 181.305 176.997  1.00  0.00     0.051 A 
ATOM     14  C   UNL     1     180.197 180.873 178.279  1.00  0.00     0.157 A 
ATOM     15  C   UNL     1     181.612 179.168 177.291  1.00  0.00     0.068 A 
ATOM     16  C   UNL     1     181.092 179.801 178.426  1.00  0.00     0.158 A 
BRANCH  14  17
ATOM     17  O   UNL     1     179.674 181.507 179.406  1.00  0.00    -0.504 OA
ATOM     18  H   UNL     1     180.270 181.984 180.071  1.00  0.00     0.293 HD
ENDBRANCH  14  17
BRANCH  16  19
ATOM     19  O   UNL     1     181.477 179.351 179.689  1.00  0.00    -0.504 OA
ATOM     20  H   UNL     1     181.125 179.771 180.540  1.00  0.00     0.293 HD
ENDBRANCH  16  19
ENDBRANCH   1  11
BRANCH  10  21
ATOM     21  O   UNL     1     180.115 177.170 174.818  1.00  0.00    -0.500 OA
ATOM     22  H   UNL     1     179.784 177.429 175.741  1.00  0.00     0.294 HD
ENDBRANCH  10  21
BRANCH   5  23
ATOM     23  O   UNL     1     186.529 179.568 171.155  1.00  0.00    -0.507 OA
ATOM     24  H   UNL     1     187.397 179.535 171.677  1.00  0.00     0.293 HD
ENDBRANCH   5  23
BRANCH   7  25
ATOM     25  O   UNL     1     183.228 176.106 170.749  1.00  0.00    -0.507 OA
ATOM     26  H   UNL     1     182.292 175.733 170.811  1.00  0.00     0.293 HD
ENDBRANCH   7  25
TORSDOF 6
ENDMDL
