MODEL 1
REMARK VINA RESULT:    -5.257      0.000      0.000
REMARK INTER + INTRA:          -9.172
REMARK INTER:                  -7.715
REMARK INTRA:                  -1.457
REMARK UNBOUND:                -1.457
REMARK SMILES O=c1c(O[C@H]2O[C@@H](CO)[C@H](O)[C@H](O)[C@@H]2O)c(-c2ccc(O)c(O)c2)oc2cc(O)cc(O)c12
REMARK SMILES IDX 4 1 3 2 16 3 25 4 2 5 26 6 1 7 33 8 27 9 31 10 28 11 30 12
REMARK SMILES IDX 17 13 18 14 19 15 20 16 24 17 22 18 21 19 23 21 32 23 29 25
REMARK SMILES IDX 5 27 14 28 6 29 12 30 7 31 10 32 15 33 13 35 8 37 9 38 11 40
REMARK H PARENT 21 20 23 22 32 24 29 26 15 34 13 36 9 39 11 41
REMARK Flexibility Score: inf
ROOT
ATOM      1  O   UNL     1       2.319  12.749  75.409  1.00  0.00    -0.454 OA
ENDROOT
BRANCH   1   2
ATOM      2  C   UNL     1       2.686  14.109  75.406  1.00  0.00     0.214 A 
ATOM      3  C   UNL     1       4.031  14.443  75.150  1.00  0.00     0.180 A 
ATOM      4  O   UNL     1       4.423  15.713  75.182  1.00  0.00    -0.452 OA
ATOM      5  C   UNL     1       1.774  15.156  75.664  1.00  0.00     0.239 A 
ATOM      6  C   UNL     1       3.600  16.724  75.429  1.00  0.00     0.146 A 
ATOM      7  O   UNL     1       0.559  14.901  75.870  1.00  0.00    -0.285 OA
ATOM      8  C   UNL     1       2.229  16.492  75.681  1.00  0.00     0.111 A 
ATOM      9  C   UNL     1       4.109  18.025  75.437  1.00  0.00     0.094 A 
ATOM     10  C   UNL     1       1.381  17.597  75.938  1.00  0.00     0.134 A 
ATOM     11  C   UNL     1       3.267  19.112  75.694  1.00  0.00     0.123 A 
ATOM     12  C   UNL     1       1.911  18.895  75.940  1.00  0.00     0.093 A 
BRANCH   3  13
ATOM     13  C   UNL     1       5.059  13.410  74.894  1.00  0.00     0.025 A 
ATOM     14  C   UNL     1       5.216  12.834  73.622  1.00  0.00     0.016 A 
ATOM     15  C   UNL     1       6.193  11.861  73.403  1.00  0.00     0.051 A 
ATOM     16  C   UNL     1       7.038  11.460  74.446  1.00  0.00     0.157 A 
ATOM     17  C   UNL     1       5.923  13.023  75.930  1.00  0.00     0.062 A 
ATOM     18  C   UNL     1       6.904  12.049  75.715  1.00  0.00     0.158 A 
BRANCH  16  19
ATOM     19  O   UNL     1       8.009  10.485  74.226  1.00  0.00    -0.504 OA
ATOM     20  H   UNL     1       8.513  10.426  73.348  1.00  0.00     0.293 HD
ENDBRANCH  16  19
BRANCH  18  21
ATOM     21  O   UNL     1       7.735  11.679  76.771  1.00  0.00    -0.504 OA
ATOM     22  H   UNL     1       7.424  11.704  77.735  1.00  0.00     0.293 HD
ENDBRANCH  18  21
ENDBRANCH   3  13
BRANCH  10  23
ATOM     23  O   UNL     1       0.020  17.415  76.190  1.00  0.00    -0.507 OA
ATOM     24  H   UNL     1      -0.350  17.398  77.133  1.00  0.00     0.293 HD
ENDBRANCH  10  23
BRANCH  11  25
ATOM     25  O   UNL     1       3.768  20.412  75.704  1.00  0.00    -0.508 OA
ATOM     26  H   UNL     1       3.155  21.217  75.654  1.00  0.00     0.293 HD
ENDBRANCH  11  25
ENDBRANCH   1   2
BRANCH   1  27
ATOM     27  C   UNL     1       1.500  12.092  74.438  1.00  0.00     0.339 C 
ATOM     28  C   UNL     1       0.169  11.666  75.076  1.00  0.00     0.214 C 
ATOM     29  O   UNL     1       2.178  11.010  73.809  1.00  0.00    -0.332 OA
ATOM     30  C   UNL     1       0.401  10.513  76.062  1.00  0.00     0.180 C 
ATOM     31  C   UNL     1       2.423   9.889  74.653  1.00  0.00     0.179 C 
ATOM     32  C   UNL     1       1.156   9.365  75.368  1.00  0.00     0.177 C 
BRANCH  28  33
ATOM     33  O   UNL     1      -0.729  11.287  74.063  1.00  0.00    -0.384 OA
ATOM     34  H   UNL     1      -1.639  11.530  74.376  1.00  0.00     0.211 HD
ENDBRANCH  28  33
BRANCH  30  35
ATOM     35  O   UNL     1      -0.829  10.066  76.570  1.00  0.00    -0.387 OA
ATOM     36  H   UNL     1      -1.263  10.848  76.999  1.00  0.00     0.211 HD
ENDBRANCH  30  35
BRANCH  31  37
ATOM     37  C   UNL     1       3.614  10.103  75.609  1.00  0.00     0.191 C 
BRANCH  37  38
ATOM     38  O   UNL     1       4.594   9.120  75.417  1.00  0.00    -0.394 OA
ATOM     39  H   UNL     1       4.378   8.667  74.559  1.00  0.00     0.210 HD
ENDBRANCH  37  38
ENDBRANCH  31  37
BRANCH  32  40
ATOM     40  O   UNL     1       0.327   8.734  74.422  1.00  0.00    -0.387 OA
ATOM     41  H   UNL     1       0.542   7.766  74.445  1.00  0.00     0.211 HD
ENDBRANCH  32  40
ENDBRANCH   1  27
TORSDOF 12
ENDMDL
MODEL 2
REMARK VINA RESULT:    -5.125      1.003      2.261
REMARK INTER + INTRA:          -8.979
REMARK INTER:                  -7.606
REMARK INTRA:                  -1.373
REMARK UNBOUND:                -1.457
REMARK SMILES O=c1c(O[C@H]2O[C@@H](CO)[C@H](O)[C@H](O)[C@@H]2O)c(-c2ccc(O)c(O)c2)oc2cc(O)cc(O)c12
REMARK SMILES IDX 4 1 3 2 16 3 25 4 2 5 26 6 1 7 33 8 27 9 31 10 28 11 30 12
REMARK SMILES IDX 17 13 18 14 19 15 20 16 24 17 22 18 21 19 23 21 32 23 29 25
REMARK SMILES IDX 5 27 14 28 6 29 12 30 7 31 10 32 15 33 13 35 8 37 9 38 11 40
REMARK H PARENT 21 20 23 22 32 24 29 26 15 34 13 36 9 39 11 41
REMARK Flexibility Score: inf
ROOT
ATOM      1  O   UNL     1       2.438  12.425  74.788  1.00  0.00    -0.454 OA
ENDROOT
BRANCH   1   2
ATOM      2  C   UNL     1       2.609  13.796  75.059  1.00  0.00     0.214 A 
ATOM      3  C   UNL     1       3.916  14.323  75.071  1.00  0.00     0.180 A 
ATOM      4  O   UNL     1       4.120  15.603  75.366  1.00  0.00    -0.452 OA
ATOM      5  C   UNL     1       1.535  14.669  75.339  1.00  0.00     0.239 A 
ATOM      6  C   UNL     1       3.140  16.452  75.642  1.00  0.00     0.146 A 
ATOM      7  O   UNL     1       0.350  14.244  75.312  1.00  0.00    -0.285 OA
ATOM      8  C   UNL     1       1.793  16.023  75.640  1.00  0.00     0.111 A 
ATOM      9  C   UNL     1       3.457  17.781  75.937  1.00  0.00     0.094 A 
ATOM     10  C   UNL     1       0.773  16.960  75.937  1.00  0.00     0.134 A 
ATOM     11  C   UNL     1       2.445  18.700  76.232  1.00  0.00     0.123 A 
ATOM     12  C   UNL     1       1.112  18.289  76.229  1.00  0.00     0.093 A 
BRANCH   3  13
ATOM     13  C   UNL     1       5.103  13.477  74.813  1.00  0.00     0.025 A 
ATOM     14  C   UNL     1       5.510  13.167  73.505  1.00  0.00     0.016 A 
ATOM     15  C   UNL     1       6.634  12.367  73.285  1.00  0.00     0.051 A 
ATOM     16  C   UNL     1       7.376  11.878  74.368  1.00  0.00     0.157 A 
ATOM     17  C   UNL     1       5.863  13.005  75.895  1.00  0.00     0.062 A 
ATOM     18  C   UNL     1       6.991  12.204  75.679  1.00  0.00     0.158 A 
BRANCH  16  19
ATOM     19  O   UNL     1       8.494  11.076  74.146  1.00  0.00    -0.504 OA
ATOM     20  H   UNL     1       8.442  10.066  74.204  1.00  0.00     0.293 HD
ENDBRANCH  16  19
BRANCH  18  21
ATOM     21  O   UNL     1       7.713  11.742  76.779  1.00  0.00    -0.504 OA
ATOM     22  H   UNL     1       8.256  12.364  77.366  1.00  0.00     0.293 HD
ENDBRANCH  18  21
ENDBRANCH   3  13
BRANCH  10  23
ATOM     23  O   UNL     1      -0.571  16.582  75.945  1.00  0.00    -0.507 OA
ATOM     24  H   UNL     1      -1.079  16.436  76.809  1.00  0.00     0.293 HD
ENDBRANCH  10  23
BRANCH  11  25
ATOM     25  O   UNL     1       2.755  20.027  76.528  1.00  0.00    -0.508 OA
ATOM     26  H   UNL     1       2.171  20.583  77.142  1.00  0.00     0.293 HD
ENDBRANCH  11  25
ENDBRANCH   1   2
BRANCH   1  27
ATOM     27  C   UNL     1       2.734  11.345  75.677  1.00  0.00     0.339 C 
ATOM     28  C   UNL     1       3.502  10.244  74.929  1.00  0.00     0.214 C 
ATOM     29  O   UNL     1       1.568  10.853  76.330  1.00  0.00    -0.332 OA
ATOM     30  C   UNL     1       2.573   9.534  73.936  1.00  0.00     0.180 C 
ATOM     31  C   UNL     1       0.654  10.166  75.480  1.00  0.00     0.179 C 
ATOM     32  C   UNL     1       1.308   9.032  74.657  1.00  0.00     0.177 C 
BRANCH  28  33
ATOM     33  O   UNL     1       4.030   9.334  75.861  1.00  0.00    -0.384 OA
ATOM     34  H   UNL     1       4.267   8.511  75.359  1.00  0.00     0.211 HD
ENDBRANCH  28  33
BRANCH  30  35
ATOM     35  O   UNL     1       3.254   8.469  73.324  1.00  0.00    -0.387 OA
ATOM     36  H   UNL     1       4.012   8.234  73.920  1.00  0.00     0.211 HD
ENDBRANCH  30  35
BRANCH  31  37
ATOM     37  C   UNL     1      -0.205  11.119  74.623  1.00  0.00     0.191 C 
BRANCH  37  38
ATOM     38  O   UNL     1      -1.089  11.853  75.424  1.00  0.00    -0.394 OA
ATOM     39  H   UNL     1      -1.067  12.788  75.089  1.00  0.00     0.210 HD
ENDBRANCH  37  38
ENDBRANCH  31  37
BRANCH  32  40
ATOM     40  O   UNL     1       1.626   7.968  75.520  1.00  0.00    -0.387 OA
ATOM     41  H   UNL     1       2.331   8.294  76.138  1.00  0.00     0.211 HD
ENDBRANCH  32  40
ENDBRANCH   1  27
TORSDOF 12
ENDMDL
MODEL 3
REMARK VINA RESULT:    -5.033      2.443      4.343
REMARK INTER + INTRA:          -8.844
REMARK INTER:                  -7.252
REMARK INTRA:                  -1.592
REMARK UNBOUND:                -1.457
REMARK SMILES O=c1c(O[C@H]2O[C@@H](CO)[C@H](O)[C@H](O)[C@@H]2O)c(-c2ccc(O)c(O)c2)oc2cc(O)cc(O)c12
REMARK SMILES IDX 4 1 3 2 16 3 25 4 2 5 26 6 1 7 33 8 27 9 31 10 28 11 30 12
REMARK SMILES IDX 17 13 18 14 19 15 20 16 24 17 22 18 21 19 23 21 32 23 29 25
REMARK SMILES IDX 5 27 14 28 6 29 12 30 7 31 10 32 15 33 13 35 8 37 9 38 11 40
REMARK H PARENT 21 20 23 22 32 24 29 26 15 34 13 36 9 39 11 41
REMARK Flexibility Score: inf
ROOT
ATOM      1  O   UNL     1       5.193  13.732  74.551  1.00  0.00    -0.454 OA
ENDROOT
BRANCH   1   2
ATOM      2  C   UNL     1       5.117  15.138  74.536  1.00  0.00     0.214 A 
ATOM      3  C   UNL     1       6.092  15.858  73.816  1.00  0.00     0.180 A 
ATOM      4  O   UNL     1       6.078  17.187  73.816  1.00  0.00    -0.452 OA
ATOM      5  C   UNL     1       4.122  15.867  75.224  1.00  0.00     0.239 A 
ATOM      6  C   UNL     1       5.166  17.907  74.455  1.00  0.00     0.146 A 
ATOM      7  O   UNL     1       3.217  15.260  75.856  1.00  0.00    -0.285 OA
ATOM      8  C   UNL     1       4.138  17.277  75.191  1.00  0.00     0.111 A 
ATOM      9  C   UNL     1       5.236  19.302  74.390  1.00  0.00     0.094 A 
ATOM     10  C   UNL     1       3.180  18.079  75.859  1.00  0.00     0.134 A 
ATOM     11  C   UNL     1       4.289  20.088  75.053  1.00  0.00     0.123 A 
ATOM     12  C   UNL     1       3.267  19.477  75.781  1.00  0.00     0.093 A 
BRANCH   3  13
ATOM     13  C   UNL     1       7.185  15.179  73.087  1.00  0.00     0.025 A 
ATOM     14  C   UNL     1       6.945  14.482  71.891  1.00  0.00     0.016 A 
ATOM     15  C   UNL     1       7.993  13.848  71.219  1.00  0.00     0.051 A 
ATOM     16  C   UNL     1       9.299  13.916  71.723  1.00  0.00     0.157 A 
ATOM     17  C   UNL     1       8.499  15.263  73.575  1.00  0.00     0.062 A 
ATOM     18  C   UNL     1       9.552  14.631  72.905  1.00  0.00     0.158 A 
BRANCH  16  19
ATOM     19  O   UNL     1      10.342  13.278  71.053  1.00  0.00    -0.504 OA
ATOM     20  H   UNL     1      10.843  13.731  70.298  1.00  0.00     0.293 HD
ENDBRANCH  16  19
BRANCH  18  21
ATOM     21  O   UNL     1      10.841  14.725  73.428  1.00  0.00    -0.504 OA
ATOM     22  H   UNL     1      11.584  14.098  73.144  1.00  0.00     0.293 HD
ENDBRANCH  18  21
ENDBRANCH   3  13
BRANCH  10  23
ATOM     23  O   UNL     1       2.146  17.500  76.597  1.00  0.00    -0.507 OA
ATOM     24  H   UNL     1       2.321  16.769  77.277  1.00  0.00     0.293 HD
ENDBRANCH  10  23
BRANCH  11  25
ATOM     25  O   UNL     1       4.353  21.479  74.994  1.00  0.00    -0.508 OA
ATOM     26  H   UNL     1       3.518  22.044  74.897  1.00  0.00     0.293 HD
ENDBRANCH  11  25
ENDBRANCH   1   2
BRANCH   1  27
ATOM     27  C   UNL     1       5.680  12.923  75.626  1.00  0.00     0.339 C 
ATOM     28  C   UNL     1       7.154  12.565  75.385  1.00  0.00     0.214 C 
ATOM     29  O   UNL     1       4.865  11.778  75.846  1.00  0.00    -0.332 OA
ATOM     30  C   UNL     1       7.273  11.572  74.221  1.00  0.00     0.180 C 
ATOM     31  C   UNL     1       4.927  10.795  74.816  1.00  0.00     0.179 C 
ATOM     32  C   UNL     1       6.366  10.352  74.469  1.00  0.00     0.177 C 
BRANCH  28  33
ATOM     33  O   UNL     1       7.696  12.023  76.564  1.00  0.00    -0.384 OA
ATOM     34  H   UNL     1       7.414  11.072  76.602  1.00  0.00     0.211 HD
ENDBRANCH  28  33
BRANCH  30  35
ATOM     35  O   UNL     1       8.611  11.175  74.067  1.00  0.00    -0.387 OA
ATOM     36  H   UNL     1       8.619  10.183  74.089  1.00  0.00     0.211 HD
ENDBRANCH  30  35
BRANCH  31  37
ATOM     37  C   UNL     1       4.092  11.172  73.574  1.00  0.00     0.191 C 
BRANCH  37  38
ATOM     38  O   UNL     1       2.918  11.843  73.944  1.00  0.00    -0.394 OA
ATOM     39  H   UNL     1       3.198  12.617  74.501  1.00  0.00     0.210 HD
ENDBRANCH  37  38
ENDBRANCH  31  37
BRANCH  32  40
ATOM     40  O   UNL     1       6.870   9.573  75.525  1.00  0.00    -0.387 OA
ATOM     41  H   UNL     1       7.402   8.840  75.121  1.00  0.00     0.211 HD
ENDBRANCH  32  40
ENDBRANCH   1  27
TORSDOF 12
ENDMDL
MODEL 4
REMARK VINA RESULT:    -4.924      2.446      7.578
REMARK INTER + INTRA:          -8.684
REMARK INTER:                  -7.093
REMARK INTRA:                  -1.590
REMARK UNBOUND:                -1.457
REMARK SMILES O=c1c(O[C@H]2O[C@@H](CO)[C@H](O)[C@H](O)[C@@H]2O)c(-c2ccc(O)c(O)c2)oc2cc(O)cc(O)c12
REMARK SMILES IDX 4 1 3 2 16 3 25 4 2 5 26 6 1 7 33 8 27 9 31 10 28 11 30 12
REMARK SMILES IDX 17 13 18 14 19 15 20 16 24 17 22 18 21 19 23 21 32 23 29 25
REMARK SMILES IDX 5 27 14 28 6 29 12 30 7 31 10 32 15 33 13 35 8 37 9 38 11 40
REMARK H PARENT 21 20 23 22 32 24 29 26 15 34 13 36 9 39 11 41
REMARK Flexibility Score: inf
ROOT
ATOM      1  O   UNL     1       3.643  16.916  74.687  1.00  0.00    -0.454 OA
ENDROOT
BRANCH   1   2
ATOM      2  C   UNL     1       4.438  15.761  74.554  1.00  0.00     0.214 A 
ATOM      3  C   UNL     1       3.838  14.503  74.761  1.00  0.00     0.180 A 
ATOM      4  O   UNL     1       4.567  13.394  74.687  1.00  0.00    -0.452 OA
ATOM      5  C   UNL     1       5.814  15.802  74.240  1.00  0.00     0.239 A 
ATOM      6  C   UNL     1       5.863  13.390  74.403  1.00  0.00     0.146 A 
ATOM      7  O   UNL     1       6.381  16.905  74.021  1.00  0.00    -0.285 OA
ATOM      8  C   UNL     1       6.550  14.601  74.163  1.00  0.00     0.111 A 
ATOM      9  C   UNL     1       6.541  12.169  74.345  1.00  0.00     0.094 A 
ATOM     10  C   UNL     1       7.934  14.558  73.860  1.00  0.00     0.134 A 
ATOM     11  C   UNL     1       7.907  12.133  74.048  1.00  0.00     0.123 A 
ATOM     12  C   UNL     1       8.596  13.322  73.805  1.00  0.00     0.093 A 
BRANCH   3  13
ATOM     13  C   UNL     1       2.409  14.366  75.117  1.00  0.00     0.025 A 
ATOM     14  C   UNL     1       1.399  14.937  74.325  1.00  0.00     0.016 A 
ATOM     15  C   UNL     1       0.056  14.796  74.680  1.00  0.00     0.051 A 
ATOM     16  C   UNL     1      -0.299  14.068  75.824  1.00  0.00     0.157 A 
ATOM     17  C   UNL     1       2.047  13.618  76.249  1.00  0.00     0.062 A 
ATOM     18  C   UNL     1       0.702  13.473  76.609  1.00  0.00     0.158 A 
BRANCH  16  19
ATOM     19  O   UNL     1      -1.640  13.932  76.179  1.00  0.00    -0.504 OA
ATOM     20  H   UNL     1      -2.384  14.285  75.588  1.00  0.00     0.293 HD
ENDBRANCH  16  19
BRANCH  18  21
ATOM     21  O   UNL     1       0.382  12.734  77.747  1.00  0.00    -0.504 OA
ATOM     22  H   UNL     1      -0.449  12.158  77.798  1.00  0.00     0.293 HD
ENDBRANCH  18  21
ENDBRANCH   3  13
BRANCH  10  23
ATOM     23  O   UNL     1       8.653  15.728  73.614  1.00  0.00    -0.507 OA
ATOM     24  H   UNL     1       9.541  15.716  73.127  1.00  0.00     0.293 HD
ENDBRANCH  10  23
BRANCH  11  25
ATOM     25  O   UNL     1       8.589  10.919  73.989  1.00  0.00    -0.508 OA
ATOM     26  H   UNL     1       8.535  10.320  73.174  1.00  0.00     0.293 HD
ENDBRANCH  11  25
ENDBRANCH   1   2
BRANCH   1  27
ATOM     27  C   UNL     1       3.613  17.796  75.815  1.00  0.00     0.339 C 
ATOM     28  C   UNL     1       2.171  17.948  76.323  1.00  0.00     0.214 C 
ATOM     29  O   UNL     1       4.231  19.047  75.535  1.00  0.00    -0.332 OA
ATOM     30  C   UNL     1       1.341  18.760  75.321  1.00  0.00     0.180 C 
ATOM     31  C   UNL     1       3.516  19.873  74.620  1.00  0.00     0.179 C 
ATOM     32  C   UNL     1       2.038  20.098  75.015  1.00  0.00     0.177 C 
BRANCH  28  33
ATOM     33  O   UNL     1       2.189  18.572  77.583  1.00  0.00    -0.384 OA
ATOM     34  H   UNL     1       2.451  19.518  77.434  1.00  0.00     0.211 HD
ENDBRANCH  28  33
BRANCH  30  35
ATOM     35  O   UNL     1       0.052  18.977  75.835  1.00  0.00    -0.387 OA
ATOM     36  H   UNL     1      -0.523  18.250  75.480  1.00  0.00     0.211 HD
ENDBRANCH  30  35
BRANCH  31  37
ATOM     37  C   UNL     1       3.692  19.437  73.150  1.00  0.00     0.191 C 
BRANCH  37  38
ATOM     38  O   UNL     1       5.017  19.062  72.894  1.00  0.00    -0.394 OA
ATOM     39  H   UNL     1       5.513  19.170  73.748  1.00  0.00     0.210 HD
ENDBRANCH  37  38
ENDBRANCH  31  37
BRANCH  32  40
ATOM     40  O   UNL     1       1.991  20.945  76.136  1.00  0.00    -0.387 OA
ATOM     41  H   UNL     1       2.486  21.771  75.901  1.00  0.00     0.211 HD
ENDBRANCH  32  40
ENDBRANCH   1  27
TORSDOF 12
ENDMDL
MODEL 5
REMARK VINA RESULT:    -4.849      2.446      8.082
REMARK INTER + INTRA:          -8.573
REMARK INTER:                  -6.758
REMARK INTRA:                  -1.815
REMARK UNBOUND:                -1.457
REMARK SMILES O=c1c(O[C@H]2O[C@@H](CO)[C@H](O)[C@H](O)[C@@H]2O)c(-c2ccc(O)c(O)c2)oc2cc(O)cc(O)c12
REMARK SMILES IDX 4 1 3 2 16 3 25 4 2 5 26 6 1 7 33 8 27 9 31 10 28 11 30 12
REMARK SMILES IDX 17 13 18 14 19 15 20 16 24 17 22 18 21 19 23 21 32 23 29 25
REMARK SMILES IDX 5 27 14 28 6 29 12 30 7 31 10 32 15 33 13 35 8 37 9 38 11 40
REMARK H PARENT 21 20 23 22 32 24 29 26 15 34 13 36 9 39 11 41
REMARK Flexibility Score: inf
ROOT
ATOM      1  O   UNL     1       4.808  12.202  74.289  1.00  0.00    -0.454 OA
ENDROOT
BRANCH   1   2
ATOM      2  C   UNL     1       4.889  10.808  74.467  1.00  0.00     0.214 A 
ATOM      3  C   UNL     1       3.719  10.104  74.820  1.00  0.00     0.180 A 
ATOM      4  O   UNL     1       3.767   8.794  75.039  1.00  0.00    -0.452 OA
ATOM      5  C   UNL     1       6.091  10.079  74.328  1.00  0.00     0.239 A 
ATOM      6  C   UNL     1       4.876   8.075  74.926  1.00  0.00     0.146 A 
ATOM      7  O   UNL     1       7.151  10.666  73.987  1.00  0.00    -0.285 OA
ATOM      8  C   UNL     1       6.096   8.687  74.561  1.00  0.00     0.111 A 
ATOM      9  C   UNL     1       4.822   6.701  75.175  1.00  0.00     0.094 A 
ATOM     10  C   UNL     1       7.260   7.887  74.448  1.00  0.00     0.134 A 
ATOM     11  C   UNL     1       5.974   5.917  75.064  1.00  0.00     0.123 A 
ATOM     12  C   UNL     1       7.184   6.509  74.700  1.00  0.00     0.093 A 
BRANCH   3  13
ATOM     13  C   UNL     1       2.422  10.789  75.011  1.00  0.00     0.025 A 
ATOM     14  C   UNL     1       1.545  11.008  73.937  1.00  0.00     0.016 A 
ATOM     15  C   UNL     1       0.325  11.657  74.140  1.00  0.00     0.051 A 
ATOM     16  C   UNL     1      -0.044  12.082  75.424  1.00  0.00     0.157 A 
ATOM     17  C   UNL     1       2.039  11.195  76.299  1.00  0.00     0.062 A 
ATOM     18  C   UNL     1       0.817  11.845  76.509  1.00  0.00     0.158 A 
BRANCH  16  19
ATOM     19  O   UNL     1      -1.260  12.733  75.624  1.00  0.00    -0.504 OA
ATOM     20  H   UNL     1      -1.378  13.423  76.357  1.00  0.00     0.293 HD
ENDBRANCH  16  19
BRANCH  18  21
ATOM     21  O   UNL     1       0.476  12.246  77.800  1.00  0.00    -0.504 OA
ATOM     22  H   UNL     1      -0.471  12.504  78.051  1.00  0.00     0.293 HD
ENDBRANCH  18  21
ENDBRANCH   3  13
BRANCH  10  23
ATOM     23  O   UNL     1       8.486   8.448  74.089  1.00  0.00    -0.507 OA
ATOM     24  H   UNL     1       9.366   8.005  74.326  1.00  0.00     0.293 HD
ENDBRANCH  10  23
BRANCH  11  25
ATOM     25  O   UNL     1       5.927   4.546  75.311  1.00  0.00    -0.508 OA
ATOM     26  H   UNL     1       5.048   4.045  75.354  1.00  0.00     0.293 HD
ENDBRANCH  11  25
ENDBRANCH   1   2
BRANCH   1  27
ATOM     27  C   UNL     1       5.107  13.198  75.271  1.00  0.00     0.339 C 
ATOM     28  C   UNL     1       3.906  14.140  75.446  1.00  0.00     0.214 C 
ATOM     29  O   UNL     1       6.313  13.895  74.978  1.00  0.00    -0.332 OA
ATOM     30  C   UNL     1       3.743  15.024  74.202  1.00  0.00     0.180 C 
ATOM     31  C   UNL     1       6.245  14.751  73.841  1.00  0.00     0.179 C 
ATOM     32  C   UNL     1       5.065  15.749  73.889  1.00  0.00     0.177 C 
BRANCH  28  33
ATOM     33  O   UNL     1       4.098  14.924  76.597  1.00  0.00    -0.384 OA
ATOM     34  H   UNL     1       4.829  14.500  77.118  1.00  0.00     0.211 HD
ENDBRANCH  28  33
BRANCH  30  35
ATOM     35  O   UNL     1       2.705  15.947  74.406  1.00  0.00    -0.387 OA
ATOM     36  H   UNL     1       1.885  15.419  74.591  1.00  0.00     0.211 HD
ENDBRANCH  30  35
BRANCH  31  37
ATOM     37  C   UNL     1       6.339  13.987  72.504  1.00  0.00     0.191 C 
BRANCH  37  38
ATOM     38  O   UNL     1       7.325  12.992  72.564  1.00  0.00    -0.394 OA
ATOM     39  H   UNL     1       6.849  12.120  72.544  1.00  0.00     0.210 HD
ENDBRANCH  37  38
ENDBRANCH  31  37
BRANCH  32  40
ATOM     40  O   UNL     1       5.333  16.724  74.866  1.00  0.00    -0.387 OA
ATOM     41  H   UNL     1       4.897  17.565  74.567  1.00  0.00     0.211 HD
ENDBRANCH  32  40
ENDBRANCH   1  27
TORSDOF 12
ENDMDL
MODEL 6
REMARK VINA RESULT:    -4.848      1.709      2.867
REMARK INTER + INTRA:          -8.572
REMARK INTER:                  -6.974
REMARK INTRA:                  -1.598
REMARK UNBOUND:                -1.457
REMARK SMILES O=c1c(O[C@H]2O[C@@H](CO)[C@H](O)[C@H](O)[C@@H]2O)c(-c2ccc(O)c(O)c2)oc2cc(O)cc(O)c12
REMARK SMILES IDX 4 1 3 2 16 3 25 4 2 5 26 6 1 7 33 8 27 9 31 10 28 11 30 12
REMARK SMILES IDX 17 13 18 14 19 15 20 16 24 17 22 18 21 19 23 21 32 23 29 25
REMARK SMILES IDX 5 27 14 28 6 29 12 30 7 31 10 32 15 33 13 35 8 37 9 38 11 40
REMARK H PARENT 21 20 23 22 32 24 29 26 15 34 13 36 9 39 11 41
REMARK Flexibility Score: inf
ROOT
ATOM      1  O   UNL     1       0.542  14.323  75.042  1.00  0.00    -0.454 OA
ENDROOT
BRANCH   1   2
ATOM      2  C   UNL     1       0.958  15.613  75.425  1.00  0.00     0.214 A 
ATOM      3  C   UNL     1       2.334  15.915  75.396  1.00  0.00     0.180 A 
ATOM      4  O   UNL     1       2.767  17.107  75.793  1.00  0.00    -0.452 OA
ATOM      5  C   UNL     1       0.063  16.617  75.857  1.00  0.00     0.239 A 
ATOM      6  C   UNL     1       1.961  18.073  76.212  1.00  0.00     0.146 A 
ATOM      7  O   UNL     1      -1.177  16.397  75.872  1.00  0.00    -0.285 OA
ATOM      8  C   UNL     1       0.563  17.873  76.262  1.00  0.00     0.111 A 
ATOM      9  C   UNL     1       2.514  19.295  76.605  1.00  0.00     0.094 A 
ATOM     10  C   UNL     1      -0.267  18.929  76.713  1.00  0.00     0.134 A 
ATOM     11  C   UNL     1       1.689  20.332  77.052  1.00  0.00     0.123 A 
ATOM     12  C   UNL     1       0.307  20.148  77.102  1.00  0.00     0.093 A 
BRANCH   3  13
ATOM     13  C   UNL     1       3.345  14.917  74.981  1.00  0.00     0.025 A 
ATOM     14  C   UNL     1       3.562  14.615  73.627  1.00  0.00     0.016 A 
ATOM     15  C   UNL     1       4.522  13.670  73.258  1.00  0.00     0.051 A 
ATOM     16  C   UNL     1       5.290  13.023  74.236  1.00  0.00     0.157 A 
ATOM     17  C   UNL     1       4.132  14.284  75.956  1.00  0.00     0.062 A 
ATOM     18  C   UNL     1       5.096  13.337  75.592  1.00  0.00     0.158 A 
BRANCH  16  19
ATOM     19  O   UNL     1       6.243  12.077  73.866  1.00  0.00    -0.504 OA
ATOM     20  H   UNL     1       5.983  11.127  73.624  1.00  0.00     0.293 HD
ENDBRANCH  16  19
BRANCH  18  21
ATOM     21  O   UNL     1       5.849  12.719  76.589  1.00  0.00    -0.504 OA
ATOM     22  H   UNL     1       6.859  12.657  76.540  1.00  0.00     0.293 HD
ENDBRANCH  18  21
ENDBRANCH   3  13
BRANCH  10  23
ATOM     23  O   UNL     1      -1.653  18.777  76.778  1.00  0.00    -0.507 OA
ATOM     24  H   UNL     1      -2.283  19.556  76.628  1.00  0.00     0.293 HD
ENDBRANCH  10  23
BRANCH  11  25
ATOM     25  O   UNL     1       2.235  21.553  77.446  1.00  0.00    -0.508 OA
ATOM     26  H   UNL     1       2.060  22.404  76.926  1.00  0.00     0.293 HD
ENDBRANCH  11  25
ENDBRANCH   1   2
BRANCH   1  27
ATOM     27  C   UNL     1      -0.060  13.342  75.891  1.00  0.00     0.339 C 
ATOM     28  C   UNL     1       1.029  12.517  76.593  1.00  0.00     0.214 C 
ATOM     29  O   UNL     1      -0.998  12.532  75.191  1.00  0.00    -0.332 OA
ATOM     30  C   UNL     1       1.735  11.605  75.582  1.00  0.00     0.180 C 
ATOM     31  C   UNL     1      -0.422  11.642  74.238  1.00  0.00     0.179 C 
ATOM     32  C   UNL     1       0.702  10.755  74.820  1.00  0.00     0.177 C 
BRANCH  28  33
ATOM     33  O   UNL     1       0.443  11.763  77.625  1.00  0.00    -0.384 OA
ATOM     34  H   UNL     1       1.106  11.718  78.363  1.00  0.00     0.211 HD
ENDBRANCH  28  33
BRANCH  30  35
ATOM     35  O   UNL     1       2.663  10.786  76.245  1.00  0.00    -0.387 OA
ATOM     36  H   UNL     1       3.167  11.371  76.868  1.00  0.00     0.211 HD
ENDBRANCH  30  35
BRANCH  31  37
ATOM     37  C   UNL     1      -0.022  12.345  72.924  1.00  0.00     0.191 C 
BRANCH  37  38
ATOM     38  O   UNL     1      -0.948  13.341  72.586  1.00  0.00    -0.394 OA
ATOM     39  H   UNL     1      -1.070  13.293  71.601  1.00  0.00     0.210 HD
ENDBRANCH  37  38
ENDBRANCH  31  37
BRANCH  32  40
ATOM     40  O   UNL     1       0.129   9.797  75.676  1.00  0.00    -0.387 OA
ATOM     41  H   UNL     1       0.814   9.096  75.830  1.00  0.00     0.211 HD
ENDBRANCH  32  40
ENDBRANCH   1  27
TORSDOF 12
ENDMDL
MODEL 7
REMARK VINA RESULT:    -4.839     13.000     14.780
REMARK INTER + INTRA:          -8.559
REMARK INTER:                  -6.801
REMARK INTRA:                  -1.759
REMARK UNBOUND:                -1.457
REMARK SMILES O=c1c(O[C@H]2O[C@@H](CO)[C@H](O)[C@H](O)[C@@H]2O)c(-c2ccc(O)c(O)c2)oc2cc(O)cc(O)c12
REMARK SMILES IDX 4 1 3 2 16 3 25 4 2 5 26 6 1 7 33 8 27 9 31 10 28 11 30 12
REMARK SMILES IDX 17 13 18 14 19 15 20 16 24 17 22 18 21 19 23 21 32 23 29 25
REMARK SMILES IDX 5 27 14 28 6 29 12 30 7 31 10 32 15 33 13 35 8 37 9 38 11 40
REMARK H PARENT 21 20 23 22 32 24 29 26 15 34 13 36 9 39 11 41
REMARK Flexibility Score: inf
ROOT
ATOM      1  O   UNL     1      -0.421  15.264  62.104  1.00  0.00    -0.454 OA
ENDROOT
BRANCH   1   2
ATOM      2  C   UNL     1       0.807  15.031  62.754  1.00  0.00     0.214 A 
ATOM      3  C   UNL     1       1.786  16.044  62.728  1.00  0.00     0.180 A 
ATOM      4  O   UNL     1       2.973  15.843  63.292  1.00  0.00    -0.452 OA
ATOM      5  C   UNL     1       1.114  13.821  63.416  1.00  0.00     0.239 A 
ATOM      6  C   UNL     1       3.303  14.720  63.916  1.00  0.00     0.146 A 
ATOM      7  O   UNL     1       0.257  12.902  63.485  1.00  0.00    -0.285 OA
ATOM      8  C   UNL     1       2.383  13.652  64.009  1.00  0.00     0.111 A 
ATOM      9  C   UNL     1       4.576  14.607  64.481  1.00  0.00     0.094 A 
ATOM     10  C   UNL     1       2.770  12.468  64.686  1.00  0.00     0.134 A 
ATOM     11  C   UNL     1       4.953  13.436  65.145  1.00  0.00     0.123 A 
ATOM     12  C   UNL     1       4.052  12.375  65.247  1.00  0.00     0.093 A 
BRANCH   3  13
ATOM     13  C   UNL     1       1.560  17.333  62.037  1.00  0.00     0.025 A 
ATOM     14  C   UNL     1       0.757  18.336  62.604  1.00  0.00     0.016 A 
ATOM     15  C   UNL     1       0.558  19.546  61.935  1.00  0.00     0.051 A 
ATOM     16  C   UNL     1       1.171  19.777  60.696  1.00  0.00     0.157 A 
ATOM     17  C   UNL     1       2.191  17.578  60.807  1.00  0.00     0.062 A 
ATOM     18  C   UNL     1       1.995  18.788  60.133  1.00  0.00     0.158 A 
BRANCH  16  19
ATOM     19  O   UNL     1       0.966  20.982  60.027  1.00  0.00    -0.504 OA
ATOM     20  H   UNL     1       0.951  21.032  59.015  1.00  0.00     0.293 HD
ENDBRANCH  16  19
BRANCH  18  21
ATOM     21  O   UNL     1       2.627  18.990  58.906  1.00  0.00    -0.504 OA
ATOM     22  H   UNL     1       2.966  19.900  58.619  1.00  0.00     0.293 HD
ENDBRANCH  18  21
ENDBRANCH   3  13
BRANCH  10  23
ATOM     23  O   UNL     1       1.894  11.388  64.803  1.00  0.00    -0.507 OA
ATOM     24  H   UNL     1       1.093  11.416  65.423  1.00  0.00     0.293 HD
ENDBRANCH  10  23
BRANCH  11  25
ATOM     25  O   UNL     1       6.222  13.316  65.710  1.00  0.00    -0.508 OA
ATOM     26  H   UNL     1       6.378  12.778  66.554  1.00  0.00     0.293 HD
ENDBRANCH  11  25
ENDBRANCH   1   2
BRANCH   1  27
ATOM     27  C   UNL     1      -0.716  14.990  60.732  1.00  0.00     0.339 C 
ATOM     28  C   UNL     1      -1.117  16.287  60.013  1.00  0.00     0.214 C 
ATOM     29  O   UNL     1      -1.687  13.960  60.588  1.00  0.00    -0.332 OA
ATOM     30  C   UNL     1      -2.494  16.756  60.500  1.00  0.00     0.180 C 
ATOM     31  C   UNL     1      -3.002  14.317  61.005  1.00  0.00     0.179 C 
ATOM     32  C   UNL     1      -3.524  15.620  60.357  1.00  0.00     0.177 C 
BRANCH  28  33
ATOM     33  O   UNL     1      -1.125  16.063  58.625  1.00  0.00    -0.384 OA
ATOM     34  H   UNL     1      -1.835  16.641  58.242  1.00  0.00     0.211 HD
ENDBRANCH  28  33
BRANCH  30  35
ATOM     35  O   UNL     1      -2.897  17.888  59.772  1.00  0.00    -0.387 OA
ATOM     36  H   UNL     1      -2.082  18.256  59.342  1.00  0.00     0.211 HD
ENDBRANCH  30  35
BRANCH  31  37
ATOM     37  C   UNL     1      -3.174  14.291  62.538  1.00  0.00     0.191 C 
BRANCH  37  38
ATOM     38  O   UNL     1      -2.504  13.195  63.099  1.00  0.00    -0.394 OA
ATOM     39  H   UNL     1      -1.541  13.435  63.125  1.00  0.00     0.210 HD
ENDBRANCH  37  38
ENDBRANCH  31  37
BRANCH  32  40
ATOM     40  O   UNL     1      -3.799  15.375  59.000  1.00  0.00    -0.387 OA
ATOM     41  H   UNL     1      -2.971  15.007  58.596  1.00  0.00     0.211 HD
ENDBRANCH  32  40
ENDBRANCH   1  27
TORSDOF 12
ENDMDL
MODEL 8
REMARK VINA RESULT:    -4.765     11.721     14.651
REMARK INTER + INTRA:          -8.451
REMARK INTER:                  -7.024
REMARK INTRA:                  -1.427
REMARK UNBOUND:                -1.457
REMARK SMILES O=c1c(O[C@H]2O[C@@H](CO)[C@H](O)[C@H](O)[C@@H]2O)c(-c2ccc(O)c(O)c2)oc2cc(O)cc(O)c12
REMARK SMILES IDX 4 1 3 2 16 3 25 4 2 5 26 6 1 7 33 8 27 9 31 10 28 11 30 12
REMARK SMILES IDX 17 13 18 14 19 15 20 16 24 17 22 18 21 19 23 21 32 23 29 25
REMARK SMILES IDX 5 27 14 28 6 29 12 30 7 31 10 32 15 33 13 35 8 37 9 38 11 40
REMARK H PARENT 21 20 23 22 32 24 29 26 15 34 13 36 9 39 11 41
REMARK Flexibility Score: inf
ROOT
ATOM      1  O   UNL     1       9.701  11.585  62.177  1.00  0.00    -0.454 OA
ENDROOT
BRANCH   1   2
ATOM      2  C   UNL     1       9.024  11.582  63.412  1.00  0.00     0.214 A 
ATOM      3  C   UNL     1       9.311  10.556  64.336  1.00  0.00     0.180 A 
ATOM      4  O   UNL     1       8.660  10.496  65.493  1.00  0.00    -0.452 OA
ATOM      5  C   UNL     1       8.056  12.548  63.766  1.00  0.00     0.239 A 
ATOM      6  C   UNL     1       7.740  11.378  65.859  1.00  0.00     0.146 A 
ATOM      7  O   UNL     1       7.792  13.496  62.981  1.00  0.00    -0.285 OA
ATOM      8  C   UNL     1       7.394  12.453  65.008  1.00  0.00     0.111 A 
ATOM      9  C   UNL     1       7.113  11.230  67.099  1.00  0.00     0.094 A 
ATOM     10  C   UNL     1       6.408  13.377  65.434  1.00  0.00     0.134 A 
ATOM     11  C   UNL     1       6.139  12.144  67.513  1.00  0.00     0.123 A 
ATOM     12  C   UNL     1       5.792  13.211  66.683  1.00  0.00     0.093 A 
BRANCH   3  13
ATOM     13  C   UNL     1      10.292   9.489  64.039  1.00  0.00     0.025 A 
ATOM     14  C   UNL     1      11.667   9.680  64.252  1.00  0.00     0.016 A 
ATOM     15  C   UNL     1      12.576   8.658  63.965  1.00  0.00     0.051 A 
ATOM     16  C   UNL     1      12.122   7.425  63.478  1.00  0.00     0.157 A 
ATOM     17  C   UNL     1       9.840   8.245  63.573  1.00  0.00     0.062 A 
ATOM     18  C   UNL     1      10.746   7.217  63.286  1.00  0.00     0.158 A 
BRANCH  16  19
ATOM     19  O   UNL     1      13.031   6.409  63.189  1.00  0.00    -0.504 OA
ATOM     20  H   UNL     1      13.455   5.851  63.921  1.00  0.00     0.293 HD
ENDBRANCH  16  19
BRANCH  18  21
ATOM     21  O   UNL     1      10.261   5.999  62.811  1.00  0.00    -0.504 OA
ATOM     22  H   UNL     1       9.310   5.695  62.982  1.00  0.00     0.293 HD
ENDBRANCH  18  21
ENDBRANCH   3  13
BRANCH  10  23
ATOM     23  O   UNL     1       6.036  14.454  64.628  1.00  0.00    -0.507 OA
ATOM     24  H   UNL     1       5.719  14.322  63.675  1.00  0.00     0.293 HD
ENDBRANCH  10  23
BRANCH  11  25
ATOM     25  O   UNL     1       5.510  12.001  68.748  1.00  0.00    -0.508 OA
ATOM     26  H   UNL     1       4.769  12.627  69.041  1.00  0.00     0.293 HD
ENDBRANCH  11  25
ENDBRANCH   1   2
BRANCH   1  27
ATOM     27  C   UNL     1       9.095  11.552  60.882  1.00  0.00     0.339 C 
ATOM     28  C   UNL     1       8.822  10.098  60.468  1.00  0.00     0.214 C 
ATOM     29  O   UNL     1       9.859  12.264  59.915  1.00  0.00    -0.332 OA
ATOM     30  C   UNL     1      10.144   9.377  60.170  1.00  0.00     0.180 C 
ATOM     31  C   UNL     1      11.100  11.654  59.569  1.00  0.00     0.179 C 
ATOM     32  C   UNL     1      10.964  10.175  59.140  1.00  0.00     0.177 C 
BRANCH  28  33
ATOM     33  O   UNL     1       7.981  10.089  59.342  1.00  0.00    -0.384 OA
ATOM     34  H   UNL     1       8.493  10.494  58.594  1.00  0.00     0.211 HD
ENDBRANCH  28  33
BRANCH  30  35
ATOM     35  O   UNL     1       9.883   8.079  59.701  1.00  0.00    -0.387 OA
ATOM     36  H   UNL     1      10.261   8.025  58.785  1.00  0.00     0.211 HD
ENDBRANCH  30  35
BRANCH  31  37
ATOM     37  C   UNL     1      12.198  11.880  60.629  1.00  0.00     0.191 C 
BRANCH  37  38
ATOM     38  O   UNL     1      11.934  13.028  61.388  1.00  0.00    -0.394 OA
ATOM     39  H   UNL     1      11.102  12.844  61.900  1.00  0.00     0.210 HD
ENDBRANCH  37  38
ENDBRANCH  31  37
BRANCH  32  40
ATOM     40  O   UNL     1      10.350  10.123  57.876  1.00  0.00    -0.387 OA
ATOM     41  H   UNL     1       9.528  10.677  57.927  1.00  0.00     0.211 HD
ENDBRANCH  32  40
ENDBRANCH   1  27
TORSDOF 12
ENDMDL
MODEL 9
REMARK VINA RESULT:    -4.729      1.457      4.957
REMARK INTER + INTRA:          -8.398
REMARK INTER:                  -6.957
REMARK INTRA:                  -1.441
REMARK UNBOUND:                -1.457
REMARK SMILES O=c1c(O[C@H]2O[C@@H](CO)[C@H](O)[C@H](O)[C@@H]2O)c(-c2ccc(O)c(O)c2)oc2cc(O)cc(O)c12
REMARK SMILES IDX 4 1 3 2 16 3 25 4 2 5 26 6 1 7 33 8 27 9 31 10 28 11 30 12
REMARK SMILES IDX 17 13 18 14 19 15 20 16 24 17 22 18 21 19 23 21 32 23 29 25
REMARK SMILES IDX 5 27 14 28 6 29 12 30 7 31 10 32 15 33 13 35 8 37 9 38 11 40
REMARK H PARENT 21 20 23 22 32 24 29 26 15 34 13 36 9 39 11 41
REMARK Flexibility Score: inf
ROOT
ATOM      1  O   UNL     1       4.321  13.708  74.759  1.00  0.00    -0.454 OA
ENDROOT
BRANCH   1   2
ATOM      2  C   UNL     1       3.678  14.943  74.975  1.00  0.00     0.214 A 
ATOM      3  C   UNL     1       2.290  14.946  75.217  1.00  0.00     0.180 A 
ATOM      4  O   UNL     1       1.642  16.095  75.382  1.00  0.00    -0.452 OA
ATOM      5  C   UNL     1       4.354  16.183  74.944  1.00  0.00     0.239 A 
ATOM      6  C   UNL     1       2.238  17.279  75.352  1.00  0.00     0.146 A 
ATOM      7  O   UNL     1       5.599  16.221  74.758  1.00  0.00    -0.285 OA
ATOM      8  C   UNL     1       3.630  17.379  75.132  1.00  0.00     0.111 A 
ATOM      9  C   UNL     1       1.468  18.430  75.540  1.00  0.00     0.094 A 
ATOM     10  C   UNL     1       4.232  18.661  75.109  1.00  0.00     0.134 A 
ATOM     11  C   UNL     1       2.068  19.693  75.514  1.00  0.00     0.123 A 
ATOM     12  C   UNL     1       3.443  19.805  75.301  1.00  0.00     0.093 A 
BRANCH   3  13
ATOM     13  C   UNL     1       1.498  13.697  75.244  1.00  0.00     0.025 A 
ATOM     14  C   UNL     1       0.947  13.154  74.071  1.00  0.00     0.016 A 
ATOM     15  C   UNL     1       0.202  11.974  74.119  1.00  0.00     0.051 A 
ATOM     16  C   UNL     1       0.010  11.309  75.338  1.00  0.00     0.157 A 
ATOM     17  C   UNL     1       1.323  13.015  76.458  1.00  0.00     0.062 A 
ATOM     18  C   UNL     1       0.578  11.831  76.512  1.00  0.00     0.158 A 
BRANCH  16  19
ATOM     19  O   UNL     1      -0.737  10.134  75.384  1.00  0.00    -0.504 OA
ATOM     20  H   UNL     1      -1.436   9.921  74.681  1.00  0.00     0.293 HD
ENDBRANCH  16  19
BRANCH  18  21
ATOM     21  O   UNL     1       0.414  11.189  77.738  1.00  0.00    -0.504 OA
ATOM     22  H   UNL     1      -0.368  10.573  77.923  1.00  0.00     0.293 HD
ENDBRANCH  18  21
ENDBRANCH   3  13
BRANCH  10  23
ATOM     23  O   UNL     1       5.604  18.808  74.897  1.00  0.00    -0.507 OA
ATOM     24  H   UNL     1       6.269  18.110  75.208  1.00  0.00     0.293 HD
ENDBRANCH  10  23
BRANCH  11  25
ATOM     25  O   UNL     1       1.306  20.846  75.700  1.00  0.00    -0.508 OA
ATOM     26  H   UNL     1       1.158  21.240  76.621  1.00  0.00     0.293 HD
ENDBRANCH  11  25
ENDBRANCH   1   2
BRANCH   1  27
ATOM     27  C   UNL     1       5.030  12.942  75.736  1.00  0.00     0.339 C 
ATOM     28  C   UNL     1       6.536  12.973  75.437  1.00  0.00     0.214 C 
ATOM     29  O   UNL     1       4.521  11.618  75.850  1.00  0.00    -0.332 OA
ATOM     30  C   UNL     1       6.841  12.155  74.175  1.00  0.00     0.180 C 
ATOM     31  C   UNL     1       4.773  10.783  74.723  1.00  0.00     0.179 C 
ATOM     32  C   UNL     1       6.262  10.735  74.310  1.00  0.00     0.177 C 
BRANCH  28  33
ATOM     33  O   UNL     1       7.238  12.467  76.545  1.00  0.00    -0.384 OA
ATOM     34  H   UNL     1       7.967  13.112  76.745  1.00  0.00     0.211 HD
ENDBRANCH  28  33
BRANCH  30  35
ATOM     35  O   UNL     1       8.228  12.109  73.960  1.00  0.00    -0.387 OA
ATOM     36  H   UNL     1       8.378  12.345  73.008  1.00  0.00     0.211 HD
ENDBRANCH  30  35
BRANCH  31  37
ATOM     37  C   UNL     1       3.823  11.066  73.540  1.00  0.00     0.191 C 
BRANCH  37  38
ATOM     38  O   UNL     1       2.924  10.007  73.355  1.00  0.00    -0.394 OA
ATOM     39  H   UNL     1       3.443   9.260  72.954  1.00  0.00     0.210 HD
ENDBRANCH  37  38
ENDBRANCH  31  37
BRANCH  32  40
ATOM     40  O   UNL     1       6.978  10.002  75.272  1.00  0.00    -0.387 OA
ATOM     41  H   UNL     1       7.381   9.224  74.807  1.00  0.00     0.211 HD
ENDBRANCH  32  40
ENDBRANCH   1  27
TORSDOF 12
ENDMDL
