MODEL 1
REMARK VINA RESULT:     7.321      0.000      0.000
REMARK INTER + INTRA:          13.621
REMARK INTER:                  13.313
REMARK INTRA:                   0.308
REMARK UNBOUND:                 0.308
REMARK SMILES CCCCCCCCCCCCCCCC(=O)[O-]
REMARK SMILES IDX 9 1 10 2 11 3 12 4 13 5 14 6 15 7 16 8 17 9 18 10 8 11 7 12
REMARK SMILES IDX 6 13 5 14 4 15 3 16 2 17 1 18
REMARK H PARENT
REMARK Flexibility Score: inf
ROOT
ATOM      1  C   UNL     1      -6.623  20.285 -11.163  1.00  0.00     0.000 C 
ENDROOT
BRANCH   1   2
ATOM      2  C   UNL     1      -6.051  21.392 -12.067  1.00  0.00     0.000 C 
BRANCH   2   3
ATOM      3  C   UNL     1      -4.912  22.173 -11.390  1.00  0.00     0.000 C 
BRANCH   3   4
ATOM      4  C   UNL     1      -4.951  23.676 -11.714  1.00  0.00     0.000 C 
BRANCH   4   5
ATOM      5  C   UNL     1      -3.706  24.423 -11.216  1.00  0.00     0.000 C 
BRANCH   5   6
ATOM      6  C   UNL     1      -3.695  25.870 -11.724  1.00  0.00     0.006 C 
BRANCH   6   7
ATOM      7  C   UNL     1      -4.253  26.828 -10.669  1.00  0.00     0.053 C 
BRANCH   7   8
ATOM      8  C   UNL     1      -5.501  27.487 -11.167  1.00  0.00     0.041 C 
ATOM      9  O   UNL     1      -6.622  26.944 -10.979  1.00  0.00    -0.550 OA
ATOM     10  O   UNL     1      -5.433  28.726 -11.791  1.00  0.00    -0.550 OA
ENDBRANCH   7   8
ENDBRANCH   6   7
ENDBRANCH   5   6
ENDBRANCH   4   5
ENDBRANCH   3   4
ENDBRANCH   2   3
ENDBRANCH   1   2
BRANCH   1  11
ATOM     11  C   UNL     1      -5.600  19.172 -10.878  1.00  0.00     0.000 C 
BRANCH  11  12
ATOM     12  C   UNL     1      -4.163  19.579 -11.242  1.00  0.00    -0.000 C 
BRANCH  12  13
ATOM     13  C   UNL     1      -3.132  18.485 -10.906  1.00  0.00    -0.000 C 
BRANCH  13  14
ATOM     14  C   UNL     1      -3.790  17.213 -10.346  1.00  0.00    -0.000 C 
BRANCH  14  15
ATOM     15  C   UNL     1      -4.161  16.208 -11.451  1.00  0.00    -0.000 C 
BRANCH  15  16
ATOM     16  C   UNL     1      -4.482  14.806 -10.901  1.00  0.00    -0.000 C 
BRANCH  16  17
ATOM     17  C   UNL     1      -3.588  14.345  -9.736  1.00  0.00    -0.003 C 
ATOM     18  C   UNL     1      -2.206  13.876 -10.192  1.00  0.00     0.004 C 
ENDBRANCH  16  17
ENDBRANCH  15  16
ENDBRANCH  14  15
ENDBRANCH  13  14
ENDBRANCH  12  13
ENDBRANCH  11  12
ENDBRANCH   1  11
TORSDOF 14
ENDMDL
MODEL 2
REMARK VINA RESULT:     7.373      4.637      5.973
REMARK INTER + INTRA:          13.715
REMARK INTER:                  14.447
REMARK INTRA:                  -0.732
REMARK UNBOUND:                 0.308
REMARK SMILES CCCCCCCCCCCCCCCC(=O)[O-]
REMARK SMILES IDX 9 1 10 2 11 3 12 4 13 5 14 6 15 7 16 8 17 9 18 10 8 11 7 12
REMARK SMILES IDX 6 13 5 14 4 15 3 16 2 17 1 18
REMARK H PARENT
REMARK Flexibility Score: inf
ROOT
ATOM      1  C   UNL     1      -5.516  21.577 -11.490  1.00  0.00     0.000 C 
ENDROOT
BRANCH   1   2
ATOM      2  C   UNL     1      -6.625  20.569 -11.840  1.00  0.00     0.000 C 
BRANCH   2   3
ATOM      3  C   UNL     1      -6.775  20.364 -13.357  1.00  0.00     0.000 C 
BRANCH   3   4
ATOM      4  C   UNL     1      -6.689  21.682 -14.144  1.00  0.00     0.000 C 
BRANCH   4   5
ATOM      5  C   UNL     1      -6.816  21.478 -15.661  1.00  0.00     0.000 C 
BRANCH   5   6
ATOM      6  C   UNL     1      -6.016  20.252 -16.118  1.00  0.00     0.006 C 
BRANCH   6   7
ATOM      7  C   UNL     1      -6.382  19.860 -17.552  1.00  0.00     0.053 C 
BRANCH   7   8
ATOM      8  C   UNL     1      -5.802  18.524 -17.895  1.00  0.00     0.041 C 
ATOM      9  O   UNL     1      -6.555  17.579 -18.250  1.00  0.00    -0.550 OA
ATOM     10  O   UNL     1      -4.426  18.337 -17.874  1.00  0.00    -0.550 OA
ENDBRANCH   7   8
ENDBRANCH   6   7
ENDBRANCH   5   6
ENDBRANCH   4   5
ENDBRANCH   3   4
ENDBRANCH   2   3
ENDBRANCH   1   2
BRANCH   1  11
ATOM     11  C   UNL     1      -4.263  20.894 -10.912  1.00  0.00     0.000 C 
BRANCH  11  12
ATOM     12  C   UNL     1      -4.415  19.369 -10.805  1.00  0.00    -0.000 C 
BRANCH  12  13
ATOM     13  C   UNL     1      -3.094  18.621 -11.063  1.00  0.00    -0.000 C 
BRANCH  13  14
ATOM     14  C   UNL     1      -3.095  17.205 -10.464  1.00  0.00    -0.000 C 
BRANCH  14  15
ATOM     15  C   UNL     1      -4.321  16.383 -10.899  1.00  0.00    -0.000 C 
BRANCH  15  16
ATOM     16  C   UNL     1      -4.497  15.092 -10.079  1.00  0.00    -0.000 C 
BRANCH  16  17
ATOM     17  C   UNL     1      -3.679  13.888 -10.578  1.00  0.00    -0.003 C 
ATOM     18  C   UNL     1      -2.247  13.875 -10.044  1.00  0.00     0.004 C 
ENDBRANCH  16  17
ENDBRANCH  15  16
ENDBRANCH  14  15
ENDBRANCH  13  14
ENDBRANCH  12  13
ENDBRANCH  11  12
ENDBRANCH   1  11
TORSDOF 14
ENDMDL
MODEL 3
REMARK VINA RESULT:     7.587     13.306     18.047
REMARK INTER + INTRA:          14.105
REMARK INTER:                  15.034
REMARK INTRA:                  -0.930
REMARK UNBOUND:                 0.308
REMARK SMILES CCCCCCCCCCCCCCCC(=O)[O-]
REMARK SMILES IDX 9 1 10 2 11 3 12 4 13 5 14 6 15 7 16 8 17 9 18 10 8 11 7 12
REMARK SMILES IDX 6 13 5 14 4 15 3 16 2 17 1 18
REMARK H PARENT
REMARK Flexibility Score: inf
ROOT
ATOM      1  C   UNL     1     -14.519  30.018 -19.114  1.00  0.00     0.000 C 
ENDROOT
BRANCH   1   2
ATOM      2  C   UNL     1     -13.525  29.095 -19.842  1.00  0.00     0.000 C 
BRANCH   2   3
ATOM      3  C   UNL     1     -12.072  29.322 -19.391  1.00  0.00     0.000 C 
BRANCH   3   4
ATOM      4  C   UNL     1     -11.654  28.383 -18.248  1.00  0.00     0.000 C 
BRANCH   4   5
ATOM      5  C   UNL     1     -12.350  27.016 -18.319  1.00  0.00     0.000 C 
BRANCH   5   6
ATOM      6  C   UNL     1     -13.072  26.700 -17.004  1.00  0.00     0.006 C 
BRANCH   6   7
ATOM      7  C   UNL     1     -12.907  27.842 -15.997  1.00  0.00     0.053 C 
BRANCH   7   8
ATOM      8  C   UNL     1     -14.232  28.224 -15.416  1.00  0.00     0.041 C 
ATOM      9  O   UNL     1     -14.291  29.040 -14.458  1.00  0.00    -0.550 OA
ATOM     10  O   UNL     1     -15.404  27.722 -15.966  1.00  0.00    -0.550 OA
ENDBRANCH   7   8
ENDBRANCH   6   7
ENDBRANCH   5   6
ENDBRANCH   4   5
ENDBRANCH   3   4
ENDBRANCH   2   3
ENDBRANCH   1   2
BRANCH   1  11
ATOM     11  C   UNL     1     -15.172  31.040 -20.060  1.00  0.00     0.000 C 
BRANCH  11  12
ATOM     12  C   UNL     1     -16.341  31.793 -19.405  1.00  0.00    -0.000 C 
BRANCH  12  13
ATOM     13  C   UNL     1     -16.100  33.312 -19.328  1.00  0.00    -0.000 C 
BRANCH  13  14
ATOM     14  C   UNL     1     -17.413  34.111 -19.279  1.00  0.00    -0.000 C 
BRANCH  14  15
ATOM     15  C   UNL     1     -18.571  33.386 -19.987  1.00  0.00    -0.000 C 
BRANCH  15  16
ATOM     16  C   UNL     1     -19.934  34.063 -19.750  1.00  0.00    -0.000 C 
BRANCH  16  17
ATOM     17  C   UNL     1     -20.604  33.722 -18.407  1.00  0.00    -0.003 C 
ATOM     18  C   UNL     1     -22.125  33.607 -18.511  1.00  0.00     0.004 C 
ENDBRANCH  16  17
ENDBRANCH  15  16
ENDBRANCH  14  15
ENDBRANCH  13  14
ENDBRANCH  12  13
ENDBRANCH  11  12
ENDBRANCH   1  11
TORSDOF 14
ENDMDL
MODEL 4
REMARK VINA RESULT:     7.592      4.576      9.615
REMARK INTER + INTRA:          14.113
REMARK INTER:                  14.505
REMARK INTRA:                  -0.391
REMARK UNBOUND:                 0.308
REMARK SMILES CCCCCCCCCCCCCCCC(=O)[O-]
REMARK SMILES IDX 9 1 10 2 11 3 12 4 13 5 14 6 15 7 16 8 17 9 18 10 8 11 7 12
REMARK SMILES IDX 6 13 5 14 4 15 3 16 2 17 1 18
REMARK H PARENT
REMARK Flexibility Score: inf
ROOT
ATOM      1  C   UNL     1      -5.948  21.548 -12.013  1.00  0.00     0.000 C 
ENDROOT
BRANCH   1   2
ATOM      2  C   UNL     1      -6.593  20.448 -11.151  1.00  0.00     0.000 C 
BRANCH   2   3
ATOM      3  C   UNL     1      -5.655  19.249 -10.929  1.00  0.00     0.000 C 
BRANCH   3   4
ATOM      4  C   UNL     1      -4.172  19.652 -10.918  1.00  0.00     0.000 C 
BRANCH   4   5
ATOM      5  C   UNL     1      -3.231  18.461 -11.151  1.00  0.00     0.000 C 
BRANCH   5   6
ATOM      6  C   UNL     1      -3.969  17.132 -10.951  1.00  0.00     0.006 C 
BRANCH   6   7
ATOM      7  C   UNL     1      -3.195  16.210 -10.006  1.00  0.00     0.053 C 
BRANCH   7   8
ATOM      8  C   UNL     1      -3.384  14.778 -10.398  1.00  0.00     0.041 C 
ATOM      9  O   UNL     1      -4.479  14.395 -10.888  1.00  0.00    -0.550 OA
ATOM     10  O   UNL     1      -2.333  13.878 -10.274  1.00  0.00    -0.550 OA
ENDBRANCH   7   8
ENDBRANCH   6   7
ENDBRANCH   5   6
ENDBRANCH   4   5
ENDBRANCH   3   4
ENDBRANCH   2   3
ENDBRANCH   1   2
BRANCH   1  11
ATOM     11  C   UNL     1      -5.246  22.623 -11.164  1.00  0.00     0.000 C 
BRANCH  11  12
ATOM     12  C   UNL     1      -5.006  23.928 -11.940  1.00  0.00    -0.000 C 
BRANCH  12  13
ATOM     13  C   UNL     1      -3.663  24.592 -11.584  1.00  0.00    -0.000 C 
BRANCH  13  14
ATOM     14  C   UNL     1      -3.756  26.126 -11.561  1.00  0.00    -0.000 C 
BRANCH  14  15
ATOM     15  C   UNL     1      -4.061  26.677 -10.157  1.00  0.00    -0.000 C 
BRANCH  15  16
ATOM     16  C   UNL     1      -5.475  27.277 -10.045  1.00  0.00    -0.000 C 
BRANCH  16  17
ATOM     17  C   UNL     1      -6.158  27.588 -11.388  1.00  0.00    -0.003 C 
ATOM     18  C   UNL     1      -5.643  28.872 -12.038  1.00  0.00     0.004 C 
ENDBRANCH  16  17
ENDBRANCH  15  16
ENDBRANCH  14  15
ENDBRANCH  13  14
ENDBRANCH  12  13
ENDBRANCH  11  12
ENDBRANCH   1  11
TORSDOF 14
ENDMDL
MODEL 5
REMARK VINA RESULT:     8.304      3.487      5.517
REMARK INTER + INTRA:          15.408
REMARK INTER:                  14.872
REMARK INTRA:                   0.536
REMARK UNBOUND:                 0.308
REMARK SMILES CCCCCCCCCCCCCCCC(=O)[O-]
REMARK SMILES IDX 9 1 10 2 11 3 12 4 13 5 14 6 15 7 16 8 17 9 18 10 8 11 7 12
REMARK SMILES IDX 6 13 5 14 4 15 3 16 2 17 1 18
REMARK H PARENT
REMARK Flexibility Score: inf
ROOT
ATOM      1  C   UNL     1      -3.017  16.445  -9.918  1.00  0.00     0.000 C 
ENDROOT
BRANCH   1   2
ATOM      2  C   UNL     1      -3.232  17.440 -11.073  1.00  0.00     0.000 C 
BRANCH   2   3
ATOM      3  C   UNL     1      -2.914  18.889 -10.667  1.00  0.00     0.000 C 
BRANCH   3   4
ATOM      4  C   UNL     1      -4.050  19.864 -11.018  1.00  0.00     0.000 C 
BRANCH   4   5
ATOM      5  C   UNL     1      -5.443  19.257 -10.796  1.00  0.00     0.000 C 
BRANCH   5   6
ATOM      6  C   UNL     1      -6.528  20.340 -10.853  1.00  0.00     0.006 C 
BRANCH   6   7
ATOM      7  C   UNL     1      -6.184  21.409 -11.893  1.00  0.00     0.053 C 
BRANCH   7   8
ATOM      8  C   UNL     1      -6.741  21.038 -13.231  1.00  0.00     0.041 C 
ATOM      9  O   UNL     1      -6.731  21.872 -14.175  1.00  0.00    -0.550 OA
ATOM     10  O   UNL     1      -7.223  19.754 -13.452  1.00  0.00    -0.550 OA
ENDBRANCH   7   8
ENDBRANCH   6   7
ENDBRANCH   5   6
ENDBRANCH   4   5
ENDBRANCH   3   4
ENDBRANCH   2   3
ENDBRANCH   1   2
BRANCH   1  11
ATOM     11  C   UNL     1      -2.023  15.328 -10.283  1.00  0.00     0.000 C 
BRANCH  11  12
ATOM     12  C   UNL     1      -2.649  13.927 -10.196  1.00  0.00    -0.000 C 
BRANCH  12  13
ATOM     13  C   UNL     1      -4.160  13.968  -9.906  1.00  0.00    -0.000 C 
BRANCH  13  14
ATOM     14  C   UNL     1      -4.965  14.563 -11.073  1.00  0.00    -0.000 C 
BRANCH  14  15
ATOM     15  C   UNL     1      -5.910  15.691 -10.621  1.00  0.00    -0.000 C 
BRANCH  15  16
ATOM     16  C   UNL     1      -6.498  16.486 -11.801  1.00  0.00    -0.000 C 
BRANCH  16  17
ATOM     17  C   UNL     1      -7.485  15.703 -12.685  1.00  0.00    -0.003 C 
ATOM     18  C   UNL     1      -8.472  16.607 -13.424  1.00  0.00     0.004 C 
ENDBRANCH  16  17
ENDBRANCH  15  16
ENDBRANCH  14  15
ENDBRANCH  13  14
ENDBRANCH  12  13
ENDBRANCH  11  12
ENDBRANCH   1  11
TORSDOF 14
ENDMDL
MODEL 6
REMARK VINA RESULT:     8.376      5.755      8.411
REMARK INTER + INTRA:          15.539
REMARK INTER:                  16.394
REMARK INTRA:                  -0.854
REMARK UNBOUND:                 0.308
REMARK SMILES CCCCCCCCCCCCCCCC(=O)[O-]
REMARK SMILES IDX 9 1 10 2 11 3 12 4 13 5 14 6 15 7 16 8 17 9 18 10 8 11 7 12
REMARK SMILES IDX 6 13 5 14 4 15 3 16 2 17 1 18
REMARK H PARENT
REMARK Flexibility Score: inf
ROOT
ATOM      1  C   UNL     1      -6.802  19.868 -12.371  1.00  0.00     0.000 C 
ENDROOT
BRANCH   1   2
ATOM      2  C   UNL     1      -6.007  19.646 -11.071  1.00  0.00     0.000 C 
BRANCH   2   3
ATOM      3  C   UNL     1      -4.675  20.415 -11.059  1.00  0.00     0.000 C 
BRANCH   3   4
ATOM      4  C   UNL     1      -3.485  19.528 -10.658  1.00  0.00     0.000 C 
BRANCH   4   5
ATOM      5  C   UNL     1      -3.498  18.163 -11.361  1.00  0.00     0.000 C 
BRANCH   5   6
ATOM      6  C   UNL     1      -3.437  17.020 -10.340  1.00  0.00     0.006 C 
BRANCH   6   7
ATOM      7  C   UNL     1      -3.944  15.710 -10.949  1.00  0.00     0.053 C 
BRANCH   7   8
ATOM      8  C   UNL     1      -3.449  14.539 -10.160  1.00  0.00     0.041 C 
ATOM      9  O   UNL     1      -4.197  13.986  -9.311  1.00  0.00    -0.550 OA
ATOM     10  O   UNL     1      -2.181  14.024 -10.400  1.00  0.00    -0.550 OA
ENDBRANCH   7   8
ENDBRANCH   6   7
ENDBRANCH   5   6
ENDBRANCH   4   5
ENDBRANCH   3   4
ENDBRANCH   2   3
ENDBRANCH   1   2
BRANCH   1  11
ATOM     11  C   UNL     1      -6.475  21.216 -13.037  1.00  0.00     0.000 C 
BRANCH  11  12
ATOM     12  C   UNL     1      -7.057  21.334 -14.454  1.00  0.00    -0.000 C 
BRANCH  12  13
ATOM     13  C   UNL     1      -5.996  21.132 -15.551  1.00  0.00    -0.000 C 
BRANCH  13  14
ATOM     14  C   UNL     1      -6.363  19.996 -16.519  1.00  0.00    -0.000 C 
BRANCH  14  15
ATOM     15  C   UNL     1      -5.254  19.720 -17.551  1.00  0.00    -0.000 C 
BRANCH  15  16
ATOM     16  C   UNL     1      -5.488  18.424 -18.348  1.00  0.00    -0.000 C 
BRANCH  16  17
ATOM     17  C   UNL     1      -6.278  17.335 -17.601  1.00  0.00    -0.003 C 
ATOM     18  C   UNL     1      -7.444  16.777 -18.418  1.00  0.00     0.004 C 
ENDBRANCH  16  17
ENDBRANCH  15  16
ENDBRANCH  14  15
ENDBRANCH  13  14
ENDBRANCH  12  13
ENDBRANCH  11  12
ENDBRANCH   1  11
TORSDOF 14
ENDMDL
MODEL 7
REMARK VINA RESULT:     8.726      4.839      6.919
REMARK INTER + INTRA:          16.175
REMARK INTER:                  16.496
REMARK INTRA:                  -0.321
REMARK UNBOUND:                 0.308
REMARK SMILES CCCCCCCCCCCCCCCC(=O)[O-]
REMARK SMILES IDX 9 1 10 2 11 3 12 4 13 5 14 6 15 7 16 8 17 9 18 10 8 11 7 12
REMARK SMILES IDX 6 13 5 14 4 15 3 16 2 17 1 18
REMARK H PARENT
REMARK Flexibility Score: inf
ROOT
ATOM      1  C   UNL     1      -5.641  15.708 -11.169  1.00  0.00     0.000 C 
ENDROOT
BRANCH   1   2
ATOM      2  C   UNL     1      -4.365  15.322 -10.401  1.00  0.00     0.000 C 
BRANCH   2   3
ATOM      3  C   UNL     1      -3.337  16.465 -10.357  1.00  0.00     0.000 C 
BRANCH   3   4
ATOM      4  C   UNL     1      -3.795  17.703 -11.144  1.00  0.00     0.000 C 
BRANCH   4   5
ATOM      5  C   UNL     1      -3.063  18.984 -10.715  1.00  0.00     0.000 C 
BRANCH   5   6
ATOM      6  C   UNL     1      -3.979  20.207 -10.839  1.00  0.00     0.006 C 
BRANCH   6   7
ATOM      7  C   UNL     1      -5.426  19.785 -11.109  1.00  0.00     0.053 C 
BRANCH   7   8
ATOM      8  C   UNL     1      -6.138  20.833 -11.905  1.00  0.00     0.041 C 
ATOM      9  O   UNL     1      -6.868  20.504 -12.877  1.00  0.00    -0.550 OA
ATOM     10  O   UNL     1      -6.040  22.170 -11.540  1.00  0.00    -0.550 OA
ENDBRANCH   7   8
ENDBRANCH   6   7
ENDBRANCH   5   6
ENDBRANCH   4   5
ENDBRANCH   3   4
ENDBRANCH   2   3
ENDBRANCH   1   2
BRANCH   1  11
ATOM     11  C   UNL     1      -6.549  16.653 -10.363  1.00  0.00     0.000 C 
BRANCH  11  12
ATOM     12  C   UNL     1      -7.762  15.933  -9.751  1.00  0.00    -0.000 C 
BRANCH  12  13
ATOM     13  C   UNL     1      -8.281  16.622  -8.475  1.00  0.00    -0.000 C 
BRANCH  13  14
ATOM     14  C   UNL     1      -9.706  16.179  -8.108  1.00  0.00    -0.000 C 
BRANCH  14  15
ATOM     15  C   UNL     1     -10.512  17.297  -7.424  1.00  0.00    -0.000 C 
BRANCH  15  16
ATOM     16  C   UNL     1     -11.396  16.780  -6.274  1.00  0.00    -0.000 C 
BRANCH  16  17
ATOM     17  C   UNL     1     -12.452  15.738  -6.683  1.00  0.00    -0.003 C 
ATOM     18  C   UNL     1     -13.099  15.042  -5.487  1.00  0.00     0.004 C 
ENDBRANCH  16  17
ENDBRANCH  15  16
ENDBRANCH  14  15
ENDBRANCH  13  14
ENDBRANCH  12  13
ENDBRANCH  11  12
ENDBRANCH   1  11
TORSDOF 14
ENDMDL
MODEL 8
REMARK VINA RESULT:     8.760     12.939     15.967
REMARK INTER + INTRA:          16.237
REMARK INTER:                  16.387
REMARK INTRA:                  -0.149
REMARK UNBOUND:                 0.308
REMARK SMILES CCCCCCCCCCCCCCCC(=O)[O-]
REMARK SMILES IDX 9 1 10 2 11 3 12 4 13 5 14 6 15 7 16 8 17 9 18 10 8 11 7 12
REMARK SMILES IDX 6 13 5 14 4 15 3 16 2 17 1 18
REMARK H PARENT
REMARK Flexibility Score: inf
ROOT
ATOM      1  C   UNL     1     -14.485  29.370 -16.531  1.00  0.00     0.000 C 
ENDROOT
BRANCH   1   2
ATOM      2  C   UNL     1     -15.273  29.626 -17.828  1.00  0.00     0.000 C 
BRANCH   2   3
ATOM      3  C   UNL     1     -15.157  31.083 -18.309  1.00  0.00     0.000 C 
BRANCH   3   4
ATOM      4  C   UNL     1     -15.995  31.359 -19.567  1.00  0.00     0.000 C 
BRANCH   4   5
ATOM      5  C   UNL     1     -15.848  32.801 -20.074  1.00  0.00     0.000 C 
BRANCH   5   6
ATOM      6  C   UNL     1     -16.914  33.711 -19.453  1.00  0.00     0.006 C 
BRANCH   6   7
ATOM      7  C   UNL     1     -18.275  33.501 -20.121  1.00  0.00     0.053 C 
BRANCH   7   8
ATOM      8  C   UNL     1     -19.372  33.553 -19.104  1.00  0.00     0.041 C 
ATOM      9  O   UNL     1     -19.109  33.819 -17.901  1.00  0.00    -0.550 OA
ATOM     10  O   UNL     1     -20.692  33.361 -19.494  1.00  0.00    -0.550 OA
ENDBRANCH   7   8
ENDBRANCH   6   7
ENDBRANCH   5   6
ENDBRANCH   4   5
ENDBRANCH   3   4
ENDBRANCH   2   3
ENDBRANCH   1   2
BRANCH   1  11
ATOM     11  C   UNL     1     -14.535  27.895 -16.095  1.00  0.00     0.000 C 
BRANCH  11  12
ATOM     12  C   UNL     1     -13.207  27.160 -16.337  1.00  0.00    -0.000 C 
BRANCH  12  13
ATOM     13  C   UNL     1     -12.070  28.110 -16.756  1.00  0.00    -0.000 C 
BRANCH  13  14
ATOM     14  C   UNL     1     -12.254  28.649 -18.184  1.00  0.00    -0.000 C 
BRANCH  14  15
ATOM     15  C   UNL     1     -11.644  27.720 -19.248  1.00  0.00    -0.000 C 
BRANCH  15  16
ATOM     16  C   UNL     1     -12.710  26.975 -20.074  1.00  0.00    -0.000 C 
BRANCH  16  17
ATOM     17  C   UNL     1     -12.542  25.446 -20.124  1.00  0.00    -0.003 C 
ATOM     18  C   UNL     1     -12.356  24.820 -18.742  1.00  0.00     0.004 C 
ENDBRANCH  16  17
ENDBRANCH  15  16
ENDBRANCH  14  15
ENDBRANCH  13  14
ENDBRANCH  12  13
ENDBRANCH  11  12
ENDBRANCH   1  11
TORSDOF 14
ENDMDL
