MODEL 1
REMARK VINA RESULT:    -4.058      0.000      0.000
REMARK INTER + INTRA:          -9.609
REMARK INTER:                  -7.616
REMARK INTRA:                  -1.993
REMARK UNBOUND:                -1.993
REMARK SMILES CCCCCCCCC=CCCCCCCCC(=O)[O-]
REMARK SMILES IDX 10 1 9 2 11 3 12 4 13 5 14 6 15 7 16 8 17 9 18 10 19 11
REMARK SMILES IDX 20 12 8 13 7 14 6 15 5 16 4 17 3 18 2 19 1 20
REMARK H PARENT
REMARK Flexibility Score: inf
ROOT
ATOM      1  C   UNL     1      16.927  15.698  30.493  1.00  0.00    -0.031 C 
ATOM      2  C   UNL     1      16.133  15.753  29.406  1.00  0.00    -0.031 C 
ENDROOT
BRANCH   1   3
ATOM      3  C   UNL     1      17.940  14.609  30.773  1.00  0.00     0.027 C 
BRANCH   3   4
ATOM      4  C   UNL     1      17.523  13.744  31.968  1.00  0.00     0.004 C 
BRANCH   4   5
ATOM      5  C   UNL     1      16.806  12.452  31.531  1.00  0.00     0.000 C 
BRANCH   5   6
ATOM      6  C   UNL     1      15.315  12.448  31.913  1.00  0.00     0.000 C 
BRANCH   6   7
ATOM      7  C   UNL     1      14.335  12.625  30.735  1.00  0.00     0.000 C 
BRANCH   7   8
ATOM      8  C   UNL     1      13.184  13.624  30.983  1.00  0.00     0.006 C 
BRANCH   8   9
ATOM      9  C   UNL     1      12.646  14.305  29.713  1.00  0.00     0.053 C 
BRANCH   9  10
ATOM     10  C   UNL     1      11.331  14.979  29.958  1.00  0.00     0.041 C 
ATOM     11  O   UNL     1      10.923  15.172  31.140  1.00  0.00    -0.550 OA
ATOM     12  O   UNL     1      10.528  15.346  28.880  1.00  0.00    -0.550 OA
ENDBRANCH   9  10
ENDBRANCH   8   9
ENDBRANCH   7   8
ENDBRANCH   6   7
ENDBRANCH   5   6
ENDBRANCH   4   5
ENDBRANCH   3   4
ENDBRANCH   1   3
BRANCH   2  13
ATOM     13  C   UNL     1      16.107  14.709  28.316  1.00  0.00     0.027 C 
BRANCH  13  14
ATOM     14  C   UNL     1      16.874  15.194  27.075  1.00  0.00     0.004 C 
BRANCH  14  15
ATOM     15  C   UNL     1      16.066  16.195  26.236  1.00  0.00     0.000 C 
BRANCH  15  16
ATOM     16  C   UNL     1      16.328  16.041  24.731  1.00  0.00     0.000 C 
BRANCH  16  17
ATOM     17  C   UNL     1      16.051  14.604  24.266  1.00  0.00    -0.000 C 
BRANCH  17  18
ATOM     18  C   UNL     1      14.553  14.361  23.980  1.00  0.00    -0.000 C 
BRANCH  18  19
ATOM     19  C   UNL     1      13.845  13.521  25.064  1.00  0.00    -0.003 C 
ATOM     20  C   UNL     1      12.414  13.136  24.689  1.00  0.00     0.004 C 
ENDBRANCH  18  19
ENDBRANCH  17  18
ENDBRANCH  16  17
ENDBRANCH  15  16
ENDBRANCH  14  15
ENDBRANCH  13  14
ENDBRANCH   2  13
TORSDOF 15
ENDMDL
MODEL 2
REMARK VINA RESULT:    -4.033      2.306      5.722
REMARK INTER + INTRA:          -9.562
REMARK INTER:                  -7.356
REMARK INTRA:                  -2.206
REMARK UNBOUND:                -1.993
REMARK SMILES CCCCCCCCC=CCCCCCCCC(=O)[O-]
REMARK SMILES IDX 10 1 9 2 11 3 12 4 13 5 14 6 15 7 16 8 17 9 18 10 19 11
REMARK SMILES IDX 20 12 8 13 7 14 6 15 5 16 4 17 3 18 2 19 1 20
REMARK H PARENT
REMARK Flexibility Score: inf
ROOT
ATOM      1  C   UNL     1      17.603  14.510  31.626  1.00  0.00    -0.031 C 
ATOM      2  C   UNL     1      17.349  13.222  31.934  1.00  0.00    -0.031 C 
ENDROOT
BRANCH   1   3
ATOM      3  C   UNL     1      17.641  15.075  30.223  1.00  0.00     0.027 C 
BRANCH   3   4
ATOM      4  C   UNL     1      16.368  15.866  29.899  1.00  0.00     0.004 C 
BRANCH   4   5
ATOM      5  C   UNL     1      15.812  15.527  28.503  1.00  0.00     0.000 C 
BRANCH   5   6
ATOM      6  C   UNL     1      16.839  14.793  27.622  1.00  0.00     0.000 C 
BRANCH   6   7
ATOM      7  C   UNL     1      17.233  15.526  26.324  1.00  0.00     0.000 C 
BRANCH   7   8
ATOM      8  C   UNL     1      16.083  16.280  25.619  1.00  0.00     0.006 C 
BRANCH   8   9
ATOM      9  C   UNL     1      15.878  15.894  24.144  1.00  0.00     0.053 C 
BRANCH   9  10
ATOM     10  C   UNL     1      15.189  14.571  24.007  1.00  0.00     0.041 C 
ATOM     11  O   UNL     1      15.255  13.928  22.919  1.00  0.00    -0.550 OA
ATOM     12  O   UNL     1      14.427  14.071  25.061  1.00  0.00    -0.550 OA
ENDBRANCH   9  10
ENDBRANCH   8   9
ENDBRANCH   7   8
ENDBRANCH   6   7
ENDBRANCH   5   6
ENDBRANCH   4   5
ENDBRANCH   3   4
ENDBRANCH   1   3
BRANCH   2  13
ATOM     13  C   UNL     1      17.103  12.136  30.915  1.00  0.00     0.027 C 
BRANCH  13  14
ATOM     14  C   UNL     1      15.606  12.027  30.583  1.00  0.00     0.004 C 
BRANCH  14  15
ATOM     15  C   UNL     1      14.717  12.111  31.833  1.00  0.00     0.000 C 
BRANCH  15  16
ATOM     16  C   UNL     1      13.314  12.649  31.518  1.00  0.00     0.000 C 
BRANCH  16  17
ATOM     17  C   UNL     1      13.391  13.997  30.783  1.00  0.00    -0.000 C 
BRANCH  17  18
ATOM     18  C   UNL     1      11.993  14.564  30.458  1.00  0.00    -0.000 C 
BRANCH  18  19
ATOM     19  C   UNL     1      11.634  14.502  28.958  1.00  0.00    -0.003 C 
ATOM     20  C   UNL     1      12.549  13.579  28.156  1.00  0.00     0.004 C 
ENDBRANCH  18  19
ENDBRANCH  17  18
ENDBRANCH  16  17
ENDBRANCH  15  16
ENDBRANCH  14  15
ENDBRANCH  13  14
ENDBRANCH   2  13
TORSDOF 15
ENDMDL
MODEL 3
REMARK VINA RESULT:    -3.991      2.607      6.319
REMARK INTER + INTRA:          -9.483
REMARK INTER:                  -7.027
REMARK INTRA:                  -2.455
REMARK UNBOUND:                -1.993
REMARK SMILES CCCCCCCCC=CCCCCCCCC(=O)[O-]
REMARK SMILES IDX 10 1 9 2 11 3 12 4 13 5 14 6 15 7 16 8 17 9 18 10 19 11
REMARK SMILES IDX 20 12 8 13 7 14 6 15 5 16 4 17 3 18 2 19 1 20
REMARK H PARENT
REMARK Flexibility Score: inf
ROOT
ATOM      1  C   UNL     1      16.247  15.311  30.129  1.00  0.00    -0.031 C 
ATOM      2  C   UNL     1      17.014  14.750  31.085  1.00  0.00    -0.031 C 
ENDROOT
BRANCH   1   3
ATOM      3  C   UNL     1      15.078  14.634  29.447  1.00  0.00     0.027 C 
BRANCH   3   4
ATOM      4  C   UNL     1      15.126  14.822  27.926  1.00  0.00     0.004 C 
BRANCH   4   5
ATOM      5  C   UNL     1      16.136  15.906  27.505  1.00  0.00     0.000 C 
BRANCH   5   6
ATOM      6  C   UNL     1      16.834  15.575  26.173  1.00  0.00     0.000 C 
BRANCH   6   7
ATOM      7  C   UNL     1      16.227  16.251  24.927  1.00  0.00     0.000 C 
BRANCH   7   8
ATOM      8  C   UNL     1      15.711  15.283  23.840  1.00  0.00     0.006 C 
BRANCH   8   9
ATOM      9  C   UNL     1      15.768  13.797  24.230  1.00  0.00     0.053 C 
BRANCH   9  10
ATOM     10  C   UNL     1      14.407  13.170  24.231  1.00  0.00     0.041 C 
ATOM     11  O   UNL     1      13.509  13.596  25.014  1.00  0.00    -0.550 OA
ATOM     12  O   UNL     1      14.145  12.078  23.406  1.00  0.00    -0.550 OA
ENDBRANCH   9  10
ENDBRANCH   8   9
ENDBRANCH   7   8
ENDBRANCH   6   7
ENDBRANCH   5   6
ENDBRANCH   4   5
ENDBRANCH   3   4
ENDBRANCH   1   3
BRANCH   2  13
ATOM     13  C   UNL     1      16.845  13.339  31.594  1.00  0.00     0.027 C 
BRANCH  13  14
ATOM     14  C   UNL     1      17.966  12.974  32.580  1.00  0.00     0.004 C 
BRANCH  14  15
ATOM     15  C   UNL     1      19.041  14.067  32.680  1.00  0.00     0.000 C 
BRANCH  15  16
ATOM     16  C   UNL     1      20.371  13.638  32.044  1.00  0.00     0.000 C 
BRANCH  16  17
ATOM     17  C   UNL     1      20.512  14.205  30.623  1.00  0.00    -0.000 C 
BRANCH  17  18
ATOM     18  C   UNL     1      20.182  13.154  29.540  1.00  0.00    -0.000 C 
BRANCH  18  19
ATOM     19  C   UNL     1      19.228  13.674  28.445  1.00  0.00    -0.003 C 
ATOM     20  C   UNL     1      18.212  12.629  27.985  1.00  0.00     0.004 C 
ENDBRANCH  18  19
ENDBRANCH  17  18
ENDBRANCH  16  17
ENDBRANCH  15  16
ENDBRANCH  14  15
ENDBRANCH  13  14
ENDBRANCH   2  13
TORSDOF 15
ENDMDL
MODEL 4
REMARK VINA RESULT:    -3.966      2.501      4.935
REMARK INTER + INTRA:          -9.436
REMARK INTER:                  -7.477
REMARK INTRA:                  -1.959
REMARK UNBOUND:                -1.993
REMARK SMILES CCCCCCCCC=CCCCCCCCC(=O)[O-]
REMARK SMILES IDX 10 1 9 2 11 3 12 4 13 5 14 6 15 7 16 8 17 9 18 10 19 11
REMARK SMILES IDX 20 12 8 13 7 14 6 15 5 16 4 17 3 18 2 19 1 20
REMARK H PARENT
REMARK Flexibility Score: inf
ROOT
ATOM      1  C   UNL     1      13.722  12.783  31.039  1.00  0.00    -0.031 C 
ATOM      2  C   UNL     1      14.954  12.771  31.587  1.00  0.00    -0.031 C 
ENDROOT
BRANCH   1   3
ATOM      3  C   UNL     1      13.432  12.935  29.562  1.00  0.00     0.027 C 
BRANCH   3   4
ATOM      4  C   UNL     1      12.788  14.292  29.251  1.00  0.00     0.004 C 
BRANCH   4   5
ATOM      5  C   UNL     1      11.713  14.678  30.286  1.00  0.00     0.000 C 
BRANCH   5   6
ATOM      6  C   UNL     1      10.287  14.588  29.714  1.00  0.00     0.000 C 
BRANCH   6   7
ATOM      7  C   UNL     1      10.161  14.901  28.209  1.00  0.00     0.000 C 
BRANCH   7   8
ATOM      8  C   UNL     1       9.035  15.889  27.835  1.00  0.00     0.006 C 
BRANCH   8   9
ATOM      9  C   UNL     1       8.838  16.090  26.323  1.00  0.00     0.053 C 
BRANCH   9  10
ATOM     10  C   UNL     1       8.649  17.534  25.974  1.00  0.00     0.041 C 
ATOM     11  O   UNL     1       8.821  17.931  24.785  1.00  0.00    -0.550 OA
ATOM     12  O   UNL     1       8.334  18.455  26.971  1.00  0.00    -0.550 OA
ENDBRANCH   9  10
ENDBRANCH   8   9
ENDBRANCH   7   8
ENDBRANCH   6   7
ENDBRANCH   5   6
ENDBRANCH   4   5
ENDBRANCH   3   4
ENDBRANCH   1   3
BRANCH   2  13
ATOM     13  C   UNL     1      16.234  12.948  30.809  1.00  0.00     0.027 C 
BRANCH  13  14
ATOM     14  C   UNL     1      17.035  14.148  31.338  1.00  0.00     0.004 C 
BRANCH  14  15
ATOM     15  C   UNL     1      17.391  15.154  30.233  1.00  0.00     0.000 C 
BRANCH  15  16
ATOM     16  C   UNL     1      16.165  15.929  29.731  1.00  0.00     0.000 C 
BRANCH  16  17
ATOM     17  C   UNL     1      15.889  15.629  28.250  1.00  0.00    -0.000 C 
BRANCH  17  18
ATOM     18  C   UNL     1      17.159  15.167  27.502  1.00  0.00    -0.000 C 
BRANCH  18  19
ATOM     19  C   UNL     1      16.905  14.019  26.503  1.00  0.00    -0.003 C 
ATOM     20  C   UNL     1      16.113  12.859  27.104  1.00  0.00     0.004 C 
ENDBRANCH  18  19
ENDBRANCH  17  18
ENDBRANCH  16  17
ENDBRANCH  15  16
ENDBRANCH  14  15
ENDBRANCH  13  14
ENDBRANCH   2  13
TORSDOF 15
ENDMDL
MODEL 5
REMARK VINA RESULT:    -3.924      3.237      5.960
REMARK INTER + INTRA:          -9.358
REMARK INTER:                  -6.715
REMARK INTRA:                  -2.643
REMARK UNBOUND:                -1.993
REMARK SMILES CCCCCCCCC=CCCCCCCCC(=O)[O-]
REMARK SMILES IDX 10 1 9 2 11 3 12 4 13 5 14 6 15 7 16 8 17 9 18 10 19 11
REMARK SMILES IDX 20 12 8 13 7 14 6 15 5 16 4 17 3 18 2 19 1 20
REMARK H PARENT
REMARK Flexibility Score: inf
ROOT
ATOM      1  C   UNL     1      16.128  12.589  31.965  1.00  0.00    -0.031 C 
ATOM      2  C   UNL     1      14.861  12.406  31.544  1.00  0.00    -0.031 C 
ENDROOT
BRANCH   1   3
ATOM      3  C   UNL     1      17.257  13.125  31.110  1.00  0.00     0.027 C 
BRANCH   3   4
ATOM      4  C   UNL     1      17.608  14.571  31.482  1.00  0.00     0.004 C 
BRANCH   4   5
ATOM      5  C   UNL     1      17.022  15.588  30.485  1.00  0.00     0.000 C 
BRANCH   5   6
ATOM      6  C   UNL     1      17.076  15.085  29.031  1.00  0.00     0.000 C 
BRANCH   6   7
ATOM      7  C   UNL     1      16.074  15.752  28.067  1.00  0.00     0.000 C 
BRANCH   7   8
ATOM      8  C   UNL     1      15.697  14.912  26.827  1.00  0.00     0.006 C 
BRANCH   8   9
ATOM      9  C   UNL     1      16.195  13.458  26.865  1.00  0.00     0.053 C 
BRANCH   9  10
ATOM     10  C   UNL     1      17.196  13.184  25.784  1.00  0.00     0.041 C 
ATOM     11  O   UNL     1      18.387  13.592  25.899  1.00  0.00    -0.550 OA
ATOM     12  O   UNL     1      16.799  12.524  24.623  1.00  0.00    -0.550 OA
ENDBRANCH   9  10
ENDBRANCH   8   9
ENDBRANCH   7   8
ENDBRANCH   6   7
ENDBRANCH   5   6
ENDBRANCH   4   5
ENDBRANCH   3   4
ENDBRANCH   1   3
BRANCH   2  13
ATOM     13  C   UNL     1      14.383  12.673  30.138  1.00  0.00     0.027 C 
BRANCH  13  14
ATOM     14  C   UNL     1      13.686  14.040  30.046  1.00  0.00     0.004 C 
BRANCH  14  15
ATOM     15  C   UNL     1      12.673  14.109  28.895  1.00  0.00     0.000 C 
BRANCH  15  16
ATOM     16  C   UNL     1      11.394  14.865  29.285  1.00  0.00     0.000 C 
BRANCH  16  17
ATOM     17  C   UNL     1      10.605  14.098  30.357  1.00  0.00    -0.000 C 
BRANCH  17  18
ATOM     18  C   UNL     1      10.587  14.841  31.711  1.00  0.00    -0.000 C 
BRANCH  18  19
ATOM     19  C   UNL     1      11.349  14.102  32.832  1.00  0.00    -0.003 C 
ATOM     20  C   UNL     1      11.349  12.583  32.662  1.00  0.00     0.004 C 
ENDBRANCH  18  19
ENDBRANCH  17  18
ENDBRANCH  16  17
ENDBRANCH  15  16
ENDBRANCH  14  15
ENDBRANCH  13  14
ENDBRANCH   2  13
TORSDOF 15
ENDMDL
MODEL 6
REMARK VINA RESULT:    -3.921      3.098      6.188
REMARK INTER + INTRA:          -9.352
REMARK INTER:                  -6.650
REMARK INTRA:                  -2.703
REMARK UNBOUND:                -1.993
REMARK SMILES CCCCCCCCC=CCCCCCCCC(=O)[O-]
REMARK SMILES IDX 10 1 9 2 11 3 12 4 13 5 14 6 15 7 16 8 17 9 18 10 19 11
REMARK SMILES IDX 20 12 8 13 7 14 6 15 5 16 4 17 3 18 2 19 1 20
REMARK H PARENT
REMARK Flexibility Score: inf
ROOT
ATOM      1  C   UNL     1      14.796  12.627  29.904  1.00  0.00    -0.031 C 
ATOM      2  C   UNL     1      13.882  12.828  28.933  1.00  0.00    -0.031 C 
ENDROOT
BRANCH   1   3
ATOM      3  C   UNL     1      15.198  13.653  30.941  1.00  0.00     0.027 C 
BRANCH   3   4
ATOM      4  C   UNL     1      16.706  13.929  30.906  1.00  0.00     0.004 C 
BRANCH   4   5
ATOM      5  C   UNL     1      17.020  15.418  30.668  1.00  0.00     0.000 C 
BRANCH   5   6
ATOM      6  C   UNL     1      16.286  15.986  29.440  1.00  0.00     0.000 C 
BRANCH   6   7
ATOM      7  C   UNL     1      16.642  15.320  28.095  1.00  0.00     0.000 C 
BRANCH   7   8
ATOM      8  C   UNL     1      15.899  15.885  26.864  1.00  0.00     0.006 C 
BRANCH   8   9
ATOM      9  C   UNL     1      15.663  14.864  25.739  1.00  0.00     0.053 C 
BRANCH   9  10
ATOM     10  C   UNL     1      16.593  15.083  24.585  1.00  0.00     0.041 C 
ATOM     11  O   UNL     1      16.136  15.216  23.413  1.00  0.00    -0.550 OA
ATOM     12  O   UNL     1      17.971  15.087  24.795  1.00  0.00    -0.550 OA
ENDBRANCH   9  10
ENDBRANCH   8   9
ENDBRANCH   7   8
ENDBRANCH   6   7
ENDBRANCH   5   6
ENDBRANCH   4   5
ENDBRANCH   3   4
ENDBRANCH   1   3
BRANCH   2  13
ATOM     13  C   UNL     1      13.148  14.127  28.709  1.00  0.00     0.027 C 
BRANCH  13  14
ATOM     14  C   UNL     1      11.654  13.874  28.447  1.00  0.00     0.004 C 
BRANCH  14  15
ATOM     15  C   UNL     1      10.754  14.936  29.094  1.00  0.00     0.000 C 
BRANCH  15  16
ATOM     16  C   UNL     1      11.180  15.268  30.531  1.00  0.00     0.000 C 
BRANCH  16  17
ATOM     17  C   UNL     1      10.691  14.193  31.514  1.00  0.00    -0.000 C 
BRANCH  17  18
ATOM     18  C   UNL     1      11.833  13.650  32.400  1.00  0.00    -0.000 C 
BRANCH  18  19
ATOM     19  C   UNL     1      11.825  12.114  32.546  1.00  0.00    -0.003 C 
ATOM     20  C   UNL     1      11.417  11.387  31.265  1.00  0.00     0.004 C 
ENDBRANCH  18  19
ENDBRANCH  17  18
ENDBRANCH  16  17
ENDBRANCH  15  16
ENDBRANCH  14  15
ENDBRANCH  13  14
ENDBRANCH   2  13
TORSDOF 15
ENDMDL
MODEL 7
REMARK VINA RESULT:    -3.888      2.810      6.451
REMARK INTER + INTRA:          -9.290
REMARK INTER:                  -6.530
REMARK INTRA:                  -2.760
REMARK UNBOUND:                -1.993
REMARK SMILES CCCCCCCCC=CCCCCCCCC(=O)[O-]
REMARK SMILES IDX 10 1 9 2 11 3 12 4 13 5 14 6 15 7 16 8 17 9 18 10 19 11
REMARK SMILES IDX 20 12 8 13 7 14 6 15 5 16 4 17 3 18 2 19 1 20
REMARK H PARENT
REMARK Flexibility Score: inf
ROOT
ATOM      1  C   UNL     1      15.003  13.033  27.901  1.00  0.00    -0.031 C 
ATOM      2  C   UNL     1      14.533  14.138  28.514  1.00  0.00    -0.031 C 
ENDROOT
BRANCH   1   3
ATOM      3  C   UNL     1      16.009  12.073  28.497  1.00  0.00     0.027 C 
BRANCH   3   4
ATOM      4  C   UNL     1      17.403  12.268  27.889  1.00  0.00     0.004 C 
BRANCH   4   5
ATOM      5  C   UNL     1      17.386  13.232  26.688  1.00  0.00     0.000 C 
BRANCH   5   6
ATOM      6  C   UNL     1      18.158  14.534  26.967  1.00  0.00     0.000 C 
BRANCH   6   7
ATOM      7  C   UNL     1      17.814  15.714  26.036  1.00  0.00     0.000 C 
BRANCH   7   8
ATOM      8  C   UNL     1      16.307  16.023  25.895  1.00  0.00     0.006 C 
BRANCH   8   9
ATOM      9  C   UNL     1      15.809  16.122  24.444  1.00  0.00     0.053 C 
BRANCH   9  10
ATOM     10  C   UNL     1      15.259  14.817  23.954  1.00  0.00     0.041 C 
ATOM     11  O   UNL     1      14.429  14.171  24.657  1.00  0.00    -0.550 OA
ATOM     12  O   UNL     1      15.704  14.286  22.745  1.00  0.00    -0.550 OA
ENDBRANCH   9  10
ENDBRANCH   8   9
ENDBRANCH   7   8
ENDBRANCH   6   7
ENDBRANCH   5   6
ENDBRANCH   4   5
ENDBRANCH   3   4
ENDBRANCH   1   3
BRANCH   2  13
ATOM     13  C   UNL     1      14.972  14.607  29.879  1.00  0.00     0.027 C 
BRANCH  13  14
ATOM     14  C   UNL     1      16.118  15.626  29.766  1.00  0.00     0.004 C 
BRANCH  14  15
ATOM     15  C   UNL     1      17.292  15.299  30.701  1.00  0.00     0.000 C 
BRANCH  15  16
ATOM     16  C   UNL     1      17.173  13.899  31.321  1.00  0.00     0.000 C 
BRANCH  16  17
ATOM     17  C   UNL     1      18.174  13.718  32.472  1.00  0.00    -0.000 C 
BRANCH  17  18
ATOM     18  C   UNL     1      19.619  14.058  32.047  1.00  0.00    -0.000 C 
BRANCH  18  19
ATOM     19  C   UNL     1      20.272  12.980  31.158  1.00  0.00    -0.003 C 
ATOM     20  C   UNL     1      20.449  13.421  29.706  1.00  0.00     0.004 C 
ENDBRANCH  18  19
ENDBRANCH  17  18
ENDBRANCH  16  17
ENDBRANCH  15  16
ENDBRANCH  14  15
ENDBRANCH  13  14
ENDBRANCH   2  13
TORSDOF 15
ENDMDL
MODEL 8
REMARK VINA RESULT:    -3.883      1.926      4.726
REMARK INTER + INTRA:          -9.281
REMARK INTER:                  -6.461
REMARK INTRA:                  -2.820
REMARK UNBOUND:                -1.993
REMARK SMILES CCCCCCCCC=CCCCCCCCC(=O)[O-]
REMARK SMILES IDX 10 1 9 2 11 3 12 4 13 5 14 6 15 7 16 8 17 9 18 10 19 11
REMARK SMILES IDX 20 12 8 13 7 14 6 15 5 16 4 17 3 18 2 19 1 20
REMARK H PARENT
REMARK Flexibility Score: inf
ROOT
ATOM      1  C   UNL     1      15.334  13.087  27.525  1.00  0.00    -0.031 C 
ATOM      2  C   UNL     1      15.192  14.427  27.486  1.00  0.00    -0.031 C 
ENDROOT
BRANCH   1   3
ATOM      3  C   UNL     1      16.520  12.358  28.119  1.00  0.00     0.027 C 
BRANCH   3   4
ATOM      4  C   UNL     1      16.110  11.500  29.322  1.00  0.00     0.004 C 
BRANCH   4   5
ATOM      5  C   UNL     1      15.731  12.355  30.545  1.00  0.00     0.000 C 
BRANCH   5   6
ATOM      6  C   UNL     1      14.631  11.703  31.402  1.00  0.00     0.000 C 
BRANCH   6   7
ATOM      7  C   UNL     1      13.357  12.551  31.591  1.00  0.00     0.000 C 
BRANCH   7   8
ATOM      8  C   UNL     1      12.630  12.946  30.286  1.00  0.00     0.006 C 
BRANCH   8   9
ATOM      9  C   UNL     1      12.550  14.461  30.035  1.00  0.00     0.053 C 
BRANCH   9  10
ATOM     10  C   UNL     1      11.159  14.984  30.233  1.00  0.00     0.041 C 
ATOM     11  O   UNL     1      10.687  15.114  31.399  1.00  0.00    -0.550 OA
ATOM     12  O   UNL     1      10.365  15.279  29.127  1.00  0.00    -0.550 OA
ENDBRANCH   9  10
ENDBRANCH   8   9
ENDBRANCH   7   8
ENDBRANCH   6   7
ENDBRANCH   5   6
ENDBRANCH   4   5
ENDBRANCH   3   4
ENDBRANCH   1   3
BRANCH   2  13
ATOM     13  C   UNL     1      16.219  15.408  27.997  1.00  0.00     0.027 C 
BRANCH  13  14
ATOM     14  C   UNL     1      15.877  15.866  29.423  1.00  0.00     0.004 C 
BRANCH  14  15
ATOM     15  C   UNL     1      17.084  15.796  30.371  1.00  0.00     0.000 C 
BRANCH  15  16
ATOM     16  C   UNL     1      18.278  15.063  29.743  1.00  0.00     0.000 C 
BRANCH  16  17
ATOM     17  C   UNL     1      18.937  14.113  30.755  1.00  0.00    -0.000 C 
BRANCH  17  18
ATOM     18  C   UNL     1      18.223  14.133  32.124  1.00  0.00    -0.000 C 
BRANCH  18  19
ATOM     19  C   UNL     1      18.839  13.166  33.157  1.00  0.00    -0.003 C 
ATOM     20  C   UNL     1      17.880  12.060  33.596  1.00  0.00     0.004 C 
ENDBRANCH  18  19
ENDBRANCH  17  18
ENDBRANCH  16  17
ENDBRANCH  15  16
ENDBRANCH  14  15
ENDBRANCH  13  14
ENDBRANCH   2  13
TORSDOF 15
ENDMDL
MODEL 9
REMARK VINA RESULT:    -3.813      3.774      6.626
REMARK INTER + INTRA:          -9.150
REMARK INTER:                  -6.144
REMARK INTRA:                  -3.006
REMARK UNBOUND:                -1.993
REMARK SMILES CCCCCCCCC=CCCCCCCCC(=O)[O-]
REMARK SMILES IDX 10 1 9 2 11 3 12 4 13 5 14 6 15 7 16 8 17 9 18 10 19 11
REMARK SMILES IDX 20 12 8 13 7 14 6 15 5 16 4 17 3 18 2 19 1 20
REMARK H PARENT
REMARK Flexibility Score: inf
ROOT
ATOM      1  C   UNL     1      18.181  12.832  27.453  1.00  0.00    -0.031 C 
ATOM      2  C   UNL     1      18.617  12.510  28.687  1.00  0.00    -0.031 C 
ENDROOT
BRANCH   1   3
ATOM      3  C   UNL     1      18.868  13.801  26.515  1.00  0.00     0.027 C 
BRANCH   3   4
ATOM      4  C   UNL     1      18.513  15.255  26.847  1.00  0.00     0.004 C 
BRANCH   4   5
ATOM      5  C   UNL     1      17.998  16.024  25.616  1.00  0.00     0.000 C 
BRANCH   5   6
ATOM      6  C   UNL     1      16.475  16.244  25.655  1.00  0.00     0.000 C 
BRANCH   6   7
ATOM      7  C   UNL     1      15.740  15.988  24.323  1.00  0.00     0.000 C 
BRANCH   7   8
ATOM      8  C   UNL     1      15.107  14.586  24.181  1.00  0.00     0.006 C 
BRANCH   8   9
ATOM      9  C   UNL     1      16.113  13.457  23.902  1.00  0.00     0.053 C 
BRANCH   9  10
ATOM     10  C   UNL     1      16.987  13.769  22.725  1.00  0.00     0.041 C 
ATOM     11  O   UNL     1      16.478  13.937  21.580  1.00  0.00    -0.550 OA
ATOM     12  O   UNL     1      18.371  13.820  22.882  1.00  0.00    -0.550 OA
ENDBRANCH   9  10
ENDBRANCH   8   9
ENDBRANCH   7   8
ENDBRANCH   6   7
ENDBRANCH   5   6
ENDBRANCH   4   5
ENDBRANCH   3   4
ENDBRANCH   1   3
BRANCH   2  13
ATOM     13  C   UNL     1      19.844  13.101  29.338  1.00  0.00     0.027 C 
BRANCH  13  14
ATOM     14  C   UNL     1      19.464  14.267  30.264  1.00  0.00     0.004 C 
BRANCH  14  15
ATOM     15  C   UNL     1      18.522  13.837  31.398  1.00  0.00     0.000 C 
BRANCH  15  16
ATOM     16  C   UNL     1      17.137  14.490  31.286  1.00  0.00     0.000 C 
BRANCH  16  17
ATOM     17  C   UNL     1      17.159  15.670  30.303  1.00  0.00    -0.000 C 
BRANCH  17  18
ATOM     18  C   UNL     1      15.930  15.673  29.368  1.00  0.00    -0.000 C 
BRANCH  18  19
ATOM     19  C   UNL     1      15.213  14.310  29.285  1.00  0.00    -0.003 C 
ATOM     20  C   UNL     1      14.654  14.005  27.895  1.00  0.00     0.004 C 
ENDBRANCH  18  19
ENDBRANCH  17  18
ENDBRANCH  16  17
ENDBRANCH  15  16
ENDBRANCH  14  15
ENDBRANCH  13  14
ENDBRANCH   2  13
TORSDOF 15
ENDMDL
