MODEL 1
REMARK VINA RESULT:    -3.357      0.000      0.000
REMARK INTER + INTRA:          -4.361
REMARK INTER:                  -4.044
REMARK INTRA:                  -0.317
REMARK UNBOUND:                -0.317
REMARK SMILES O=c1c(O)c(-c2ccc(O)c(O)c2)oc2cc(O)cc(O)c12
REMARK SMILES IDX 5 1 3 2 2 3 1 4 22 5 20 6 19 7 17 8 16 9 15 10 14 11 6 12
REMARK SMILES IDX 7 13 8 14 9 15 13 16 11 17 10 18 12 20 4 22 21 24 18 26
REMARK H PARENT 10 19 12 21 4 23 21 25 18 27
REMARK Flexibility Score: inf
ROOT
ATOM      1  C   UNL     1     217.821 -56.175  50.341  1.00  0.00     0.180 A 
ATOM      2  C   UNL     1     217.436 -55.717  51.615  1.00  0.00     0.208 A 
ATOM      3  C   UNL     1     218.431 -55.429  52.563  1.00  0.00     0.238 A 
ATOM      4  O   UNL     1     218.097 -55.030  53.711  1.00  0.00    -0.285 OA
ATOM      5  C   UNL     1     219.789 -55.583  52.215  1.00  0.00     0.111 A 
ATOM      6  C   UNL     1     220.852 -55.311  53.110  1.00  0.00     0.134 A 
ATOM      7  C   UNL     1     222.178 -55.481  52.686  1.00  0.00     0.093 A 
ATOM      8  C   UNL     1     222.462 -55.915  51.389  1.00  0.00     0.123 A 
ATOM      9  C   UNL     1     221.416 -56.186  50.501  1.00  0.00     0.094 A 
ATOM     10  C   UNL     1     220.087 -56.025  50.905  1.00  0.00     0.146 A 
ATOM     11  O   UNL     1     219.113 -56.293  50.045  1.00  0.00    -0.452 OA
ENDROOT
BRANCH   1  12
ATOM     12  C   UNL     1     216.831 -56.517  49.295  1.00  0.00     0.025 A 
ATOM     13  C   UNL     1     216.380 -57.841  49.178  1.00  0.00     0.016 A 
ATOM     14  C   UNL     1     215.430 -58.182  48.211  1.00  0.00     0.051 A 
ATOM     15  C   UNL     1     214.905 -57.201  47.359  1.00  0.00     0.157 A 
ATOM     16  C   UNL     1     216.286 -55.531  48.452  1.00  0.00     0.062 A 
ATOM     17  C   UNL     1     215.332 -55.872  47.483  1.00  0.00     0.158 A 
BRANCH  15  18
ATOM     18  O   UNL     1     213.959 -57.537  46.393  1.00  0.00    -0.504 OA
ATOM     19  H   UNL     1     214.176 -57.507  45.404  1.00  0.00     0.293 HD
ENDBRANCH  15  18
BRANCH  17  20
ATOM     20  O   UNL     1     214.797 -54.895  46.644  1.00  0.00    -0.504 OA
ATOM     21  H   UNL     1     215.108 -53.932  46.687  1.00  0.00     0.293 HD
ENDBRANCH  17  20
ENDBRANCH   1  12
BRANCH   2  22
ATOM     22  O   UNL     1     216.085 -55.526  51.918  1.00  0.00    -0.502 OA
ATOM     23  H   UNL     1     215.764 -54.774  52.514  1.00  0.00     0.293 HD
ENDBRANCH   2  22
BRANCH   6  24
ATOM     24  O   UNL     1     220.602 -54.875  54.411  1.00  0.00    -0.507 OA
ATOM     25  H   UNL     1     220.404 -53.903  54.618  1.00  0.00     0.293 HD
ENDBRANCH   6  24
BRANCH   8  26
ATOM     26  O   UNL     1     223.788 -56.074  50.992  1.00  0.00    -0.508 OA
ATOM     27  H   UNL     1     224.091 -55.846  50.052  1.00  0.00     0.293 HD
ENDBRANCH   8  26
TORSDOF 6
ENDMDL
MODEL 2
REMARK VINA RESULT:    -3.319      2.505      3.074
REMARK INTER + INTRA:          -4.315
REMARK INTER:                  -4.066
REMARK INTRA:                  -0.248
REMARK UNBOUND:                -0.317
REMARK SMILES O=c1c(O)c(-c2ccc(O)c(O)c2)oc2cc(O)cc(O)c12
REMARK SMILES IDX 5 1 3 2 2 3 1 4 22 5 20 6 19 7 17 8 16 9 15 10 14 11 6 12
REMARK SMILES IDX 7 13 8 14 9 15 13 16 11 17 10 18 12 20 4 22 21 24 18 26
REMARK H PARENT 10 19 12 21 4 23 21 25 18 27
REMARK Flexibility Score: inf
ROOT
ATOM      1  C   UNL     1     218.228 -57.336  48.964  1.00  0.00     0.180 A 
ATOM      2  C   UNL     1     218.841 -56.076  49.099  1.00  0.00     0.208 A 
ATOM      3  C   UNL     1     220.114 -55.999  49.684  1.00  0.00     0.238 A 
ATOM      4  O   UNL     1     220.668 -54.875  49.822  1.00  0.00    -0.285 OA
ATOM      5  C   UNL     1     220.761 -57.181  50.103  1.00  0.00     0.111 A 
ATOM      6  C   UNL     1     222.046 -57.191  50.697  1.00  0.00     0.134 A 
ATOM      7  C   UNL     1     222.626 -58.410  51.079  1.00  0.00     0.093 A 
ATOM      8  C   UNL     1     221.949 -59.615  50.877  1.00  0.00     0.123 A 
ATOM      9  C   UNL     1     220.680 -59.611  50.291  1.00  0.00     0.094 A 
ATOM     10  C   UNL     1     220.084 -58.407  49.906  1.00  0.00     0.146 A 
ATOM     11  O   UNL     1     218.875 -58.430  49.356  1.00  0.00    -0.452 OA
ENDROOT
BRANCH   1  12
ATOM     12  C   UNL     1     216.880 -57.496  48.375  1.00  0.00     0.025 A 
ATOM     13  C   UNL     1     215.753 -57.092  49.108  1.00  0.00     0.016 A 
ATOM     14  C   UNL     1     214.472 -57.215  48.564  1.00  0.00     0.051 A 
ATOM     15  C   UNL     1     214.301 -57.727  47.271  1.00  0.00     0.157 A 
ATOM     16  C   UNL     1     216.704 -57.990  47.069  1.00  0.00     0.062 A 
ATOM     17  C   UNL     1     215.420 -58.112  46.521  1.00  0.00     0.158 A 
BRANCH  15  18
ATOM     18  O   UNL     1     213.025 -57.852  46.724  1.00  0.00    -0.504 OA
ATOM     19  H   UNL     1     212.724 -58.706  46.270  1.00  0.00     0.293 HD
ENDBRANCH  15  18
BRANCH  17  20
ATOM     20  O   UNL     1     215.248 -58.607  45.229  1.00  0.00    -0.504 OA
ATOM     21  H   UNL     1     214.761 -58.075  44.518  1.00  0.00     0.293 HD
ENDBRANCH  17  20
ENDBRANCH   1  12
BRANCH   2  22
ATOM     22  O   UNL     1     218.200 -54.925  48.632  1.00  0.00    -0.502 OA
ATOM     23  H   UNL     1     217.207 -54.898  48.439  1.00  0.00     0.293 HD
ENDBRANCH   2  22
BRANCH   6  24
ATOM     24  O   UNL     1     222.748 -56.005  50.910  1.00  0.00    -0.507 OA
ATOM     25  H   UNL     1     222.272 -55.131  51.103  1.00  0.00     0.293 HD
ENDBRANCH   6  24
BRANCH   8  26
ATOM     26  O   UNL     1     222.549 -60.812  51.264  1.00  0.00    -0.508 OA
ATOM     27  H   UNL     1     222.544 -61.119  52.230  1.00  0.00     0.293 HD
ENDBRANCH   8  26
TORSDOF 6
ENDMDL
MODEL 3
REMARK VINA RESULT:    -3.279      5.379      6.823
REMARK INTER + INTRA:          -4.266
REMARK INTER:                  -4.085
REMARK INTRA:                  -0.181
REMARK UNBOUND:                -0.317
REMARK SMILES O=c1c(O)c(-c2ccc(O)c(O)c2)oc2cc(O)cc(O)c12
REMARK SMILES IDX 5 1 3 2 2 3 1 4 22 5 20 6 19 7 17 8 16 9 15 10 14 11 6 12
REMARK SMILES IDX 7 13 8 14 9 15 13 16 11 17 10 18 12 20 4 22 21 24 18 26
REMARK H PARENT 10 19 12 21 4 23 21 25 18 27
REMARK Flexibility Score: inf
ROOT
ATOM      1  C   UNL     1     223.675 -58.354  51.191  1.00  0.00     0.180 A 
ATOM      2  C   UNL     1     223.417 -57.005  51.502  1.00  0.00     0.208 A 
ATOM      3  C   UNL     1     223.874 -56.492  52.725  1.00  0.00     0.238 A 
ATOM      4  O   UNL     1     223.639 -55.288  53.020  1.00  0.00    -0.285 OA
ATOM      5  C   UNL     1     224.596 -57.325  53.605  1.00  0.00     0.111 A 
ATOM      6  C   UNL     1     225.094 -56.884  54.855  1.00  0.00     0.134 A 
ATOM      7  C   UNL     1     225.811 -57.772  55.669  1.00  0.00     0.093 A 
ATOM      8  C   UNL     1     226.041 -59.088  55.260  1.00  0.00     0.123 A 
ATOM      9  C   UNL     1     225.550 -59.529  54.028  1.00  0.00     0.094 A 
ATOM     10  C   UNL     1     224.831 -58.660  53.202  1.00  0.00     0.146 A 
ATOM     11  O   UNL     1     224.372 -59.105  52.038  1.00  0.00    -0.452 OA
ENDROOT
BRANCH   1  12
ATOM     12  C   UNL     1     223.210 -58.973  49.929  1.00  0.00     0.025 A 
ATOM     13  C   UNL     1     221.833 -59.123  49.700  1.00  0.00     0.016 A 
ATOM     14  C   UNL     1     221.370 -59.686  48.507  1.00  0.00     0.051 A 
ATOM     15  C   UNL     1     222.278 -60.091  47.519  1.00  0.00     0.157 A 
ATOM     16  C   UNL     1     224.116 -59.362  48.925  1.00  0.00     0.062 A 
ATOM     17  C   UNL     1     223.653 -59.925  47.728  1.00  0.00     0.158 A 
BRANCH  15  18
ATOM     18  O   UNL     1     221.822 -60.654  46.329  1.00  0.00    -0.504 OA
ATOM     19  H   UNL     1     222.126 -61.571  46.025  1.00  0.00     0.293 HD
ENDBRANCH  15  18
BRANCH  17  20
ATOM     20  O   UNL     1     224.554 -60.315  46.738  1.00  0.00    -0.504 OA
ATOM     21  H   UNL     1     224.259 -60.869  45.942  1.00  0.00     0.293 HD
ENDBRANCH  17  20
ENDBRANCH   1  12
BRANCH   2  22
ATOM     22  O   UNL     1     222.742 -56.187  50.592  1.00  0.00    -0.502 OA
ATOM     23  H   UNL     1     223.193 -55.415  50.118  1.00  0.00     0.293 HD
ENDBRANCH   2  22
BRANCH   6  24
ATOM     24  O   UNL     1     224.884 -55.576  55.291  1.00  0.00    -0.507 OA
ATOM     25  H   UNL     1     224.146 -55.345  55.946  1.00  0.00     0.293 HD
ENDBRANCH   6  24
BRANCH   8  26
ATOM     26  O   UNL     1     226.758 -59.950  56.088  1.00  0.00    -0.508 OA
ATOM     27  H   UNL     1     226.392 -60.858  56.352  1.00  0.00     0.293 HD
ENDBRANCH   8  26
TORSDOF 6
ENDMDL
MODEL 4
REMARK VINA RESULT:    -3.270      4.658      7.122
REMARK INTER + INTRA:          -4.256
REMARK INTER:                  -3.928
REMARK INTRA:                  -0.328
REMARK UNBOUND:                -0.317
REMARK SMILES O=c1c(O)c(-c2ccc(O)c(O)c2)oc2cc(O)cc(O)c12
REMARK SMILES IDX 5 1 3 2 2 3 1 4 22 5 20 6 19 7 17 8 16 9 15 10 14 11 6 12
REMARK SMILES IDX 7 13 8 14 9 15 13 16 11 17 10 18 12 20 4 22 21 24 18 26
REMARK H PARENT 10 19 12 21 4 23 21 25 18 27
REMARK Flexibility Score: inf
ROOT
ATOM      1  C   UNL     1     223.450 -59.287  49.657  1.00  0.00     0.180 A 
ATOM      2  C   UNL     1     224.417 -59.385  50.676  1.00  0.00     0.208 A 
ATOM      3  C   UNL     1     224.337 -58.516  51.775  1.00  0.00     0.238 A 
ATOM      4  O   UNL     1     225.204 -58.587  52.687  1.00  0.00    -0.285 OA
ATOM      5  C   UNL     1     223.284 -57.580  51.848  1.00  0.00     0.111 A 
ATOM      6  C   UNL     1     223.129 -56.671  52.922  1.00  0.00     0.134 A 
ATOM      7  C   UNL     1     222.049 -55.777  52.925  1.00  0.00     0.093 A 
ATOM      8  C   UNL     1     221.123 -55.773  51.880  1.00  0.00     0.123 A 
ATOM      9  C   UNL     1     221.271 -56.668  50.816  1.00  0.00     0.094 A 
ATOM     10  C   UNL     1     222.342 -57.566  50.792  1.00  0.00     0.146 A 
ATOM     11  O   UNL     1     222.463 -58.402  49.768  1.00  0.00    -0.452 OA
ENDROOT
BRANCH   1  12
ATOM     12  C   UNL     1     223.478 -60.155  48.459  1.00  0.00     0.025 A 
ATOM     13  C   UNL     1     222.796 -61.382  48.479  1.00  0.00     0.016 A 
ATOM     14  C   UNL     1     222.792 -62.209  47.353  1.00  0.00     0.051 A 
ATOM     15  C   UNL     1     223.455 -61.812  46.184  1.00  0.00     0.157 A 
ATOM     16  C   UNL     1     224.124 -59.752  47.276  1.00  0.00     0.062 A 
ATOM     17  C   UNL     1     224.119 -60.579  46.145  1.00  0.00     0.158 A 
BRANCH  15  18
ATOM     18  O   UNL     1     223.454 -62.634  45.058  1.00  0.00    -0.504 OA
ATOM     19  H   UNL     1     222.796 -62.494  44.300  1.00  0.00     0.293 HD
ENDBRANCH  15  18
BRANCH  17  20
ATOM     20  O   UNL     1     224.765 -60.180  44.976  1.00  0.00    -0.504 OA
ATOM     21  H   UNL     1     225.483 -60.751  44.546  1.00  0.00     0.293 HD
ENDBRANCH  17  20
ENDBRANCH   1  12
BRANCH   2  22
ATOM     22  O   UNL     1     225.422 -60.354  50.604  1.00  0.00    -0.502 OA
ATOM     23  H   UNL     1     225.240 -61.337  50.760  1.00  0.00     0.293 HD
ENDBRANCH   2  22
BRANCH   6  24
ATOM     24  O   UNL     1     224.036 -56.651  53.982  1.00  0.00    -0.507 OA
ATOM     25  H   UNL     1     224.590 -55.829  54.193  1.00  0.00     0.293 HD
ENDBRANCH   6  24
BRANCH   8  26
ATOM     26  O   UNL     1     220.058 -54.875  51.909  1.00  0.00    -0.508 OA
ATOM     27  H   UNL     1     219.277 -55.000  52.543  1.00  0.00     0.293 HD
ENDBRANCH   8  26
TORSDOF 6
ENDMDL
MODEL 5
REMARK VINA RESULT:    -3.256      9.655     12.232
REMARK INTER + INTRA:          -4.239
REMARK INTER:                  -3.915
REMARK INTRA:                  -0.324
REMARK UNBOUND:                -0.317
REMARK SMILES O=c1c(O)c(-c2ccc(O)c(O)c2)oc2cc(O)cc(O)c12
REMARK SMILES IDX 5 1 3 2 2 3 1 4 22 5 20 6 19 7 17 8 16 9 15 10 14 11 6 12
REMARK SMILES IDX 7 13 8 14 9 15 13 16 11 17 10 18 12 20 4 22 21 24 18 26
REMARK H PARENT 10 19 12 21 4 23 21 25 18 27
REMARK Flexibility Score: inf
ROOT
ATOM      1  C   UNL     1     225.663 -59.798  43.603  1.00  0.00     0.180 A 
ATOM      2  C   UNL     1     226.463 -60.892  43.224  1.00  0.00     0.208 A 
ATOM      3  C   UNL     1     227.330 -60.752  42.129  1.00  0.00     0.238 A 
ATOM      4  O   UNL     1     228.043 -61.729  41.772  1.00  0.00    -0.285 OA
ATOM      5  C   UNL     1     227.398 -59.519  41.447  1.00  0.00     0.111 A 
ATOM      6  C   UNL     1     228.248 -59.294  40.337  1.00  0.00     0.134 A 
ATOM      7  C   UNL     1     228.264 -58.036  39.718  1.00  0.00     0.093 A 
ATOM      8  C   UNL     1     227.451 -57.000  40.186  1.00  0.00     0.123 A 
ATOM      9  C   UNL     1     226.609 -57.217  41.281  1.00  0.00     0.094 A 
ATOM     10  C   UNL     1     226.577 -58.465  41.911  1.00  0.00     0.146 A 
ATOM     11  O   UNL     1     225.765 -58.646  42.946  1.00  0.00    -0.452 OA
ENDROOT
BRANCH   1  12
ATOM     12  C   UNL     1     224.711 -59.873  44.734  1.00  0.00     0.025 A 
ATOM     13  C   UNL     1     223.408 -60.345  44.511  1.00  0.00     0.016 A 
ATOM     14  C   UNL     1     222.500 -60.445  45.567  1.00  0.00     0.051 A 
ATOM     15  C   UNL     1     222.886 -60.090  46.867  1.00  0.00     0.157 A 
ATOM     16  C   UNL     1     225.101 -59.538  46.044  1.00  0.00     0.062 A 
ATOM     17  C   UNL     1     224.191 -59.640  47.105  1.00  0.00     0.158 A 
BRANCH  15  18
ATOM     18  O   UNL     1     221.983 -60.187  47.924  1.00  0.00    -0.504 OA
ATOM     19  H   UNL     1     221.055 -60.572  47.795  1.00  0.00     0.293 HD
ENDBRANCH  15  18
BRANCH  17  20
ATOM     20  O   UNL     1     224.578 -59.301  48.401  1.00  0.00    -0.504 OA
ATOM     21  H   UNL     1     224.816 -58.349  48.652  1.00  0.00     0.293 HD
ENDBRANCH  17  20
ENDBRANCH   1  12
BRANCH   2  22
ATOM     22  O   UNL     1     226.413 -62.087  43.946  1.00  0.00    -0.502 OA
ATOM     23  H   UNL     1     225.633 -62.327  44.544  1.00  0.00     0.293 HD
ENDBRANCH   2  22
BRANCH   6  24
ATOM     24  O   UNL     1     229.073 -60.307  39.847  1.00  0.00    -0.507 OA
ATOM     25  H   UNL     1     229.150 -60.497  38.855  1.00  0.00     0.293 HD
ENDBRANCH   6  24
BRANCH   8  26
ATOM     26  O   UNL     1     227.488 -55.759  39.553  1.00  0.00    -0.508 OA
ATOM     27  H   UNL     1     228.258 -55.115  39.695  1.00  0.00     0.293 HD
ENDBRANCH   8  26
TORSDOF 6
ENDMDL
MODEL 6
REMARK VINA RESULT:    -3.239      4.047      8.760
REMARK INTER + INTRA:          -4.219
REMARK INTER:                  -4.125
REMARK INTRA:                  -0.094
REMARK UNBOUND:                -0.317
REMARK SMILES O=c1c(O)c(-c2ccc(O)c(O)c2)oc2cc(O)cc(O)c12
REMARK SMILES IDX 5 1 3 2 2 3 1 4 22 5 20 6 19 7 17 8 16 9 15 10 14 11 6 12
REMARK SMILES IDX 7 13 8 14 9 15 13 16 11 17 10 18 12 20 4 22 21 24 18 26
REMARK H PARENT 10 19 12 21 4 23 21 25 18 27
REMARK Flexibility Score: inf
ROOT
ATOM      1  C   UNL     1     223.051 -58.257  50.873  1.00  0.00     0.180 A 
ATOM      2  C   UNL     1     223.876 -58.985  49.994  1.00  0.00     0.208 A 
ATOM      3  C   UNL     1     223.284 -59.690  48.935  1.00  0.00     0.238 A 
ATOM      4  O   UNL     1     224.012 -60.354  48.148  1.00  0.00    -0.285 OA
ATOM      5  C   UNL     1     221.886 -59.639  48.758  1.00  0.00     0.111 A 
ATOM      6  C   UNL     1     221.211 -60.317  47.714  1.00  0.00     0.134 A 
ATOM      7  C   UNL     1     219.818 -60.210  47.601  1.00  0.00     0.093 A 
ATOM      8  C   UNL     1     219.087 -59.439  48.508  1.00  0.00     0.123 A 
ATOM      9  C   UNL     1     219.746 -58.767  49.542  1.00  0.00     0.094 A 
ATOM     10  C   UNL     1     221.135 -58.863  49.673  1.00  0.00     0.146 A 
ATOM     11  O   UNL     1     221.737 -58.220  50.666  1.00  0.00    -0.452 OA
ENDROOT
BRANCH   1  12
ATOM     12  C   UNL     1     223.598 -57.504  52.024  1.00  0.00     0.025 A 
ATOM     13  C   UNL     1     223.271 -56.148  52.179  1.00  0.00     0.016 A 
ATOM     14  C   UNL     1     223.759 -55.422  53.269  1.00  0.00     0.051 A 
ATOM     15  C   UNL     1     224.567 -56.047  54.228  1.00  0.00     0.157 A 
ATOM     16  C   UNL     1     224.391 -58.133  53.000  1.00  0.00     0.062 A 
ATOM     17  C   UNL     1     224.880 -57.406  54.095  1.00  0.00     0.158 A 
BRANCH  15  18
ATOM     18  O   UNL     1     225.057 -55.327  55.317  1.00  0.00    -0.504 OA
ATOM     19  H   UNL     1     224.789 -54.364  55.479  1.00  0.00     0.293 HD
ENDBRANCH  15  18
BRANCH  17  20
ATOM     20  O   UNL     1     225.672 -58.030  55.059  1.00  0.00    -0.504 OA
ATOM     21  H   UNL     1     226.057 -57.515  55.842  1.00  0.00     0.293 HD
ENDBRANCH  17  20
ENDBRANCH   1  12
BRANCH   2  22
ATOM     22  O   UNL     1     225.263 -58.979  50.161  1.00  0.00    -0.502 OA
ATOM     23  H   UNL     1     225.837 -59.788  49.959  1.00  0.00     0.293 HD
ENDBRANCH   2  22
BRANCH   6  24
ATOM     24  O   UNL     1     221.913 -61.093  46.792  1.00  0.00    -0.507 OA
ATOM     25  H   UNL     1     221.713 -61.053  45.799  1.00  0.00     0.293 HD
ENDBRANCH   6  24
BRANCH   8  26
ATOM     26  O   UNL     1     217.703 -59.347  48.372  1.00  0.00    -0.508 OA
ATOM     27  H   UNL     1     217.077 -59.893  48.953  1.00  0.00     0.293 HD
ENDBRANCH   8  26
TORSDOF 6
ENDMDL
MODEL 7
REMARK VINA RESULT:    -3.217      5.793      7.179
REMARK INTER + INTRA:          -4.192
REMARK INTER:                  -3.870
REMARK INTRA:                  -0.322
REMARK UNBOUND:                -0.317
REMARK SMILES O=c1c(O)c(-c2ccc(O)c(O)c2)oc2cc(O)cc(O)c12
REMARK SMILES IDX 5 1 3 2 2 3 1 4 22 5 20 6 19 7 17 8 16 9 15 10 14 11 6 12
REMARK SMILES IDX 7 13 8 14 9 15 13 16 11 17 10 18 12 20 4 22 21 24 18 26
REMARK H PARENT 10 19 12 21 4 23 21 25 18 27
REMARK Flexibility Score: inf
ROOT
ATOM      1  C   UNL     1     223.698 -59.500  49.657  1.00  0.00     0.180 A 
ATOM      2  C   UNL     1     224.265 -60.486  50.487  1.00  0.00     0.208 A 
ATOM      3  C   UNL     1     224.629 -60.142  51.798  1.00  0.00     0.238 A 
ATOM      4  O   UNL     1     225.149 -61.013  52.547  1.00  0.00    -0.285 OA
ATOM      5  C   UNL     1     224.402 -58.830  52.263  1.00  0.00     0.111 A 
ATOM      6  C   UNL     1     224.736 -58.403  53.572  1.00  0.00     0.134 A 
ATOM      7  C   UNL     1     224.469 -57.083  53.962  1.00  0.00     0.093 A 
ATOM      8  C   UNL     1     223.876 -56.183  53.073  1.00  0.00     0.123 A 
ATOM      9  C   UNL     1     223.545 -56.598  51.780  1.00  0.00     0.094 A 
ATOM     10  C   UNL     1     223.805 -57.909  51.371  1.00  0.00     0.146 A 
ATOM     11  O   UNL     1     223.484 -58.277  50.136  1.00  0.00    -0.452 OA
ENDROOT
BRANCH   1  12
ATOM     12  C   UNL     1     223.306 -59.780  48.258  1.00  0.00     0.025 A 
ATOM     13  C   UNL     1     221.957 -60.023  47.954  1.00  0.00     0.016 A 
ATOM     14  C   UNL     1     221.560 -60.269  46.637  1.00  0.00     0.051 A 
ATOM     15  C   UNL     1     222.505 -60.259  45.602  1.00  0.00     0.157 A 
ATOM     16  C   UNL     1     224.247 -59.750  47.212  1.00  0.00     0.062 A 
ATOM     17  C   UNL     1     223.850 -59.995  45.891  1.00  0.00     0.158 A 
BRANCH  15  18
ATOM     18  O   UNL     1     222.115 -60.506  44.287  1.00  0.00    -0.504 OA
ATOM     19  H   UNL     1     222.283 -61.401  43.843  1.00  0.00     0.293 HD
ENDBRANCH  15  18
BRANCH  17  20
ATOM     20  O   UNL     1     224.786 -59.971  44.857  1.00  0.00    -0.504 OA
ATOM     21  H   UNL     1     225.249 -59.114  44.582  1.00  0.00     0.293 HD
ENDBRANCH  17  20
ENDBRANCH   1  12
BRANCH   2  22
ATOM     22  O   UNL     1     224.435 -61.791  50.018  1.00  0.00    -0.502 OA
ATOM     23  H   UNL     1     224.393 -62.023  49.034  1.00  0.00     0.293 HD
ENDBRANCH   2  22
BRANCH   6  24
ATOM     24  O   UNL     1     225.327 -59.278  54.483  1.00  0.00    -0.507 OA
ATOM     25  H   UNL     1     225.581 -58.982  55.418  1.00  0.00     0.293 HD
ENDBRANCH   6  24
BRANCH   8  26
ATOM     26  O   UNL     1     223.621 -54.877  53.486  1.00  0.00    -0.508 OA
ATOM     27  H   UNL     1     223.040 -54.252  52.939  1.00  0.00     0.293 HD
ENDBRANCH   8  26
TORSDOF 6
ENDMDL
MODEL 8
REMARK VINA RESULT:    -3.182      2.680      4.972
REMARK INTER + INTRA:          -4.149
REMARK INTER:                  -3.825
REMARK INTRA:                  -0.324
REMARK UNBOUND:                -0.317
REMARK SMILES O=c1c(O)c(-c2ccc(O)c(O)c2)oc2cc(O)cc(O)c12
REMARK SMILES IDX 5 1 3 2 2 3 1 4 22 5 20 6 19 7 17 8 16 9 15 10 14 11 6 12
REMARK SMILES IDX 7 13 8 14 9 15 13 16 11 17 10 18 12 20 4 22 21 24 18 26
REMARK H PARENT 10 19 12 21 4 23 21 25 18 27
REMARK Flexibility Score: inf
ROOT
ATOM      1  C   UNL     1     221.525 -56.745  51.514  1.00  0.00     0.180 A 
ATOM      2  C   UNL     1     222.189 -57.903  51.066  1.00  0.00     0.208 A 
ATOM      3  C   UNL     1     223.370 -58.301  51.710  1.00  0.00     0.238 A 
ATOM      4  O   UNL     1     223.979 -59.330  51.311  1.00  0.00    -0.285 OA
ATOM      5  C   UNL     1     223.856 -57.550  52.801  1.00  0.00     0.111 A 
ATOM      6  C   UNL     1     225.037 -57.885  53.507  1.00  0.00     0.134 A 
ATOM      7  C   UNL     1     225.450 -57.092  54.587  1.00  0.00     0.093 A 
ATOM      8  C   UNL     1     224.707 -55.974  54.976  1.00  0.00     0.123 A 
ATOM      9  C   UNL     1     223.541 -55.638  54.282  1.00  0.00     0.094 A 
ATOM     10  C   UNL     1     223.114 -56.414  53.201  1.00  0.00     0.146 A 
ATOM     11  O   UNL     1     222.005 -56.071  52.556  1.00  0.00    -0.452 OA
ENDROOT
BRANCH   1  12
ATOM     12  C   UNL     1     220.285 -56.251  50.875  1.00  0.00     0.025 A 
ATOM     13  C   UNL     1     220.373 -55.384  49.774  1.00  0.00     0.016 A 
ATOM     14  C   UNL     1     219.216 -54.922  49.141  1.00  0.00     0.051 A 
ATOM     15  C   UNL     1     217.954 -55.334  49.590  1.00  0.00     0.157 A 
ATOM     16  C   UNL     1     219.016 -56.679  51.308  1.00  0.00     0.062 A 
ATOM     17  C   UNL     1     217.855 -56.218  50.673  1.00  0.00     0.158 A 
BRANCH  15  18
ATOM     18  O   UNL     1     216.797 -54.875  48.963  1.00  0.00    -0.504 OA
ATOM     19  H   UNL     1     216.770 -54.694  47.967  1.00  0.00     0.293 HD
ENDBRANCH  15  18
BRANCH  17  20
ATOM     20  O   UNL     1     216.599 -56.638  51.108  1.00  0.00    -0.504 OA
ATOM     21  H   UNL     1     216.477 -57.504  51.619  1.00  0.00     0.293 HD
ENDBRANCH  17  20
ENDBRANCH   1  12
BRANCH   2  22
ATOM     22  O   UNL     1     221.660 -58.658  50.015  1.00  0.00    -0.502 OA
ATOM     23  H   UNL     1     222.237 -59.029  49.271  1.00  0.00     0.293 HD
ENDBRANCH   2  22
BRANCH   6  24
ATOM     24  O   UNL     1     225.799 -58.996  53.145  1.00  0.00    -0.507 OA
ATOM     25  H   UNL     1     226.741 -59.133  53.494  1.00  0.00     0.293 HD
ENDBRANCH   6  24
BRANCH   8  26
ATOM     26  O   UNL     1     225.139 -55.204  56.054  1.00  0.00    -0.508 OA
ATOM     27  H   UNL     1     226.087 -54.851  56.106  1.00  0.00     0.293 HD
ENDBRANCH   8  26
TORSDOF 6
ENDMDL
MODEL 9
REMARK VINA RESULT:    -3.119      2.335      3.015
REMARK INTER + INTRA:          -4.073
REMARK INTER:                  -3.749
REMARK INTRA:                  -0.324
REMARK UNBOUND:                -0.317
REMARK SMILES O=c1c(O)c(-c2ccc(O)c(O)c2)oc2cc(O)cc(O)c12
REMARK SMILES IDX 5 1 3 2 2 3 1 4 22 5 20 6 19 7 17 8 16 9 15 10 14 11 6 12
REMARK SMILES IDX 7 13 8 14 9 15 13 16 11 17 10 18 12 20 4 22 21 24 18 26
REMARK H PARENT 10 19 12 21 4 23 21 25 18 27
REMARK Flexibility Score: inf
ROOT
ATOM      1  C   UNL     1     219.830 -57.376  49.342  1.00  0.00     0.180 A 
ATOM      2  C   UNL     1     219.970 -56.163  50.045  1.00  0.00     0.208 A 
ATOM      3  C   UNL     1     221.128 -55.952  50.809  1.00  0.00     0.238 A 
ATOM      4  O   UNL     1     221.259 -54.875  51.452  1.00  0.00    -0.285 OA
ATOM      5  C   UNL     1     222.132 -56.941  50.842  1.00  0.00     0.111 A 
ATOM      6  C   UNL     1     223.331 -56.804  51.584  1.00  0.00     0.134 A 
ATOM      7  C   UNL     1     224.285 -57.831  51.557  1.00  0.00     0.093 A 
ATOM      8  C   UNL     1     224.068 -58.988  50.805  1.00  0.00     0.123 A 
ATOM      9  C   UNL     1     222.887 -59.130  50.072  1.00  0.00     0.094 A 
ATOM     10  C   UNL     1     221.921 -58.118  50.086  1.00  0.00     0.146 A 
ATOM     11  O   UNL     1     220.805 -58.279  49.384  1.00  0.00    -0.452 OA
ENDROOT
BRANCH   1  12
ATOM     12  C   UNL     1     218.631 -57.680  48.530  1.00  0.00     0.025 A 
ATOM     13  C   UNL     1     217.532 -58.314  49.132  1.00  0.00     0.016 A 
ATOM     14  C   UNL     1     216.381 -58.593  48.390  1.00  0.00     0.051 A 
ATOM     15  C   UNL     1     216.306 -58.227  47.040  1.00  0.00     0.157 A 
ATOM     16  C   UNL     1     218.542 -57.295  47.180  1.00  0.00     0.062 A 
ATOM     17  C   UNL     1     217.388 -57.573  46.435  1.00  0.00     0.158 A 
BRANCH  15  18
ATOM     18  O   UNL     1     215.161 -58.503  46.295  1.00  0.00    -0.504 OA
ATOM     19  H   UNL     1     214.911 -57.953  45.483  1.00  0.00     0.293 HD
ENDBRANCH  15  18
BRANCH  17  20
ATOM     20  O   UNL     1     217.305 -57.196  45.095  1.00  0.00    -0.504 OA
ATOM     21  H   UNL     1     218.079 -56.745  44.623  1.00  0.00     0.293 HD
ENDBRANCH  17  20
ENDBRANCH   1  12
BRANCH   2  22
ATOM     22  O   UNL     1     218.982 -55.178  49.958  1.00  0.00    -0.502 OA
ATOM     23  H   UNL     1     218.576 -54.744  50.776  1.00  0.00     0.293 HD
ENDBRANCH   2  22
BRANCH   6  24
ATOM     24  O   UNL     1     223.578 -55.660  52.343  1.00  0.00    -0.507 OA
ATOM     25  H   UNL     1     223.186 -54.760  52.093  1.00  0.00     0.293 HD
ENDBRANCH   6  24
BRANCH   8  26
ATOM     26  O   UNL     1     225.034 -59.992  50.796  1.00  0.00    -0.508 OA
ATOM     27  H   UNL     1     224.917 -60.845  51.330  1.00  0.00     0.293 HD
ENDBRANCH   8  26
TORSDOF 6
ENDMDL
