MODEL 1
REMARK VINA RESULT:    -7.977      0.000      0.000
REMARK INTER + INTRA:         -10.909
REMARK INTER:                 -10.542
REMARK INTRA:                  -0.367
REMARK UNBOUND:                -0.367
REMARK SMILES CC[C@H](C=C[C@@H](C)[C@H]1CC[C@H]2[C@@H]3CC=C4C[C@H](O)CC[C@]4(C)[C@@H]3CC[C@@]12C)C(C)C
REMARK SMILES IDX 6 1 7 2 5 3 4 4 3 5 2 6 1 7 28 8 29 9 30 10 8 11 9 12 26 13
REMARK SMILES IDX 10 14 11 15 25 16 27 17 12 18 24 19 23 20 13 21 21 22 14 23
REMARK SMILES IDX 15 24 20 25 22 26 16 27 19 28 17 29 18 30
REMARK H PARENT 18 31
REMARK Flexibility Score: inf
ROOT
ATOM      1  C   UNL     1       3.054  25.295  43.406  1.00  0.00     0.012 C 
ATOM      2  C   UNL     1       3.564  25.776  42.036  1.00  0.00     0.012 C 
ENDROOT
BRANCH   1   3
ATOM      3  C   UNL     1       1.844  26.095  43.859  1.00  0.00    -0.028 C 
ATOM      4  C   UNL     1       1.300  27.097  43.145  1.00  0.00    -0.027 C 
BRANCH   4   5
ATOM      5  C   UNL     1       0.096  27.870  43.642  1.00  0.00     0.014 C 
BRANCH   5   6
ATOM      6  C   UNL     1       0.271  28.120  45.168  1.00  0.00     0.004 C 
ATOM      7  C   UNL     1      -1.055  28.405  45.878  1.00  0.00     0.004 C 
ENDBRANCH   5   6
BRANCH   5   8
ATOM      8  C   UNL     1      -0.061  29.190  42.822  1.00  0.00    -0.011 C 
ATOM      9  C   UNL     1      -1.433  29.288  42.135  1.00  0.00     0.008 C 
ATOM     10  C   UNL     1       1.041  29.320  41.753  1.00  0.00     0.008 C 
ENDBRANCH   5   8
ENDBRANCH   4   5
ENDBRANCH   1   3
BRANCH   1  11
ATOM     11  C   UNL     1       4.225  25.197  44.446  1.00  0.00     0.002 C 
ATOM     12  C   UNL     1       3.833  24.696  45.839  1.00  0.00     0.005 C 
ATOM     13  C   UNL     1       5.491  24.377  44.048  1.00  0.00    -0.026 C 
ATOM     14  C   UNL     1       5.124  24.215  46.495  1.00  0.00     0.005 C 
ATOM     15  C   UNL     1       6.226  24.248  45.418  1.00  0.00    -0.001 C 
ATOM     16  C   UNL     1       5.117  22.983  43.472  1.00  0.00     0.007 C 
ATOM     17  C   UNL     1       6.326  25.174  43.013  1.00  0.00     0.012 C 
ATOM     18  C   UNL     1       7.236  23.068  45.579  1.00  0.00     0.000 C 
ATOM     19  C   UNL     1       6.259  21.960  43.522  1.00  0.00     0.005 C 
ATOM     20  C   UNL     1       6.725  21.733  44.978  1.00  0.00     0.003 C 
ATOM     21  C   UNL     1       8.625  23.436  45.029  1.00  0.00     0.031 C 
ATOM     22  C   UNL     1       7.767  20.553  45.206  1.00  0.00    -0.008 C 
ATOM     23  C   UNL     1       9.595  22.297  45.094  1.00  0.00    -0.027 C 
ATOM     24  C   UNL     1       9.226  21.002  45.041  1.00  0.00    -0.065 C 
ATOM     25  C   UNL     1       7.514  19.362  44.228  1.00  0.00     0.014 C 
ATOM     26  C   UNL     1       7.584  20.045  46.665  1.00  0.00     0.016 C 
ATOM     27  C   UNL     1      10.314  19.940  45.036  1.00  0.00     0.063 C 
ATOM     28  C   UNL     1       8.569  18.247  44.318  1.00  0.00     0.033 C 
ATOM     29  C   UNL     1       9.984  18.797  44.068  1.00  0.00     0.118 C 
BRANCH  29  30
ATOM     30  O   UNL     1      10.106  19.257  42.745  1.00  0.00    -0.393 OA
ATOM     31  H   UNL     1       9.508  20.045  42.660  1.00  0.00     0.210 HD
ENDBRANCH  29  30
ENDBRANCH   1  11
TORSDOF 6
ENDMDL
MODEL 2
REMARK VINA RESULT:    -7.967      3.029     10.695
REMARK INTER + INTRA:         -10.895
REMARK INTER:                 -11.249
REMARK INTRA:                   0.354
REMARK UNBOUND:                -0.367
REMARK SMILES CC[C@H](C=C[C@@H](C)[C@H]1CC[C@H]2[C@@H]3CC=C4C[C@H](O)CC[C@]4(C)[C@@H]3CC[C@@]12C)C(C)C
REMARK SMILES IDX 6 1 7 2 5 3 4 4 3 5 2 6 1 7 28 8 29 9 30 10 8 11 9 12 26 13
REMARK SMILES IDX 10 14 11 15 25 16 27 17 12 18 24 19 23 20 13 21 21 22 14 23
REMARK SMILES IDX 15 24 20 25 22 26 16 27 19 28 17 29 18 30
REMARK H PARENT 18 31
REMARK Flexibility Score: inf
ROOT
ATOM      1  C   UNL     1      10.049  19.219  44.504  1.00  0.00     0.012 C 
ATOM      2  C   UNL     1      10.039  19.604  43.015  1.00  0.00     0.012 C 
ENDROOT
BRANCH   1   3
ATOM      3  C   UNL     1      10.673  17.850  44.718  1.00  0.00    -0.028 C 
ATOM      4  C   UNL     1      11.738  17.630  45.509  1.00  0.00    -0.027 C 
BRANCH   4   5
ATOM      5  C   UNL     1      12.329  16.246  45.687  1.00  0.00     0.014 C 
BRANCH   5   6
ATOM      6  C   UNL     1      13.424  16.039  44.600  1.00  0.00     0.004 C 
ATOM      7  C   UNL     1      13.213  14.763  43.781  1.00  0.00     0.004 C 
ENDBRANCH   5   6
BRANCH   5   8
ATOM      8  C   UNL     1      12.875  16.086  47.141  1.00  0.00    -0.011 C 
ATOM      9  C   UNL     1      14.227  16.794  47.335  1.00  0.00     0.008 C 
ATOM     10  C   UNL     1      13.034  14.601  47.520  1.00  0.00     0.008 C 
ENDBRANCH   5   8
ENDBRANCH   4   5
ENDBRANCH   1   3
BRANCH   1  11
ATOM     11  C   UNL     1       8.636  19.426  45.155  1.00  0.00     0.002 C 
ATOM     12  C   UNL     1       8.638  20.017  46.568  1.00  0.00     0.005 C 
ATOM     13  C   UNL     1       7.577  20.249  44.359  1.00  0.00    -0.026 C 
ATOM     14  C   UNL     1       7.238  20.580  46.793  1.00  0.00     0.005 C 
ATOM     15  C   UNL     1       6.489  20.499  45.448  1.00  0.00    -0.001 C 
ATOM     16  C   UNL     1       8.166  21.586  43.829  1.00  0.00     0.007 C 
ATOM     17  C   UNL     1       7.035  19.402  43.178  1.00  0.00     0.012 C 
ATOM     18  C   UNL     1       5.533  21.715  45.237  1.00  0.00     0.000 C 
ATOM     19  C   UNL     1       7.108  22.641  43.484  1.00  0.00     0.005 C 
ATOM     20  C   UNL     1       6.256  22.988  44.727  1.00  0.00     0.003 C 
ATOM     21  C   UNL     1       4.342  21.346  44.335  1.00  0.00     0.031 C 
ATOM     22  C   UNL     1       5.250  24.210  44.571  1.00  0.00    -0.008 C 
ATOM     23  C   UNL     1       3.449  22.513  44.047  1.00  0.00    -0.027 C 
ATOM     24  C   UNL     1       3.880  23.791  44.022  1.00  0.00    -0.065 C 
ATOM     25  C   UNL     1       5.828  25.318  43.635  1.00  0.00     0.014 C 
ATOM     26  C   UNL     1       5.033  24.818  45.986  1.00  0.00     0.016 C 
ATOM     27  C   UNL     1       2.889  24.879  43.637  1.00  0.00     0.063 C 
ATOM     28  C   UNL     1       4.846  26.465  43.348  1.00  0.00     0.033 C 
ATOM     29  C   UNL     1       3.536  25.938  42.736  1.00  0.00     0.118 C 
BRANCH  29  30
ATOM     30  O   UNL     1       3.775  25.386  41.466  1.00  0.00    -0.393 OA
ATOM     31  H   UNL     1       4.494  24.710  41.577  1.00  0.00     0.210 HD
ENDBRANCH  29  30
ENDBRANCH   1  11
TORSDOF 6
ENDMDL
MODEL 3
REMARK VINA RESULT:    -7.929      0.704      1.459
REMARK INTER + INTRA:         -10.846
REMARK INTER:                 -11.158
REMARK INTRA:                   0.313
REMARK UNBOUND:                -0.367
REMARK SMILES CC[C@H](C=C[C@@H](C)[C@H]1CC[C@H]2[C@@H]3CC=C4C[C@H](O)CC[C@]4(C)[C@@H]3CC[C@@]12C)C(C)C
REMARK SMILES IDX 6 1 7 2 5 3 4 4 3 5 2 6 1 7 28 8 29 9 30 10 8 11 9 12 26 13
REMARK SMILES IDX 10 14 11 15 25 16 27 17 12 18 24 19 23 20 13 21 21 22 14 23
REMARK SMILES IDX 15 24 20 25 22 26 16 27 19 28 17 29 18 30
REMARK H PARENT 18 31
REMARK Flexibility Score: inf
ROOT
ATOM      1  C   UNL     1       3.262  25.439  43.044  1.00  0.00     0.012 C 
ATOM      2  C   UNL     1       3.826  25.010  41.679  1.00  0.00     0.012 C 
ENDROOT
BRANCH   1   3
ATOM      3  C   UNL     1       2.586  26.798  42.962  1.00  0.00    -0.028 C 
ATOM      4  C   UNL     1       1.387  27.070  43.508  1.00  0.00    -0.027 C 
BRANCH   4   5
ATOM      5  C   UNL     1       0.750  28.440  43.394  1.00  0.00     0.014 C 
BRANCH   5   6
ATOM      6  C   UNL     1       0.134  28.576  41.971  1.00  0.00     0.004 C 
ATOM      7  C   UNL     1       0.660  29.797  41.212  1.00  0.00     0.004 C 
ENDBRANCH   5   6
BRANCH   5   8
ATOM      8  C   UNL     1      -0.301  28.631  44.534  1.00  0.00    -0.011 C 
ATOM      9  C   UNL     1      -1.605  27.865  44.256  1.00  0.00     0.008 C 
ATOM     10  C   UNL     1      -0.635  30.120  44.743  1.00  0.00     0.008 C 
ENDBRANCH   5   8
ENDBRANCH   4   5
ENDBRANCH   1   3
BRANCH   1  11
ATOM     11  C   UNL     1       4.339  25.290  44.176  1.00  0.00     0.002 C 
ATOM     12  C   UNL     1       3.819  24.768  45.519  1.00  0.00     0.005 C 
ATOM     13  C   UNL     1       5.614  24.447  43.867  1.00  0.00    -0.026 C 
ATOM     14  C   UNL     1       5.038  24.241  46.270  1.00  0.00     0.005 C 
ATOM     15  C   UNL     1       6.227  24.269  45.290  1.00  0.00    -0.001 C 
ATOM     16  C   UNL     1       5.258  23.075  43.229  1.00  0.00     0.007 C 
ATOM     17  C   UNL     1       6.552  25.245  42.924  1.00  0.00     0.012 C 
ATOM     18  C   UNL     1       7.192  23.062  45.507  1.00  0.00     0.000 C 
ATOM     19  C   UNL     1       6.367  22.023  43.350  1.00  0.00     0.005 C 
ATOM     20  C   UNL     1       6.703  21.753  44.834  1.00  0.00     0.003 C 
ATOM     21  C   UNL     1       8.631  23.406  45.084  1.00  0.00     0.031 C 
ATOM     22  C   UNL     1       7.695  20.543  45.121  1.00  0.00    -0.008 C 
ATOM     23  C   UNL     1       9.566  22.243  45.204  1.00  0.00    -0.027 C 
ATOM     24  C   UNL     1       9.172  20.958  45.090  1.00  0.00    -0.065 C 
ATOM     25  C   UNL     1       7.498  19.380  44.097  1.00  0.00     0.014 C 
ATOM     26  C   UNL     1       7.378  20.008  46.547  1.00  0.00     0.016 C 
ATOM     27  C   UNL     1      10.233  19.870  45.151  1.00  0.00     0.063 C 
ATOM     28  C   UNL     1       8.516  18.237  44.249  1.00  0.00     0.033 C 
ATOM     29  C   UNL     1       9.959  18.756  44.132  1.00  0.00     0.118 C 
BRANCH  29  30
ATOM     30  O   UNL     1      10.203  19.241  42.835  1.00  0.00    -0.393 OA
ATOM     31  H   UNL     1      10.335  20.222  42.917  1.00  0.00     0.210 HD
ENDBRANCH  29  30
ENDBRANCH   1  11
TORSDOF 6
ENDMDL
MODEL 4
REMARK VINA RESULT:    -7.876      3.167     10.715
REMARK INTER + INTRA:         -10.776
REMARK INTER:                 -11.125
REMARK INTRA:                   0.349
REMARK UNBOUND:                -0.367
REMARK SMILES CC[C@H](C=C[C@@H](C)[C@H]1CC[C@H]2[C@@H]3CC=C4C[C@H](O)CC[C@]4(C)[C@@H]3CC[C@@]12C)C(C)C
REMARK SMILES IDX 6 1 7 2 5 3 4 4 3 5 2 6 1 7 28 8 29 9 30 10 8 11 9 12 26 13
REMARK SMILES IDX 10 14 11 15 25 16 27 17 12 18 24 19 23 20 13 21 21 22 14 23
REMARK SMILES IDX 15 24 20 25 22 26 16 27 19 28 17 29 18 30
REMARK H PARENT 18 31
REMARK Flexibility Score: inf
ROOT
ATOM      1  C   UNL     1       9.939  18.995  45.319  1.00  0.00     0.012 C 
ATOM      2  C   UNL     1       9.256  19.276  46.669  1.00  0.00     0.012 C 
ENDROOT
BRANCH   1   3
ATOM      3  C   UNL     1      11.342  18.442  45.513  1.00  0.00    -0.028 C 
ATOM      4  C   UNL     1      11.771  17.287  44.973  1.00  0.00    -0.027 C 
BRANCH   4   5
ATOM      5  C   UNL     1      13.178  16.773  45.200  1.00  0.00     0.014 C 
BRANCH   5   6
ATOM      6  C   UNL     1      13.183  15.920  46.502  1.00  0.00     0.004 C 
ATOM      7  C   UNL     1      14.153  16.456  47.558  1.00  0.00     0.004 C 
ENDBRANCH   5   6
BRANCH   5   8
ATOM      8  C   UNL     1      13.658  15.975  43.947  1.00  0.00    -0.011 C 
ATOM      9  C   UNL     1      13.038  14.570  43.880  1.00  0.00     0.008 C 
ATOM     10  C   UNL     1      15.193  15.842  43.922  1.00  0.00     0.008 C 
ENDBRANCH   5   8
ENDBRANCH   4   5
ENDBRANCH   1   3
BRANCH   1  11
ATOM     11  C   UNL     1       9.829  20.231  44.358  1.00  0.00     0.002 C 
ATOM     12  C   UNL     1       9.538  19.903  42.890  1.00  0.00     0.005 C 
ATOM     13  C   UNL     1       8.830  21.366  44.737  1.00  0.00    -0.026 C 
ATOM     14  C   UNL     1       8.993  21.186  42.270  1.00  0.00     0.005 C 
ATOM     15  C   UNL     1       8.776  22.193  43.416  1.00  0.00    -0.001 C 
ATOM     16  C   UNL     1       7.431  20.803  45.110  1.00  0.00     0.007 C 
ATOM     17  C   UNL     1       9.402  22.193  45.918  1.00  0.00     0.012 C 
ATOM     18  C   UNL     1       7.515  23.084  43.181  1.00  0.00     0.000 C 
ATOM     19  C   UNL     1       6.297  21.831  45.014  1.00  0.00     0.005 C 
ATOM     20  C   UNL     1       6.187  22.388  43.576  1.00  0.00     0.003 C 
ATOM     21  C   UNL     1       7.657  24.454  43.866  1.00  0.00     0.031 C 
ATOM     22  C   UNL     1       4.930  23.316  43.277  1.00  0.00    -0.008 C 
ATOM     23  C   UNL     1       6.430  25.301  43.727  1.00  0.00    -0.027 C 
ATOM     24  C   UNL     1       5.187  24.795  43.595  1.00  0.00    -0.065 C 
ATOM     25  C   UNL     1       3.671  22.860  44.081  1.00  0.00     0.014 C 
ATOM     26  C   UNL     1       4.616  23.201  41.757  1.00  0.00     0.016 C 
ATOM     27  C   UNL     1       4.015  25.762  43.544  1.00  0.00     0.063 C 
ATOM     28  C   UNL     1       2.461  23.796  43.927  1.00  0.00     0.033 C 
ATOM     29  C   UNL     1       2.813  25.236  44.339  1.00  0.00     0.118 C 
BRANCH  29  30
ATOM     30  O   UNL     1       3.101  25.297  45.713  1.00  0.00    -0.393 OA
ATOM     31  H   UNL     1       3.103  26.258  45.963  1.00  0.00     0.210 HD
ENDBRANCH  29  30
ENDBRANCH   1  11
TORSDOF 6
ENDMDL
MODEL 5
REMARK VINA RESULT:    -7.820      1.518      3.159
REMARK INTER + INTRA:         -10.701
REMARK INTER:                 -10.371
REMARK INTRA:                  -0.330
REMARK UNBOUND:                -0.367
REMARK SMILES CC[C@H](C=C[C@@H](C)[C@H]1CC[C@H]2[C@@H]3CC=C4C[C@H](O)CC[C@]4(C)[C@@H]3CC[C@@]12C)C(C)C
REMARK SMILES IDX 6 1 7 2 5 3 4 4 3 5 2 6 1 7 28 8 29 9 30 10 8 11 9 12 26 13
REMARK SMILES IDX 10 14 11 15 25 16 27 17 12 18 24 19 23 20 13 21 21 22 14 23
REMARK SMILES IDX 15 24 20 25 22 26 16 27 19 28 17 29 18 30
REMARK H PARENT 18 31
REMARK Flexibility Score: inf
ROOT
ATOM      1  C   UNL     1       3.217  26.005  43.711  1.00  0.00     0.012 C 
ATOM      2  C   UNL     1       2.489  25.719  45.035  1.00  0.00     0.012 C 
ENDROOT
BRANCH   1   3
ATOM      3  C   UNL     1       2.478  27.047  42.886  1.00  0.00    -0.028 C 
ATOM      4  C   UNL     1       1.306  27.594  43.252  1.00  0.00    -0.027 C 
BRANCH   4   5
ATOM      5  C   UNL     1       0.603  28.626  42.392  1.00  0.00     0.014 C 
BRANCH   5   6
ATOM      6  C   UNL     1       0.542  28.086  40.933  1.00  0.00     0.004 C 
ATOM      7  C   UNL     1       0.213  29.177  39.910  1.00  0.00     0.004 C 
ENDBRANCH   5   6
BRANCH   5   8
ATOM      8  C   UNL     1      -0.806  28.939  42.986  1.00  0.00    -0.011 C 
ATOM      9  C   UNL     1      -0.910  30.381  43.509  1.00  0.00     0.008 C 
ATOM     10  C   UNL     1      -1.160  27.969  44.130  1.00  0.00     0.008 C 
ENDBRANCH   5   8
ENDBRANCH   4   5
ENDBRANCH   1   3
BRANCH   1  11
ATOM     11  C   UNL     1       3.570  24.675  42.957  1.00  0.00     0.002 C 
ATOM     12  C   UNL     1       4.362  24.841  41.656  1.00  0.00     0.005 C 
ATOM     13  C   UNL     1       4.308  23.556  43.754  1.00  0.00    -0.026 C 
ATOM     14  C   UNL     1       5.005  23.486  41.375  1.00  0.00     0.005 C 
ATOM     15  C   UNL     1       4.756  22.596  42.609  1.00  0.00    -0.001 C 
ATOM     16  C   UNL     1       5.530  24.113  44.535  1.00  0.00     0.007 C 
ATOM     17  C   UNL     1       3.318  22.871  44.732  1.00  0.00     0.012 C 
ATOM     18  C   UNL     1       5.963  21.650  42.900  1.00  0.00     0.000 C 
ATOM     19  C   UNL     1       6.562  23.049  44.924  1.00  0.00     0.005 C 
ATOM     20  C   UNL     1       7.119  22.344  43.666  1.00  0.00     0.003 C 
ATOM     21  C   UNL     1       5.512  20.362  43.610  1.00  0.00     0.031 C 
ATOM     22  C   UNL     1       8.342  21.354  43.899  1.00  0.00    -0.008 C 
ATOM     23  C   UNL     1       6.657  19.470  43.976  1.00  0.00    -0.027 C 
ATOM     24  C   UNL     1       7.900  19.924  44.236  1.00  0.00    -0.065 C 
ATOM     25  C   UNL     1       9.279  21.853  45.045  1.00  0.00     0.014 C 
ATOM     26  C   UNL     1       9.160  21.304  42.576  1.00  0.00     0.016 C 
ATOM     27  C   UNL     1       8.957  18.922  44.675  1.00  0.00     0.063 C 
ATOM     28  C   UNL     1      10.408  20.871  45.399  1.00  0.00     0.033 C 
ATOM     29  C   UNL     1       9.848  19.492  45.787  1.00  0.00     0.118 C 
BRANCH  29  30
ATOM     30  O   UNL     1       9.107  19.581  46.978  1.00  0.00    -0.393 OA
ATOM     31  H   UNL     1       9.418  18.843  47.565  1.00  0.00     0.210 HD
ENDBRANCH  29  30
ENDBRANCH   1  11
TORSDOF 6
ENDMDL
MODEL 6
REMARK VINA RESULT:    -6.127      1.398      2.058
REMARK INTER + INTRA:          -8.464
REMARK INTER:                  -8.749
REMARK INTRA:                   0.285
REMARK UNBOUND:                -0.367
REMARK SMILES CC[C@H](C=C[C@@H](C)[C@H]1CC[C@H]2[C@@H]3CC=C4C[C@H](O)CC[C@]4(C)[C@@H]3CC[C@@]12C)C(C)C
REMARK SMILES IDX 6 1 7 2 5 3 4 4 3 5 2 6 1 7 28 8 29 9 30 10 8 11 9 12 26 13
REMARK SMILES IDX 10 14 11 15 25 16 27 17 12 18 24 19 23 20 13 21 21 22 14 23
REMARK SMILES IDX 15 24 20 25 22 26 16 27 19 28 17 29 18 30
REMARK H PARENT 18 31
REMARK Flexibility Score: inf
ROOT
ATOM      1  C   UNL     1       3.603  25.913  43.131  1.00  0.00     0.012 C 
ATOM      2  C   UNL     1       4.966  26.610  43.282  1.00  0.00     0.012 C 
ENDROOT
BRANCH   1   3
ATOM      3  C   UNL     1       2.457  26.900  43.281  1.00  0.00    -0.028 C 
ATOM      4  C   UNL     1       1.661  27.281  42.265  1.00  0.00    -0.027 C 
BRANCH   4   5
ATOM      5  C   UNL     1       0.534  28.273  42.463  1.00  0.00     0.014 C 
BRANCH   5   6
ATOM      6  C   UNL     1       0.308  28.459  43.993  1.00  0.00     0.004 C 
ATOM      7  C   UNL     1      -1.021  27.868  44.472  1.00  0.00     0.004 C 
ENDBRANCH   5   6
BRANCH   5   8
ATOM      8  C   UNL     1       0.871  29.610  41.731  1.00  0.00    -0.011 C 
ATOM      9  C   UNL     1      -0.161  30.712  42.028  1.00  0.00     0.008 C 
ATOM     10  C   UNL     1       0.955  29.408  40.206  1.00  0.00     0.008 C 
ENDBRANCH   5   8
ENDBRANCH   4   5
ENDBRANCH   1   3
BRANCH   1  11
ATOM     11  C   UNL     1       3.515  24.634  44.036  1.00  0.00     0.002 C 
ATOM     12  C   UNL     1       2.779  23.438  43.422  1.00  0.00     0.005 C 
ATOM     13  C   UNL     1       4.841  24.055  44.616  1.00  0.00    -0.026 C 
ATOM     14  C   UNL     1       3.231  22.213  44.211  1.00  0.00     0.005 C 
ATOM     15  C   UNL     1       4.374  22.663  45.142  1.00  0.00    -0.001 C 
ATOM     16  C   UNL     1       5.934  23.908  43.522  1.00  0.00     0.007 C 
ATOM     17  C   UNL     1       5.354  24.968  45.761  1.00  0.00     0.012 C 
ATOM     18  C   UNL     1       5.464  21.558  45.306  1.00  0.00     0.000 C 
ATOM     19  C   UNL     1       7.052  22.923  43.883  1.00  0.00     0.005 C 
ATOM     20  C   UNL     1       6.475  21.510  44.132  1.00  0.00     0.003 C 
ATOM     21  C   UNL     1       6.183  21.670  46.662  1.00  0.00     0.031 C 
ATOM     22  C   UNL     1       7.537  20.341  44.321  1.00  0.00    -0.008 C 
ATOM     23  C   UNL     1       7.290  20.674  46.816  1.00  0.00    -0.027 C 
ATOM     24  C   UNL     1       7.990  20.174  45.778  1.00  0.00    -0.065 C 
ATOM     25  C   UNL     1       8.809  20.568  43.443  1.00  0.00     0.014 C 
ATOM     26  C   UNL     1       6.856  19.016  43.876  1.00  0.00     0.016 C 
ATOM     27  C   UNL     1       9.144  19.229  46.075  1.00  0.00     0.063 C 
ATOM     28  C   UNL     1       9.922  19.535  43.681  1.00  0.00     0.033 C 
ATOM     29  C   UNL     1      10.345  19.500  45.160  1.00  0.00     0.118 C 
BRANCH  29  30
ATOM     30  O   UNL     1      10.945  20.718  45.527  1.00  0.00    -0.393 OA
ATOM     31  H   UNL     1      10.472  21.433  45.026  1.00  0.00     0.210 HD
ENDBRANCH  29  30
ENDBRANCH   1  11
TORSDOF 6
ENDMDL
MODEL 7
REMARK VINA RESULT:    -5.928      3.088     10.803
REMARK INTER + INTRA:          -8.201
REMARK INTER:                  -8.552
REMARK INTRA:                   0.350
REMARK UNBOUND:                -0.367
REMARK SMILES CC[C@H](C=C[C@@H](C)[C@H]1CC[C@H]2[C@@H]3CC=C4C[C@H](O)CC[C@]4(C)[C@@H]3CC[C@@]12C)C(C)C
REMARK SMILES IDX 6 1 7 2 5 3 4 4 3 5 2 6 1 7 28 8 29 9 30 10 8 11 9 12 26 13
REMARK SMILES IDX 10 14 11 15 25 16 27 17 12 18 24 19 23 20 13 21 21 22 14 23
REMARK SMILES IDX 15 24 20 25 22 26 16 27 19 28 17 29 18 30
REMARK H PARENT 18 31
REMARK Flexibility Score: inf
ROOT
ATOM      1  C   UNL     1      10.113  18.478  44.644  1.00  0.00     0.012 C 
ATOM      2  C   UNL     1       8.794  17.792  44.253  1.00  0.00     0.012 C 
ENDROOT
BRANCH   1   3
ATOM      3  C   UNL     1      11.067  17.503  45.316  1.00  0.00    -0.028 C 
ATOM      4  C   UNL     1      12.159  16.995  44.718  1.00  0.00    -0.027 C 
BRANCH   4   5
ATOM      5  C   UNL     1      13.077  16.020  45.428  1.00  0.00     0.014 C 
BRANCH   5   6
ATOM      6  C   UNL     1      12.449  15.675  46.809  1.00  0.00     0.004 C 
ATOM      7  C   UNL     1      13.268  16.216  47.985  1.00  0.00     0.004 C 
ENDBRANCH   5   6
BRANCH   5   8
ATOM      8  C   UNL     1      13.308  14.762  44.531  1.00  0.00    -0.011 C 
ATOM      9  C   UNL     1      14.132  13.681  45.249  1.00  0.00     0.008 C 
ATOM     10  C   UNL     1      14.016  15.134  43.215  1.00  0.00     0.008 C 
ENDBRANCH   5   8
ENDBRANCH   4   5
ENDBRANCH   1   3
BRANCH   1  11
ATOM     11  C   UNL     1       9.851  19.812  45.428  1.00  0.00     0.002 C 
ATOM     12  C   UNL     1      10.750  20.992  45.047  1.00  0.00     0.005 C 
ATOM     13  C   UNL     1       8.399  20.381  45.437  1.00  0.00    -0.026 C 
ATOM     14  C   UNL     1      10.029  22.247  45.528  1.00  0.00     0.005 C 
ATOM     15  C   UNL     1       8.626  21.817  46.002  1.00  0.00    -0.001 C 
ATOM     16  C   UNL     1       7.786  20.424  44.010  1.00  0.00     0.007 C 
ATOM     17  C   UNL     1       7.507  19.523  46.373  1.00  0.00     0.012 C 
ATOM     18  C   UNL     1       7.544  22.894  45.676  1.00  0.00     0.000 C 
ATOM     19  C   UNL     1       6.606  21.392  43.865  1.00  0.00     0.005 C 
ATOM     20  C   UNL     1       7.038  22.836  44.212  1.00  0.00     0.003 C 
ATOM     21  C   UNL     1       6.376  22.839  46.677  1.00  0.00     0.031 C 
ATOM     22  C   UNL     1       5.971  23.978  43.916  1.00  0.00    -0.008 C 
ATOM     23  C   UNL     1       5.282  23.806  46.343  1.00  0.00    -0.027 C 
ATOM     24  C   UNL     1       5.011  24.219  45.089  1.00  0.00    -0.065 C 
ATOM     25  C   UNL     1       5.116  23.656  42.649  1.00  0.00     0.014 C 
ATOM     26  C   UNL     1       6.758  25.296  43.663  1.00  0.00     0.016 C 
ATOM     27  C   UNL     1       3.820  25.140  44.874  1.00  0.00     0.063 C 
ATOM     28  C   UNL     1       3.985  24.665  42.389  1.00  0.00     0.033 C 
ATOM     29  C   UNL     1       3.045  24.774  43.601  1.00  0.00     0.118 C 
BRANCH  29  30
ATOM     30  O   UNL     1       2.363  23.562  43.805  1.00  0.00    -0.393 OA
ATOM     31  H   UNL     1       1.959  23.609  44.711  1.00  0.00     0.210 HD
ENDBRANCH  29  30
ENDBRANCH   1  11
TORSDOF 6
ENDMDL
MODEL 8
REMARK VINA RESULT:    -5.637      3.159     10.821
REMARK INTER + INTRA:          -7.817
REMARK INTER:                  -8.264
REMARK INTRA:                   0.447
REMARK UNBOUND:                -0.367
REMARK SMILES CC[C@H](C=C[C@@H](C)[C@H]1CC[C@H]2[C@@H]3CC=C4C[C@H](O)CC[C@]4(C)[C@@H]3CC[C@@]12C)C(C)C
REMARK SMILES IDX 6 1 7 2 5 3 4 4 3 5 2 6 1 7 28 8 29 9 30 10 8 11 9 12 26 13
REMARK SMILES IDX 10 14 11 15 25 16 27 17 12 18 24 19 23 20 13 21 21 22 14 23
REMARK SMILES IDX 15 24 20 25 22 26 16 27 19 28 17 29 18 30
REMARK H PARENT 18 31
REMARK Flexibility Score: inf
ROOT
ATOM      1  C   UNL     1      10.629  19.076  45.417  1.00  0.00     0.012 C 
ATOM      2  C   UNL     1      11.087  20.509  45.739  1.00  0.00     0.012 C 
ENDROOT
BRANCH   1   3
ATOM      3  C   UNL     1      11.813  18.169  45.125  1.00  0.00    -0.028 C 
ATOM      4  C   UNL     1      12.347  17.324  46.025  1.00  0.00    -0.027 C 
BRANCH   4   5
ATOM      5  C   UNL     1      13.532  16.443  45.688  1.00  0.00     0.014 C 
BRANCH   5   6
ATOM      6  C   UNL     1      14.109  15.870  47.016  1.00  0.00     0.004 C 
ATOM      7  C   UNL     1      13.346  16.355  48.251  1.00  0.00     0.004 C 
ENDBRANCH   5   6
BRANCH   5   8
ATOM      8  C   UNL     1      13.096  15.330  44.684  1.00  0.00    -0.011 C 
ATOM      9  C   UNL     1      13.740  13.971  45.007  1.00  0.00     0.008 C 
ATOM     10  C   UNL     1      13.447  15.713  43.234  1.00  0.00     0.008 C 
ENDBRANCH   5   8
ENDBRANCH   4   5
ENDBRANCH   1   3
BRANCH   1  11
ATOM     11  C   UNL     1       9.493  19.072  44.334  1.00  0.00     0.002 C 
ATOM     12  C   UNL     1       8.294  18.167  44.636  1.00  0.00     0.005 C 
ATOM     13  C   UNL     1       8.883  20.442  43.907  1.00  0.00    -0.026 C 
ATOM     14  C   UNL     1       7.150  18.675  43.765  1.00  0.00     0.005 C 
ATOM     15  C   UNL     1       7.618  19.991  43.114  1.00  0.00    -0.001 C 
ATOM     16  C   UNL     1       8.500  21.311  45.137  1.00  0.00     0.007 C 
ATOM     17  C   UNL     1       9.892  21.206  43.009  1.00  0.00     0.012 C 
ATOM     18  C   UNL     1       6.455  21.023  42.977  1.00  0.00     0.000 C 
ATOM     19  C   UNL     1       7.479  22.413  44.830  1.00  0.00     0.005 C 
ATOM     20  C   UNL     1       6.166  21.804  44.285  1.00  0.00     0.003 C 
ATOM     21  C   UNL     1       6.683  21.977  41.792  1.00  0.00     0.031 C 
ATOM     22  C   UNL     1       4.946  22.809  44.110  1.00  0.00    -0.008 C 
ATOM     23  C   UNL     1       5.625  23.031  41.683  1.00  0.00    -0.027 C 
ATOM     24  C   UNL     1       4.933  23.502  42.741  1.00  0.00    -0.065 C 
ATOM     25  C   UNL     1       4.944  23.914  45.212  1.00  0.00     0.014 C 
ATOM     26  C   UNL     1       3.636  21.978  44.237  1.00  0.00     0.016 C 
ATOM     27  C   UNL     1       3.941  24.631  42.509  1.00  0.00     0.063 C 
ATOM     28  C   UNL     1       3.860  24.987  45.018  1.00  0.00     0.033 C 
ATOM     29  C   UNL     1       3.985  25.664  43.642  1.00  0.00     0.118 C 
BRANCH  29  30
ATOM     30  O   UNL     1       5.184  26.393  43.561  1.00  0.00    -0.393 OA
ATOM     31  H   UNL     1       5.347  26.777  44.462  1.00  0.00     0.210 HD
ENDBRANCH  29  30
ENDBRANCH   1  11
TORSDOF 6
ENDMDL
