MODEL 1
REMARK VINA RESULT:    -6.166      0.000      0.000
REMARK INTER + INTRA:          -7.436
REMARK INTER:                  -7.428
REMARK INTRA:                  -0.008
REMARK UNBOUND:                -0.008
REMARK SMILES O=c1c(O)c(-c2ccc(O)c(O)c2)oc2cc(O)cc(O)c12
REMARK SMILES IDX 5 1 3 2 2 3 1 4 22 5 20 6 19 7 17 8 16 9 15 10 14 11 6 12
REMARK SMILES IDX 7 13 8 14 9 15 13 16 11 17 10 18 12 20 4 22 21 24 18 26
REMARK H PARENT 10 19 12 21 4 23 21 25 18 27
REMARK Flexibility Score: inf
ROOT
ATOM      1  C   UNL     1     118.290  73.231  44.322  1.00  0.00     0.180 A 
ATOM      2  C   UNL     1     118.904  74.044  43.354  1.00  0.00     0.208 A 
ATOM      3  C   UNL     1     120.231  73.775  42.981  1.00  0.00     0.238 A 
ATOM      4  O   UNL     1     120.793  74.538  42.153  1.00  0.00    -0.285 OA
ATOM      5  C   UNL     1     120.921  72.687  43.568  1.00  0.00     0.111 A 
ATOM      6  C   UNL     1     122.253  72.299  43.236  1.00  0.00     0.134 A 
ATOM      7  C   UNL     1     122.883  71.289  43.974  1.00  0.00     0.093 A 
ATOM      8  C   UNL     1     122.208  70.610  44.987  1.00  0.00     0.123 A 
ATOM      9  C   UNL     1     120.884  70.941  45.281  1.00  0.00     0.094 A 
ATOM     10  C   UNL     1     120.242  71.969  44.586  1.00  0.00     0.146 A 
ATOM     11  O   UNL     1     118.986  72.260  44.903  1.00  0.00    -0.452 OA
ENDROOT
BRANCH   1  12
ATOM     12  C   UNL     1     116.887  73.437  44.749  1.00  0.00     0.025 A 
ATOM     13  C   UNL     1     116.573  73.431  46.117  1.00  0.00     0.016 A 
ATOM     14  C   UNL     1     115.253  73.602  46.540  1.00  0.00     0.051 A 
ATOM     15  C   UNL     1     114.226  73.766  45.606  1.00  0.00     0.157 A 
ATOM     16  C   UNL     1     115.850  73.581  43.810  1.00  0.00     0.062 A 
ATOM     17  C   UNL     1     114.524  73.751  44.233  1.00  0.00     0.158 A 
BRANCH  15  18
ATOM     18  O   UNL     1     112.918  73.937  46.059  1.00  0.00    -0.504 OA
ATOM     19  H   UNL     1     112.425  74.816  45.964  1.00  0.00     0.293 HD
ENDBRANCH  15  18
BRANCH  17  20
ATOM     20  O   UNL     1     113.502  73.900  43.296  1.00  0.00    -0.504 OA
ATOM     21  H   UNL     1     112.561  74.155  43.573  1.00  0.00     0.293 HD
ENDBRANCH  17  20
ENDBRANCH   1  12
BRANCH   2  22
ATOM     22  O   UNL     1     118.211  75.125  42.802  1.00  0.00    -0.502 OA
ATOM     23  H   UNL     1     117.585  75.705  43.348  1.00  0.00     0.293 HD
ENDBRANCH   2  22
BRANCH   6  24
ATOM     24  O   UNL     1     122.987  72.850  42.181  1.00  0.00    -0.507 OA
ATOM     25  H   UNL     1     123.994  72.844  42.117  1.00  0.00     0.293 HD
ENDBRANCH   6  24
BRANCH   8  26
ATOM     26  O   UNL     1     122.859  69.599  45.691  1.00  0.00    -0.508 OA
ATOM     27  H   UNL     1     122.950  68.664  45.313  1.00  0.00     0.293 HD
ENDBRANCH   8  26
TORSDOF 6
ENDMDL
MODEL 2
REMARK VINA RESULT:    -6.024      1.459      2.756
REMARK INTER + INTRA:          -7.265
REMARK INTER:                  -7.719
REMARK INTRA:                   0.455
REMARK UNBOUND:                -0.008
REMARK SMILES O=c1c(O)c(-c2ccc(O)c(O)c2)oc2cc(O)cc(O)c12
REMARK SMILES IDX 5 1 3 2 2 3 1 4 22 5 20 6 19 7 17 8 16 9 15 10 14 11 6 12
REMARK SMILES IDX 7 13 8 14 9 15 13 16 11 17 10 18 12 20 4 22 21 24 18 26
REMARK H PARENT 10 19 12 21 4 23 21 25 18 27
REMARK Flexibility Score: inf
ROOT
ATOM      1  C   UNL     1     117.907  73.247  44.798  1.00  0.00     0.180 A 
ATOM      2  C   UNL     1     118.794  72.816  45.800  1.00  0.00     0.208 A 
ATOM      3  C   UNL     1     120.120  72.514  45.451  1.00  0.00     0.238 A 
ATOM      4  O   UNL     1     120.895  72.077  46.342  1.00  0.00    -0.285 OA
ATOM      5  C   UNL     1     120.547  72.663  44.109  1.00  0.00     0.111 A 
ATOM      6  C   UNL     1     121.877  72.425  43.652  1.00  0.00     0.134 A 
ATOM      7  C   UNL     1     122.156  72.477  42.280  1.00  0.00     0.093 A 
ATOM      8  C   UNL     1     121.169  72.822  41.358  1.00  0.00     0.123 A 
ATOM      9  C   UNL     1     119.879  73.116  41.800  1.00  0.00     0.094 A 
ATOM     10  C   UNL     1     119.562  73.037  43.159  1.00  0.00     0.146 A 
ATOM     11  O   UNL     1     118.320  73.313  43.537  1.00  0.00    -0.452 OA
ENDROOT
BRANCH   1  12
ATOM     12  C   UNL     1     116.501  73.607  45.093  1.00  0.00     0.025 A 
ATOM     13  C   UNL     1     116.117  73.866  46.418  1.00  0.00     0.016 A 
ATOM     14  C   UNL     1     114.792  74.185  46.721  1.00  0.00     0.051 A 
ATOM     15  C   UNL     1     113.827  74.237  45.710  1.00  0.00     0.157 A 
ATOM     16  C   UNL     1     115.525  73.638  44.080  1.00  0.00     0.062 A 
ATOM     17  C   UNL     1     114.194  73.957  44.383  1.00  0.00     0.158 A 
BRANCH  15  18
ATOM     18  O   UNL     1     112.512  74.560  46.043  1.00  0.00    -0.504 OA
ATOM     19  H   UNL     1     111.732  74.329  45.440  1.00  0.00     0.293 HD
ENDBRANCH  15  18
BRANCH  17  20
ATOM     20  O   UNL     1     113.234  73.992  43.372  1.00  0.00    -0.504 OA
ATOM     21  H   UNL     1     113.357  73.481  42.506  1.00  0.00     0.293 HD
ENDBRANCH  17  20
ENDBRANCH   1  12
BRANCH   2  22
ATOM     22  O   UNL     1     118.345  72.655  47.113  1.00  0.00    -0.502 OA
ATOM     23  H   UNL     1     118.633  73.271  47.865  1.00  0.00     0.293 HD
ENDBRANCH   2  22
BRANCH   6  24
ATOM     24  O   UNL     1     122.959  72.162  44.498  1.00  0.00    -0.507 OA
ATOM     25  H   UNL     1     123.145  72.650  45.361  1.00  0.00     0.293 HD
ENDBRANCH   6  24
BRANCH   8  26
ATOM     26  O   UNL     1     121.485  72.881  40.002  1.00  0.00    -0.508 OA
ATOM     27  H   UNL     1     122.424  72.704  39.667  1.00  0.00     0.293 HD
ENDBRANCH   8  26
TORSDOF 6
ENDMDL
MODEL 3
REMARK VINA RESULT:    -6.024      1.331      1.332
REMARK INTER + INTRA:          -7.264
REMARK INTER:                  -7.521
REMARK INTRA:                   0.256
REMARK UNBOUND:                -0.008
REMARK SMILES O=c1c(O)c(-c2ccc(O)c(O)c2)oc2cc(O)cc(O)c12
REMARK SMILES IDX 5 1 3 2 2 3 1 4 22 5 20 6 19 7 17 8 16 9 15 10 14 11 6 12
REMARK SMILES IDX 7 13 8 14 9 15 13 16 11 17 10 18 12 20 4 22 21 24 18 26
REMARK H PARENT 10 19 12 21 4 23 21 25 18 27
REMARK Flexibility Score: inf
ROOT
ATOM      1  C   UNL     1     118.111  73.837  44.073  1.00  0.00     0.180 A 
ATOM      2  C   UNL     1     118.500  73.819  42.722  1.00  0.00     0.208 A 
ATOM      3  C   UNL     1     119.824  73.478  42.399  1.00  0.00     0.238 A 
ATOM      4  O   UNL     1     120.180  73.517  41.193  1.00  0.00    -0.285 OA
ATOM      5  C   UNL     1     120.737  73.144  43.429  1.00  0.00     0.111 A 
ATOM      6  C   UNL     1     122.089  72.745  43.213  1.00  0.00     0.134 A 
ATOM      7  C   UNL     1     122.940  72.565  44.312  1.00  0.00     0.093 A 
ATOM      8  C   UNL     1     122.469  72.705  45.616  1.00  0.00     0.123 A 
ATOM      9  C   UNL     1     121.133  73.036  45.840  1.00  0.00     0.094 A 
ATOM     10  C   UNL     1     120.270  73.258  44.764  1.00  0.00     0.146 A 
ATOM     11  O   UNL     1     119.008  73.583  45.020  1.00  0.00    -0.452 OA
ENDROOT
BRANCH   1  12
ATOM     12  C   UNL     1     116.728  74.162  44.490  1.00  0.00     0.025 A 
ATOM     13  C   UNL     1     116.500  74.707  45.763  1.00  0.00     0.016 A 
ATOM     14  C   UNL     1     115.202  75.002  46.185  1.00  0.00     0.051 A 
ATOM     15  C   UNL     1     114.111  74.742  45.350  1.00  0.00     0.157 A 
ATOM     16  C   UNL     1     115.628  73.882  43.660  1.00  0.00     0.062 A 
ATOM     17  C   UNL     1     114.323  74.174  44.082  1.00  0.00     0.158 A 
BRANCH  15  18
ATOM     18  O   UNL     1     112.826  75.048  45.798  1.00  0.00    -0.504 OA
ATOM     19  H   UNL     1     112.001  74.849  45.245  1.00  0.00     0.293 HD
ENDBRANCH  15  18
BRANCH  17  20
ATOM     20  O   UNL     1     113.239  73.900  43.251  1.00  0.00    -0.504 OA
ATOM     21  H   UNL     1     113.338  73.867  42.242  1.00  0.00     0.293 HD
ENDBRANCH  17  20
ENDBRANCH   1  12
BRANCH   2  22
ATOM     22  O   UNL     1     117.589  74.173  41.724  1.00  0.00    -0.502 OA
ATOM     23  H   UNL     1     117.844  74.759  40.937  1.00  0.00     0.293 HD
ENDBRANCH   2  22
BRANCH   6  24
ATOM     24  O   UNL     1     122.636  72.488  41.953  1.00  0.00    -0.507 OA
ATOM     25  H   UNL     1     123.515  72.857  41.621  1.00  0.00     0.293 HD
ENDBRANCH   6  24
BRANCH   8  26
ATOM     26  O   UNL     1     123.339  72.502  46.687  1.00  0.00    -0.508 OA
ATOM     27  H   UNL     1     123.006  72.475  47.643  1.00  0.00     0.293 HD
ENDBRANCH   8  26
TORSDOF 6
ENDMDL
MODEL 4
REMARK VINA RESULT:    -5.928      2.234      6.813
REMARK INTER + INTRA:          -7.149
REMARK INTER:                  -6.837
REMARK INTRA:                  -0.312
REMARK UNBOUND:                -0.008
REMARK SMILES O=c1c(O)c(-c2ccc(O)c(O)c2)oc2cc(O)cc(O)c12
REMARK SMILES IDX 5 1 3 2 2 3 1 4 22 5 20 6 19 7 17 8 16 9 15 10 14 11 6 12
REMARK SMILES IDX 7 13 8 14 9 15 13 16 11 17 10 18 12 20 4 22 21 24 18 26
REMARK H PARENT 10 19 12 21 4 23 21 25 18 27
REMARK Flexibility Score: inf
ROOT
ATOM      1  C   UNL     1     117.097  73.920  44.407  1.00  0.00     0.180 A 
ATOM      2  C   UNL     1     115.917  74.359  43.781  1.00  0.00     0.208 A 
ATOM      3  C   UNL     1     114.726  74.399  44.523  1.00  0.00     0.238 A 
ATOM      4  O   UNL     1     113.663  74.742  43.943  1.00  0.00    -0.285 OA
ATOM      5  C   UNL     1     114.732  74.015  45.886  1.00  0.00     0.111 A 
ATOM      6  C   UNL     1     113.592  74.054  46.744  1.00  0.00     0.134 A 
ATOM      7  C   UNL     1     113.683  73.527  48.038  1.00  0.00     0.093 A 
ATOM      8  C   UNL     1     114.887  73.023  48.527  1.00  0.00     0.123 A 
ATOM      9  C   UNL     1     116.024  73.034  47.718  1.00  0.00     0.094 A 
ATOM     10  C   UNL     1     115.955  73.520  46.409  1.00  0.00     0.146 A 
ATOM     11  O   UNL     1     117.056  73.503  45.668  1.00  0.00    -0.452 OA
ENDROOT
BRANCH   1  12
ATOM     12  C   UNL     1     118.395  73.873  43.697  1.00  0.00     0.025 A 
ATOM     13  C   UNL     1     119.265  74.972  43.775  1.00  0.00     0.016 A 
ATOM     14  C   UNL     1     120.485  74.958  43.096  1.00  0.00     0.051 A 
ATOM     15  C   UNL     1     120.849  73.856  42.317  1.00  0.00     0.157 A 
ATOM     16  C   UNL     1     118.753  72.774  42.896  1.00  0.00     0.062 A 
ATOM     17  C   UNL     1     119.977  72.759  42.211  1.00  0.00     0.158 A 
BRANCH  15  18
ATOM     18  O   UNL     1     122.074  73.870  41.651  1.00  0.00    -0.504 OA
ATOM     19  H   UNL     1     122.865  74.404  41.990  1.00  0.00     0.293 HD
ENDBRANCH  15  18
BRANCH  17  20
ATOM     20  O   UNL     1     120.327  71.663  41.425  1.00  0.00    -0.504 OA
ATOM     21  H   UNL     1     120.102  71.624  40.437  1.00  0.00     0.293 HD
ENDBRANCH  17  20
ENDBRANCH   1  12
BRANCH   2  22
ATOM     22  O   UNL     1     115.930  74.713  42.429  1.00  0.00    -0.502 OA
ATOM     23  H   UNL     1     116.536  74.261  41.754  1.00  0.00     0.293 HD
ENDBRANCH   2  22
BRANCH   6  24
ATOM     24  O   UNL     1     112.365  74.620  46.385  1.00  0.00    -0.507 OA
ATOM     25  H   UNL     1     111.501  74.108  46.292  1.00  0.00     0.293 HD
ENDBRANCH   6  24
BRANCH   8  26
ATOM     26  O   UNL     1     114.947  72.522  49.826  1.00  0.00    -0.508 OA
ATOM     27  H   UNL     1     115.710  71.931  50.132  1.00  0.00     0.293 HD
ENDBRANCH   8  26
TORSDOF 6
ENDMDL
MODEL 5
REMARK VINA RESULT:    -5.772      3.790      6.734
REMARK INTER + INTRA:          -6.961
REMARK INTER:                  -6.665
REMARK INTRA:                  -0.296
REMARK UNBOUND:                -0.008
REMARK SMILES O=c1c(O)c(-c2ccc(O)c(O)c2)oc2cc(O)cc(O)c12
REMARK SMILES IDX 5 1 3 2 2 3 1 4 22 5 20 6 19 7 17 8 16 9 15 10 14 11 6 12
REMARK SMILES IDX 7 13 8 14 9 15 13 16 11 17 10 18 12 20 4 22 21 24 18 26
REMARK H PARENT 10 19 12 21 4 23 21 25 18 27
REMARK Flexibility Score: inf
ROOT
ATOM      1  C   UNL     1     121.577  70.171  45.312  1.00  0.00     0.180 A 
ATOM      2  C   UNL     1     122.373  70.158  46.471  1.00  0.00     0.208 A 
ATOM      3  C   UNL     1     122.278  69.068  47.351  1.00  0.00     0.238 A 
ATOM      4  O   UNL     1     122.953  69.088  48.413  1.00  0.00    -0.285 OA
ATOM      5  C   UNL     1     121.401  67.997  47.054  1.00  0.00     0.111 A 
ATOM      6  C   UNL     1     121.254  66.824  47.853  1.00  0.00     0.134 A 
ATOM      7  C   UNL     1     120.262  65.889  47.533  1.00  0.00     0.093 A 
ATOM      8  C   UNL     1     119.456  66.052  46.407  1.00  0.00     0.123 A 
ATOM      9  C   UNL     1     119.631  67.165  45.584  1.00  0.00     0.094 A 
ATOM     10  C   UNL     1     120.588  68.133  45.898  1.00  0.00     0.146 A 
ATOM     11  O   UNL     1     120.716  69.183  45.095  1.00  0.00    -0.452 OA
ENDROOT
BRANCH   1  12
ATOM     12  C   UNL     1     121.640  71.273  44.326  1.00  0.00     0.025 A 
ATOM     13  C   UNL     1     122.688  71.307  43.393  1.00  0.00     0.016 A 
ATOM     14  C   UNL     1     122.779  72.349  42.467  1.00  0.00     0.051 A 
ATOM     15  C   UNL     1     121.835  73.379  42.468  1.00  0.00     0.157 A 
ATOM     16  C   UNL     1     120.703  72.321  44.339  1.00  0.00     0.062 A 
ATOM     17  C   UNL     1     120.793  73.370  43.411  1.00  0.00     0.158 A 
BRANCH  15  18
ATOM     18  O   UNL     1     121.950  74.406  41.531  1.00  0.00    -0.504 OA
ATOM     19  H   UNL     1     122.242  74.233  40.577  1.00  0.00     0.293 HD
ENDBRANCH  15  18
BRANCH  17  20
ATOM     20  O   UNL     1     119.856  74.402  43.427  1.00  0.00    -0.504 OA
ATOM     21  H   UNL     1     119.027  74.358  44.008  1.00  0.00     0.293 HD
ENDBRANCH  17  20
ENDBRANCH   1  12
BRANCH   2  22
ATOM     22  O   UNL     1     123.216  71.235  46.756  1.00  0.00    -0.502 OA
ATOM     23  H   UNL     1     123.442  71.513  47.704  1.00  0.00     0.293 HD
ENDBRANCH   2  22
BRANCH   6  24
ATOM     24  O   UNL     1     122.068  66.519  48.947  1.00  0.00    -0.507 OA
ATOM     25  H   UNL     1     122.354  65.588  49.209  1.00  0.00     0.293 HD
ENDBRANCH   6  24
BRANCH   8  26
ATOM     26  O   UNL     1     118.490  65.094  46.107  1.00  0.00    -0.508 OA
ATOM     27  H   UNL     1     118.709  64.272  45.558  1.00  0.00     0.293 HD
ENDBRANCH   8  26
TORSDOF 6
ENDMDL
MODEL 6
REMARK VINA RESULT:    -5.704      1.581      7.173
REMARK INTER + INTRA:          -6.879
REMARK INTER:                  -6.788
REMARK INTRA:                  -0.091
REMARK UNBOUND:                -0.008
REMARK SMILES O=c1c(O)c(-c2ccc(O)c(O)c2)oc2cc(O)cc(O)c12
REMARK SMILES IDX 5 1 3 2 2 3 1 4 22 5 20 6 19 7 17 8 16 9 15 10 14 11 6 12
REMARK SMILES IDX 7 13 8 14 9 15 13 16 11 17 10 18 12 20 4 22 21 24 18 26
REMARK H PARENT 10 19 12 21 4 23 21 25 18 27
REMARK Flexibility Score: inf
ROOT
ATOM      1  C   UNL     1     118.538  73.329  44.703  1.00  0.00     0.180 A 
ATOM      2  C   UNL     1     118.461  73.283  46.106  1.00  0.00     0.208 A 
ATOM      3  C   UNL     1     117.223  73.515  46.728  1.00  0.00     0.238 A 
ATOM      4  O   UNL     1     117.172  73.525  47.986  1.00  0.00    -0.285 OA
ATOM      5  C   UNL     1     116.076  73.775  45.940  1.00  0.00     0.111 A 
ATOM      6  C   UNL     1     114.765  73.984  46.462  1.00  0.00     0.134 A 
ATOM      7  C   UNL     1     113.730  74.362  45.598  1.00  0.00     0.093 A 
ATOM      8  C   UNL     1     113.943  74.475  44.225  1.00  0.00     0.123 A 
ATOM      9  C   UNL     1     115.207  74.214  43.696  1.00  0.00     0.094 A 
ATOM     10  C   UNL     1     116.269  73.870  44.537  1.00  0.00     0.146 A 
ATOM     11  O   UNL     1     117.459  73.640  43.995  1.00  0.00    -0.452 OA
ENDROOT
BRANCH   1  12
ATOM     12  C   UNL     1     119.802  73.071  43.975  1.00  0.00     0.025 A 
ATOM     13  C   UNL     1     120.466  71.847  44.156  1.00  0.00     0.016 A 
ATOM     14  C   UNL     1     121.670  71.591  43.496  1.00  0.00     0.051 A 
ATOM     15  C   UNL     1     122.236  72.557  42.658  1.00  0.00     0.157 A 
ATOM     16  C   UNL     1     120.383  74.048  43.149  1.00  0.00     0.062 A 
ATOM     17  C   UNL     1     121.593  73.794  42.487  1.00  0.00     0.158 A 
BRANCH  15  18
ATOM     18  O   UNL     1     123.438  72.272  42.011  1.00  0.00    -0.504 OA
ATOM     19  H   UNL     1     124.135  71.658  42.415  1.00  0.00     0.293 HD
ENDBRANCH  15  18
BRANCH  17  20
ATOM     20  O   UNL     1     122.160  74.766  41.663  1.00  0.00    -0.504 OA
ATOM     21  H   UNL     1     121.656  75.152  40.873  1.00  0.00     0.293 HD
ENDBRANCH  17  20
ENDBRANCH   1  12
BRANCH   2  22
ATOM     22  O   UNL     1     119.610  73.046  46.865  1.00  0.00    -0.502 OA
ATOM     23  H   UNL     1     119.848  72.126  47.219  1.00  0.00     0.293 HD
ENDBRANCH   2  22
BRANCH   6  24
ATOM     24  O   UNL     1     114.423  73.809  47.806  1.00  0.00    -0.507 OA
ATOM     25  H   UNL     1     114.452  74.534  48.506  1.00  0.00     0.293 HD
ENDBRANCH   6  24
BRANCH   8  26
ATOM     26  O   UNL     1     112.886  74.837  43.392  1.00  0.00    -0.508 OA
ATOM     27  H   UNL     1     112.937  74.718  42.388  1.00  0.00     0.293 HD
ENDBRANCH   8  26
TORSDOF 6
ENDMDL
MODEL 7
REMARK VINA RESULT:    -5.630      4.673      6.559
REMARK INTER + INTRA:          -6.790
REMARK INTER:                  -6.894
REMARK INTRA:                   0.104
REMARK UNBOUND:                -0.008
REMARK SMILES O=c1c(O)c(-c2ccc(O)c(O)c2)oc2cc(O)cc(O)c12
REMARK SMILES IDX 5 1 3 2 2 3 1 4 22 5 20 6 19 7 17 8 16 9 15 10 14 11 6 12
REMARK SMILES IDX 7 13 8 14 9 15 13 16 11 17 10 18 12 20 4 22 21 24 18 26
REMARK H PARENT 10 19 12 21 4 23 21 25 18 27
REMARK Flexibility Score: inf
ROOT
ATOM      1  C   UNL     1     120.976  69.165  45.805  1.00  0.00     0.180 A 
ATOM      2  C   UNL     1     120.954  69.288  44.404  1.00  0.00     0.208 A 
ATOM      3  C   UNL     1     121.253  70.532  43.825  1.00  0.00     0.238 A 
ATOM      4  O   UNL     1     121.179  70.649  42.574  1.00  0.00    -0.285 OA
ATOM      5  C   UNL     1     121.586  71.632  44.651  1.00  0.00     0.111 A 
ATOM      6  C   UNL     1     121.945  72.927  44.170  1.00  0.00     0.134 A 
ATOM      7  C   UNL     1     122.128  73.976  45.080  1.00  0.00     0.093 A 
ATOM      8  C   UNL     1     122.029  73.762  46.454  1.00  0.00     0.123 A 
ATOM      9  C   UNL     1     121.737  72.487  46.939  1.00  0.00     0.094 A 
ATOM     10  C   UNL     1     121.513  71.428  46.054  1.00  0.00     0.146 A 
ATOM     11  O   UNL     1     121.227  70.232  46.555  1.00  0.00    -0.452 OA
ENDROOT
BRANCH   1  12
ATOM     12  C   UNL     1     120.696  67.881  46.487  1.00  0.00     0.025 A 
ATOM     13  C   UNL     1     121.545  67.447  47.517  1.00  0.00     0.016 A 
ATOM     14  C   UNL     1     121.312  66.229  48.159  1.00  0.00     0.051 A 
ATOM     15  C   UNL     1     120.239  65.420  47.775  1.00  0.00     0.157 A 
ATOM     16  C   UNL     1     119.629  67.057  46.087  1.00  0.00     0.062 A 
ATOM     17  C   UNL     1     119.395  65.833  46.730  1.00  0.00     0.158 A 
BRANCH  15  18
ATOM     18  O   UNL     1     120.030  64.210  48.436  1.00  0.00    -0.504 OA
ATOM     19  H   UNL     1     120.697  63.450  48.391  1.00  0.00     0.293 HD
ENDBRANCH  15  18
BRANCH  17  20
ATOM     20  O   UNL     1     118.331  65.025  46.332  1.00  0.00    -0.504 OA
ATOM     21  H   UNL     1     117.392  65.394  46.230  1.00  0.00     0.293 HD
ENDBRANCH  17  20
ENDBRANCH   1  12
BRANCH   2  22
ATOM     22  O   UNL     1     120.601  68.195  43.609  1.00  0.00    -0.502 OA
ATOM     23  H   UNL     1     120.344  67.297  44.002  1.00  0.00     0.293 HD
ENDBRANCH   2  22
BRANCH   6  24
ATOM     24  O   UNL     1     122.160  73.227  42.822  1.00  0.00    -0.507 OA
ATOM     25  H   UNL     1     122.044  74.140  42.411  1.00  0.00     0.293 HD
ENDBRANCH   6  24
BRANCH   8  26
ATOM     26  O   UNL     1     122.233  74.825  47.332  1.00  0.00    -0.508 OA
ATOM     27  H   UNL     1     121.607  74.999  48.109  1.00  0.00     0.293 HD
ENDBRANCH   8  26
TORSDOF 6
ENDMDL
MODEL 8
REMARK VINA RESULT:    -5.569      2.521      6.339
REMARK INTER + INTRA:          -6.716
REMARK INTER:                  -6.539
REMARK INTRA:                  -0.178
REMARK UNBOUND:                -0.008
REMARK SMILES O=c1c(O)c(-c2ccc(O)c(O)c2)oc2cc(O)cc(O)c12
REMARK SMILES IDX 5 1 3 2 2 3 1 4 22 5 20 6 19 7 17 8 16 9 15 10 14 11 6 12
REMARK SMILES IDX 7 13 8 14 9 15 13 16 11 17 10 18 12 20 4 22 21 24 18 26
REMARK H PARENT 10 19 12 21 4 23 21 25 18 27
REMARK Flexibility Score: inf
ROOT
ATOM      1  C   UNL     1     121.211  70.638  44.857  1.00  0.00     0.180 A 
ATOM      2  C   UNL     1     122.268  70.927  43.976  1.00  0.00     0.208 A 
ATOM      3  C   UNL     1     122.188  72.075  43.170  1.00  0.00     0.238 A 
ATOM      4  O   UNL     1     123.112  72.299  42.346  1.00  0.00    -0.285 OA
ATOM      5  C   UNL     1     121.062  72.927  43.267  1.00  0.00     0.111 A 
ATOM      6  C   UNL     1     120.895  74.136  42.529  1.00  0.00     0.134 A 
ATOM      7  C   UNL     1     119.682  74.832  42.607  1.00  0.00     0.093 A 
ATOM      8  C   UNL     1     118.657  74.398  43.446  1.00  0.00     0.123 A 
ATOM      9  C   UNL     1     118.831  73.250  44.218  1.00  0.00     0.094 A 
ATOM     10  C   UNL     1     120.016  72.514  44.134  1.00  0.00     0.146 A 
ATOM     11  O   UNL     1     120.138  71.421  44.877  1.00  0.00    -0.452 OA
ENDROOT
BRANCH   1  12
ATOM     12  C   UNL     1     121.234  69.460  45.755  1.00  0.00     0.025 A 
ATOM     13  C   UNL     1     122.193  69.390  46.778  1.00  0.00     0.016 A 
ATOM     14  C   UNL     1     122.246  68.279  47.622  1.00  0.00     0.051 A 
ATOM     15  C   UNL     1     121.355  67.216  47.449  1.00  0.00     0.157 A 
ATOM     16  C   UNL     1     120.353  68.381  45.569  1.00  0.00     0.062 A 
ATOM     17  C   UNL     1     120.406  67.263  46.414  1.00  0.00     0.158 A 
BRANCH  15  18
ATOM     18  O   UNL     1     121.431  66.120  48.309  1.00  0.00    -0.504 OA
ATOM     19  H   UNL     1     122.056  65.342  48.136  1.00  0.00     0.293 HD
ENDBRANCH  15  18
BRANCH  17  20
ATOM     20  O   UNL     1     119.524  66.200  46.228  1.00  0.00    -0.504 OA
ATOM     21  H   UNL     1     118.613  66.334  45.804  1.00  0.00     0.293 HD
ENDBRANCH  17  20
ENDBRANCH   1  12
BRANCH   2  22
ATOM     22  O   UNL     1     123.360  70.061  43.881  1.00  0.00    -0.502 OA
ATOM     23  H   UNL     1     123.477  69.263  44.495  1.00  0.00     0.293 HD
ENDBRANCH   2  22
BRANCH   6  24
ATOM     24  O   UNL     1     121.891  74.708  41.732  1.00  0.00    -0.507 OA
ATOM     25  H   UNL     1     122.874  74.486  41.793  1.00  0.00     0.293 HD
ENDBRANCH   6  24
BRANCH   8  26
ATOM     26  O   UNL     1     117.469  75.124  43.512  1.00  0.00    -0.508 OA
ATOM     27  H   UNL     1     117.421  76.023  43.976  1.00  0.00     0.293 HD
ENDBRANCH   8  26
TORSDOF 6
ENDMDL
MODEL 9
REMARK VINA RESULT:    -5.491      2.869      5.231
REMARK INTER + INTRA:          -6.622
REMARK INTER:                  -6.348
REMARK INTRA:                  -0.275
REMARK UNBOUND:                -0.008
REMARK SMILES O=c1c(O)c(-c2ccc(O)c(O)c2)oc2cc(O)cc(O)c12
REMARK SMILES IDX 5 1 3 2 2 3 1 4 22 5 20 6 19 7 17 8 16 9 15 10 14 11 6 12
REMARK SMILES IDX 7 13 8 14 9 15 13 16 11 17 10 18 12 20 4 22 21 24 18 26
REMARK H PARENT 10 19 12 21 4 23 21 25 18 27
REMARK Flexibility Score: inf
ROOT
ATOM      1  C   UNL     1     120.914  70.808  44.572  1.00  0.00     0.180 A 
ATOM      2  C   UNL     1     122.266  71.039  44.879  1.00  0.00     0.208 A 
ATOM      3  C   UNL     1     122.910  70.192  45.796  1.00  0.00     0.238 A 
ATOM      4  O   UNL     1     124.105  70.436  46.107  1.00  0.00    -0.285 OA
ATOM      5  C   UNL     1     122.200  69.117  46.382  1.00  0.00     0.111 A 
ATOM      6  C   UNL     1     122.763  68.173  47.292  1.00  0.00     0.134 A 
ATOM      7  C   UNL     1     121.934  67.229  47.910  1.00  0.00     0.093 A 
ATOM      8  C   UNL     1     120.577  67.153  47.602  1.00  0.00     0.123 A 
ATOM      9  C   UNL     1     120.026  68.031  46.669  1.00  0.00     0.094 A 
ATOM     10  C   UNL     1     120.821  69.008  46.063  1.00  0.00     0.146 A 
ATOM     11  O   UNL     1     120.257  69.832  45.188  1.00  0.00    -0.452 OA
ENDROOT
BRANCH   1  12
ATOM     12  C   UNL     1     120.174  71.643  43.597  1.00  0.00     0.025 A 
ATOM     13  C   UNL     1     120.397  71.462  42.223  1.00  0.00     0.016 A 
ATOM     14  C   UNL     1     119.727  72.252  41.288  1.00  0.00     0.051 A 
ATOM     15  C   UNL     1     118.836  73.244  41.708  1.00  0.00     0.157 A 
ATOM     16  C   UNL     1     119.294  72.655  44.020  1.00  0.00     0.062 A 
ATOM     17  C   UNL     1     118.621  73.451  43.081  1.00  0.00     0.158 A 
BRANCH  15  18
ATOM     18  O   UNL     1     118.180  74.017  40.751  1.00  0.00    -0.504 OA
ATOM     19  H   UNL     1     118.631  74.793  40.283  1.00  0.00     0.293 HD
ENDBRANCH  15  18
BRANCH  17  20
ATOM     20  O   UNL     1     117.745  74.448  43.508  1.00  0.00    -0.504 OA
ATOM     21  H   UNL     1     116.761  74.428  43.267  1.00  0.00     0.293 HD
ENDBRANCH  17  20
ENDBRANCH   1  12
BRANCH   2  22
ATOM     22  O   UNL     1     122.943  72.119  44.306  1.00  0.00    -0.502 OA
ATOM     23  H   UNL     1     123.457  72.039  43.436  1.00  0.00     0.293 HD
ENDBRANCH   2  22
BRANCH   6  24
ATOM     24  O   UNL     1     124.125  68.104  47.599  1.00  0.00    -0.507 OA
ATOM     25  H   UNL     1     124.676  68.874  47.948  1.00  0.00     0.293 HD
ENDBRANCH   6  24
BRANCH   8  26
ATOM     26  O   UNL     1     119.783  66.190  48.223  1.00  0.00    -0.508 OA
ATOM     27  H   UNL     1     119.746  65.236  47.887  1.00  0.00     0.293 HD
ENDBRANCH   8  26
TORSDOF 6
ENDMDL
