MODEL 1
REMARK VINA RESULT:    -4.361      0.000      0.000
REMARK INTER + INTRA:         -15.606
REMARK INTER:                 -11.500
REMARK INTRA:                  -4.106
REMARK UNBOUND:                -4.106
REMARK SMILES CCCCCCCCCCCCCCCCCCCCCCCCCCCCCC(=O)[O-]
REMARK SMILES IDX 16 1 17 2 18 3 19 4 20 5 21 6 22 7 23 8 24 9 25 10 26 11
REMARK SMILES IDX 27 12 28 13 29 14 30 15 31 16 32 17 15 18 14 19 13 20 12 21
REMARK SMILES IDX 11 22 10 23 9 24 8 25 7 26 6 27 5 28 4 29 3 30 2 31 1 32
REMARK H PARENT
REMARK Flexibility Score: inf
ROOT
ATOM      1  C   UNL     1     136.965 131.953 126.548  1.00  0.00     0.000 C 
ENDROOT
BRANCH   1   2
ATOM      2  C   UNL     1     136.315 133.247 127.077  1.00  0.00     0.000 C 
BRANCH   2   3
ATOM      3  C   UNL     1     137.055 133.937 128.243  1.00  0.00     0.000 C 
BRANCH   3   4
ATOM      4  C   UNL     1     136.238 134.069 129.548  1.00  0.00     0.000 C 
BRANCH   4   5
ATOM      5  C   UNL     1     134.747 134.385 129.323  1.00  0.00     0.000 C 
BRANCH   5   6
ATOM      6  C   UNL     1     133.802 133.639 130.289  1.00  0.00     0.000 C 
BRANCH   6   7
ATOM      7  C   UNL     1     134.310 132.246 130.718  1.00  0.00     0.000 C 
BRANCH   7   8
ATOM      8  C   UNL     1     134.065 131.098 129.711  1.00  0.00     0.000 C 
BRANCH   8   9
ATOM      9  C   UNL     1     133.992 129.671 130.301  1.00  0.00     0.000 C 
BRANCH   9  10
ATOM     10  C   UNL     1     135.173 128.755 129.932  1.00  0.00     0.000 C 
BRANCH  10  11
ATOM     11  C   UNL     1     134.954 127.282 130.324  1.00  0.00     0.000 C 
BRANCH  11  12
ATOM     12  C   UNL     1     136.262 126.543 130.685  1.00  0.00     0.000 C 
BRANCH  12  13
ATOM     13  C   UNL     1     136.118 125.010 130.759  1.00  0.00     0.006 C 
BRANCH  13  14
ATOM     14  C   UNL     1     137.445 124.248 130.865  1.00  0.00     0.053 C 
BRANCH  14  15
ATOM     15  C   UNL     1     137.348 123.077 131.794  1.00  0.00     0.041 C 
ATOM     16  O   UNL     1     138.307 122.791 132.558  1.00  0.00    -0.550 OA
ATOM     17  O   UNL     1     136.211 122.276 131.787  1.00  0.00    -0.550 OA
ENDBRANCH  14  15
ENDBRANCH  13  14
ENDBRANCH  12  13
ENDBRANCH  11  12
ENDBRANCH  10  11
ENDBRANCH   9  10
ENDBRANCH   8   9
ENDBRANCH   7   8
ENDBRANCH   6   7
ENDBRANCH   5   6
ENDBRANCH   4   5
ENDBRANCH   3   4
ENDBRANCH   2   3
ENDBRANCH   1   2
BRANCH   1  18
ATOM     18  C   UNL     1     138.122 131.457 127.426  1.00  0.00     0.000 C 
BRANCH  18  19
ATOM     19  C   UNL     1     137.643 130.395 128.424  1.00  0.00     0.000 C 
BRANCH  19  20
ATOM     20  C   UNL     1     138.832 129.800 129.192  1.00  0.00     0.000 C 
BRANCH  20  21
ATOM     21  C   UNL     1     138.812 130.145 130.692  1.00  0.00     0.000 C 
BRANCH  21  22
ATOM     22  C   UNL     1     137.842 131.277 131.089  1.00  0.00     0.000 C 
BRANCH  22  23
ATOM     23  C   UNL     1     138.506 132.538 131.675  1.00  0.00     0.000 C 
BRANCH  23  24
ATOM     24  C   UNL     1     139.958 132.788 131.223  1.00  0.00    -0.000 C 
BRANCH  24  25
ATOM     25  C   UNL     1     140.682 133.901 132.011  1.00  0.00    -0.000 C 
BRANCH  25  26
ATOM     26  C   UNL     1     140.474 135.294 131.398  1.00  0.00    -0.000 C 
BRANCH  26  27
ATOM     27  C   UNL     1     140.197 135.199 129.890  1.00  0.00    -0.000 C 
BRANCH  27  28
ATOM     28  C   UNL     1     139.250 136.301 129.387  1.00  0.00    -0.000 C 
BRANCH  28  29
ATOM     29  C   UNL     1     138.761 137.284 130.467  1.00  0.00    -0.000 C 
BRANCH  29  30
ATOM     30  C   UNL     1     137.332 136.992 130.976  1.00  0.00    -0.000 C 
BRANCH  30  31
ATOM     31  C   UNL     1     136.285 137.927 130.352  1.00  0.00    -0.003 C 
ATOM     32  C   UNL     1     136.806 139.357 130.261  1.00  0.00     0.004 C 
ENDBRANCH  30  31
ENDBRANCH  29  30
ENDBRANCH  28  29
ENDBRANCH  27  28
ENDBRANCH  26  27
ENDBRANCH  25  26
ENDBRANCH  24  25
ENDBRANCH  23  24
ENDBRANCH  22  23
ENDBRANCH  21  22
ENDBRANCH  20  21
ENDBRANCH  19  20
ENDBRANCH  18  19
ENDBRANCH   1  18
TORSDOF 28
ENDMDL
MODEL 2
REMARK VINA RESULT:    -4.336      3.244      7.633
REMARK INTER + INTRA:         -15.540
REMARK INTER:                 -11.399
REMARK INTRA:                  -4.140
REMARK UNBOUND:                -4.106
REMARK SMILES CCCCCCCCCCCCCCCCCCCCCCCCCCCCCC(=O)[O-]
REMARK SMILES IDX 16 1 17 2 18 3 19 4 20 5 21 6 22 7 23 8 24 9 25 10 26 11
REMARK SMILES IDX 27 12 28 13 29 14 30 15 31 16 32 17 15 18 14 19 13 20 12 21
REMARK SMILES IDX 11 22 10 23 9 24 8 25 7 26 6 27 5 28 4 29 3 30 2 31 1 32
REMARK H PARENT
REMARK Flexibility Score: inf
ROOT
ATOM      1  C   UNL     1     136.287 132.240 128.032  1.00  0.00     0.000 C 
ENDROOT
BRANCH   1   2
ATOM      2  C   UNL     1     135.979 133.743 127.883  1.00  0.00     0.000 C 
BRANCH   2   3
ATOM      3  C   UNL     1     134.872 134.293 128.808  1.00  0.00     0.000 C 
BRANCH   3   4
ATOM      4  C   UNL     1     135.342 135.352 129.831  1.00  0.00     0.000 C 
BRANCH   4   5
ATOM      5  C   UNL     1     134.379 136.544 129.985  1.00  0.00     0.000 C 
BRANCH   5   6
ATOM      6  C   UNL     1     135.056 137.917 129.786  1.00  0.00     0.000 C 
BRANCH   6   7
ATOM      7  C   UNL     1     136.310 138.133 130.657  1.00  0.00     0.000 C 
BRANCH   7   8
ATOM      8  C   UNL     1     137.397 139.058 130.060  1.00  0.00     0.000 C 
BRANCH   8   9
ATOM      9  C   UNL     1     138.845 138.519 130.081  1.00  0.00     0.000 C 
BRANCH   9  10
ATOM     10  C   UNL     1     138.979 137.036 130.473  1.00  0.00     0.000 C 
BRANCH  10  11
ATOM     11  C   UNL     1     138.852 136.070 129.280  1.00  0.00     0.000 C 
BRANCH  11  12
ATOM     12  C   UNL     1     139.440 134.670 129.559  1.00  0.00     0.000 C 
BRANCH  12  13
ATOM     13  C   UNL     1     140.616 134.669 130.556  1.00  0.00     0.006 C 
BRANCH  13  14
ATOM     14  C   UNL     1     140.407 133.782 131.790  1.00  0.00     0.053 C 
BRANCH  14  15
ATOM     15  C   UNL     1     141.230 134.238 132.955  1.00  0.00     0.041 C 
ATOM     16  O   UNL     1     141.400 133.481 133.947  1.00  0.00    -0.550 OA
ATOM     17  O   UNL     1     141.777 135.516 132.963  1.00  0.00    -0.550 OA
ENDBRANCH  14  15
ENDBRANCH  13  14
ENDBRANCH  12  13
ENDBRANCH  11  12
ENDBRANCH  10  11
ENDBRANCH   9  10
ENDBRANCH   8   9
ENDBRANCH   7   8
ENDBRANCH   6   7
ENDBRANCH   5   6
ENDBRANCH   4   5
ENDBRANCH   3   4
ENDBRANCH   2   3
ENDBRANCH   1   2
BRANCH   1  18
ATOM     18  C   UNL     1     137.048 131.658 126.832  1.00  0.00     0.000 C 
BRANCH  18  19
ATOM     19  C   UNL     1     138.315 130.922 127.284  1.00  0.00     0.000 C 
BRANCH  19  20
ATOM     20  C   UNL     1     138.139 130.363 128.703  1.00  0.00     0.000 C 
BRANCH  20  21
ATOM     21  C   UNL     1     139.147 130.946 129.709  1.00  0.00     0.000 C 
BRANCH  21  22
ATOM     22  C   UNL     1     138.591 131.184 131.128  1.00  0.00     0.000 C 
BRANCH  22  23
ATOM     23  C   UNL     1     137.138 131.691 131.189  1.00  0.00     0.000 C 
BRANCH  23  24
ATOM     24  C   UNL     1     136.775 132.504 132.447  1.00  0.00    -0.000 C 
BRANCH  24  25
ATOM     25  C   UNL     1     135.259 132.593 132.726  1.00  0.00    -0.000 C 
BRANCH  25  26
ATOM     26  C   UNL     1     134.412 132.486 131.449  1.00  0.00    -0.000 C 
BRANCH  26  27
ATOM     27  C   UNL     1     133.392 131.342 131.558  1.00  0.00    -0.000 C 
BRANCH  27  28
ATOM     28  C   UNL     1     133.312 130.491 130.279  1.00  0.00    -0.000 C 
BRANCH  28  29
ATOM     29  C   UNL     1     134.620 129.779 129.886  1.00  0.00    -0.000 C 
BRANCH  29  30
ATOM     30  C   UNL     1     134.584 128.249 130.094  1.00  0.00    -0.000 C 
BRANCH  30  31
ATOM     31  C   UNL     1     135.924 127.694 130.599  1.00  0.00    -0.003 C 
ATOM     32  C   UNL     1     135.930 126.170 130.590  1.00  0.00     0.004 C 
ENDBRANCH  30  31
ENDBRANCH  29  30
ENDBRANCH  28  29
ENDBRANCH  27  28
ENDBRANCH  26  27
ENDBRANCH  25  26
ENDBRANCH  24  25
ENDBRANCH  23  24
ENDBRANCH  22  23
ENDBRANCH  21  22
ENDBRANCH  20  21
ENDBRANCH  19  20
ENDBRANCH  18  19
ENDBRANCH   1  18
TORSDOF 28
ENDMDL
MODEL 3
REMARK VINA RESULT:    -4.190      1.352      2.040
REMARK INTER + INTRA:         -15.154
REMARK INTER:                 -10.264
REMARK INTRA:                  -4.890
REMARK UNBOUND:                -4.106
REMARK SMILES CCCCCCCCCCCCCCCCCCCCCCCCCCCCCC(=O)[O-]
REMARK SMILES IDX 16 1 17 2 18 3 19 4 20 5 21 6 22 7 23 8 24 9 25 10 26 11
REMARK SMILES IDX 27 12 28 13 29 14 30 15 31 16 32 17 15 18 14 19 13 20 12 21
REMARK SMILES IDX 11 22 10 23 9 24 8 25 7 26 6 27 5 28 4 29 3 30 2 31 1 32
REMARK H PARENT
REMARK Flexibility Score: inf
ROOT
ATOM      1  C   UNL     1     136.977 131.914 126.664  1.00  0.00     0.000 C 
ENDROOT
BRANCH   1   2
ATOM      2  C   UNL     1     136.405 132.546 127.948  1.00  0.00     0.000 C 
BRANCH   2   3
ATOM      3  C   UNL     1     136.798 134.018 128.200  1.00  0.00     0.000 C 
BRANCH   3   4
ATOM      4  C   UNL     1     135.800 134.822 129.064  1.00  0.00     0.000 C 
BRANCH   4   5
ATOM      5  C   UNL     1     134.387 134.210 129.120  1.00  0.00     0.000 C 
BRANCH   5   6
ATOM      6  C   UNL     1     133.847 134.028 130.555  1.00  0.00     0.000 C 
BRANCH   6   7
ATOM      7  C   UNL     1     134.870 133.430 131.543  1.00  0.00     0.000 C 
BRANCH   7   8
ATOM      8  C   UNL     1     134.644 131.952 131.939  1.00  0.00     0.000 C 
BRANCH   8   9
ATOM      9  C   UNL     1     133.216 131.398 131.736  1.00  0.00     0.000 C 
BRANCH   9  10
ATOM     10  C   UNL     1     133.080 130.345 130.621  1.00  0.00     0.000 C 
BRANCH  10  11
ATOM     11  C   UNL     1     134.092 130.530 129.475  1.00  0.00     0.000 C 
BRANCH  11  12
ATOM     12  C   UNL     1     135.186 129.440 129.440  1.00  0.00     0.000 C 
BRANCH  12  13
ATOM     13  C   UNL     1     134.852 128.189 130.277  1.00  0.00     0.006 C 
BRANCH  13  14
ATOM     14  C   UNL     1     136.062 127.313 130.626  1.00  0.00     0.053 C 
BRANCH  14  15
ATOM     15  C   UNL     1     135.721 125.854 130.616  1.00  0.00     0.041 C 
ATOM     16  O   UNL     1     136.625 124.989 130.761  1.00  0.00    -0.550 OA
ATOM     17  O   UNL     1     134.408 125.448 130.407  1.00  0.00    -0.550 OA
ENDBRANCH  14  15
ENDBRANCH  13  14
ENDBRANCH  12  13
ENDBRANCH  11  12
ENDBRANCH  10  11
ENDBRANCH   9  10
ENDBRANCH   8   9
ENDBRANCH   7   8
ENDBRANCH   6   7
ENDBRANCH   5   6
ENDBRANCH   4   5
ENDBRANCH   3   4
ENDBRANCH   2   3
ENDBRANCH   1   2
BRANCH   1  18
ATOM     18  C   UNL     1     138.064 130.866 126.941  1.00  0.00     0.000 C 
BRANCH  18  19
ATOM     19  C   UNL     1     138.686 131.067 128.328  1.00  0.00     0.000 C 
BRANCH  19  20
ATOM     20  C   UNL     1     138.691 129.749 129.115  1.00  0.00     0.000 C 
BRANCH  20  21
ATOM     21  C   UNL     1     138.702 129.959 130.639  1.00  0.00     0.000 C 
BRANCH  21  22
ATOM     22  C   UNL     1     137.908 131.185 131.136  1.00  0.00     0.000 C 
BRANCH  22  23
ATOM     23  C   UNL     1     138.733 132.237 131.902  1.00  0.00     0.000 C 
BRANCH  23  24
ATOM     24  C   UNL     1     138.797 133.630 131.245  1.00  0.00    -0.000 C 
BRANCH  24  25
ATOM     25  C   UNL     1     139.769 133.720 130.049  1.00  0.00    -0.000 C 
BRANCH  25  26
ATOM     26  C   UNL     1     140.245 135.155 129.776  1.00  0.00    -0.000 C 
BRANCH  26  27
ATOM     27  C   UNL     1     139.975 136.065 130.985  1.00  0.00    -0.000 C 
BRANCH  27  28
ATOM     28  C   UNL     1     139.007 137.215 130.660  1.00  0.00    -0.000 C 
BRANCH  28  29
ATOM     29  C   UNL     1     137.530 136.940 130.999  1.00  0.00    -0.000 C 
BRANCH  29  30
ATOM     30  C   UNL     1     136.547 137.949 130.365  1.00  0.00    -0.000 C 
BRANCH  30  31
ATOM     31  C   UNL     1     137.143 139.361 130.258  1.00  0.00    -0.003 C 
ATOM     32  C   UNL     1     136.051 140.424 130.269  1.00  0.00     0.004 C 
ENDBRANCH  30  31
ENDBRANCH  29  30
ENDBRANCH  28  29
ENDBRANCH  27  28
ENDBRANCH  26  27
ENDBRANCH  25  26
ENDBRANCH  24  25
ENDBRANCH  23  24
ENDBRANCH  22  23
ENDBRANCH  21  22
ENDBRANCH  20  21
ENDBRANCH  19  20
ENDBRANCH  18  19
ENDBRANCH   1  18
TORSDOF 28
ENDMDL
MODEL 4
REMARK VINA RESULT:    -3.937      3.323      8.894
REMARK INTER + INTRA:         -14.489
REMARK INTER:                 -10.351
REMARK INTRA:                  -4.138
REMARK UNBOUND:                -4.106
REMARK SMILES CCCCCCCCCCCCCCCCCCCCCCCCCCCCCC(=O)[O-]
REMARK SMILES IDX 16 1 17 2 18 3 19 4 20 5 21 6 22 7 23 8 24 9 25 10 26 11
REMARK SMILES IDX 27 12 28 13 29 14 30 15 31 16 32 17 15 18 14 19 13 20 12 21
REMARK SMILES IDX 11 22 10 23 9 24 8 25 7 26 6 27 5 28 4 29 3 30 2 31 1 32
REMARK H PARENT
REMARK Flexibility Score: inf
ROOT
ATOM      1  C   UNL     1     137.421 132.348 132.236  1.00  0.00     0.000 C 
ENDROOT
BRANCH   1   2
ATOM      2  C   UNL     1     136.091 133.122 132.328  1.00  0.00     0.000 C 
BRANCH   2   3
ATOM      3  C   UNL     1     134.845 132.272 132.655  1.00  0.00     0.000 C 
BRANCH   3   4
ATOM      4  C   UNL     1     133.759 132.255 131.555  1.00  0.00     0.000 C 
BRANCH   4   5
ATOM      5  C   UNL     1     134.319 132.135 130.125  1.00  0.00     0.000 C 
BRANCH   5   6
ATOM      6  C   UNL     1     134.053 133.378 129.248  1.00  0.00     0.000 C 
BRANCH   6   7
ATOM      7  C   UNL     1     133.906 134.691 130.044  1.00  0.00     0.000 C 
BRANCH   7   8
ATOM      8  C   UNL     1     134.636 135.922 129.458  1.00  0.00     0.000 C 
BRANCH   8   9
ATOM      9  C   UNL     1     134.728 137.165 130.372  1.00  0.00     0.000 C 
BRANCH   9  10
ATOM     10  C   UNL     1     135.455 138.373 129.753  1.00  0.00     0.000 C 
BRANCH  10  11
ATOM     11  C   UNL     1     136.885 138.571 130.290  1.00  0.00     0.000 C 
BRANCH  11  12
ATOM     12  C   UNL     1     137.617 137.243 130.587  1.00  0.00     0.000 C 
BRANCH  12  13
ATOM     13  C   UNL     1     139.145 137.312 130.399  1.00  0.00     0.006 C 
BRANCH  13  14
ATOM     14  C   UNL     1     139.959 136.698 131.545  1.00  0.00     0.053 C 
BRANCH  14  15
ATOM     15  C   UNL     1     140.605 135.407 131.146  1.00  0.00     0.041 C 
ATOM     16  O   UNL     1     140.768 135.128 129.929  1.00  0.00    -0.550 OA
ATOM     17  O   UNL     1     140.992 134.493 132.120  1.00  0.00    -0.550 OA
ENDBRANCH  14  15
ENDBRANCH  13  14
ENDBRANCH  12  13
ENDBRANCH  11  12
ENDBRANCH  10  11
ENDBRANCH   9  10
ENDBRANCH   8   9
ENDBRANCH   7   8
ENDBRANCH   6   7
ENDBRANCH   5   6
ENDBRANCH   4   5
ENDBRANCH   3   4
ENDBRANCH   2   3
ENDBRANCH   1   2
BRANCH   1  18
ATOM     18  C   UNL     1     138.282 132.768 131.037  1.00  0.00     0.000 C 
BRANCH  18  19
ATOM     19  C   UNL     1     137.540 133.774 130.148  1.00  0.00     0.000 C 
BRANCH  19  20
ATOM     20  C   UNL     1     138.091 133.740 128.716  1.00  0.00     0.000 C 
BRANCH  20  21
ATOM     21  C   UNL     1     137.004 133.466 127.661  1.00  0.00     0.000 C 
BRANCH  21  22
ATOM     22  C   UNL     1     137.098 132.090 126.968  1.00  0.00     0.000 C 
BRANCH  22  23
ATOM     23  C   UNL     1     136.887 130.874 127.890  1.00  0.00     0.000 C 
BRANCH  23  24
ATOM     24  C   UNL     1     138.160 130.336 128.572  1.00  0.00    -0.000 C 
BRANCH  24  25
ATOM     25  C   UNL     1     137.887 129.434 129.796  1.00  0.00    -0.000 C 
BRANCH  25  26
ATOM     26  C   UNL     1     136.448 129.562 130.319  1.00  0.00    -0.000 C 
BRANCH  26  27
ATOM     27  C   UNL     1     135.727 128.205 130.287  1.00  0.00    -0.000 C 
BRANCH  27  28
ATOM     28  C   UNL     1     136.698 127.013 130.323  1.00  0.00    -0.000 C 
BRANCH  28  29
ATOM     29  C   UNL     1     136.065 125.668 130.727  1.00  0.00    -0.000 C 
BRANCH  29  30
ATOM     30  C   UNL     1     137.058 124.484 130.719  1.00  0.00    -0.000 C 
BRANCH  30  31
ATOM     31  C   UNL     1     136.956 123.625 131.988  1.00  0.00    -0.003 C 
ATOM     32  C   UNL     1     137.292 122.166 131.697  1.00  0.00     0.004 C 
ENDBRANCH  30  31
ENDBRANCH  29  30
ENDBRANCH  28  29
ENDBRANCH  27  28
ENDBRANCH  26  27
ENDBRANCH  25  26
ENDBRANCH  24  25
ENDBRANCH  23  24
ENDBRANCH  22  23
ENDBRANCH  21  22
ENDBRANCH  20  21
ENDBRANCH  19  20
ENDBRANCH  18  19
ENDBRANCH   1  18
TORSDOF 28
ENDMDL
MODEL 5
REMARK VINA RESULT:    -3.770      6.855     10.264
REMARK INTER + INTRA:         -14.048
REMARK INTER:                 -10.827
REMARK INTRA:                  -3.221
REMARK UNBOUND:                -4.106
REMARK SMILES CCCCCCCCCCCCCCCCCCCCCCCCCCCCCC(=O)[O-]
REMARK SMILES IDX 16 1 17 2 18 3 19 4 20 5 21 6 22 7 23 8 24 9 25 10 26 11
REMARK SMILES IDX 27 12 28 13 29 14 30 15 31 16 32 17 15 18 14 19 13 20 12 21
REMARK SMILES IDX 11 22 10 23 9 24 8 25 7 26 6 27 5 28 4 29 3 30 2 31 1 32
REMARK H PARENT
REMARK Flexibility Score: inf
ROOT
ATOM      1  C   UNL     1     135.467 135.283 129.662  1.00  0.00     0.000 C 
ENDROOT
BRANCH   1   2
ATOM      2  C   UNL     1     135.463 134.019 128.780  1.00  0.00     0.000 C 
BRANCH   2   3
ATOM      3  C   UNL     1     136.783 133.719 128.038  1.00  0.00     0.000 C 
BRANCH   3   4
ATOM      4  C   UNL     1     136.628 132.898 126.736  1.00  0.00     0.000 C 
BRANCH   4   5
ATOM      5  C   UNL     1     136.297 133.750 125.496  1.00  0.00     0.000 C 
BRANCH   5   6
ATOM      6  C   UNL     1     136.616 133.047 124.159  1.00  0.00     0.000 C 
BRANCH   6   7
ATOM      7  C   UNL     1     136.943 134.014 123.002  1.00  0.00     0.000 C 
BRANCH   7   8
ATOM      8  C   UNL     1     136.919 133.402 121.582  1.00  0.00     0.000 C 
BRANCH   8   9
ATOM      9  C   UNL     1     136.949 134.401 120.403  1.00  0.00     0.000 C 
BRANCH   9  10
ATOM     10  C   UNL     1     137.498 135.797 120.750  1.00  0.00     0.000 C 
BRANCH  10  11
ATOM     11  C   UNL     1     137.712 136.697 119.518  1.00  0.00     0.000 C 
BRANCH  11  12
ATOM     12  C   UNL     1     138.182 135.922 118.267  1.00  0.00     0.000 C 
BRANCH  12  13
ATOM     13  C   UNL     1     139.329 136.606 117.498  1.00  0.00     0.006 C 
BRANCH  13  14
ATOM     14  C   UNL     1     140.704 136.494 118.168  1.00  0.00     0.053 C 
BRANCH  14  15
ATOM     15  C   UNL     1     141.697 135.783 117.300  1.00  0.00     0.041 C 
ATOM     16  O   UNL     1     142.920 135.785 117.600  1.00  0.00    -0.550 OA
ATOM     17  O   UNL     1     141.275 135.150 116.136  1.00  0.00    -0.550 OA
ENDBRANCH  14  15
ENDBRANCH  13  14
ENDBRANCH  12  13
ENDBRANCH  11  12
ENDBRANCH  10  11
ENDBRANCH   9  10
ENDBRANCH   8   9
ENDBRANCH   7   8
ENDBRANCH   6   7
ENDBRANCH   5   6
ENDBRANCH   4   5
ENDBRANCH   3   4
ENDBRANCH   2   3
ENDBRANCH   1   2
BRANCH   1  18
ATOM     18  C   UNL     1     136.686 135.366 130.591  1.00  0.00     0.000 C 
BRANCH  18  19
ATOM     19  C   UNL     1     137.197 136.808 130.707  1.00  0.00     0.000 C 
BRANCH  19  20
ATOM     20  C   UNL     1     138.715 136.828 130.931  1.00  0.00     0.000 C 
BRANCH  20  21
ATOM     21  C   UNL     1     139.514 136.457 129.668  1.00  0.00     0.000 C 
BRANCH  21  22
ATOM     22  C   UNL     1     140.372 135.180 129.789  1.00  0.00     0.000 C 
BRANCH  22  23
ATOM     23  C   UNL     1     140.658 134.714 131.230  1.00  0.00     0.000 C 
BRANCH  23  24
ATOM     24  C   UNL     1     140.102 133.324 131.595  1.00  0.00    -0.000 C 
BRANCH  24  25
ATOM     25  C   UNL     1     139.158 132.722 130.531  1.00  0.00    -0.000 C 
BRANCH  25  26
ATOM     26  C   UNL     1     139.712 131.434 129.905  1.00  0.00    -0.000 C 
BRANCH  26  27
ATOM     27  C   UNL     1     138.679 130.787 128.968  1.00  0.00    -0.000 C 
BRANCH  27  28
ATOM     28  C   UNL     1     137.654 129.920 129.719  1.00  0.00    -0.000 C 
BRANCH  28  29
ATOM     29  C   UNL     1     136.383 130.661 130.177  1.00  0.00    -0.000 C 
BRANCH  29  30
ATOM     30  C   UNL     1     135.177 130.472 129.231  1.00  0.00    -0.000 C 
BRANCH  30  31
ATOM     31  C   UNL     1     133.842 130.825 129.905  1.00  0.00    -0.003 C 
ATOM     32  C   UNL     1     134.036 131.865 131.003  1.00  0.00     0.004 C 
ENDBRANCH  30  31
ENDBRANCH  29  30
ENDBRANCH  28  29
ENDBRANCH  27  28
ENDBRANCH  26  27
ENDBRANCH  25  26
ENDBRANCH  24  25
ENDBRANCH  23  24
ENDBRANCH  22  23
ENDBRANCH  21  22
ENDBRANCH  20  21
ENDBRANCH  19  20
ENDBRANCH  18  19
ENDBRANCH   1  18
TORSDOF 28
ENDMDL
MODEL 6
REMARK VINA RESULT:    -3.762      3.582      7.370
REMARK INTER + INTRA:         -14.027
REMARK INTER:                  -9.462
REMARK INTRA:                  -4.565
REMARK UNBOUND:                -4.106
REMARK SMILES CCCCCCCCCCCCCCCCCCCCCCCCCCCCCC(=O)[O-]
REMARK SMILES IDX 16 1 17 2 18 3 19 4 20 5 21 6 22 7 23 8 24 9 25 10 26 11
REMARK SMILES IDX 27 12 28 13 29 14 30 15 31 16 32 17 15 18 14 19 13 20 12 21
REMARK SMILES IDX 11 22 10 23 9 24 8 25 7 26 6 27 5 28 4 29 3 30 2 31 1 32
REMARK H PARENT
REMARK Flexibility Score: inf
ROOT
ATOM      1  C   UNL     1     134.734 133.740 128.550  1.00  0.00     0.000 C 
ENDROOT
BRANCH   1   2
ATOM      2  C   UNL     1     134.336 134.806 129.591  1.00  0.00     0.000 C 
BRANCH   2   3
ATOM      3  C   UNL     1     135.363 135.936 129.816  1.00  0.00     0.000 C 
BRANCH   3   4
ATOM      4  C   UNL     1     134.762 137.279 130.292  1.00  0.00     0.000 C 
BRANCH   4   5
ATOM      5  C   UNL     1     134.976 138.443 129.306  1.00  0.00     0.000 C 
BRANCH   5   6
ATOM      6  C   UNL     1     135.711 139.652 129.924  1.00  0.00     0.000 C 
BRANCH   6   7
ATOM      7  C   UNL     1     136.983 139.279 130.715  1.00  0.00     0.000 C 
BRANCH   7   8
ATOM      8  C   UNL     1     138.283 139.159 129.886  1.00  0.00     0.000 C 
BRANCH   8   9
ATOM      9  C   UNL     1     139.154 137.910 130.152  1.00  0.00     0.000 C 
BRANCH   9  10
ATOM     10  C   UNL     1     138.493 136.833 131.033  1.00  0.00     0.000 C 
BRANCH  10  11
ATOM     11  C   UNL     1     138.343 135.471 130.330  1.00  0.00     0.000 C 
BRANCH  11  12
ATOM     12  C   UNL     1     139.539 135.117 129.419  1.00  0.00     0.000 C 
BRANCH  12  13
ATOM     13  C   UNL     1     140.744 134.514 130.168  1.00  0.00     0.006 C 
BRANCH  13  14
ATOM     14  C   UNL     1     140.393 133.825 131.492  1.00  0.00     0.053 C 
BRANCH  14  15
ATOM     15  C   UNL     1     141.177 134.381 132.641  1.00  0.00     0.041 C 
ATOM     16  O   UNL     1     141.501 135.598 132.658  1.00  0.00    -0.550 OA
ATOM     17  O   UNL     1     141.584 133.546 133.675  1.00  0.00    -0.550 OA
ENDBRANCH  14  15
ENDBRANCH  13  14
ENDBRANCH  12  13
ENDBRANCH  11  12
ENDBRANCH  10  11
ENDBRANCH   9  10
ENDBRANCH   8   9
ENDBRANCH   7   8
ENDBRANCH   6   7
ENDBRANCH   5   6
ENDBRANCH   4   5
ENDBRANCH   3   4
ENDBRANCH   2   3
ENDBRANCH   1   2
BRANCH   1  18
ATOM     18  C   UNL     1     136.253 133.617 128.364  1.00  0.00     0.000 C 
BRANCH  18  19
ATOM     19  C   UNL     1     136.617 133.437 126.885  1.00  0.00     0.000 C 
BRANCH  19  20
ATOM     20  C   UNL     1     137.008 131.981 126.598  1.00  0.00     0.000 C 
BRANCH  20  21
ATOM     21  C   UNL     1     137.076 131.115 127.869  1.00  0.00     0.000 C 
BRANCH  21  22
ATOM     22  C   UNL     1     138.494 130.669 128.281  1.00  0.00     0.000 C 
BRANCH  22  23
ATOM     23  C   UNL     1     138.875 130.959 129.746  1.00  0.00     0.000 C 
BRANCH  23  24
ATOM     24  C   UNL     1     137.724 131.462 130.639  1.00  0.00    -0.000 C 
BRANCH  24  25
ATOM     25  C   UNL     1     138.120 131.679 132.115  1.00  0.00    -0.000 C 
BRANCH  25  26
ATOM     26  C   UNL     1     137.014 132.365 132.933  1.00  0.00    -0.000 C 
BRANCH  26  27
ATOM     27  C   UNL     1     135.831 132.762 132.036  1.00  0.00    -0.000 C 
BRANCH  27  28
ATOM     28  C   UNL     1     134.471 132.361 132.631  1.00  0.00    -0.000 C 
BRANCH  28  29
ATOM     29  C   UNL     1     133.501 131.684 131.644  1.00  0.00    -0.000 C 
BRANCH  29  30
ATOM     30  C   UNL     1     134.144 131.322 130.287  1.00  0.00    -0.000 C 
BRANCH  30  31
ATOM     31  C   UNL     1     133.837 129.879 129.859  1.00  0.00    -0.003 C 
ATOM     32  C   UNL     1     135.025 128.961 130.119  1.00  0.00     0.004 C 
ENDBRANCH  30  31
ENDBRANCH  29  30
ENDBRANCH  28  29
ENDBRANCH  27  28
ENDBRANCH  26  27
ENDBRANCH  25  26
ENDBRANCH  24  25
ENDBRANCH  23  24
ENDBRANCH  22  23
ENDBRANCH  21  22
ENDBRANCH  20  21
ENDBRANCH  19  20
ENDBRANCH  18  19
ENDBRANCH   1  18
TORSDOF 28
ENDMDL
MODEL 7
REMARK VINA RESULT:    -3.624      6.652      9.043
REMARK INTER + INTRA:         -13.662
REMARK INTER:                 -11.189
REMARK INTRA:                  -2.473
REMARK UNBOUND:                -4.106
REMARK SMILES CCCCCCCCCCCCCCCCCCCCCCCCCCCCCC(=O)[O-]
REMARK SMILES IDX 16 1 17 2 18 3 19 4 20 5 21 6 22 7 23 8 24 9 25 10 26 11
REMARK SMILES IDX 27 12 28 13 29 14 30 15 31 16 32 17 15 18 14 19 13 20 12 21
REMARK SMILES IDX 11 22 10 23 9 24 8 25 7 26 6 27 5 28 4 29 3 30 2 31 1 32
REMARK H PARENT
REMARK Flexibility Score: inf
ROOT
ATOM      1  C   UNL     1     136.229 133.875 125.176  1.00  0.00     0.000 C 
ENDROOT
BRANCH   1   2
ATOM      2  C   UNL     1     136.930 133.721 123.811  1.00  0.00     0.000 C 
BRANCH   2   3
ATOM      3  C   UNL     1     136.626 134.827 122.776  1.00  0.00     0.000 C 
BRANCH   3   4
ATOM      4  C   UNL     1     137.274 134.618 121.388  1.00  0.00     0.000 C 
BRANCH   4   5
ATOM      5  C   UNL     1     137.383 135.905 120.550  1.00  0.00     0.000 C 
BRANCH   5   6
ATOM      6  C   UNL     1     138.405 135.808 119.396  1.00  0.00     0.000 C 
BRANCH   6   7
ATOM      7  C   UNL     1     137.807 136.084 118.000  1.00  0.00     0.000 C 
BRANCH   7   8
ATOM      8  C   UNL     1     137.504 134.837 117.136  1.00  0.00     0.000 C 
BRANCH   8   9
ATOM      9  C   UNL     1     136.488 133.829 117.719  1.00  0.00     0.000 C 
BRANCH   9  10
ATOM     10  C   UNL     1     136.188 132.616 116.818  1.00  0.00     0.000 C 
BRANCH  10  11
ATOM     11  C   UNL     1     136.555 131.266 117.463  1.00  0.00     0.000 C 
BRANCH  11  12
ATOM     12  C   UNL     1     136.179 130.048 116.591  1.00  0.00     0.000 C 
BRANCH  12  13
ATOM     13  C   UNL     1     134.792 129.454 116.904  1.00  0.00     0.006 C 
BRANCH  13  14
ATOM     14  C   UNL     1     134.806 128.285 117.896  1.00  0.00     0.053 C 
BRANCH  14  15
ATOM     15  C   UNL     1     134.302 128.689 119.248  1.00  0.00     0.041 C 
ATOM     16  O   UNL     1     135.111 129.017 120.155  1.00  0.00    -0.550 OA
ATOM     17  O   UNL     1     132.939 128.664 119.517  1.00  0.00    -0.550 OA
ENDBRANCH  14  15
ENDBRANCH  13  14
ENDBRANCH  12  13
ENDBRANCH  11  12
ENDBRANCH  10  11
ENDBRANCH   9  10
ENDBRANCH   8   9
ENDBRANCH   7   8
ENDBRANCH   6   7
ENDBRANCH   5   6
ENDBRANCH   4   5
ENDBRANCH   3   4
ENDBRANCH   2   3
ENDBRANCH   1   2
BRANCH   1  18
ATOM     18  C   UNL     1     136.687 132.836 126.208  1.00  0.00     0.000 C 
BRANCH  18  19
ATOM     19  C   UNL     1     136.860 133.471 127.593  1.00  0.00     0.000 C 
BRANCH  19  20
ATOM     20  C   UNL     1     135.971 132.767 128.627  1.00  0.00     0.000 C 
BRANCH  20  21
ATOM     21  C   UNL     1     136.029 131.232 128.523  1.00  0.00     0.000 C 
BRANCH  21  22
ATOM     22  C   UNL     1     136.229 130.493 129.863  1.00  0.00     0.000 C 
BRANCH  22  23
ATOM     23  C   UNL     1     137.633 129.898 130.083  1.00  0.00     0.000 C 
BRANCH  23  24
ATOM     24  C   UNL     1     138.733 130.444 129.151  1.00  0.00    -0.000 C 
BRANCH  24  25
ATOM     25  C   UNL     1     139.705 131.432 129.832  1.00  0.00    -0.000 C 
BRANCH  25  26
ATOM     26  C   UNL     1     138.978 132.521 130.636  1.00  0.00    -0.000 C 
BRANCH  26  27
ATOM     27  C   UNL     1     139.919 133.694 130.952  1.00  0.00    -0.000 C 
BRANCH  27  28
ATOM     28  C   UNL     1     140.254 134.541 129.713  1.00  0.00    -0.000 C 
BRANCH  28  29
ATOM     29  C   UNL     1     140.020 136.055 129.874  1.00  0.00    -0.000 C 
BRANCH  29  30
ATOM     30  C   UNL     1     139.100 136.420 131.061  1.00  0.00    -0.000 C 
BRANCH  30  31
ATOM     31  C   UNL     1     137.771 137.039 130.604  1.00  0.00    -0.003 C 
ATOM     32  C   UNL     1     136.662 135.993 130.557  1.00  0.00     0.004 C 
ENDBRANCH  30  31
ENDBRANCH  29  30
ENDBRANCH  28  29
ENDBRANCH  27  28
ENDBRANCH  26  27
ENDBRANCH  25  26
ENDBRANCH  24  25
ENDBRANCH  23  24
ENDBRANCH  22  23
ENDBRANCH  21  22
ENDBRANCH  20  21
ENDBRANCH  19  20
ENDBRANCH  18  19
ENDBRANCH   1  18
TORSDOF 28
ENDMDL
MODEL 8
REMARK VINA RESULT:    -3.617      7.138     10.754
REMARK INTER + INTRA:         -13.644
REMARK INTER:                 -10.566
REMARK INTRA:                  -3.078
REMARK UNBOUND:                -4.106
REMARK SMILES CCCCCCCCCCCCCCCCCCCCCCCCCCCCCC(=O)[O-]
REMARK SMILES IDX 16 1 17 2 18 3 19 4 20 5 21 6 22 7 23 8 24 9 25 10 26 11
REMARK SMILES IDX 27 12 28 13 29 14 30 15 31 16 32 17 15 18 14 19 13 20 12 21
REMARK SMILES IDX 11 22 10 23 9 24 8 25 7 26 6 27 5 28 4 29 3 30 2 31 1 32
REMARK H PARENT
REMARK Flexibility Score: inf
ROOT
ATOM      1  C   UNL     1     136.246 133.497 125.898  1.00  0.00     0.000 C 
ENDROOT
BRANCH   1   2
ATOM      2  C   UNL     1     137.173 132.851 126.947  1.00  0.00     0.000 C 
BRANCH   2   3
ATOM      3  C   UNL     1     136.891 131.367 127.265  1.00  0.00     0.000 C 
BRANCH   3   4
ATOM      4  C   UNL     1     137.480 130.862 128.602  1.00  0.00     0.000 C 
BRANCH   4   5
ATOM      5  C   UNL     1     136.417 130.503 129.658  1.00  0.00     0.000 C 
BRANCH   5   6
ATOM      6  C   UNL     1     134.967 130.619 129.142  1.00  0.00     0.000 C 
BRANCH   6   7
ATOM      7  C   UNL     1     133.964 131.138 130.194  1.00  0.00     0.000 C 
BRANCH   7   8
ATOM      8  C   UNL     1     134.284 132.521 130.809  1.00  0.00     0.000 C 
BRANCH   8   9
ATOM      9  C   UNL     1     134.473 133.688 129.813  1.00  0.00     0.000 C 
BRANCH   9  10
ATOM     10  C   UNL     1     135.869 134.336 129.830  1.00  0.00     0.000 C 
BRANCH  10  11
ATOM     11  C   UNL     1     136.773 133.818 130.965  1.00  0.00     0.000 C 
BRANCH  11  12
ATOM     12  C   UNL     1     138.266 133.745 130.574  1.00  0.00     0.000 C 
BRANCH  12  13
ATOM     13  C   UNL     1     138.707 134.829 129.571  1.00  0.00     0.006 C 
BRANCH  13  14
ATOM     14  C   UNL     1     139.573 135.943 130.174  1.00  0.00     0.053 C 
BRANCH  14  15
ATOM     15  C   UNL     1     138.836 137.245 130.255  1.00  0.00     0.041 C 
ATOM     16  O   UNL     1     139.438 138.330 130.041  1.00  0.00    -0.550 OA
ATOM     17  O   UNL     1     137.491 137.262 130.606  1.00  0.00    -0.550 OA
ENDBRANCH  14  15
ENDBRANCH  13  14
ENDBRANCH  12  13
ENDBRANCH  11  12
ENDBRANCH  10  11
ENDBRANCH   9  10
ENDBRANCH   8   9
ENDBRANCH   7   8
ENDBRANCH   6   7
ENDBRANCH   5   6
ENDBRANCH   4   5
ENDBRANCH   3   4
ENDBRANCH   2   3
ENDBRANCH   1   2
BRANCH   1  18
ATOM     18  C   UNL     1     136.735 133.298 124.457  1.00  0.00     0.000 C 
BRANCH  18  19
ATOM     19  C   UNL     1     136.654 134.605 123.659  1.00  0.00     0.000 C 
BRANCH  19  20
ATOM     20  C   UNL     1     137.049 134.370 122.195  1.00  0.00     0.000 C 
BRANCH  20  21
ATOM     21  C   UNL     1     137.164 135.675 121.387  1.00  0.00     0.000 C 
BRANCH  21  22
ATOM     22  C   UNL     1     137.653 135.503 119.933  1.00  0.00     0.000 C 
BRANCH  22  23
ATOM     23  C   UNL     1     139.030 136.122 119.624  1.00  0.00     0.000 C 
BRANCH  23  24
ATOM     24  C   UNL     1     139.285 136.455 118.141  1.00  0.00    -0.000 C 
BRANCH  24  25
ATOM     25  C   UNL     1     139.090 135.259 117.184  1.00  0.00    -0.000 C 
BRANCH  25  26
ATOM     26  C   UNL     1     138.071 135.548 116.071  1.00  0.00    -0.000 C 
BRANCH  26  27
ATOM     27  C   UNL     1     137.256 134.291 115.729  1.00  0.00    -0.000 C 
BRANCH  27  28
ATOM     28  C   UNL     1     136.641 133.624 116.971  1.00  0.00    -0.000 C 
BRANCH  28  29
ATOM     29  C   UNL     1     135.962 132.265 116.713  1.00  0.00    -0.000 C 
BRANCH  29  30
ATOM     30  C   UNL     1     136.700 131.068 117.352  1.00  0.00    -0.000 C 
BRANCH  30  31
ATOM     31  C   UNL     1     136.203 129.718 116.813  1.00  0.00    -0.003 C 
ATOM     32  C   UNL     1     134.796 129.836 116.239  1.00  0.00     0.004 C 
ENDBRANCH  30  31
ENDBRANCH  29  30
ENDBRANCH  28  29
ENDBRANCH  27  28
ENDBRANCH  26  27
ENDBRANCH  25  26
ENDBRANCH  24  25
ENDBRANCH  23  24
ENDBRANCH  22  23
ENDBRANCH  21  22
ENDBRANCH  20  21
ENDBRANCH  19  20
ENDBRANCH  18  19
ENDBRANCH   1  18
TORSDOF 28
ENDMDL
MODEL 9
REMARK VINA RESULT:    -3.563      6.448     10.586
REMARK INTER + INTRA:         -13.503
REMARK INTER:                 -10.759
REMARK INTRA:                  -2.743
REMARK UNBOUND:                -4.106
REMARK SMILES CCCCCCCCCCCCCCCCCCCCCCCCCCCCCC(=O)[O-]
REMARK SMILES IDX 16 1 17 2 18 3 19 4 20 5 21 6 22 7 23 8 24 9 25 10 26 11
REMARK SMILES IDX 27 12 28 13 29 14 30 15 31 16 32 17 15 18 14 19 13 20 12 21
REMARK SMILES IDX 11 22 10 23 9 24 8 25 7 26 6 27 5 28 4 29 3 30 2 31 1 32
REMARK H PARENT
REMARK Flexibility Score: inf
ROOT
ATOM      1  C   UNL     1     136.421 133.485 126.586  1.00  0.00     0.000 C 
ENDROOT
BRANCH   1   2
ATOM      2  C   UNL     1     136.726 132.327 127.557  1.00  0.00     0.000 C 
BRANCH   2   3
ATOM      3  C   UNL     1     137.678 131.238 127.018  1.00  0.00     0.000 C 
BRANCH   3   4
ATOM      4  C   UNL     1     138.494 130.491 128.098  1.00  0.00     0.000 C 
BRANCH   4   5
ATOM      5  C   UNL     1     137.813 130.449 129.478  1.00  0.00     0.000 C 
BRANCH   5   6
ATOM      6  C   UNL     1     138.686 131.018 130.618  1.00  0.00     0.000 C 
BRANCH   6   7
ATOM      7  C   UNL     1     139.537 132.238 130.210  1.00  0.00     0.000 C 
BRANCH   7   8
ATOM      8  C   UNL     1     139.998 133.157 131.366  1.00  0.00     0.000 C 
BRANCH   8   9
ATOM      9  C   UNL     1     140.261 134.637 131.003  1.00  0.00     0.000 C 
BRANCH   9  10
ATOM     10  C   UNL     1     140.116 134.973 129.507  1.00  0.00     0.000 C 
BRANCH  10  11
ATOM     11  C   UNL     1     138.705 135.451 129.119  1.00  0.00     0.000 C 
BRANCH  11  12
ATOM     12  C   UNL     1     137.750 135.589 130.325  1.00  0.00     0.000 C 
BRANCH  12  13
ATOM     13  C   UNL     1     136.377 134.918 130.120  1.00  0.00     0.006 C 
BRANCH  13  14
ATOM     14  C   UNL     1     136.178 133.617 130.908  1.00  0.00     0.053 C 
BRANCH  14  15
ATOM     15  C   UNL     1     134.771 133.111 130.809  1.00  0.00     0.041 C 
ATOM     16  O   UNL     1     134.266 132.450 131.754  1.00  0.00    -0.550 OA
ATOM     17  O   UNL     1     134.030 133.337 129.655  1.00  0.00    -0.550 OA
ENDBRANCH  14  15
ENDBRANCH  13  14
ENDBRANCH  12  13
ENDBRANCH  11  12
ENDBRANCH  10  11
ENDBRANCH   9  10
ENDBRANCH   8   9
ENDBRANCH   7   8
ENDBRANCH   6   7
ENDBRANCH   5   6
ENDBRANCH   4   5
ENDBRANCH   3   4
ENDBRANCH   2   3
ENDBRANCH   1   2
BRANCH   1  18
ATOM     18  C   UNL     1     136.602 133.100 125.112  1.00  0.00     0.000 C 
BRANCH  18  19
ATOM     19  C   UNL     1     136.623 134.343 124.213  1.00  0.00     0.000 C 
BRANCH  19  20
ATOM     20  C   UNL     1     136.987 133.962 122.772  1.00  0.00     0.000 C 
BRANCH  20  21
ATOM     21  C   UNL     1     137.010 135.171 121.819  1.00  0.00     0.000 C 
BRANCH  21  22
ATOM     22  C   UNL     1     137.151 134.821 120.322  1.00  0.00     0.000 C 
BRANCH  22  23
ATOM     23  C   UNL     1     137.795 135.914 119.448  1.00  0.00     0.000 C 
BRANCH  23  24
ATOM     24  C   UNL     1     137.903 135.579 117.948  1.00  0.00    -0.000 C 
BRANCH  24  25
ATOM     25  C   UNL     1     137.062 134.360 117.511  1.00  0.00    -0.000 C 
BRANCH  25  26
ATOM     26  C   UNL     1     137.036 134.172 115.986  1.00  0.00    -0.000 C 
BRANCH  26  27
ATOM     27  C   UNL     1     136.688 132.721 115.616  1.00  0.00    -0.000 C 
BRANCH  27  28
ATOM     28  C   UNL     1     135.943 131.981 116.739  1.00  0.00    -0.000 C 
BRANCH  28  29
ATOM     29  C   UNL     1     136.624 130.691 117.234  1.00  0.00    -0.000 C 
BRANCH  29  30
ATOM     30  C   UNL     1     135.975 129.397 116.693  1.00  0.00    -0.000 C 
BRANCH  30  31
ATOM     31  C   UNL     1     135.015 128.755 117.707  1.00  0.00    -0.003 C 
ATOM     32  C   UNL     1     133.561 129.027 117.339  1.00  0.00     0.004 C 
ENDBRANCH  30  31
ENDBRANCH  29  30
ENDBRANCH  28  29
ENDBRANCH  27  28
ENDBRANCH  26  27
ENDBRANCH  25  26
ENDBRANCH  24  25
ENDBRANCH  23  24
ENDBRANCH  22  23
ENDBRANCH  21  22
ENDBRANCH  20  21
ENDBRANCH  19  20
ENDBRANCH  18  19
ENDBRANCH   1  18
TORSDOF 28
ENDMDL
